MODEL 1
REMARK VINA RESULT: -8.502519134      0.000      0.000
REMARK  7 active torsions:
REMARK  status: ('A' for Active; 'I' for Inactive)
REMARK    1  A    between atoms: C2_2  and  O1_4 
REMARK    2  A    between atoms: O1_4  and  C3_5 
REMARK    3  A    between atoms: C6_9  and  N1_10 
REMARK    4  A    between atoms: N1_10  and  C7_12 
REMARK    5  A    between atoms: N5_25  and  C14_26 
REMARK    6  A    between atoms: C14_26  and  C15_27 
REMARK    7  A    between atoms: C24_36  and  N6_37 
ROOT
HETATM    1  C7  UNL     1     -26.854  -1.950 -28.783  1.00  0.00     0.115 A 
HETATM    2  N2  UNL     1     -25.781  -1.663 -29.531  1.00  0.00    -0.338 N 
ATOM      3  H2  UNL     1     -25.753  -0.766 -30.013  1.00  0.00     0.168 HD
HETATM    4  C8  UNL     1     -24.732  -2.506 -29.678  1.00  0.00     0.182 A 
HETATM    5  N3  UNL     1     -24.716  -3.699 -29.066  1.00  0.00    -0.351 N 
ATOM      6  H3  UNL     1     -23.926  -4.335 -29.176  1.00  0.00     0.166 HD
HETATM    7  C9  UNL     1     -25.774  -4.034 -28.301  1.00  0.00     0.056 A 
HETATM    8  C10 UNL     1     -26.851  -3.194 -28.138  1.00  0.00     0.014 A 
HETATM    9  C11 UNL     1     -28.005  -3.553 -27.318  1.00  0.00     0.051 A 
HETATM   10  C12 UNL     1     -27.971  -4.851 -26.616  1.00  0.00     0.064 A 
HETATM   11  C13 UNL     1     -26.778  -5.685 -26.854  1.00  0.00     0.040 A 
HETATM   12  N4  UNL     1     -26.464  -6.923 -26.373  1.00  0.00    -0.302 N 
ATOM     13  H4  UNL     1     -27.048  -7.477 -25.747  1.00  0.00     0.186 HD
HETATM   14  N5  UNL     1     -25.292  -7.292 -26.841  1.00  0.00    -0.302 N 
HETATM   15  C21 UNL     1     -24.771  -6.347 -27.639  1.00  0.00     0.126 A 
HETATM   16  C22 UNL     1     -25.711  -5.338 -27.643  1.00  0.00     0.032 A 
ENDROOT
BRANCH   1  17
HETATM   17  N1  UNL     1     -27.866  -1.182 -28.612  1.00  0.00    -0.342 N 
ATOM     18  H1  UNL     1     -28.777  -1.528 -28.913  1.00  0.00     0.167 HD
BRANCH  17  19
HETATM   19  C6  UNL     1     -27.815   0.095 -28.044  1.00  0.00     0.037 A 
HETATM   20  C5  UNL     1     -28.128   1.214 -28.781  1.00  0.00     0.056 A 
HETATM   21  C4  UNL     1     -28.081   2.486 -28.234  1.00  0.00     0.072 A 
HETATM   22  C3  UNL     1     -27.711   2.661 -26.912  1.00  0.00     0.125 A 
HETATM   23 CL2  UNL     1     -28.516   3.839 -29.251  1.00  0.00    -0.081 Cl
HETATM   24  C24 UNL     1     -27.395   1.577 -26.149  1.00  0.00     0.140 A 
HETATM   25  C23 UNL     1     -27.452   0.295 -26.736  1.00  0.00     0.068 A 
BRANCH  22  26
HETATM   26  O1  UNL     1     -27.665   3.940 -26.390  1.00  0.00    -0.327 OA
BRANCH  26  27
HETATM   27  C2  UNL     1     -28.752   4.547 -25.722  1.00  0.00     0.220 C 
HETATM   28  C1  UNL     1     -29.942   3.685 -25.488  1.00  0.00     0.057 C 
HETATM   29 CL1  UNL     1     -29.324   5.891 -26.781  1.00  0.00    -0.095 Cl
ENDBRANCH  26  27
ENDBRANCH  22  26
BRANCH  24  30
HETATM   30  N6  UNL     1     -27.032   1.635 -24.786  1.00  0.00    -0.113 N 
HETATM   31  O2  UNL     1     -27.819   1.337 -23.894  1.00  0.00    -0.532 OA
HETATM   32  O3  UNL     1     -25.753   1.994 -24.456  1.00  0.00    -0.532 OA
ENDBRANCH  24  30
ENDBRANCH  17  19
ENDBRANCH   1  17
BRANCH  14  33
HETATM   33  C14 UNL     1     -24.645  -8.543 -26.537  1.00  0.00     0.152 C 
BRANCH  33  34
HETATM   34  C15 UNL     1     -23.345  -8.302 -25.749  1.00  0.00     0.005 C 
HETATM   35  C16 UNL     1     -23.634  -8.001 -24.338  1.00  0.00     0.006 C 
HETATM   36  C17 UNL     1     -22.679  -8.541 -23.326  1.00  0.00     0.000 C 
HETATM   37  C18 UNL     1     -22.067  -9.852 -23.686  1.00  0.00     0.000 C 
HETATM   38  C19 UNL     1     -21.359  -9.658 -25.014  1.00  0.00     0.000 C 
HETATM   39  C20 UNL     1     -22.430  -9.424 -26.044  1.00  0.00     0.006 C 
ENDBRANCH  33  34
ENDBRANCH  14  33
TORSDOF 7
ENDMDL
MODEL 2
REMARK VINA RESULT: -8.398721202      2.135      2.557
REMARK  7 active torsions:
REMARK  status: ('A' for Active; 'I' for Inactive)
REMARK    1  A    between atoms: C2_2  and  O1_4 
REMARK    2  A    between atoms: O1_4  and  C3_5 
REMARK    3  A    between atoms: C6_9  and  N1_10 
REMARK    4  A    between atoms: N1_10  and  C7_12 
REMARK    5  A    between atoms: N5_25  and  C14_26 
REMARK    6  A    between atoms: C14_26  and  C15_27 
REMARK    7  A    between atoms: C24_36  and  N6_37 
ROOT
HETATM    1  C7  UNL     1     -27.072  -1.834 -29.188  1.00  0.00     0.115 A 
HETATM    2  N2  UNL     1     -25.817  -1.744 -29.645  1.00  0.00    -0.338 N 
ATOM      3  H2  UNL     1     -25.617  -1.068 -30.382  1.00  0.00     0.168 HD
HETATM    4  C8  UNL     1     -24.800  -2.505 -29.178  1.00  0.00     0.182 A 
HETATM    5  N3  UNL     1     -25.006  -3.410 -28.209  1.00  0.00    -0.351 N 
ATOM      6  H3  UNL     1     -24.240  -3.984 -27.857  1.00  0.00     0.166 HD
HETATM    7  C9  UNL     1     -26.253  -3.537 -27.716  1.00  0.00     0.056 A 
HETATM    8  C10 UNL     1     -27.302  -2.775 -28.176  1.00  0.00     0.014 A 
HETATM    9  C11 UNL     1     -28.659  -2.913 -27.653  1.00  0.00     0.051 A 
HETATM   10  C12 UNL     1     -28.877  -3.884 -26.562  1.00  0.00     0.064 A 
HETATM   11  C13 UNL     1     -27.696  -4.659 -26.137  1.00  0.00     0.040 A 
HETATM   12  N4  UNL     1     -27.580  -5.628 -25.183  1.00  0.00    -0.302 N 
ATOM     13  H4  UNL     1     -28.342  -5.973 -24.600  1.00  0.00     0.186 HD
HETATM   14  N5  UNL     1     -26.335  -6.048 -25.133  1.00  0.00    -0.302 N 
HETATM   15  C21 UNL     1     -25.570  -5.400 -26.025  1.00  0.00     0.126 A 
HETATM   16  C22 UNL     1     -26.432  -4.527 -26.654  1.00  0.00     0.032 A 
ENDROOT
BRANCH   1  17
HETATM   17  N1  UNL     1     -28.063  -1.130 -29.597  1.00  0.00    -0.342 N 
ATOM     18  H1  UNL     1     -28.694  -1.555 -30.276  1.00  0.00     0.167 HD
BRANCH  17  19
HETATM   19  C6  UNL     1     -28.343   0.176 -29.183  1.00  0.00     0.037 A 
HETATM   20  C5  UNL     1     -29.340   0.433 -28.270  1.00  0.00     0.056 A 
HETATM   21  C4  UNL     1     -29.631   1.721 -27.851  1.00  0.00     0.072 A 
HETATM   22  C3  UNL     1     -28.914   2.794 -28.351  1.00  0.00     0.125 A 
HETATM   23 CL2  UNL     1     -30.904   1.939 -26.674  1.00  0.00    -0.081 Cl
HETATM   24  C24 UNL     1     -27.918   2.580 -29.256  1.00  0.00     0.140 A 
HETATM   25  C23 UNL     1     -27.646   1.256 -29.663  1.00  0.00     0.068 A 
BRANCH  22  26
HETATM   26  O1  UNL     1     -29.226   4.071 -27.923  1.00  0.00    -0.327 OA
BRANCH  26  27
HETATM   27  C2  UNL     1     -28.655   4.669 -26.777  1.00  0.00     0.220 C 
HETATM   28  C1  UNL     1     -27.899   3.762 -25.872  1.00  0.00     0.057 C 
HETATM   29 CL1  UNL     1     -30.024   5.310 -25.792  1.00  0.00    -0.095 Cl
ENDBRANCH  26  27
ENDBRANCH  22  26
BRANCH  24  30
HETATM   30  N6  UNL     1     -27.106   3.593 -29.809  1.00  0.00    -0.113 N 
HETATM   31  O2  UNL     1     -25.894   3.625 -29.621  1.00  0.00    -0.532 OA
HETATM   32  O3  UNL     1     -27.683   4.540 -30.611  1.00  0.00    -0.532 OA
ENDBRANCH  24  30
ENDBRANCH  17  19
ENDBRANCH   1  17
BRANCH  14  33
HETATM   33  C14 UNL     1     -25.849  -7.066 -24.237  1.00  0.00     0.152 C 
BRANCH  33  34
HETATM   34  C15 UNL     1     -24.316  -7.169 -24.315  1.00  0.00     0.005 C 
HETATM   35  C16 UNL     1     -23.698  -6.809 -23.028  1.00  0.00     0.006 C 
HETATM   36  C17 UNL     1     -22.485  -7.579 -22.626  1.00  0.00     0.000 C 
HETATM   37  C18 UNL     1     -22.475  -9.002 -23.072  1.00  0.00     0.000 C 
HETATM   38  C19 UNL     1     -22.603  -8.990 -24.584  1.00  0.00     0.000 C 
HETATM   39  C20 UNL     1     -23.986  -8.486 -24.896  1.00  0.00     0.006 C 
ENDBRANCH  33  34
ENDBRANCH  14  33
TORSDOF 7
ENDMDL
MODEL 3
REMARK VINA RESULT: -8.296263889      2.183      3.533
REMARK  7 active torsions:
REMARK  status: ('A' for Active; 'I' for Inactive)
REMARK    1  A    between atoms: C2_2  and  O1_4 
REMARK    2  A    between atoms: O1_4  and  C3_5 
REMARK    3  A    between atoms: C6_9  and  N1_10 
REMARK    4  A    between atoms: N1_10  and  C7_12 
REMARK    5  A    between atoms: N5_25  and  C14_26 
REMARK    6  A    between atoms: C14_26  and  C15_27 
REMARK    7  A    between atoms: C24_36  and  N6_37 
ROOT
HETATM    1  C7  UNL     1     -27.698  -4.248 -27.006  1.00  0.00     0.115 A 
HETATM    2  N2  UNL     1     -28.508  -4.317 -25.942  1.00  0.00    -0.338 N 
ATOM      3  H2  UNL     1     -29.276  -3.651 -25.874  1.00  0.00     0.168 HD
HETATM    4  C8  UNL     1     -28.358  -5.228 -24.953  1.00  0.00     0.182 A 
HETATM    5  N3  UNL     1     -27.364  -6.129 -24.991  1.00  0.00    -0.351 N 
ATOM      6  H3  UNL     1     -27.250  -6.816 -24.245  1.00  0.00     0.166 HD
HETATM    7  C9  UNL     1     -26.522  -6.100 -26.042  1.00  0.00     0.056 A 
HETATM    8  C10 UNL     1     -26.655  -5.183 -27.059  1.00  0.00     0.014 A 
HETATM    9  C11 UNL     1     -25.742  -5.138 -28.197  1.00  0.00     0.051 A 
HETATM   10  C12 UNL     1     -24.670  -6.153 -28.256  1.00  0.00     0.064 A 
HETATM   11  C13 UNL     1     -24.603  -7.092 -27.121  1.00  0.00     0.040 A 
HETATM   12  N4  UNL     1     -23.731  -8.113 -26.879  1.00  0.00    -0.302 N 
ATOM     13  H4  UNL     1     -22.956  -8.382 -27.485  1.00  0.00     0.186 HD
HETATM   14  N5  UNL     1     -24.043  -8.697 -25.742  1.00  0.00    -0.302 N 
HETATM   15  C21 UNL     1     -25.112  -8.115 -25.178  1.00  0.00     0.126 A 
HETATM   16  C22 UNL     1     -25.461  -7.105 -26.051  1.00  0.00     0.032 A 
ENDROOT
BRANCH   1  17
HETATM   17  N1  UNL     1     -27.806  -3.406 -27.967  1.00  0.00    -0.342 N 
ATOM     18  H1  UNL     1     -28.009  -3.775 -28.896  1.00  0.00     0.167 HD
BRANCH  17  19
HETATM   19  C6  UNL     1     -27.666  -2.020 -27.837  1.00  0.00     0.037 A 
HETATM   20  C5  UNL     1     -27.464  -1.439 -26.607  1.00  0.00     0.056 A 
HETATM   21  C4  UNL     1     -27.326  -0.068 -26.461  1.00  0.00     0.072 A 
HETATM   22  C3  UNL     1     -27.390   0.759 -27.569  1.00  0.00     0.125 A 
HETATM   23 CL2  UNL     1     -27.055   0.569 -24.857  1.00  0.00    -0.081 Cl
HETATM   24  C24 UNL     1     -27.586   0.220 -28.805  1.00  0.00     0.140 A 
HETATM   25  C23 UNL     1     -27.725  -1.180 -28.920  1.00  0.00     0.068 A 
BRANCH  22  26
HETATM   26  O1  UNL     1     -27.255   2.124 -27.399  1.00  0.00    -0.327 OA
BRANCH  26  27
HETATM   27  C2  UNL     1     -28.349   2.994 -27.192  1.00  0.00     0.220 C 
HETATM   28  C1  UNL     1     -28.614   3.982 -28.272  1.00  0.00     0.057 C 
HETATM   29 CL1  UNL     1     -27.964   3.969 -25.723  1.00  0.00    -0.095 Cl
ENDBRANCH  26  27
ENDBRANCH  22  26
BRANCH  24  30
HETATM   30  N6  UNL     1     -27.640   0.963 -30.004  1.00  0.00    -0.113 N 
HETATM   31  O2  UNL     1     -28.706   1.236 -30.548  1.00  0.00    -0.532 OA
HETATM   32  O3  UNL     1     -26.474   1.426 -30.549  1.00  0.00    -0.532 OA
ENDBRANCH  24  30
ENDBRANCH  17  19
ENDBRANCH   1  17
BRANCH  14  33
HETATM   33  C14 UNL     1     -23.336  -9.817 -25.176  1.00  0.00     0.152 C 
BRANCH  33  34
HETATM   34  C15 UNL     1     -21.999  -9.361 -24.565  1.00  0.00     0.005 C 
HETATM   35  C16 UNL     1     -22.136  -9.122 -23.119  1.00  0.00     0.006 C 
HETATM   36  C17 UNL     1     -20.971  -9.496 -22.264  1.00  0.00     0.000 C 
HETATM   37  C18 UNL     1     -20.201 -10.679 -22.743  1.00  0.00     0.000 C 
HETATM   38  C19 UNL     1     -19.729 -10.358 -24.148  1.00  0.00     0.000 C 
HETATM   39  C20 UNL     1     -20.958 -10.306 -25.015  1.00  0.00     0.006 C 
ENDBRANCH  33  34
ENDBRANCH  14  33
TORSDOF 7
ENDMDL
MODEL 4
REMARK VINA RESULT: -8.260125727      1.455      2.061
REMARK  7 active torsions:
REMARK  status: ('A' for Active; 'I' for Inactive)
REMARK    1  A    between atoms: C2_2  and  O1_4 
REMARK    2  A    between atoms: O1_4  and  C3_5 
REMARK    3  A    between atoms: C6_9  and  N1_10 
REMARK    4  A    between atoms: N1_10  and  C7_12 
REMARK    5  A    between atoms: N5_25  and  C14_26 
REMARK    6  A    between atoms: C14_26  and  C15_27 
REMARK    7  A    between atoms: C24_36  and  N6_37 
ROOT
HETATM    1  C7  UNL     1     -26.865  -2.027 -28.788  1.00  0.00     0.115 A 
HETATM    2  N2  UNL     1     -25.785  -1.752 -29.530  1.00  0.00    -0.338 N 
ATOM      3  H2  UNL     1     -25.750  -0.860 -30.023  1.00  0.00     0.168 HD
HETATM    4  C8  UNL     1     -24.737  -2.598 -29.659  1.00  0.00     0.182 A 
HETATM    5  N3  UNL     1     -24.729  -3.785 -29.032  1.00  0.00    -0.351 N 
ATOM      6  H3  UNL     1     -23.940  -4.424 -29.129  1.00  0.00     0.166 HD
HETATM    7  C9  UNL     1     -25.794  -4.107 -28.273  1.00  0.00     0.056 A 
HETATM    8  C10 UNL     1     -26.871  -3.263 -28.128  1.00  0.00     0.014 A 
HETATM    9  C11 UNL     1     -28.032  -3.609 -27.314  1.00  0.00     0.051 A 
HETATM   10  C12 UNL     1     -28.007  -4.899 -26.597  1.00  0.00     0.064 A 
HETATM   11  C13 UNL     1     -26.815  -5.739 -26.814  1.00  0.00     0.040 A 
HETATM   12  N4  UNL     1     -26.508  -6.972 -26.316  1.00  0.00    -0.302 N 
ATOM     13  H4  UNL     1     -27.099  -7.516 -25.688  1.00  0.00     0.186 HD
HETATM   14  N5  UNL     1     -25.333  -7.349 -26.771  1.00  0.00    -0.302 N 
HETATM   15  C21 UNL     1     -24.803  -6.415 -27.575  1.00  0.00     0.126 A 
HETATM   16  C22 UNL     1     -25.741  -5.404 -27.599  1.00  0.00     0.032 A 
ENDROOT
BRANCH   1  17
HETATM   17  N1  UNL     1     -27.876  -1.254 -28.634  1.00  0.00    -0.342 N 
ATOM     18  H1  UNL     1     -28.784  -1.598 -28.946  1.00  0.00     0.167 HD
BRANCH  17  19
HETATM   19  C6  UNL     1     -27.827   0.027 -28.073  1.00  0.00     0.037 A 
HETATM   20  C5  UNL     1     -27.729   0.201 -26.711  1.00  0.00     0.056 A 
HETATM   21  C4  UNL     1     -27.682   1.462 -26.139  1.00  0.00     0.072 A 
HETATM   22  C3  UNL     1     -27.734   2.591 -26.938  1.00  0.00     0.125 A 
HETATM   23 CL2  UNL     1     -27.538   1.575 -24.401  1.00  0.00    -0.081 Cl
HETATM   24  C24 UNL     1     -27.829   2.459 -28.291  1.00  0.00     0.140 A 
HETATM   25  C23 UNL     1     -27.877   1.161 -28.843  1.00  0.00     0.068 A 
BRANCH  22  26
HETATM   26  O1  UNL     1     -27.691   3.839 -26.344  1.00  0.00    -0.327 OA
BRANCH  26  27
HETATM   27  C2  UNL     1     -28.823   4.473 -25.784  1.00  0.00     0.220 C 
HETATM   28  C1  UNL     1     -30.068   3.662 -25.726  1.00  0.00     0.057 C 
HETATM   29 CL1  UNL     1     -29.206   5.879 -26.847  1.00  0.00    -0.095 Cl
ENDBRANCH  26  27
ENDBRANCH  22  26
BRANCH  24  30
HETATM   30  N6  UNL     1     -27.862   3.537 -29.201  1.00  0.00    -0.113 N 
HETATM   31  O2  UNL     1     -28.903   4.132 -29.462  1.00  0.00    -0.532 OA
HETATM   32  O3  UNL     1     -26.692   3.954 -29.775  1.00  0.00    -0.532 OA
ENDBRANCH  24  30
ENDBRANCH  17  19
ENDBRANCH   1  17
BRANCH  14  33
HETATM   33  C14 UNL     1     -24.692  -8.599 -26.447  1.00  0.00     0.152 C 
BRANCH  33  34
HETATM   34  C15 UNL     1     -23.364  -8.350 -25.711  1.00  0.00     0.005 C 
HETATM   35  C16 UNL     1     -23.602  -7.968 -24.309  1.00  0.00     0.006 C 
HETATM   36  C17 UNL     1     -22.629  -8.478 -23.299  1.00  0.00     0.000 C 
HETATM   37  C18 UNL     1     -22.060  -9.822 -23.607  1.00  0.00     0.000 C 
HETATM   38  C19 UNL     1     -21.389  -9.715 -24.963  1.00  0.00     0.000 C 
HETATM   39  C20 UNL     1     -22.485  -9.508 -25.972  1.00  0.00     0.006 C 
ENDBRANCH  33  34
ENDBRANCH  14  33
TORSDOF 7
ENDMDL
MODEL 5
REMARK VINA RESULT: -8.132991201      2.732      4.551
REMARK  7 active torsions:
REMARK  status: ('A' for Active; 'I' for Inactive)
REMARK    1  A    between atoms: C2_2  and  O1_4 
REMARK    2  A    between atoms: O1_4  and  C3_5 
REMARK    3  A    between atoms: C6_9  and  N1_10 
REMARK    4  A    between atoms: N1_10  and  C7_12 
REMARK    5  A    between atoms: N5_25  and  C14_26 
REMARK    6  A    between atoms: C14_26  and  C15_27 
REMARK    7  A    between atoms: C24_36  and  N6_37 
ROOT
HETATM    1  C7  UNL     1     -27.107  -6.245 -26.971  1.00  0.00     0.115 A 
HETATM    2  N2  UNL     1     -26.917  -7.056 -28.019  1.00  0.00    -0.338 N 
ATOM      3  H2  UNL     1     -27.533  -6.957 -28.826  1.00  0.00     0.168 HD
HETATM    4  C8  UNL     1     -25.948  -8.000 -28.062  1.00  0.00     0.182 A 
HETATM    5  N3  UNL     1     -25.110  -8.174 -27.030  1.00  0.00    -0.351 N 
ATOM      6  H3  UNL     1     -24.380  -8.885 -27.061  1.00  0.00     0.166 HD
HETATM    7  C9  UNL     1     -25.261  -7.381 -25.950  1.00  0.00     0.056 A 
HETATM    8  C10 UNL     1     -26.239  -6.416 -25.884  1.00  0.00     0.014 A 
HETATM    9  C11 UNL     1     -26.415  -5.559 -24.715  1.00  0.00     0.051 A 
HETATM   10  C12 UNL     1     -25.469  -5.727 -23.594  1.00  0.00     0.064 A 
HETATM   11  C13 UNL     1     -24.457  -6.788 -23.752  1.00  0.00     0.040 A 
HETATM   12  N4  UNL     1     -23.472  -7.194 -22.899  1.00  0.00    -0.302 N 
ATOM     13  H4  UNL     1     -23.291  -6.797 -21.978  1.00  0.00     0.186 HD
HETATM   14  N5  UNL     1     -22.793  -8.177 -23.449  1.00  0.00    -0.302 N 
HETATM   15  C21 UNL     1     -23.272  -8.473 -24.667  1.00  0.00     0.126 A 
HETATM   16  C22 UNL     1     -24.320  -7.595 -24.852  1.00  0.00     0.032 A 
ENDROOT
BRANCH   1  17
HETATM   17  N1  UNL     1     -28.008  -5.336 -26.889  1.00  0.00    -0.342 N 
ATOM     18  H1  UNL     1     -28.929  -5.613 -26.551  1.00  0.00     0.167 HD
BRANCH  17  19
HETATM   19  C6  UNL     1     -27.821  -3.992 -27.230  1.00  0.00     0.037 A 
HETATM   20  C5  UNL     1     -26.741  -3.593 -27.984  1.00  0.00     0.056 A 
HETATM   21  C4  UNL     1     -26.541  -2.266 -28.328  1.00  0.00     0.072 A 
HETATM   22  C3  UNL     1     -27.439  -1.298 -27.914  1.00  0.00     0.125 A 
HETATM   23 CL2  UNL     1     -25.147  -1.867 -29.303  1.00  0.00    -0.081 Cl
HETATM   24  C24 UNL     1     -28.522  -1.654 -27.168  1.00  0.00     0.140 A 
HETATM   25  C23 UNL     1     -28.697  -3.014 -26.833  1.00  0.00     0.068 A 
BRANCH  22  26
HETATM   26  O1  UNL     1     -27.216   0.021 -28.265  1.00  0.00    -0.327 OA
BRANCH  26  27
HETATM   27  C2  UNL     1     -27.641   0.582 -29.490  1.00  0.00     0.220 C 
HETATM   28  C1  UNL     1     -26.635   1.400 -30.220  1.00  0.00     0.057 C 
HETATM   29 CL1  UNL     1     -28.995   1.709 -29.100  1.00  0.00    -0.095 Cl
ENDBRANCH  26  27
ENDBRANCH  22  26
BRANCH  24  30
HETATM   30  N6  UNL     1     -29.513  -0.757 -26.716  1.00  0.00    -0.113 N 
HETATM   31  O2  UNL     1     -30.630  -0.716 -27.225  1.00  0.00    -0.532 OA
HETATM   32  O3  UNL     1     -29.233   0.060 -25.654  1.00  0.00    -0.532 OA
ENDBRANCH  24  30
ENDBRANCH  17  19
ENDBRANCH   1  17
BRANCH  14  33
HETATM   33  C14 UNL     1     -21.677  -8.847 -22.832  1.00  0.00     0.152 C 
BRANCH  33  34
HETATM   34  C15 UNL     1     -21.578 -10.301 -23.327  1.00  0.00     0.005 C 
HETATM   35  C16 UNL     1     -20.245 -10.577 -23.885  1.00  0.00     0.006 C 
HETATM   36  C17 UNL     1     -19.681 -11.937 -23.636  1.00  0.00     0.000 C 
HETATM   37  C18 UNL     1     -20.069 -12.542 -22.330  1.00  0.00     0.000 C 
HETATM   38  C19 UNL     1     -21.585 -12.598 -22.305  1.00  0.00     0.000 C 
HETATM   39  C20 UNL     1     -22.069 -11.175 -22.242  1.00  0.00     0.006 C 
ENDBRANCH  33  34
ENDBRANCH  14  33
TORSDOF 7
ENDMDL
