MODEL 1
REMARK VINA RESULT: -8.685305068      0.000      0.000
REMARK  7 active torsions:
REMARK  status: ('A' for Active; 'I' for Inactive)
REMARK    1  A    between atoms: C3_3  and  N1_4 
REMARK    2  A    between atoms: C7_9  and  C8_10 
REMARK    3  A    between atoms: C8_10  and  O2_13 
REMARK    4  A    between atoms: C12_18  and  C13_19 
REMARK    5  A    between atoms: C14_25  and  N4_26 
REMARK    6  A    between atoms: N4_26  and  C15_28 
REMARK    7  A    between atoms: C18_31  and  C19_32 
ROOT
HETATM    1  C1  UNL     1     -87.056 -14.425  13.752  1.00  0.00     0.056 C 
HETATM    2  C2  UNL     1     -87.776 -15.682  13.993  1.00  0.00     0.026 A 
HETATM    3  C3  UNL     1     -87.457 -16.411  15.104  1.00  0.00     0.114 A 
HETATM    4  N2  UNL     1     -88.087 -17.594  15.341  1.00  0.00    -0.324 N 
ATOM      5  H2  UNL     1     -87.840 -18.129  16.173  1.00  0.00     0.169 HD
HETATM    6  C12 UNL     1     -89.009 -18.070  14.525  1.00  0.00     0.193 A 
HETATM    7  N3  UNL     1     -89.305 -17.334  13.440  1.00  0.00    -0.324 N 
ATOM      8  H3  UNL     1     -90.018 -17.697  12.807  1.00  0.00     0.169 HD
HETATM    9  C14 UNL     1     -88.746 -16.174  13.129  1.00  0.00     0.117 A 
ENDROOT
BRANCH   9  10
HETATM   10  N4  UNL     1     -89.088 -15.512  12.089  1.00  0.00    -0.342 N 
ATOM     11  H4  UNL     1     -89.758 -14.746  12.169  1.00  0.00     0.167 HD
BRANCH  10  12
HETATM   12  C15 UNL     1     -88.528 -15.848  10.803  1.00  0.00     0.033 A 
HETATM   13  C16 UNL     1     -87.210 -15.507  10.525  1.00  0.00     0.030 A 
HETATM   14  C17 UNL     1     -86.596 -15.834   9.349  1.00  0.00     0.010 A 
HETATM   15  C18 UNL     1     -87.304 -16.541   8.381  1.00  0.00    -0.054 A 
HETATM   16  C24 UNL     1     -88.614 -16.884   8.646  1.00  0.00     0.010 A 
HETATM   17  C25 UNL     1     -89.207 -16.536   9.844  1.00  0.00     0.030 A 
BRANCH  15  18
HETATM   18  C19 UNL     1     -86.569 -16.924   7.162  1.00  0.00     0.018 C 
HETATM   19  C20 UNL     1     -85.234 -16.171   7.195  1.00  0.00     0.009 C 
HETATM   20  C21 UNL     1     -85.352 -15.041   6.190  1.00  0.00     0.001 C 
HETATM   21  C22 UNL     1     -86.769 -15.070   5.712  1.00  0.00     0.001 C 
HETATM   22  C23 UNL     1     -87.165 -16.508   5.879  1.00  0.00     0.009 C 
ENDBRANCH  15  18
ENDBRANCH  10  12
ENDBRANCH   9  10
BRANCH   3  23
HETATM   23  N1  UNL     1     -86.491 -16.031  16.085  1.00  0.00    -0.364 N 
HETATM   24  C4  UNL     1     -85.168 -16.358  15.695  1.00  0.00     0.126 C 
HETATM   25  C5  UNL     1     -84.071 -16.038  16.648  1.00  0.00     0.046 C 
HETATM   26  C6  UNL     1     -84.265 -16.543  18.032  1.00  0.00     0.170 C 
HETATM   27  O1  UNL     1     -85.516 -16.346  18.587  1.00  0.00    -0.381 OA
HETATM   28  C7  UNL     1     -86.060 -15.106  18.262  1.00  0.00     0.172 C 
HETATM   29  C11 UNL     1     -87.128 -15.397  17.226  1.00  0.00     0.159 C 
BRANCH  28  30
HETATM   30  C8  UNL     1     -86.582 -14.368  19.450  1.00  0.00     0.078 C 
HETATM   31  C9  UNL     1     -87.537 -15.163  20.308  1.00  0.00     0.048 C 
HETATM   32  C10 UNL     1     -85.373 -14.008  20.312  1.00  0.00     0.048 C 
BRANCH  30  33
HETATM   33  O2  UNL     1     -87.212 -13.205  19.012  1.00  0.00    -0.388 OA
ATOM     34  H2  UNL     1     -87.777 -12.885  19.705  1.00  0.00     0.210 HD
ENDBRANCH  30  33
ENDBRANCH  28  30
ENDBRANCH   3  23
BRANCH   6  35
HETATM   35  C13 UNL     1     -89.774 -19.337  14.716  1.00  0.00     0.449 C 
HETATM   36  F1  UNL     1     -89.778 -19.662  16.085  1.00  0.00    -0.163 F 
HETATM   37  F2  UNL     1     -91.056 -19.151  14.313  1.00  0.00    -0.163 F 
HETATM   38  F3  UNL     1     -89.190 -20.387  14.057  1.00  0.00    -0.163 F 
ENDBRANCH   6  35
TORSDOF 7
ENDMDL
MODEL 2
REMARK VINA RESULT: -8.683548945      3.205      5.013
REMARK  7 active torsions:
REMARK  status: ('A' for Active; 'I' for Inactive)
REMARK    1  A    between atoms: C3_3  and  N1_4 
REMARK    2  A    between atoms: C7_9  and  C8_10 
REMARK    3  A    between atoms: C8_10  and  O2_13 
REMARK    4  A    between atoms: C12_18  and  C13_19 
REMARK    5  A    between atoms: C14_25  and  N4_26 
REMARK    6  A    between atoms: N4_26  and  C15_28 
REMARK    7  A    between atoms: C18_31  and  C19_32 
ROOT
HETATM    1  C1  UNL     1     -86.486 -17.573  11.861  1.00  0.00     0.056 C 
HETATM    2  C2  UNL     1     -87.648 -17.178  11.056  1.00  0.00     0.026 A 
HETATM    3  C3  UNL     1     -88.678 -16.530  11.676  1.00  0.00     0.114 A 
HETATM    4  N2  UNL     1     -89.782 -16.174  10.962  1.00  0.00    -0.324 N 
ATOM      5  H2  UNL     1     -90.545 -15.691  11.437  1.00  0.00     0.169 HD
HETATM    6  C12 UNL     1     -89.895 -16.436   9.675  1.00  0.00     0.193 A 
HETATM    7  N3  UNL     1     -88.867 -17.074   9.087  1.00  0.00    -0.324 N 
ATOM      8  H3  UNL     1     -88.949 -17.278   8.091  1.00  0.00     0.169 HD
HETATM    9  C14 UNL     1     -87.757 -17.457   9.700  1.00  0.00     0.117 A 
ENDROOT
BRANCH   9  10
HETATM   10  N4  UNL     1     -86.805 -18.044   9.077  1.00  0.00    -0.342 N 
ATOM     11  H4  UNL     1     -86.747 -19.062   9.077  1.00  0.00     0.167 HD
BRANCH  10  12
HETATM   12  C15 UNL     1     -85.816 -17.265   8.373  1.00  0.00     0.033 A 
HETATM   13  C16 UNL     1     -84.516 -17.214   8.862  1.00  0.00     0.030 A 
HETATM   14  C17 UNL     1     -83.515 -16.537   8.225  1.00  0.00     0.010 A 
HETATM   15  C18 UNL     1     -83.790 -15.869   7.035  1.00  0.00    -0.054 A 
HETATM   16  C24 UNL     1     -85.078 -15.911   6.541  1.00  0.00     0.010 A 
HETATM   17  C25 UNL     1     -86.069 -16.602   7.211  1.00  0.00     0.030 A 
BRANCH  15  18
HETATM   18  C19 UNL     1     -82.656 -15.214   6.358  1.00  0.00     0.018 C 
HETATM   19  C20 UNL     1     -82.776 -15.551   4.868  1.00  0.00     0.009 C 
HETATM   20  C21 UNL     1     -81.721 -16.601   4.577  1.00  0.00     0.001 C 
HETATM   21  C22 UNL     1     -81.122 -16.951   5.902  1.00  0.00     0.001 C 
HETATM   22  C23 UNL     1     -81.310 -15.702   6.713  1.00  0.00     0.009 C 
ENDBRANCH  15  18
ENDBRANCH  10  12
ENDBRANCH   9  10
BRANCH   3  23
HETATM   23  N1  UNL     1     -88.707 -16.167  13.057  1.00  0.00    -0.364 N 
HETATM   24  C4  UNL     1     -88.171 -14.875  13.288  1.00  0.00     0.126 C 
HETATM   25  C5  UNL     1     -88.118 -14.393  14.695  1.00  0.00     0.046 C 
HETATM   26  C6  UNL     1     -87.474 -15.321  15.660  1.00  0.00     0.170 C 
HETATM   27  O1  UNL     1     -87.847 -16.651  15.575  1.00  0.00    -0.381 OA
HETATM   28  C7  UNL     1     -89.206 -16.814  15.319  1.00  0.00     0.172 C 
HETATM   29  C11 UNL     1     -89.292 -17.226  13.862  1.00  0.00     0.159 C 
BRANCH  28  30
HETATM   30  C8  UNL     1     -89.862 -17.786  16.242  1.00  0.00     0.078 C 
HETATM   31  C9  UNL     1     -90.141 -19.137  15.628  1.00  0.00     0.048 C 
HETATM   32  C10 UNL     1     -88.902 -17.999  17.413  1.00  0.00     0.048 C 
BRANCH  30  33
HETATM   33  O2  UNL     1     -91.054 -17.232  16.703  1.00  0.00    -0.388 OA
ATOM     34  H2  UNL     1     -90.957 -17.025  17.625  1.00  0.00     0.210 HD
ENDBRANCH  30  33
ENDBRANCH  28  30
ENDBRANCH   3  23
BRANCH   6  35
HETATM   35  C13 UNL     1     -91.048 -16.060   8.804  1.00  0.00     0.449 C 
HETATM   36  F1  UNL     1     -91.430 -14.741   9.105  1.00  0.00    -0.163 F 
HETATM   37  F2  UNL     1     -90.663 -16.112   7.504  1.00  0.00    -0.163 F 
HETATM   38  F3  UNL     1     -92.139 -16.857   9.034  1.00  0.00    -0.163 F 
ENDBRANCH   6  35
TORSDOF 7
ENDMDL
MODEL 3
REMARK VINA RESULT: -8.437244390      5.408      7.864
REMARK  7 active torsions:
REMARK  status: ('A' for Active; 'I' for Inactive)
REMARK    1  A    between atoms: C3_3  and  N1_4 
REMARK    2  A    between atoms: C7_9  and  C8_10 
REMARK    3  A    between atoms: C8_10  and  O2_13 
REMARK    4  A    between atoms: C12_18  and  C13_19 
REMARK    5  A    between atoms: C14_25  and  N4_26 
REMARK    6  A    between atoms: N4_26  and  C15_28 
REMARK    7  A    between atoms: C18_31  and  C19_32 
ROOT
HETATM    1  C1  UNL     1     -84.056 -17.394  10.730  1.00  0.00     0.056 C 
HETATM    2  C2  UNL     1     -84.543 -16.913   9.431  1.00  0.00     0.026 A 
HETATM    3  C3  UNL     1     -85.850 -16.528   9.330  1.00  0.00     0.114 A 
HETATM    4  N2  UNL     1     -86.339 -16.102   8.132  1.00  0.00    -0.324 N 
ATOM      5  H2  UNL     1     -87.317 -15.818   8.070  1.00  0.00     0.169 HD
HETATM    6  C12 UNL     1     -85.586 -16.045   7.051  1.00  0.00     0.193 A 
HETATM    7  N3  UNL     1     -84.303 -16.428   7.178  1.00  0.00    -0.324 N 
ATOM      8  H3  UNL     1     -83.716 -16.385   6.344  1.00  0.00     0.169 HD
HETATM    9  C14 UNL     1     -83.742 -16.855   8.298  1.00  0.00     0.117 A 
ENDROOT
BRANCH   9  10
HETATM   10  N4  UNL     1     -82.507 -17.186   8.356  1.00  0.00    -0.342 N 
ATOM     11  H4  UNL     1     -82.233 -18.055   8.814  1.00  0.00     0.167 HD
BRANCH  10  12
HETATM   12  C15 UNL     1     -81.503 -16.330   7.773  1.00  0.00     0.033 A 
HETATM   13  C16 UNL     1     -80.898 -16.706   6.580  1.00  0.00     0.030 A 
HETATM   14  C17 UNL     1     -79.974 -15.926   5.944  1.00  0.00     0.010 A 
HETATM   15  C18 UNL     1     -79.616 -14.700   6.498  1.00  0.00    -0.054 A 
HETATM   16  C24 UNL     1     -80.210 -14.317   7.684  1.00  0.00     0.010 A 
HETATM   17  C25 UNL     1     -81.139 -15.130   8.304  1.00  0.00     0.030 A 
BRANCH  15  18
HETATM   18  C19 UNL     1     -78.667 -13.871   5.733  1.00  0.00     0.018 C 
HETATM   19  C20 UNL     1     -78.656 -12.488   6.392  1.00  0.00     0.009 C 
HETATM   20  C21 UNL     1     -79.449 -11.569   5.481  1.00  0.00     0.001 C 
HETATM   21  C22 UNL     1     -80.014 -12.450   4.412  1.00  0.00     0.001 C 
HETATM   22  C23 UNL     1     -79.031 -13.581   4.333  1.00  0.00     0.009 C 
ENDBRANCH  15  18
ENDBRANCH  10  12
ENDBRANCH   9  10
BRANCH   3  23
HETATM   23  N1  UNL     1     -86.790 -16.522  10.405  1.00  0.00    -0.364 N 
HETATM   24  C4  UNL     1     -87.480 -17.756  10.526  1.00  0.00     0.126 C 
HETATM   25  C5  UNL     1     -88.510 -17.866  11.594  1.00  0.00     0.046 C 
HETATM   26  C6  UNL     1     -89.527 -16.783  11.610  1.00  0.00     0.170 C 
HETATM   27  O1  UNL     1     -89.051 -15.492  11.472  1.00  0.00    -0.381 OA
HETATM   28  C7  UNL     1     -87.861 -15.280  12.164  1.00  0.00     0.172 C 
HETATM   29  C11 UNL     1     -86.780 -15.247  11.100  1.00  0.00     0.159 C 
BRANCH  28  30
HETATM   30  C8  UNL     1     -87.888 -14.050  13.009  1.00  0.00     0.078 C 
HETATM   31  C9  UNL     1     -86.935 -14.078  14.180  1.00  0.00     0.048 C 
HETATM   32  C10 UNL     1     -87.481 -12.886  12.107  1.00  0.00     0.048 C 
BRANCH  30  33
HETATM   33  O2  UNL     1     -89.187 -13.856  13.474  1.00  0.00    -0.388 OA
ATOM     34  H2  UNL     1     -89.472 -12.985  13.225  1.00  0.00     0.210 HD
ENDBRANCH  30  33
ENDBRANCH  28  30
ENDBRANCH   3  23
BRANCH   6  35
HETATM   35  C13 UNL     1     -86.022 -15.564   5.707  1.00  0.00     0.449 C 
HETATM   36  F1  UNL     1     -86.581 -14.281   5.844  1.00  0.00    -0.163 F 
HETATM   37  F2  UNL     1     -84.942 -15.479   4.889  1.00  0.00    -0.163 F 
HETATM   38  F3  UNL     1     -86.993 -16.370   5.170  1.00  0.00    -0.163 F 
ENDBRANCH   6  35
TORSDOF 7
ENDMDL
MODEL 4
REMARK VINA RESULT: -8.381196017      4.851      7.126
REMARK  7 active torsions:
REMARK  status: ('A' for Active; 'I' for Inactive)
REMARK    1  A    between atoms: C3_3  and  N1_4 
REMARK    2  A    between atoms: C7_9  and  C8_10 
REMARK    3  A    between atoms: C8_10  and  O2_13 
REMARK    4  A    between atoms: C12_18  and  C13_19 
REMARK    5  A    between atoms: C14_25  and  N4_26 
REMARK    6  A    between atoms: N4_26  and  C15_28 
REMARK    7  A    between atoms: C18_31  and  C19_32 
ROOT
HETATM    1  C1  UNL     1     -84.494 -17.446  11.111  1.00  0.00     0.056 C 
HETATM    2  C2  UNL     1     -85.211 -17.036   9.897  1.00  0.00     0.026 A 
HETATM    3  C3  UNL     1     -86.537 -16.722  10.001  1.00  0.00     0.114 A 
HETATM    4  N2  UNL     1     -87.237 -16.364   8.889  1.00  0.00    -0.324 N 
ATOM      5  H2  UNL     1     -88.226 -16.132   8.980  1.00  0.00     0.169 HD
HETATM    6  C12 UNL     1     -86.674 -16.309   7.697  1.00  0.00     0.193 A 
HETATM    7  N3  UNL     1     -85.368 -16.621   7.622  1.00  0.00    -0.324 N 
ATOM      8  H3  UNL     1     -84.927 -16.579   6.703  1.00  0.00     0.169 HD
HETATM    9  C14 UNL     1     -84.609 -16.979   8.647  1.00  0.00     0.117 A 
ENDROOT
BRANCH   9  10
HETATM   10  N4  UNL     1     -83.365 -17.246   8.511  1.00  0.00    -0.342 N 
ATOM     11  H4  UNL     1     -82.996 -18.140   8.833  1.00  0.00     0.167 HD
BRANCH  10  12
HETATM   12  C15 UNL     1     -82.484 -16.280   7.900  1.00  0.00     0.033 A 
HETATM   13  C16 UNL     1     -81.960 -16.539   6.639  1.00  0.00     0.030 A 
HETATM   14  C17 UNL     1     -81.158 -15.652   5.978  1.00  0.00     0.010 A 
HETATM   15  C18 UNL     1     -80.846 -14.434   6.576  1.00  0.00    -0.054 A 
HETATM   16  C24 UNL     1     -81.359 -14.167   7.829  1.00  0.00     0.010 A 
HETATM   17  C25 UNL     1     -82.166 -15.086   8.472  1.00  0.00     0.030 A 
BRANCH  15  18
HETATM   18  C19 UNL     1     -80.033 -13.491   5.787  1.00  0.00     0.018 C 
HETATM   19  C20 UNL     1     -79.260 -14.325   4.760  1.00  0.00     0.009 C 
HETATM   20  C21 UNL     1     -77.827 -14.399   5.254  1.00  0.00     0.001 C 
HETATM   21  C22 UNL     1     -77.830 -13.746   6.600  1.00  0.00     0.001 C 
HETATM   22  C23 UNL     1     -78.970 -12.773   6.516  1.00  0.00     0.009 C 
ENDBRANCH  15  18
ENDBRANCH  10  12
ENDBRANCH   9  10
BRANCH   3  23
HETATM   23  N1  UNL     1     -87.289 -16.725  11.215  1.00  0.00    -0.364 N 
HETATM   24  C4  UNL     1     -88.053 -17.909  11.374  1.00  0.00     0.126 C 
HETATM   25  C5  UNL     1     -88.904 -18.020  12.590  1.00  0.00     0.046 C 
HETATM   26  C6  UNL     1     -89.810 -16.868  12.838  1.00  0.00     0.170 C 
HETATM   27  O1  UNL     1     -89.253 -15.609  12.701  1.00  0.00    -0.381 OA
HETATM   28  C7  UNL     1     -87.954 -15.538  13.198  1.00  0.00     0.172 C 
HETATM   29  C11 UNL     1     -87.059 -15.508  11.975  1.00  0.00     0.159 C 
BRANCH  28  30
HETATM   30  C8  UNL     1     -87.740 -14.375  14.109  1.00  0.00     0.078 C 
HETATM   31  C9  UNL     1     -86.300 -13.935  14.230  1.00  0.00     0.048 C 
HETATM   32  C10 UNL     1     -88.534 -13.207  13.527  1.00  0.00     0.048 C 
BRANCH  30  33
HETATM   33  O2  UNL     1     -88.233 -14.699  15.371  1.00  0.00    -0.388 OA
ATOM     34  H2  UNL     1     -88.131 -13.946  15.940  1.00  0.00     0.210 HD
ENDBRANCH  30  33
ENDBRANCH  28  30
ENDBRANCH   3  23
BRANCH   6  35
HETATM   35  C13 UNL     1     -87.348 -15.899   6.430  1.00  0.00     0.449 C 
HETATM   36  F1  UNL     1     -86.903 -16.734   5.390  1.00  0.00    -0.163 F 
HETATM   37  F2  UNL     1     -88.690 -16.056   6.566  1.00  0.00    -0.163 F 
HETATM   38  F3  UNL     1     -87.030 -14.614   6.079  1.00  0.00    -0.163 F 
ENDBRANCH   6  35
TORSDOF 7
ENDMDL
MODEL 5
REMARK VINA RESULT: -8.375236040      2.763      3.903
REMARK  7 active torsions:
REMARK  status: ('A' for Active; 'I' for Inactive)
REMARK    1  A    between atoms: C3_3  and  N1_4 
REMARK    2  A    between atoms: C7_9  and  C8_10 
REMARK    3  A    between atoms: C8_10  and  O2_13 
REMARK    4  A    between atoms: C12_18  and  C13_19 
REMARK    5  A    between atoms: C14_25  and  N4_26 
REMARK    6  A    between atoms: N4_26  and  C15_28 
REMARK    7  A    between atoms: C18_31  and  C19_32 
ROOT
HETATM    1  C1  UNL     1     -88.207 -18.961  13.548  1.00  0.00     0.056 C 
HETATM    2  C2  UNL     1     -88.222 -17.503  13.380  1.00  0.00     0.026 A 
HETATM    3  C3  UNL     1     -87.826 -16.724  14.431  1.00  0.00     0.114 A 
HETATM    4  N2  UNL     1     -87.854 -15.368  14.317  1.00  0.00    -0.324 N 
ATOM      5  H2  UNL     1     -87.557 -14.798  15.109  1.00  0.00     0.169 HD
HETATM    6  C12 UNL     1     -88.254 -14.768  13.212  1.00  0.00     0.193 A 
HETATM    7  N3  UNL     1     -88.637 -15.556  12.192  1.00  0.00    -0.324 N 
ATOM      8  H3  UNL     1     -88.946 -15.098  11.334  1.00  0.00     0.169 HD
HETATM    9  C14 UNL     1     -88.643 -16.880  12.212  1.00  0.00     0.117 A 
ENDROOT
BRANCH   9  10
HETATM   10  N4  UNL     1     -89.001 -17.574  11.197  1.00  0.00    -0.342 N 
ATOM     11  H4  UNL     1     -89.784 -18.223  11.274  1.00  0.00     0.167 HD
BRANCH  10  12
HETATM   12  C15 UNL     1     -88.298 -17.437   9.946  1.00  0.00     0.033 A 
HETATM   13  C16 UNL     1     -88.976 -16.954   8.833  1.00  0.00     0.030 A 
HETATM   14  C17 UNL     1     -88.365 -16.752   7.628  1.00  0.00     0.010 A 
HETATM   15  C18 UNL     1     -87.008 -17.032   7.493  1.00  0.00    -0.054 A 
HETATM   16  C24 UNL     1     -86.324 -17.514   8.591  1.00  0.00     0.010 A 
HETATM   17  C25 UNL     1     -86.972 -17.710   9.796  1.00  0.00     0.030 A 
BRANCH  15  18
HETATM   18  C19 UNL     1     -86.389 -16.731   6.189  1.00  0.00     0.018 C 
HETATM   19  C20 UNL     1     -84.932 -16.349   6.469  1.00  0.00     0.009 C 
HETATM   20  C21 UNL     1     -84.844 -14.842   6.319  1.00  0.00     0.001 C 
HETATM   21  C22 UNL     1     -86.248 -14.374   6.104  1.00  0.00     0.001 C 
HETATM   22  C23 UNL     1     -86.918 -15.557   5.468  1.00  0.00     0.009 C 
ENDBRANCH  15  18
ENDBRANCH  10  12
ENDBRANCH   9  10
BRANCH   3  23
HETATM   23  N1  UNL     1     -87.360 -17.217  15.688  1.00  0.00    -0.364 N 
HETATM   24  C4  UNL     1     -88.402 -17.331  16.643  1.00  0.00     0.126 C 
HETATM   25  C5  UNL     1     -88.038 -17.808  18.005  1.00  0.00     0.046 C 
HETATM   26  C6  UNL     1     -86.916 -17.080  18.653  1.00  0.00     0.170 C 
HETATM   27  O1  UNL     1     -85.804 -16.840  17.867  1.00  0.00    -0.381 OA
HETATM   28  C7  UNL     1     -85.492 -17.912  17.033  1.00  0.00     0.172 C 
HETATM   29  C11 UNL     1     -85.932 -17.482  15.648  1.00  0.00     0.159 C 
BRANCH  28  30
HETATM   30  C8  UNL     1     -84.053 -18.300  17.096  1.00  0.00     0.078 C 
HETATM   31  C9  UNL     1     -83.123 -17.184  17.507  1.00  0.00     0.048 C 
HETATM   32  C10 UNL     1     -83.940 -19.407  18.144  1.00  0.00     0.048 C 
BRANCH  30  33
HETATM   33  O2  UNL     1     -83.667 -18.789  15.850  1.00  0.00    -0.388 OA
ATOM     34  H2  UNL     1     -83.119 -19.554  15.979  1.00  0.00     0.210 HD
ENDBRANCH  30  33
ENDBRANCH  28  30
ENDBRANCH   3  23
BRANCH   6  35
HETATM   35  C13 UNL     1     -88.290 -13.294  12.982  1.00  0.00     0.449 C 
HETATM   36  F1  UNL     1     -87.019 -12.761  13.263  1.00  0.00    -0.163 F 
HETATM   37  F2  UNL     1     -88.581 -13.051  11.678  1.00  0.00    -0.163 F 
HETATM   38  F3  UNL     1     -89.181 -12.671  13.816  1.00  0.00    -0.163 F 
ENDBRANCH   6  35
TORSDOF 7
ENDMDL
