MODEL 1
REMARK VINA RESULT: -8.672073284      0.000      0.000
REMARK  5 active torsions:
REMARK  status: ('A' for Active; 'I' for Inactive)
REMARK    1  A    between atoms: S1_2  and  C2_3 
REMARK    2  A    between atoms: N2_5  and  C3_7 
REMARK    3  A    between atoms: C3_7  and  C4_8 
REMARK    4  A    between atoms: C5_9  and  O1_10 
REMARK    5  A    between atoms: C6_12  and  C7_13 
ROOT
HETATM    1  C4  UNL     1     -87.389 -11.547   9.825  1.00  0.00     0.029 A 
HETATM    2  C5  UNL     1     -88.591 -12.241   9.747  1.00  0.00     0.083 A 
HETATM    3  C6  UNL     1     -89.511 -12.278  10.805  1.00  0.00    -0.010 A 
HETATM    4  C16 UNL     1     -89.180 -11.585  11.969  1.00  0.00     0.050 A 
HETATM    5  C17 UNL     1     -87.982 -10.912  12.024  1.00  0.00     0.106 A 
HETATM    6  C18 UNL     1     -87.076 -10.882  10.950  1.00  0.00     0.115 A 
HETATM    7  O6  UNL     1     -85.993 -10.130  11.348  1.00  0.00    -0.322 OA
HETATM    8  C19 UNL     1     -85.966 -10.183  12.799  1.00  0.00     0.352 C 
HETATM    9  O7  UNL     1     -87.364 -10.151  13.022  1.00  0.00    -0.323 OA
ENDROOT
BRANCH   3  10
HETATM   10  C7  UNL     1     -90.804 -12.997  10.581  1.00  0.00     0.114 C 
HETATM   11  C8  UNL     1     -92.017 -12.171  10.850  1.00  0.00     0.274 C 
HETATM   12  O2  UNL     1     -92.550 -12.173  12.091  1.00  0.00    -0.359 OA
HETATM   13  O5  UNL     1     -92.952 -12.550   9.847  1.00  0.00    -0.327 OA
HETATM   14  C9  UNL     1     -93.770 -12.904  11.983  1.00  0.00     0.185 C 
HETATM   15  C10 UNL     1     -93.256 -14.237  11.422  1.00  0.00     0.033 C 
HETATM   16  C11 UNL     1     -94.271 -15.340  11.542  1.00  0.00     0.022 C 
HETATM   17  C12 UNL     1     -92.007 -14.514  12.176  1.00  0.00     0.058 C 
HETATM   18  C15 UNL     1     -93.018 -13.946   9.953  1.00  0.00     0.310 C 
HETATM   19  C13 UNL     1     -90.846 -14.363  11.190  1.00  0.00     0.106 C 
HETATM   20  C14 UNL     1     -89.626 -14.785  11.961  1.00  0.00     0.050 C 
HETATM   21  O3  UNL     1     -91.200 -15.296  10.180  1.00  0.00    -0.227 OA
HETATM   22  O4  UNL     1     -92.029 -14.658   9.384  1.00  0.00    -0.206 OA
ENDBRANCH   3  10
BRANCH   2  23
HETATM   23  O1  UNL     1     -88.929 -12.902   8.619  1.00  0.00    -0.359 OA
ATOM     24  H1  UNL     1     -89.612 -13.562   8.632  1.00  0.00     0.217 HD
ENDBRANCH   2  23
BRANCH   1  25
HETATM   25  C3  UNL     1     -86.485 -11.769   8.617  1.00  0.00     0.166 C 
BRANCH  25  26
HETATM   26  N2  UNL     1     -85.379 -10.883   8.685  1.00  0.00    -0.369 N 
HETATM   27  C2  UNL     1     -84.358 -10.580   8.010  1.00  0.00     0.149 C 
HETATM   28  N1  UNL     1     -83.512  -9.510   8.444  1.00  0.00    -0.075 NA
ATOM     29  H2  UNL     1     -85.423 -10.323   9.537  1.00  0.00     0.161 HD
BRANCH  27  30
HETATM   30  S1  UNL     1     -83.966 -11.354   6.455  1.00  0.00    -0.102 SA
HETATM   31  C1  UNL     1     -82.115 -11.405   6.408  1.00  0.00     0.098 C 
ENDBRANCH  27  30
ENDBRANCH  25  26
ENDBRANCH   1  25
TORSDOF 5
ENDMDL
MODEL 2
REMARK VINA RESULT: -8.436565353      2.089      3.689
REMARK  5 active torsions:
REMARK  status: ('A' for Active; 'I' for Inactive)
REMARK    1  A    between atoms: S1_2  and  C2_3 
REMARK    2  A    between atoms: N2_5  and  C3_7 
REMARK    3  A    between atoms: C3_7  and  C4_8 
REMARK    4  A    between atoms: C5_9  and  O1_10 
REMARK    5  A    between atoms: C6_12  and  C7_13 
ROOT
HETATM    1  C4  UNL     1     -86.717 -12.217   8.605  1.00  0.00     0.029 A 
HETATM    2  C5  UNL     1     -87.337 -12.638   9.775  1.00  0.00     0.083 A 
HETATM    3  C6  UNL     1     -88.724 -12.825   9.870  1.00  0.00    -0.010 A 
HETATM    4  C16 UNL     1     -89.486 -12.568   8.731  1.00  0.00     0.050 A 
HETATM    5  C17 UNL     1     -88.850 -12.145   7.588  1.00  0.00     0.106 A 
HETATM    6  C18 UNL     1     -87.458 -11.970   7.511  1.00  0.00     0.115 A 
HETATM    7  O6  UNL     1     -87.167 -11.539   6.236  1.00  0.00    -0.322 OA
HETATM    8  C19 UNL     1     -88.377 -10.915   5.727  1.00  0.00     0.352 C 
HETATM    9  O7  UNL     1     -89.314 -11.800   6.313  1.00  0.00    -0.323 OA
ENDROOT
BRANCH   3  10
HETATM   10  C7  UNL     1     -89.271 -13.350  11.160  1.00  0.00     0.114 C 
HETATM   11  C8  UNL     1     -90.260 -14.457  10.999  1.00  0.00     0.274 C 
HETATM   12  O2  UNL     1     -91.571 -14.153  10.886  1.00  0.00    -0.359 OA
HETATM   13  O5  UNL     1     -89.990 -15.352  12.071  1.00  0.00    -0.327 OA
HETATM   14  C9  UNL     1     -92.167 -14.566  12.115  1.00  0.00     0.185 C 
HETATM   15  C10 UNL     1     -91.330 -13.764  13.121  1.00  0.00     0.033 C 
HETATM   16  C11 UNL     1     -91.964 -13.715  14.484  1.00  0.00     0.022 C 
HETATM   17  C12 UNL     1     -91.173 -12.422  12.507  1.00  0.00     0.058 C 
HETATM   18  C15 UNL     1     -90.030 -14.539  13.211  1.00  0.00     0.310 C 
HETATM   19  C13 UNL     1     -89.700 -12.280  12.113  1.00  0.00     0.106 C 
HETATM   20  C14 UNL     1     -89.566 -10.864  11.625  1.00  0.00     0.050 C 
HETATM   21  O3  UNL     1     -89.046 -12.491  13.354  1.00  0.00    -0.227 OA
HETATM   22  O4  UNL     1     -88.942 -13.796  13.481  1.00  0.00    -0.206 OA
ENDBRANCH   3  10
BRANCH   2  23
HETATM   23  O1  UNL     1     -86.606 -12.905  10.880  1.00  0.00    -0.359 OA
ATOM     24  H1  UNL     1     -86.377 -12.211  11.487  1.00  0.00     0.217 HD
ENDBRANCH   2  23
BRANCH   1  25
HETATM   25  C3  UNL     1     -85.227 -11.939   8.778  1.00  0.00     0.166 C 
BRANCH  25  26
HETATM   26  N2  UNL     1     -84.614 -11.840   7.502  1.00  0.00    -0.369 N 
HETATM   27  C2  UNL     1     -83.708 -11.175   6.929  1.00  0.00     0.149 C 
HETATM   28  N1  UNL     1     -83.350 -11.482   5.578  1.00  0.00    -0.075 NA
ATOM     29  H2  UNL     1     -85.032 -12.506   6.852  1.00  0.00     0.161 HD
BRANCH  27  30
HETATM   30  S1  UNL     1     -82.757  -9.923   7.766  1.00  0.00    -0.102 SA
HETATM   31  C1  UNL     1     -81.915  -8.986   6.408  1.00  0.00     0.098 C 
ENDBRANCH  27  30
ENDBRANCH  25  26
ENDBRANCH   1  25
TORSDOF 5
ENDMDL
MODEL 3
REMARK VINA RESULT: -8.413117186      4.270      5.744
REMARK  5 active torsions:
REMARK  status: ('A' for Active; 'I' for Inactive)
REMARK    1  A    between atoms: S1_2  and  C2_3 
REMARK    2  A    between atoms: N2_5  and  C3_7 
REMARK    3  A    between atoms: C3_7  and  C4_8 
REMARK    4  A    between atoms: C5_9  and  O1_10 
REMARK    5  A    between atoms: C6_12  and  C7_13 
ROOT
HETATM    1  C4  UNL     1     -89.098 -12.343  16.518  1.00  0.00     0.029 A 
HETATM    2  C5  UNL     1     -89.742 -12.155  15.301  1.00  0.00     0.083 A 
HETATM    3  C6  UNL     1     -90.301 -13.214  14.571  1.00  0.00    -0.010 A 
HETATM    4  C16 UNL     1     -90.188 -14.495  15.109  1.00  0.00     0.050 A 
HETATM    5  C17 UNL     1     -89.540 -14.657  16.311  1.00  0.00     0.106 A 
HETATM    6  C18 UNL     1     -88.992 -13.581  17.031  1.00  0.00     0.115 A 
HETATM    7  O6  UNL     1     -88.421 -14.099  18.172  1.00  0.00    -0.322 OA
HETATM    8  C19 UNL     1     -88.115 -15.490  17.884  1.00  0.00     0.352 C 
HETATM    9  O7  UNL     1     -89.253 -15.781  17.094  1.00  0.00    -0.323 OA
ENDROOT
BRANCH   3  10
HETATM   10  C7  UNL     1     -91.033 -12.882  13.308  1.00  0.00     0.114 C 
HETATM   11  C8  UNL     1     -92.465 -13.303  13.304  1.00  0.00     0.274 C 
HETATM   12  O2  UNL     1     -92.785 -14.530  12.841  1.00  0.00    -0.359 OA
HETATM   13  O5  UNL     1     -93.154 -12.259  12.627  1.00  0.00    -0.327 OA
HETATM   14  C9  UNL     1     -93.439 -14.310  11.592  1.00  0.00     0.185 C 
HETATM   15  C10 UNL     1     -92.358 -13.521  10.840  1.00  0.00     0.033 C 
HETATM   16  C11 UNL     1     -92.618 -13.458   9.361  1.00  0.00     0.022 C 
HETATM   17  C12 UNL     1     -91.082 -14.202  11.176  1.00  0.00     0.058 C 
HETATM   18  C15 UNL     1     -92.461 -12.122  11.417  1.00  0.00     0.310 C 
HETATM   19  C13 UNL     1     -90.284 -13.244  12.065  1.00  0.00     0.106 C 
HETATM   20  C14 UNL     1     -88.954 -13.918  12.263  1.00  0.00     0.050 C 
HETATM   21  O3  UNL     1     -90.192 -12.092  11.242  1.00  0.00    -0.227 OA
HETATM   22  O4  UNL     1     -91.310 -11.428  11.437  1.00  0.00    -0.206 OA
ENDBRANCH   3  10
BRANCH   2  23
HETATM   23  O1  UNL     1     -89.872 -10.916  14.779  1.00  0.00    -0.359 OA
ATOM     24  H1  UNL     1     -89.108 -10.437  14.477  1.00  0.00     0.217 HD
ENDBRANCH   2  23
BRANCH   1  25
HETATM   25  C3  UNL     1     -88.442 -11.075  17.056  1.00  0.00     0.166 C 
BRANCH  25  26
HETATM   26  N2  UNL     1     -87.444 -10.638  16.148  1.00  0.00    -0.369 N 
HETATM   27  C2  UNL     1     -86.249 -10.903  15.845  1.00  0.00     0.149 C 
HETATM   28  N1  UNL     1     -85.628 -10.227  14.748  1.00  0.00    -0.075 NA
ATOM     29  H2  UNL     1     -87.800  -9.881  15.564  1.00  0.00     0.161 HD
BRANCH  27  30
HETATM   30  S1  UNL     1     -85.310 -12.179  16.658  1.00  0.00    -0.102 SA
HETATM   31  C1  UNL     1     -85.586 -13.694  15.630  1.00  0.00     0.098 C 
ENDBRANCH  27  30
ENDBRANCH  25  26
ENDBRANCH   1  25
TORSDOF 5
ENDMDL
MODEL 4
REMARK VINA RESULT: -8.375408470      3.639      4.450
REMARK  5 active torsions:
REMARK  status: ('A' for Active; 'I' for Inactive)
REMARK    1  A    between atoms: S1_2  and  C2_3 
REMARK    2  A    between atoms: N2_5  and  C3_7 
REMARK    3  A    between atoms: C3_7  and  C4_8 
REMARK    4  A    between atoms: C5_9  and  O1_10 
REMARK    5  A    between atoms: C6_12  and  C7_13 
ROOT
HETATM    1  C4  UNL     1     -89.589 -10.984  14.028  1.00  0.00     0.029 A 
HETATM    2  C5  UNL     1     -90.180 -11.542  12.901  1.00  0.00     0.083 A 
HETATM    3  C6  UNL     1     -90.882 -12.756  12.939  1.00  0.00    -0.010 A 
HETATM    4  C16 UNL     1     -90.972 -13.408  14.167  1.00  0.00     0.050 A 
HETATM    5  C17 UNL     1     -90.372 -12.840  15.267  1.00  0.00     0.106 A 
HETATM    6  C18 UNL     1     -89.679 -11.619  15.210  1.00  0.00     0.115 A 
HETATM    7  O6  UNL     1     -89.209 -11.353  16.477  1.00  0.00    -0.322 OA
HETATM    8  C19 UNL     1     -89.113 -12.635  17.156  1.00  0.00     0.352 C 
HETATM    9  O7  UNL     1     -90.271 -13.235  16.606  1.00  0.00    -0.323 OA
ENDROOT
BRANCH   3  10
HETATM   10  C7  UNL     1     -91.537 -13.222  11.677  1.00  0.00     0.114 C 
HETATM   11  C8  UNL     1     -92.885 -13.831  11.878  1.00  0.00     0.274 C 
HETATM   12  O2  UNL     1     -92.979 -15.161  12.092  1.00  0.00    -0.359 OA
HETATM   13  O5  UNL     1     -93.656 -13.394  10.764  1.00  0.00    -0.327 OA
HETATM   14  C9  UNL     1     -93.541 -15.703  10.898  1.00  0.00     0.185 C 
HETATM   15  C10 UNL     1     -92.524 -15.215   9.856  1.00  0.00     0.033 C 
HETATM   16  C11 UNL     1     -92.655 -15.937   8.544  1.00  0.00     0.022 C 
HETATM   17  C12 UNL     1     -91.198 -15.409  10.495  1.00  0.00     0.058 C 
HETATM   18  C15 UNL     1     -92.884 -13.756   9.653  1.00  0.00     0.310 C 
HETATM   19  C13 UNL     1     -90.634 -14.016  10.787  1.00  0.00     0.106 C 
HETATM   20  C14 UNL     1     -89.243 -14.263  11.303  1.00  0.00     0.050 C 
HETATM   21  O3  UNL     1     -90.637 -13.425   9.497  1.00  0.00    -0.227 OA
HETATM   22  O4  UNL     1     -91.853 -12.955   9.327  1.00  0.00    -0.206 OA
ENDBRANCH   3  10
BRANCH   2  23
HETATM   23  O1  UNL     1     -90.112 -10.910  11.709  1.00  0.00    -0.359 OA
ATOM     24  H1  UNL     1     -90.866 -10.444  11.367  1.00  0.00     0.217 HD
ENDBRANCH   2  23
BRANCH   1  25
HETATM   25  C3  UNL     1     -88.756  -9.743  13.722  1.00  0.00     0.166 C 
BRANCH  25  26
HETATM   26  N2  UNL     1     -87.567  -9.769  14.496  1.00  0.00    -0.369 N 
HETATM   27  C2  UNL     1     -86.434 -10.322  14.482  1.00  0.00     0.149 C 
HETATM   28  N1  UNL     1     -85.463  -9.975  15.475  1.00  0.00    -0.075 NA
ATOM     29  H2  UNL     1     -87.656  -9.157  15.307  1.00  0.00     0.161 HD
BRANCH  27  30
HETATM   30  S1  UNL     1     -85.928 -11.452  13.203  1.00  0.00    -0.102 SA
HETATM   31  C1  UNL     1     -86.551 -13.104  13.761  1.00  0.00     0.098 C 
ENDBRANCH  27  30
ENDBRANCH  25  26
ENDBRANCH   1  25
TORSDOF 5
ENDMDL
MODEL 5
REMARK VINA RESULT: -8.344863643      4.892      6.391
REMARK  5 active torsions:
REMARK  status: ('A' for Active; 'I' for Inactive)
REMARK    1  A    between atoms: S1_2  and  C2_3 
REMARK    2  A    between atoms: N2_5  and  C3_7 
REMARK    3  A    between atoms: C3_7  and  C4_8 
REMARK    4  A    between atoms: C5_9  and  O1_10 
REMARK    5  A    between atoms: C6_12  and  C7_13 
ROOT
HETATM    1  C4  UNL     1     -88.695 -14.050  16.340  1.00  0.00     0.029 A 
HETATM    2  C5  UNL     1     -89.749 -13.716  15.499  1.00  0.00     0.083 A 
HETATM    3  C6  UNL     1     -89.671 -13.844  14.104  1.00  0.00    -0.010 A 
HETATM    4  C16 UNL     1     -88.477 -14.324  13.569  1.00  0.00     0.050 A 
HETATM    5  C17 UNL     1     -87.446 -14.641  14.421  1.00  0.00     0.106 A 
HETATM    6  C18 UNL     1     -87.546 -14.512  15.817  1.00  0.00     0.115 A 
HETATM    7  O6  UNL     1     -86.341 -14.908  16.354  1.00  0.00    -0.322 OA
HETATM    8  C19 UNL     1     -85.348 -14.731  15.308  1.00  0.00     0.352 C 
HETATM    9  O7  UNL     1     -86.150 -15.123  14.209  1.00  0.00    -0.323 OA
ENDROOT
BRANCH   3  10
HETATM   10  C7  UNL     1     -90.895 -13.521  13.305  1.00  0.00     0.114 C 
HETATM   11  C8  UNL     1     -91.351 -14.629  12.414  1.00  0.00     0.274 C 
HETATM   12  O2  UNL     1     -90.879 -14.691  11.150  1.00  0.00    -0.359 OA
HETATM   13  O5  UNL     1     -92.772 -14.586  12.471  1.00  0.00    -0.327 OA
HETATM   14  C9  UNL     1     -91.976 -14.330  10.313  1.00  0.00     0.185 C 
HETATM   15  C10 UNL     1     -92.325 -12.947  10.880  1.00  0.00     0.033 C 
HETATM   16  C11 UNL     1     -93.216 -12.159   9.960  1.00  0.00     0.022 C 
HETATM   17  C12 UNL     1     -91.016 -12.290  11.122  1.00  0.00     0.058 C 
HETATM   18  C15 UNL     1     -93.086 -13.258  12.154  1.00  0.00     0.310 C 
HETATM   19  C13 UNL     1     -90.844 -12.182  12.640  1.00  0.00     0.106 C 
HETATM   20  C14 UNL     1     -89.578 -11.393  12.830  1.00  0.00     0.050 C 
HETATM   21  O3  UNL     1     -92.002 -11.450  13.011  1.00  0.00    -0.227 OA
HETATM   22  O4  UNL     1     -92.961 -12.341  13.129  1.00  0.00    -0.206 OA
ENDBRANCH   3  10
BRANCH   2  23
HETATM   23  O1  UNL     1     -90.916 -13.265  16.008  1.00  0.00    -0.359 OA
ATOM     24  H1  UNL     1     -91.221 -13.567  16.856  1.00  0.00     0.217 HD
ENDBRANCH   2  23
BRANCH   1  25
HETATM   25  C3  UNL     1     -88.951 -13.690  17.801  1.00  0.00     0.166 C 
BRANCH  25  26
HETATM   26  N2  UNL     1     -88.805 -12.290  17.975  1.00  0.00    -0.369 N 
HETATM   27  C2  UNL     1     -87.889 -11.444  18.164  1.00  0.00     0.149 C 
HETATM   28  N1  UNL     1     -88.208 -10.049  18.201  1.00  0.00    -0.075 NA
ATOM     29  H2  UNL     1     -89.714 -11.828  17.934  1.00  0.00     0.161 HD
BRANCH  27  30
HETATM   30  S1  UNL     1     -86.170 -11.894  18.280  1.00  0.00    -0.102 SA
HETATM   31  C1  UNL     1     -85.248 -10.322  17.953  1.00  0.00     0.098 C 
ENDBRANCH  27  30
ENDBRANCH  25  26
ENDBRANCH   1  25
TORSDOF 5
ENDMDL
