MODEL 1
REMARK VINA RESULT: -8.390185072      0.000      0.000
REMARK  7 active torsions:
REMARK  status: ('A' for Active; 'I' for Inactive)
REMARK    1  A    between atoms: C2_2  and  O2_4 
REMARK    2  A    between atoms: O2_4  and  C3_5 
REMARK    3  A    between atoms: C6_8  and  C7_9 
REMARK    4  A    between atoms: C15_21  and  O5_22 
REMARK    5  A    between atoms: C17_25  and  O6_26 
REMARK    6  A    between atoms: C17_25  and  C18_28 
REMARK    7  A    between atoms: C18_28  and  O7_29 
ROOT
HETATM    1  C3  UNL     1     -88.630 -13.255  14.217  1.00  0.00     0.141 C 
HETATM    2  C4  UNL     1     -87.866 -14.513  14.540  1.00  0.00     0.041 C 
HETATM    3  C5  UNL     1     -86.871 -14.244  15.585  1.00  0.00     0.030 C 
HETATM    4  C6  UNL     1     -86.467 -15.320  16.514  1.00  0.00     0.177 C 
HETATM    5  O4  UNL     1     -87.166 -15.079  17.732  1.00  0.00    -0.379 OA
HETATM    6  C11 UNL     1     -86.927 -13.666  17.798  1.00  0.00     0.174 C 
HETATM    7  C12 UNL     1     -87.599 -13.286  16.552  1.00  0.00     0.026 C 
HETATM    8  C13 UNL     1     -87.514 -11.887  16.034  1.00  0.00    -0.020 C 
HETATM    9  C14 UNL     1     -88.493 -11.070  16.887  1.00  0.00     0.042 C 
HETATM   10  C15 UNL     1     -87.801 -10.342  18.017  1.00  0.00     0.121 C 
HETATM   11  C16 UNL     1     -86.915  -9.301  17.405  1.00  0.00     0.071 C 
HETATM   12  C17 UNL     1     -85.959  -9.889  16.391  1.00  0.00     0.082 C 
HETATM   13  C19 UNL     1     -86.162 -11.363  16.343  1.00  0.00     0.051 C 
HETATM   14  C20 UNL     1     -87.925 -11.964  14.593  1.00  0.00    -0.013 C 
HETATM   15  C21 UNL     1     -89.020 -10.933  14.246  1.00  0.00     0.018 C 
HETATM   16  C22 UNL     1     -86.852 -11.737  13.575  1.00  0.00     0.018 C 
ENDROOT
BRANCH  10  17
HETATM   17  O5  UNL     1     -88.839  -9.636  18.675  1.00  0.00    -0.395 OA
ATOM     18  H5  UNL     1     -88.893 -10.038  19.534  1.00  0.00     0.210 HD
ENDBRANCH  10  17
BRANCH  12  19
HETATM   19  O6  UNL     1     -85.993  -9.192  15.233  1.00  0.00    -0.388 OA
ATOM     20  H6  UNL     1     -85.148  -8.803  15.046  1.00  0.00     0.210 HD
ENDBRANCH  12  19
BRANCH  12  21
HETATM   21  C18 UNL     1     -84.556  -9.677  16.990  1.00  0.00     0.201 C 
BRANCH  21  22
HETATM   22  O7  UNL     1     -84.616  -9.568  18.374  1.00  0.00    -0.398 OA
ATOM     23  H7  UNL     1     -85.448  -9.202  18.651  1.00  0.00     0.209 HD
ENDBRANCH  21  22
ENDBRANCH  12  21
BRANCH   1  24
HETATM   24  O2  UNL     1     -89.973 -13.307  14.608  1.00  0.00    -0.316 OA
BRANCH  24  25
HETATM   25  C2  UNL     1     -90.962 -14.078  14.030  1.00  0.00     0.255 C 
HETATM   26  C1  UNL     1     -90.949 -14.391  12.556  1.00  0.00     0.126 C 
HETATM   27  O1  UNL     1     -91.873 -14.513  14.780  1.00  0.00    -0.266 OA
ENDBRANCH  24  25
ENDBRANCH   1  24
BRANCH   4  28
HETATM   28  C7  UNL     1     -86.611 -16.691  16.075  1.00  0.00     0.064 A 
HETATM   29  C8  UNL     1     -87.563 -17.593  16.500  1.00  0.00     0.064 A 
HETATM   30  C9  UNL     1     -87.332 -18.790  15.832  1.00  0.00     0.074 A 
HETATM   31  C10 UNL     1     -88.074 -20.067  15.934  1.00  0.00     0.079 C 
HETATM   32  O3  UNL     1     -86.305 -18.585  15.065  1.00  0.00    -0.243 OA
HETATM   33  N1  UNL     1     -85.865 -17.351  15.195  1.00  0.00    -0.263 N 
ATOM     34  H1  UNL     1     -85.069 -16.959  14.693  1.00  0.00     0.194 HD
ENDBRANCH   4  28
TORSDOF 7
ENDMDL
MODEL 2
REMARK VINA RESULT: -8.167523022      2.808      5.832
REMARK  7 active torsions:
REMARK  status: ('A' for Active; 'I' for Inactive)
REMARK    1  A    between atoms: C2_2  and  O2_4 
REMARK    2  A    between atoms: O2_4  and  C3_5 
REMARK    3  A    between atoms: C6_8  and  C7_9 
REMARK    4  A    between atoms: C15_21  and  O5_22 
REMARK    5  A    between atoms: C17_25  and  O6_26 
REMARK    6  A    between atoms: C17_25  and  C18_28 
REMARK    7  A    between atoms: C18_28  and  O7_29 
ROOT
HETATM    1  C3  UNL     1     -88.134 -12.228  13.228  1.00  0.00     0.141 C 
HETATM    2  C4  UNL     1     -89.285 -12.910  12.537  1.00  0.00     0.041 C 
HETATM    3  C5  UNL     1     -89.994 -13.782  13.481  1.00  0.00     0.030 C 
HETATM    4  C6  UNL     1     -91.438 -14.042  13.304  1.00  0.00     0.177 C 
HETATM    5  O4  UNL     1     -92.111 -13.212  14.246  1.00  0.00    -0.379 OA
HETATM    6  C11 UNL     1     -91.257 -13.483  15.365  1.00  0.00     0.174 C 
HETATM    7  C12 UNL     1     -90.005 -12.974  14.796  1.00  0.00     0.026 C 
HETATM    8  C13 UNL     1     -88.708 -13.161  15.513  1.00  0.00    -0.020 C 
HETATM    9  C14 UNL     1     -88.700 -12.112  16.633  1.00  0.00     0.042 C 
HETATM   10  C15 UNL     1     -89.138 -12.688  17.962  1.00  0.00     0.121 C 
HETATM   11  C16 UNL     1     -88.093 -13.670  18.392  1.00  0.00     0.071 C 
HETATM   12  C17 UNL     1     -87.827 -14.721  17.337  1.00  0.00     0.082 C 
HETATM   13  C19 UNL     1     -88.739 -14.482  16.185  1.00  0.00     0.051 C 
HETATM   14  C20 UNL     1     -87.640 -12.921  14.487  1.00  0.00    -0.013 C 
HETATM   15  C21 UNL     1     -86.585 -11.906  14.973  1.00  0.00     0.018 C 
HETATM   16  C22 UNL     1     -86.849 -14.113  14.049  1.00  0.00     0.018 C 
ENDROOT
BRANCH  10  17
HETATM   17  O5  UNL     1     -89.052 -11.601  18.866  1.00  0.00    -0.395 OA
ATOM     18  H5  UNL     1     -88.143 -11.592  19.144  1.00  0.00     0.210 HD
ENDBRANCH  10  17
BRANCH  12  19
HETATM   19  O6  UNL     1     -86.502 -14.844  17.100  1.00  0.00    -0.388 OA
ATOM     20  H6  UNL     1     -86.338 -15.046  16.186  1.00  0.00     0.210 HD
ENDBRANCH  12  19
BRANCH  12  21
HETATM   21  C18 UNL     1     -88.286 -16.049  17.968  1.00  0.00     0.201 C 
BRANCH  21  22
HETATM   22  O7  UNL     1     -89.640 -16.266  17.744  1.00  0.00    -0.398 OA
ATOM     23  H7  UNL     1     -90.104 -15.444  17.638  1.00  0.00     0.209 HD
ENDBRANCH  21  22
ENDBRANCH  12  21
BRANCH   1  24
HETATM   24  O2  UNL     1     -88.314 -10.847  13.372  1.00  0.00    -0.316 OA
BRANCH  24  25
HETATM   25  C2  UNL     1     -88.264  -9.909  12.360  1.00  0.00     0.255 C 
HETATM   26  C1  UNL     1     -87.042  -9.757  11.492  1.00  0.00     0.126 C 
HETATM   27  O1  UNL     1     -89.279  -9.185  12.187  1.00  0.00    -0.266 OA
ENDBRANCH  24  25
ENDBRANCH   1  24
BRANCH   4  28
HETATM   28  C7  UNL     1     -91.998 -13.911  11.975  1.00  0.00     0.064 A 
HETATM   29  C8  UNL     1     -92.430 -12.746  11.380  1.00  0.00     0.064 A 
HETATM   30  C9  UNL     1     -92.899 -13.074  10.113  1.00  0.00     0.074 A 
HETATM   31  C10 UNL     1     -93.470 -12.184   9.076  1.00  0.00     0.079 C 
HETATM   32  O3  UNL     1     -92.743 -14.356   9.990  1.00  0.00    -0.243 OA
HETATM   33  N1  UNL     1     -92.212 -14.868  11.080  1.00  0.00    -0.263 N 
ATOM     34  H1  UNL     1     -91.997 -15.856  11.216  1.00  0.00     0.194 HD
ENDBRANCH   4  28
TORSDOF 7
ENDMDL
MODEL 3
REMARK VINA RESULT: -8.154457958      4.259      6.789
REMARK  7 active torsions:
REMARK  status: ('A' for Active; 'I' for Inactive)
REMARK    1  A    between atoms: C2_2  and  O2_4 
REMARK    2  A    between atoms: O2_4  and  C3_5 
REMARK    3  A    between atoms: C6_8  and  C7_9 
REMARK    4  A    between atoms: C15_21  and  O5_22 
REMARK    5  A    between atoms: C17_25  and  O6_26 
REMARK    6  A    between atoms: C17_25  and  C18_28 
REMARK    7  A    between atoms: C18_28  and  O7_29 
ROOT
HETATM    1  C3  UNL     1     -90.787 -13.651  10.772  1.00  0.00     0.141 C 
HETATM    2  C4  UNL     1     -89.846 -12.852   9.909  1.00  0.00     0.041 C 
HETATM    3  C5  UNL     1     -88.727 -12.349  10.715  1.00  0.00     0.030 C 
HETATM    4  C6  UNL     1     -87.408 -12.125  10.088  1.00  0.00     0.177 C 
HETATM    5  O4  UNL     1     -86.598 -13.238  10.455  1.00  0.00    -0.379 OA
HETATM    6  C11 UNL     1     -86.964 -13.277  11.841  1.00  0.00     0.174 C 
HETATM    7  C12 UNL     1     -88.400 -13.520  11.666  1.00  0.00     0.026 C 
HETATM    8  C13 UNL     1     -89.327 -13.492  12.837  1.00  0.00    -0.020 C 
HETATM    9  C14 UNL     1     -89.124 -14.831  13.558  1.00  0.00     0.042 C 
HETATM   10  C15 UNL     1     -88.173 -14.713  14.729  1.00  0.00     0.121 C 
HETATM   11  C16 UNL     1     -88.836 -13.856  15.761  1.00  0.00     0.071 C 
HETATM   12  C17 UNL     1     -89.271 -12.519  15.201  1.00  0.00     0.082 C 
HETATM   13  C19 UNL     1     -88.857 -12.444  13.773  1.00  0.00     0.051 C 
HETATM   14  C20 UNL     1     -90.704 -13.349  12.258  1.00  0.00    -0.013 C 
HETATM   15  C21 UNL     1     -91.681 -14.407  12.815  1.00  0.00     0.018 C 
HETATM   16  C22 UNL     1     -91.394 -12.041  12.480  1.00  0.00     0.018 C 
ENDROOT
BRANCH  10  17
HETATM   17  O5  UNL     1     -88.121 -16.019  15.277  1.00  0.00    -0.395 OA
ATOM     18  H5  UNL     1     -88.767 -16.012  15.973  1.00  0.00     0.210 HD
ENDBRANCH  10  17
BRANCH  12  19
HETATM   19  O6  UNL     1     -90.560 -12.259  15.516  1.00  0.00    -0.388 OA
ATOM     20  H6  UNL     1     -91.031 -11.917  14.765  1.00  0.00     0.210 HD
ENDBRANCH  12  19
BRANCH  12  21
HETATM   21  C18 UNL     1     -88.418 -11.474  15.943  1.00  0.00     0.201 C 
BRANCH  21  22
HETATM   22  O7  UNL     1     -89.058 -11.035  17.095  1.00  0.00    -0.398 OA
ATOM     23  H7  UNL     1     -88.431 -10.707  17.729  1.00  0.00     0.209 HD
ENDBRANCH  21  22
ENDBRANCH  12  21
BRANCH   1  24
HETATM   24  O2  UNL     1     -90.795 -15.016  10.466  1.00  0.00    -0.316 OA
BRANCH  24  25
HETATM   25  C2  UNL     1     -91.586 -15.636   9.519  1.00  0.00     0.255 C 
HETATM   26  C1  UNL     1     -93.079 -15.740   9.693  1.00  0.00     0.126 C 
HETATM   27  O1  UNL     1     -91.014 -16.109   8.503  1.00  0.00    -0.266 OA
ENDBRANCH  24  25
ENDBRANCH   1  24
BRANCH   4  28
HETATM   28  C7  UNL     1     -87.362 -11.874   8.663  1.00  0.00     0.064 A 
HETATM   29  C8  UNL     1     -88.389 -12.064   7.765  1.00  0.00     0.064 A 
HETATM   30  C9  UNL     1     -87.914 -11.708   6.507  1.00  0.00     0.074 A 
HETATM   31  C10 UNL     1     -88.623 -11.731   5.207  1.00  0.00     0.079 C 
HETATM   32  O3  UNL     1     -86.682 -11.334   6.677  1.00  0.00    -0.243 OA
HETATM   33  N1  UNL     1     -86.338 -11.426   7.944  1.00  0.00    -0.263 N 
ATOM     34  H1  UNL     1     -85.421 -11.187   8.319  1.00  0.00     0.194 HD
ENDBRANCH   4  28
TORSDOF 7
ENDMDL
MODEL 4
REMARK VINA RESULT: -7.941603359      4.393      8.227
REMARK  7 active torsions:
REMARK  status: ('A' for Active; 'I' for Inactive)
REMARK    1  A    between atoms: C2_2  and  O2_4 
REMARK    2  A    between atoms: O2_4  and  C3_5 
REMARK    3  A    between atoms: C6_8  and  C7_9 
REMARK    4  A    between atoms: C15_21  and  O5_22 
REMARK    5  A    between atoms: C17_25  and  O6_26 
REMARK    6  A    between atoms: C17_25  and  C18_28 
REMARK    7  A    between atoms: C18_28  and  O7_29 
ROOT
HETATM    1  C3  UNL     1     -88.973 -12.705  12.931  1.00  0.00     0.141 C 
HETATM    2  C4  UNL     1     -87.668 -12.715  12.178  1.00  0.00     0.041 C 
HETATM    3  C5  UNL     1     -87.894 -13.110  10.783  1.00  0.00     0.030 C 
HETATM    4  C6  UNL     1     -87.000 -12.607   9.719  1.00  0.00     0.177 C 
HETATM    5  O4  UNL     1     -87.704 -11.550   9.073  1.00  0.00    -0.379 OA
HETATM    6  C11 UNL     1     -88.971 -12.214   8.974  1.00  0.00     0.174 C 
HETATM    7  C12 UNL     1     -89.215 -12.405  10.407  1.00  0.00     0.026 C 
HETATM    8  C13 UNL     1     -90.374 -13.221  10.883  1.00  0.00    -0.020 C 
HETATM    9  C14 UNL     1     -91.605 -12.318  10.729  1.00  0.00     0.042 C 
HETATM   10  C15 UNL     1     -92.362 -12.594   9.449  1.00  0.00     0.121 C 
HETATM   11  C16 UNL     1     -92.945 -13.968   9.559  1.00  0.00     0.071 C 
HETATM   12  C17 UNL     1     -91.895 -15.011   9.876  1.00  0.00     0.082 C 
HETATM   13  C19 UNL     1     -90.565 -14.345   9.937  1.00  0.00     0.051 C 
HETATM   14  C20 UNL     1     -90.073 -13.552  12.315  1.00  0.00    -0.013 C 
HETATM   15  C21 UNL     1     -91.251 -13.206  13.251  1.00  0.00     0.018 C 
HETATM   16  C22 UNL     1     -89.751 -14.980  12.621  1.00  0.00     0.018 C 
ENDROOT
BRANCH  10  17
HETATM   17  O5  UNL     1     -93.459 -11.698   9.484  1.00  0.00    -0.395 OA
ATOM     18  H5  UNL     1     -93.199 -11.026  10.102  1.00  0.00     0.210 HD
ENDBRANCH  10  17
BRANCH  12  19
HETATM   19  O6  UNL     1     -92.281 -15.785  10.915  1.00  0.00    -0.388 OA
ATOM     20  H6  UNL     1     -93.111 -16.208  10.733  1.00  0.00     0.210 HD
ENDBRANCH  12  19
BRANCH  12  21
HETATM   21  C18 UNL     1     -91.851 -15.927   8.638  1.00  0.00     0.201 C 
BRANCH  21  22
HETATM   22  O7  UNL     1     -93.026 -16.658   8.517  1.00  0.00    -0.398 OA
ATOM     23  H7  UNL     1     -93.291 -16.728   7.607  1.00  0.00     0.209 HD
ENDBRANCH  21  22
ENDBRANCH  12  21
BRANCH   1  24
HETATM   24  O2  UNL     1     -89.385 -11.422  13.308  1.00  0.00    -0.316 OA
BRANCH  24  25
HETATM   25  C2  UNL     1     -88.624 -10.271  13.250  1.00  0.00     0.255 C 
HETATM   26  C1  UNL     1     -88.774  -9.290  12.115  1.00  0.00     0.126 C 
HETATM   27  O1  UNL     1     -87.801 -10.068  14.180  1.00  0.00    -0.266 OA
ENDBRANCH  24  25
ENDBRANCH   1  24
BRANCH   4  28
HETATM   28  C7  UNL     1     -85.657 -12.212  10.086  1.00  0.00     0.064 A 
HETATM   29  C8  UNL     1     -85.084 -10.974   9.889  1.00  0.00     0.064 A 
HETATM   30  C9  UNL     1     -83.784 -11.033  10.380  1.00  0.00     0.074 A 
HETATM   31  C10 UNL     1     -82.754  -9.970  10.406  1.00  0.00     0.079 C 
HETATM   32  O3  UNL     1     -83.622 -12.238  10.834  1.00  0.00    -0.243 OA
HETATM   33  N1  UNL     1     -84.718 -12.950  10.669  1.00  0.00    -0.263 N 
ATOM     34  H1  UNL     1     -84.829 -13.924  10.948  1.00  0.00     0.194 HD
ENDBRANCH   4  28
TORSDOF 7
ENDMDL
MODEL 5
REMARK VINA RESULT: -7.893054662      2.880      5.710
REMARK  7 active torsions:
REMARK  status: ('A' for Active; 'I' for Inactive)
REMARK    1  A    between atoms: C2_2  and  O2_4 
REMARK    2  A    between atoms: O2_4  and  C3_5 
REMARK    3  A    between atoms: C6_8  and  C7_9 
REMARK    4  A    between atoms: C15_21  and  O5_22 
REMARK    5  A    between atoms: C17_25  and  O6_26 
REMARK    6  A    between atoms: C17_25  and  C18_28 
REMARK    7  A    between atoms: C18_28  and  O7_29 
ROOT
HETATM    1  C3  UNL     1     -88.268 -14.228  13.616  1.00  0.00     0.141 C 
HETATM    2  C4  UNL     1     -89.678 -13.906  13.197  1.00  0.00     0.041 C 
HETATM    3  C5  UNL     1     -90.289 -12.975  14.154  1.00  0.00     0.030 C 
HETATM    4  C6  UNL     1     -91.329 -12.028  13.701  1.00  0.00     0.177 C 
HETATM    5  O4  UNL     1     -90.683 -10.766  13.557  1.00  0.00    -0.379 OA
HETATM    6  C11 UNL     1     -89.942 -10.803  14.784  1.00  0.00     0.174 C 
HETATM    7  C12 UNL     1     -89.144 -12.001  14.505  1.00  0.00     0.026 C 
HETATM    8  C13 UNL     1     -88.276 -12.604  15.562  1.00  0.00    -0.020 C 
HETATM    9  C14 UNL     1     -87.030 -11.712  15.632  1.00  0.00     0.042 C 
HETATM   10  C15 UNL     1     -87.114 -10.694  16.748  1.00  0.00     0.121 C 
HETATM   11  C16 UNL     1     -87.082 -11.445  18.042  1.00  0.00     0.071 C 
HETATM   12  C17 UNL     1     -88.156 -12.508  18.114  1.00  0.00     0.082 C 
HETATM   13  C19 UNL     1     -88.965 -12.453  16.865  1.00  0.00     0.051 C 
HETATM   14  C20 UNL     1     -87.968 -13.994  15.087  1.00  0.00    -0.013 C 
HETATM   15  C21 UNL     1     -86.455 -14.296  15.118  1.00  0.00     0.018 C 
HETATM   16  C22 UNL     1     -88.597 -15.118  15.848  1.00  0.00     0.018 C 
ENDROOT
BRANCH  10  17
HETATM   17  O5  UNL     1     -85.890  -9.984  16.675  1.00  0.00    -0.395 OA
ATOM     18  H5  UNL     1     -85.232 -10.615  16.939  1.00  0.00     0.210 HD
ENDBRANCH  10  17
BRANCH  12  19
HETATM   19  O6  UNL     1     -87.635 -13.696  18.496  1.00  0.00    -0.388 OA
ATOM     20  H6  UNL     1     -87.921 -14.394  17.919  1.00  0.00     0.210 HD
ENDBRANCH  12  19
BRANCH  12  21
HETATM   21  C18 UNL     1     -89.097 -12.056  19.245  1.00  0.00     0.201 C 
BRANCH  21  22
HETATM   22  O7  UNL     1     -90.388 -12.527  19.039  1.00  0.00    -0.398 OA
ATOM     23  H7  UNL     1     -90.434 -13.061  18.254  1.00  0.00     0.209 HD
ENDBRANCH  21  22
ENDBRANCH  12  21
BRANCH   1  24
HETATM   24  O2  UNL     1     -87.300 -13.711  12.748  1.00  0.00    -0.316 OA
BRANCH  24  25
HETATM   25  C2  UNL     1     -87.534 -12.899  11.656  1.00  0.00     0.255 C 
HETATM   26  C1  UNL     1     -87.287 -11.414  11.719  1.00  0.00     0.126 C 
HETATM   27  O1  UNL     1     -87.960 -13.444  10.606  1.00  0.00    -0.266 OA
ENDBRANCH  24  25
ENDBRANCH   1  24
BRANCH   4  28
HETATM   28  C7  UNL     1     -92.103 -12.373  12.528  1.00  0.00     0.064 A 
HETATM   29  C8  UNL     1     -91.800 -12.049  11.223  1.00  0.00     0.064 A 
HETATM   30  C9  UNL     1     -92.811 -12.567  10.420  1.00  0.00     0.074 A 
HETATM   31  C10 UNL     1     -92.955 -12.494   8.948  1.00  0.00     0.079 C 
HETATM   32  O3  UNL     1     -93.645 -13.155  11.222  1.00  0.00    -0.243 OA
HETATM   33  N1  UNL     1     -93.244 -13.051  12.471  1.00  0.00    -0.263 N 
ATOM     34  H1  UNL     1     -93.737 -13.434  13.277  1.00  0.00     0.194 HD
ENDBRANCH   4  28
TORSDOF 7
ENDMDL
