MODEL 1
REMARK VINA RESULT: -7.740556938      0.000      0.000
REMARK  14 active torsions:
REMARK  status: ('A' for Active; 'I' for Inactive)
REMARK    1  A    between atoms: C4_4  and  C5_5 
REMARK    2  A    between atoms: C5_5  and  C6_6 
REMARK    3  A    between atoms: C5_5  and  N2_14 
REMARK       I    between atoms: C6_6  and  N1_8 
REMARK    4  A    between atoms: N1_8  and  C7_10 
REMARK    5  A    between atoms: N2_14  and  C11_15 
REMARK       I    between atoms: N2_14  and  C15_19 
REMARK    6  A    between atoms: C11_15  and  C12_16 
REMARK    7  A    between atoms: C15_19  and  C16_21 
REMARK    8  A    between atoms: N3_22  and  C17_23 
REMARK    9  A    between atoms: N3_22  and  C23_32 
REMARK   10  A    between atoms: C17_23  and  C18_24 
REMARK       I    between atoms: C18_24  and  N4_26 
REMARK   11  A    between atoms: N4_26  and  C19_28 
REMARK   12  A    between atoms: C23_32  and  C24_33 
REMARK   13  A    between atoms: C26_38  and  C27_39 
REMARK   14  A    between atoms: C27_39  and  O4_40 
ROOT
HETATM    1  N2  UNL     1      16.665  -5.071 101.503  1.00  0.00    -0.330 N 
HETATM    2  C15 UNL     1      16.327  -4.850 100.122  1.00  0.00     0.260 C 
HETATM    3  O2  UNL     1      15.115  -4.582  99.868  1.00  0.00    -0.267 OA
ENDROOT
BRANCH   2   4
HETATM    4  C16 UNL     1      17.357  -4.943  99.100  1.00  0.00     0.165 C 
HETATM    5  N3  UNL     1      17.770  -3.968  98.242  1.00  0.00    -0.349 N 
BRANCH   5   6
HETATM    6  C17 UNL     1      17.154  -3.474  97.122  1.00  0.00     0.165 C 
BRANCH   6   7
HETATM    7  C18 UNL     1      15.872  -2.864  96.990  1.00  0.00     0.257 C 
HETATM    8  O3  UNL     1      15.599  -1.672  96.920  1.00  0.00    -0.267 OA
HETATM    9  N4  UNL     1      14.716  -3.749  96.929  1.00  0.00    -0.348 N 
ATOM     10  H4  UNL     1      14.861  -4.757  96.982  1.00  0.00     0.163 HD
BRANCH   9  11
HETATM   11  C19 UNL     1      13.382  -3.242  96.797  1.00  0.00     0.022 C 
HETATM   12  C20 UNL     1      13.210  -2.620  95.431  1.00  0.00     0.037 C 
HETATM   13  C21 UNL     1      13.050  -2.208  97.861  1.00  0.00     0.037 C 
HETATM   14  C22 UNL     1      12.419  -4.388  96.961  1.00  0.00     0.037 C 
ENDBRANCH   9  11
ENDBRANCH   6   7
ENDBRANCH   5   6
BRANCH   5  15
HETATM   15  C23 UNL     1      19.200  -3.785  98.231  1.00  0.00     0.204 C 
BRANCH  15  16
HETATM   16  C24 UNL     1      19.602  -2.381  98.425  1.00  0.00     0.103 A 
HETATM   17  N5  UNL     1      18.960  -1.343  98.962  1.00  0.00    -0.333 N 
HETATM   18  C25 UNL     1      19.709  -0.231  98.929  1.00  0.00     0.130 A 
ATOM     19  H5  UNL     1      18.017  -1.389  99.349  1.00  0.00     0.168 HD
HETATM   20 CL1  UNL     1      19.295   1.353  99.507  1.00  0.00    -0.062 Cl
HETATM   21  C26 UNL     1      20.901  -0.636  98.322  1.00  0.00     0.075 A 
HETATM   22  N6  UNL     1      20.825  -1.939  98.021  1.00  0.00    -0.339 N 
HETATM   23  C28 UNL     1      21.873  -2.700  97.385  1.00  0.00     0.157 C 
BRANCH  21  24
HETATM   24  C27 UNL     1      22.008   0.320  98.097  1.00  0.00     0.224 C 
BRANCH  24  25
HETATM   25  O4  UNL     1      22.926   0.245  99.125  1.00  0.00    -0.395 OA
ATOM     26  H4  UNL     1      23.747   0.647  98.867  1.00  0.00     0.209 HD
ENDBRANCH  24  25
ENDBRANCH  21  24
ENDBRANCH  15  16
ENDBRANCH   5  15
ENDBRANCH   2   4
BRANCH   1  27
HETATM   27  C5  UNL     1      18.001  -5.380 101.848  1.00  0.00     0.213 C 
BRANCH  27  28
HETATM   28  C4  UNL     1      18.913  -4.185 101.947  1.00  0.00    -0.026 A 
HETATM   29  C3  UNL     1      20.212  -4.186 101.503  1.00  0.00     0.018 A 
HETATM   30  C2  UNL     1      21.037  -3.068 101.566  1.00  0.00    -0.040 A 
HETATM   31  C1  UNL     1      22.434  -3.096 101.077  1.00  0.00     0.050 C 
HETATM   32  C31 UNL     1      20.550  -1.898 102.094  1.00  0.00     0.040 A 
HETATM   33  C30 UNL     1      19.265  -1.845 102.548  1.00  0.00     0.025 A 
HETATM   34 CL2  UNL     1      21.553  -0.458 102.196  1.00  0.00    -0.084 Cl
HETATM   35  C29 UNL     1      18.475  -2.975 102.469  1.00  0.00     0.011 A 
ENDBRANCH  27  28
BRANCH  27  36
HETATM   36  C6  UNL     1      18.161  -6.242 103.025  1.00  0.00     0.245 C 
HETATM   37  O1  UNL     1      18.380  -5.793 104.161  1.00  0.00    -0.271 OA
HETATM   38  N1  UNL     1      18.062  -7.636 102.863  1.00  0.00    -0.351 N 
ATOM     39  H1  UNL     1      17.885  -8.002 101.928  1.00  0.00     0.163 HD
BRANCH  38  40
HETATM   40  C7  UNL     1      18.199  -8.578 103.953  1.00  0.00     0.022 C 
HETATM   41  C8  UNL     1      19.630  -8.694 104.434  1.00  0.00     0.037 C 
HETATM   42  C9  UNL     1      17.721  -9.923 103.461  1.00  0.00     0.037 C 
HETATM   43  C10 UNL     1      17.317  -8.176 105.115  1.00  0.00     0.037 C 
ENDBRANCH  38  40
ENDBRANCH  27  36
ENDBRANCH   1  27
BRANCH   1  44
HETATM   44  C11 UNL     1      15.580  -4.960 102.459  1.00  0.00     0.131 C 
BRANCH  44  45
HETATM   45  C12 UNL     1      14.831  -6.199 102.770  1.00  0.00    -0.005 C 
HETATM   46  C13 UNL     1      13.454  -6.045 102.088  1.00  0.00     0.011 C 
HETATM   47  C14 UNL     1      14.535  -6.437 104.224  1.00  0.00     0.011 C 
ENDBRANCH  44  45
ENDBRANCH   1  44
TORSDOF 14
ENDMDL
MODEL 2
REMARK VINA RESULT: -7.490927044      1.488      1.880
REMARK  14 active torsions:
REMARK  status: ('A' for Active; 'I' for Inactive)
REMARK    1  A    between atoms: C4_4  and  C5_5 
REMARK    2  A    between atoms: C5_5  and  C6_6 
REMARK    3  A    between atoms: C5_5  and  N2_14 
REMARK       I    between atoms: C6_6  and  N1_8 
REMARK    4  A    between atoms: N1_8  and  C7_10 
REMARK    5  A    between atoms: N2_14  and  C11_15 
REMARK       I    between atoms: N2_14  and  C15_19 
REMARK    6  A    between atoms: C11_15  and  C12_16 
REMARK    7  A    between atoms: C15_19  and  C16_21 
REMARK    8  A    between atoms: N3_22  and  C17_23 
REMARK    9  A    between atoms: N3_22  and  C23_32 
REMARK   10  A    between atoms: C17_23  and  C18_24 
REMARK       I    between atoms: C18_24  and  N4_26 
REMARK   11  A    between atoms: N4_26  and  C19_28 
REMARK   12  A    between atoms: C23_32  and  C24_33 
REMARK   13  A    between atoms: C26_38  and  C27_39 
REMARK   14  A    between atoms: C27_39  and  O4_40 
ROOT
HETATM    1  N2  UNL     1      16.224  -4.913 101.455  1.00  0.00    -0.330 N 
HETATM    2  C15 UNL     1      15.760  -4.318 100.229  1.00  0.00     0.260 C 
HETATM    3  O2  UNL     1      14.684  -3.651 100.291  1.00  0.00    -0.267 OA
ENDROOT
BRANCH   2   4
HETATM    4  C16 UNL     1      16.520  -4.501  99.003  1.00  0.00     0.165 C 
HETATM    5  N3  UNL     1      16.942  -3.540  98.134  1.00  0.00    -0.349 N 
BRANCH   5   6
HETATM    6  C17 UNL     1      16.228  -2.827  97.207  1.00  0.00     0.165 C 
BRANCH   6   7
HETATM    7  C18 UNL     1      15.773  -1.476  97.260  1.00  0.00     0.257 C 
HETATM    8  O3  UNL     1      16.431  -0.447  97.177  1.00  0.00    -0.267 OA
HETATM    9  N4  UNL     1      14.343  -1.261  97.437  1.00  0.00    -0.348 N 
ATOM     10  H4  UNL     1      13.726  -2.070  97.516  1.00  0.00     0.163 HD
BRANCH   9  11
HETATM   11  C19 UNL     1      13.779   0.054  97.504  1.00  0.00     0.022 C 
HETATM   12  C20 UNL     1      13.944   0.745  96.170  1.00  0.00     0.037 C 
HETATM   13  C21 UNL     1      14.423   0.903  98.589  1.00  0.00     0.037 C 
HETATM   14  C22 UNL     1      12.315  -0.072  97.835  1.00  0.00     0.037 C 
ENDBRANCH   9  11
ENDBRANCH   6   7
ENDBRANCH   5   6
BRANCH   5  15
HETATM   15  C23 UNL     1      18.346  -3.632  97.820  1.00  0.00     0.204 C 
BRANCH  15  16
HETATM   16  C24 UNL     1      19.108  -2.440  98.234  1.00  0.00     0.103 A 
HETATM   17  N5  UNL     1      18.874  -1.524  99.173  1.00  0.00    -0.333 N 
HETATM   18  C25 UNL     1      19.841  -0.594  99.204  1.00  0.00     0.130 A 
ATOM     19  H5  UNL     1      18.063  -1.529  99.791  1.00  0.00     0.168 HD
HETATM   20 CL1  UNL     1      19.964   0.784 100.252  1.00  0.00    -0.062 Cl
HETATM   21  C26 UNL     1      20.729  -0.987  98.198  1.00  0.00     0.075 A 
HETATM   22  N6  UNL     1      20.275  -2.105  97.617  1.00  0.00    -0.339 N 
HETATM   23  C28 UNL     1      20.934  -2.798  96.538  1.00  0.00     0.157 C 
BRANCH  21  24
HETATM   24  C27 UNL     1      21.951  -0.204  97.910  1.00  0.00     0.224 C 
BRANCH  24  25
HETATM   25  O4  UNL     1      23.030  -0.724  98.596  1.00  0.00    -0.395 OA
ATOM     26  H4  UNL     1      22.739  -1.179  99.377  1.00  0.00     0.209 HD
ENDBRANCH  24  25
ENDBRANCH  21  24
ENDBRANCH  15  16
ENDBRANCH   5  15
ENDBRANCH   2   4
BRANCH   1  27
HETATM   27  C5  UNL     1      17.415  -5.674 101.448  1.00  0.00     0.213 C 
BRANCH  27  28
HETATM   28  C4  UNL     1      18.679  -4.855 101.471  1.00  0.00    -0.026 A 
HETATM   29  C3  UNL     1      19.742  -5.079 100.631  1.00  0.00     0.018 A 
HETATM   30  C2  UNL     1      20.891  -4.297 100.635  1.00  0.00    -0.040 A 
HETATM   31  C1  UNL     1      22.022  -4.558  99.717  1.00  0.00     0.050 C 
HETATM   32  C31 UNL     1      20.990  -3.246 101.514  1.00  0.00     0.040 A 
HETATM   33  C30 UNL     1      19.961  -2.982 102.369  1.00  0.00     0.025 A 
HETATM   34 CL2  UNL     1      22.422  -2.228 101.559  1.00  0.00    -0.084 Cl
HETATM   35  C29 UNL     1      18.834  -3.780 102.336  1.00  0.00     0.011 A 
ENDBRANCH  27  28
BRANCH  27  36
HETATM   36  C6  UNL     1      17.482  -6.744 102.450  1.00  0.00     0.245 C 
HETATM   37  O1  UNL     1      16.825  -7.793 102.357  1.00  0.00    -0.271 OA
HETATM   38  N1  UNL     1      18.327  -6.579 103.562  1.00  0.00    -0.351 N 
ATOM     39  H1  UNL     1      18.865  -5.716 103.637  1.00  0.00     0.163 HD
BRANCH  38  40
HETATM   40  C7  UNL     1      18.475  -7.570 104.607  1.00  0.00     0.022 C 
HETATM   41  C8  UNL     1      17.142  -7.998 105.183  1.00  0.00     0.037 C 
HETATM   42  C9  UNL     1      19.325  -6.964 105.698  1.00  0.00     0.037 C 
HETATM   43  C10 UNL     1      19.203  -8.788 104.083  1.00  0.00     0.037 C 
ENDBRANCH  38  40
ENDBRANCH  27  36
ENDBRANCH   1  27
BRANCH   1  44
HETATM   44  C11 UNL     1      15.408  -4.684 102.632  1.00  0.00     0.131 C 
BRANCH  44  45
HETATM   45  C12 UNL     1      14.119  -5.408 102.707  1.00  0.00    -0.005 C 
HETATM   46  C13 UNL     1      14.123  -6.139 104.067  1.00  0.00     0.011 C 
HETATM   47  C14 UNL     1      13.908  -6.479 101.675  1.00  0.00     0.011 C 
ENDBRANCH  44  45
ENDBRANCH   1  44
TORSDOF 14
ENDMDL
MODEL 3
REMARK VINA RESULT: -7.469753377      1.004      1.349
REMARK  14 active torsions:
REMARK  status: ('A' for Active; 'I' for Inactive)
REMARK    1  A    between atoms: C4_4  and  C5_5 
REMARK    2  A    between atoms: C5_5  and  C6_6 
REMARK    3  A    between atoms: C5_5  and  N2_14 
REMARK       I    between atoms: C6_6  and  N1_8 
REMARK    4  A    between atoms: N1_8  and  C7_10 
REMARK    5  A    between atoms: N2_14  and  C11_15 
REMARK       I    between atoms: N2_14  and  C15_19 
REMARK    6  A    between atoms: C11_15  and  C12_16 
REMARK    7  A    between atoms: C15_19  and  C16_21 
REMARK    8  A    between atoms: N3_22  and  C17_23 
REMARK    9  A    between atoms: N3_22  and  C23_32 
REMARK   10  A    between atoms: C17_23  and  C18_24 
REMARK       I    between atoms: C18_24  and  N4_26 
REMARK   11  A    between atoms: N4_26  and  C19_28 
REMARK   12  A    between atoms: C23_32  and  C24_33 
REMARK   13  A    between atoms: C26_38  and  C27_39 
REMARK   14  A    between atoms: C27_39  and  O4_40 
ROOT
HETATM    1  N2  UNL     1      16.769  -4.978 101.438  1.00  0.00    -0.330 N 
HETATM    2  C15 UNL     1      16.466  -4.723 100.055  1.00  0.00     0.260 C 
HETATM    3  O2  UNL     1      15.266  -4.419  99.780  1.00  0.00    -0.267 OA
ENDROOT
BRANCH   2   4
HETATM    4  C16 UNL     1      17.515  -4.824  99.053  1.00  0.00     0.165 C 
HETATM    5  N3  UNL     1      17.955  -3.851  98.207  1.00  0.00    -0.349 N 
BRANCH   5   6
HETATM    6  C17 UNL     1      17.367  -3.346  97.077  1.00  0.00     0.165 C 
BRANCH   6   7
HETATM    7  C18 UNL     1      16.178  -2.569  96.947  1.00  0.00     0.257 C 
HETATM    8  O3  UNL     1      15.196  -2.790  96.250  1.00  0.00    -0.267 OA
HETATM    9  N4  UNL     1      16.093  -1.345  97.734  1.00  0.00    -0.348 N 
ATOM     10  H4  UNL     1      16.873  -1.092  98.341  1.00  0.00     0.163 HD
BRANCH   9  11
HETATM   11  C19 UNL     1      14.945  -0.490  97.680  1.00  0.00     0.022 C 
HETATM   12  C20 UNL     1      13.720  -1.258  98.119  1.00  0.00     0.037 C 
HETATM   13  C21 UNL     1      14.709   0.070  96.286  1.00  0.00     0.037 C 
HETATM   14  C22 UNL     1      15.175   0.676  98.604  1.00  0.00     0.037 C 
ENDBRANCH   9  11
ENDBRANCH   6   7
ENDBRANCH   5   6
BRANCH   5  15
HETATM   15  C23 UNL     1      19.387  -3.684  98.224  1.00  0.00     0.204 C 
BRANCH  15  16
HETATM   16  C24 UNL     1      19.801  -2.292  98.479  1.00  0.00     0.103 A 
HETATM   17  N5  UNL     1      19.170  -1.275  99.064  1.00  0.00    -0.333 N 
HETATM   18  C25 UNL     1      19.927  -0.168  99.076  1.00  0.00     0.130 A 
ATOM     19  H5  UNL     1      18.229  -1.331  99.454  1.00  0.00     0.168 HD
HETATM   20 CL1  UNL     1      19.529   1.391  99.727  1.00  0.00    -0.062 Cl
HETATM   21  C26 UNL     1      21.113  -0.555  98.444  1.00  0.00     0.075 A 
HETATM   22  N6  UNL     1      21.025  -1.843  98.087  1.00  0.00    -0.339 N 
HETATM   23  C28 UNL     1      22.063  -2.582  97.411  1.00  0.00     0.157 C 
BRANCH  21  24
HETATM   24  C27 UNL     1      22.225   0.402  98.256  1.00  0.00     0.224 C 
BRANCH  24  25
HETATM   25  O4  UNL     1      23.099   0.342  99.322  1.00  0.00    -0.395 OA
ATOM     26  H4  UNL     1      23.810  -0.259  99.135  1.00  0.00     0.209 HD
ENDBRANCH  24  25
ENDBRANCH  21  24
ENDBRANCH  15  16
ENDBRANCH   5  15
ENDBRANCH   2   4
BRANCH   1  27
HETATM   27  C5  UNL     1      18.088  -5.329 101.805  1.00  0.00     0.213 C 
BRANCH  27  28
HETATM   28  C4  UNL     1      19.026  -4.159 101.952  1.00  0.00    -0.026 A 
HETATM   29  C3  UNL     1      20.319  -4.163 101.490  1.00  0.00     0.018 A 
HETATM   30  C2  UNL     1      21.168  -3.066 101.599  1.00  0.00    -0.040 A 
HETATM   31  C1  UNL     1      22.557  -3.096 101.089  1.00  0.00     0.050 C 
HETATM   32  C31 UNL     1      20.713  -1.916 102.194  1.00  0.00     0.040 A 
HETATM   33  C30 UNL     1      19.435  -1.862 102.670  1.00  0.00     0.025 A 
HETATM   34 CL2  UNL     1      21.747  -0.504 102.357  1.00  0.00    -0.084 Cl
HETATM   35  C29 UNL     1      18.621  -2.970 102.543  1.00  0.00     0.011 A 
ENDBRANCH  27  28
BRANCH  27  36
HETATM   36  C6  UNL     1      18.201  -6.222 102.964  1.00  0.00     0.245 C 
HETATM   37  O1  UNL     1      18.413  -5.805 104.114  1.00  0.00    -0.271 OA
HETATM   38  N1  UNL     1      18.063  -7.608 102.768  1.00  0.00    -0.351 N 
ATOM     39  H1  UNL     1      17.891  -7.947 101.822  1.00  0.00     0.163 HD
BRANCH  38  40
HETATM   40  C7  UNL     1      18.152  -8.578 103.838  1.00  0.00     0.022 C 
HETATM   41  C8  UNL     1      19.561  -8.715 104.372  1.00  0.00     0.037 C 
HETATM   42  C9  UNL     1      17.688  -9.908 103.292  1.00  0.00     0.037 C 
HETATM   43  C10 UNL     1      17.226  -8.201 104.973  1.00  0.00     0.037 C 
ENDBRANCH  38  40
ENDBRANCH  27  36
ENDBRANCH   1  27
BRANCH   1  44
HETATM   44  C11 UNL     1      15.666  -4.857 102.373  1.00  0.00     0.131 C 
BRANCH  44  45
HETATM   45  C12 UNL     1      14.897  -6.088 102.666  1.00  0.00    -0.005 C 
HETATM   46  C13 UNL     1      13.551  -5.933 101.924  1.00  0.00     0.011 C 
HETATM   47  C14 UNL     1      14.538  -6.308 104.109  1.00  0.00     0.011 C 
ENDBRANCH  44  45
ENDBRANCH   1  44
TORSDOF 14
ENDMDL
MODEL 4
REMARK VINA RESULT: -7.457890984      1.281      1.692
REMARK  14 active torsions:
REMARK  status: ('A' for Active; 'I' for Inactive)
REMARK    1  A    between atoms: C4_4  and  C5_5 
REMARK    2  A    between atoms: C5_5  and  C6_6 
REMARK    3  A    between atoms: C5_5  and  N2_14 
REMARK       I    between atoms: C6_6  and  N1_8 
REMARK    4  A    between atoms: N1_8  and  C7_10 
REMARK    5  A    between atoms: N2_14  and  C11_15 
REMARK       I    between atoms: N2_14  and  C15_19 
REMARK    6  A    between atoms: C11_15  and  C12_16 
REMARK    7  A    between atoms: C15_19  and  C16_21 
REMARK    8  A    between atoms: N3_22  and  C17_23 
REMARK    9  A    between atoms: N3_22  and  C23_32 
REMARK   10  A    between atoms: C17_23  and  C18_24 
REMARK       I    between atoms: C18_24  and  N4_26 
REMARK   11  A    between atoms: N4_26  and  C19_28 
REMARK   12  A    between atoms: C23_32  and  C24_33 
REMARK   13  A    between atoms: C26_38  and  C27_39 
REMARK   14  A    between atoms: C27_39  and  O4_40 
ROOT
HETATM    1  N2  UNL     1      16.317  -5.340 101.711  1.00  0.00    -0.330 N 
HETATM    2  C15 UNL     1      15.755  -4.830 100.488  1.00  0.00     0.260 C 
HETATM    3  O2  UNL     1      14.617  -4.279 100.570  1.00  0.00    -0.267 OA
ENDROOT
BRANCH   2   4
HETATM    4  C16 UNL     1      16.491  -4.964  99.241  1.00  0.00     0.165 C 
HETATM    5  N3  UNL     1      16.826  -3.979  98.361  1.00  0.00    -0.349 N 
BRANCH   5   6
HETATM    6  C17 UNL     1      16.042  -3.316  97.455  1.00  0.00     0.165 C 
BRANCH   6   7
HETATM    7  C18 UNL     1      14.644  -3.445  97.203  1.00  0.00     0.257 C 
HETATM    8  O3  UNL     1      14.081  -4.162  96.385  1.00  0.00    -0.267 OA
HETATM    9  N4  UNL     1      13.744  -2.630  98.009  1.00  0.00    -0.348 N 
ATOM     10  H4  UNL     1      14.138  -2.006  98.713  1.00  0.00     0.163 HD
BRANCH   9  11
HETATM   11  C19 UNL     1      12.323  -2.682  97.839  1.00  0.00     0.022 C 
HETATM   12  C20 UNL     1      11.734  -3.693  98.796  1.00  0.00     0.037 C 
HETATM   13  C21 UNL     1      11.924  -3.050  96.418  1.00  0.00     0.037 C 
HETATM   14  C22 UNL     1      11.758  -1.316  98.130  1.00  0.00     0.037 C 
ENDBRANCH   9  11
ENDBRANCH   6   7
ENDBRANCH   5   6
BRANCH   5  15
HETATM   15  C23 UNL     1      18.224  -3.980  98.009  1.00  0.00     0.204 C 
BRANCH  15  16
HETATM   16  C24 UNL     1      18.900  -2.711  98.334  1.00  0.00     0.103 A 
HETATM   17  N5  UNL     1      18.634  -1.775  99.244  1.00  0.00    -0.333 N 
HETATM   18  C25 UNL     1      19.517  -0.767  99.186  1.00  0.00     0.130 A 
ATOM     19  H5  UNL     1      17.856  -1.819  99.902  1.00  0.00     0.168 HD
HETATM   20 CL1  UNL     1      19.571   0.664 100.168  1.00  0.00    -0.062 Cl
HETATM   21  C26 UNL     1      20.387  -1.130  98.154  1.00  0.00     0.075 A 
HETATM   22  N6  UNL     1      20.004  -2.308  97.645  1.00  0.00    -0.339 N 
HETATM   23  C28 UNL     1      20.668  -2.993  96.564  1.00  0.00     0.157 C 
BRANCH  21  24
HETATM   24  C27 UNL     1      21.523  -0.262  97.771  1.00  0.00     0.224 C 
BRANCH  24  25
HETATM   25  O4  UNL     1      22.678  -0.672  98.405  1.00  0.00    -0.395 OA
ATOM     26  H4  UNL     1      22.512  -0.835  99.325  1.00  0.00     0.209 HD
ENDBRANCH  24  25
ENDBRANCH  21  24
ENDBRANCH  15  16
ENDBRANCH   5  15
ENDBRANCH   2   4
BRANCH   1  27
HETATM   27  C5  UNL     1      17.581  -5.971 101.682  1.00  0.00     0.213 C 
BRANCH  27  28
HETATM   28  C4  UNL     1      18.752  -5.022 101.661  1.00  0.00    -0.026 A 
HETATM   29  C3  UNL     1      19.818  -5.155 100.806  1.00  0.00     0.018 A 
HETATM   30  C2  UNL     1      20.878  -4.256 100.769  1.00  0.00    -0.040 A 
HETATM   31  C1  UNL     1      22.014  -4.420  99.834  1.00  0.00     0.050 C 
HETATM   32  C31 UNL     1      20.880  -3.178 101.620  1.00  0.00     0.040 A 
HETATM   33  C30 UNL     1      19.844  -3.002 102.489  1.00  0.00     0.025 A 
HETATM   34 CL2  UNL     1      22.197  -2.014 101.612  1.00  0.00    -0.084 Cl
HETATM   35  C29 UNL     1      18.807  -3.915 102.496  1.00  0.00     0.011 A 
ENDBRANCH  27  28
BRANCH  27  36
HETATM   36  C6  UNL     1      17.787  -7.012 102.695  1.00  0.00     0.245 C 
HETATM   37  O1  UNL     1      17.357  -8.169 102.566  1.00  0.00    -0.271 OA
HETATM   38  N1  UNL     1      18.503  -6.690 103.862  1.00  0.00    -0.351 N 
ATOM     39  H1  UNL     1      18.854  -5.738 103.967  1.00  0.00     0.163 HD
BRANCH  38  40
HETATM   40  C7  UNL     1      18.768  -7.638 104.923  1.00  0.00     0.022 C 
HETATM   41  C8  UNL     1      17.498  -8.143 105.572  1.00  0.00     0.037 C 
HETATM   42  C9  UNL     1      19.622  -6.943 105.958  1.00  0.00     0.037 C 
HETATM   43  C10 UNL     1      19.557  -8.816 104.396  1.00  0.00     0.037 C 
ENDBRANCH  38  40
ENDBRANCH  27  36
ENDBRANCH   1  27
BRANCH   1  44
HETATM   44  C11 UNL     1      15.519  -5.166 102.909  1.00  0.00     0.131 C 
BRANCH  44  45
HETATM   45  C12 UNL     1      14.659  -6.302 103.314  1.00  0.00    -0.005 C 
HETATM   46  C13 UNL     1      13.260  -6.002 102.732  1.00  0.00     0.011 C 
HETATM   47  C14 UNL     1      14.452  -6.473 104.792  1.00  0.00     0.011 C 
ENDBRANCH  44  45
ENDBRANCH   1  44
TORSDOF 14
ENDMDL
MODEL 5
REMARK VINA RESULT: -7.452531204      2.979      8.450
REMARK  14 active torsions:
REMARK  status: ('A' for Active; 'I' for Inactive)
REMARK    1  A    between atoms: C4_4  and  C5_5 
REMARK    2  A    between atoms: C5_5  and  C6_6 
REMARK    3  A    between atoms: C5_5  and  N2_14 
REMARK       I    between atoms: C6_6  and  N1_8 
REMARK    4  A    between atoms: N1_8  and  C7_10 
REMARK    5  A    between atoms: N2_14  and  C11_15 
REMARK       I    between atoms: N2_14  and  C15_19 
REMARK    6  A    between atoms: C11_15  and  C12_16 
REMARK    7  A    between atoms: C15_19  and  C16_21 
REMARK    8  A    between atoms: N3_22  and  C17_23 
REMARK    9  A    between atoms: N3_22  and  C23_32 
REMARK   10  A    between atoms: C17_23  and  C18_24 
REMARK       I    between atoms: C18_24  and  N4_26 
REMARK   11  A    between atoms: N4_26  and  C19_28 
REMARK   12  A    between atoms: C23_32  and  C24_33 
REMARK   13  A    between atoms: C26_38  and  C27_39 
REMARK   14  A    between atoms: C27_39  and  O4_40 
ROOT
HETATM    1  N2  UNL     1      19.579  -2.376 101.636  1.00  0.00    -0.330 N 
HETATM    2  C15 UNL     1      19.576  -3.001 102.932  1.00  0.00     0.260 C 
HETATM    3  O2  UNL     1      19.573  -2.229 103.938  1.00  0.00    -0.267 OA
ENDROOT
BRANCH   2   4
HETATM    4  C16 UNL     1      19.580  -4.451 103.037  1.00  0.00     0.165 C 
HETATM    5  N3  UNL     1      18.647  -5.246 103.633  1.00  0.00    -0.349 N 
BRANCH   5   6
HETATM    6  C17 UNL     1      18.415  -5.470 104.964  1.00  0.00     0.165 C 
BRANCH   6   7
HETATM    7  C18 UNL     1      19.293  -5.990 105.960  1.00  0.00     0.257 C 
HETATM    8  O3  UNL     1      20.048  -5.378 106.705  1.00  0.00    -0.267 OA
HETATM    9  N4  UNL     1      19.316  -7.436 106.139  1.00  0.00    -0.348 N 
ATOM     10  H4  UNL     1      18.714  -8.017 105.555  1.00  0.00     0.163 HD
BRANCH   9  11
HETATM   11  C19 UNL     1      20.160  -8.064 107.110  1.00  0.00     0.022 C 
HETATM   12  C20 UNL     1      20.021  -7.355 108.438  1.00  0.00     0.037 C 
HETATM   13  C21 UNL     1      21.623  -8.058 106.694  1.00  0.00     0.037 C 
HETATM   14  C22 UNL     1      19.735  -9.502 107.253  1.00  0.00     0.037 C 
ENDBRANCH   9  11
ENDBRANCH   6   7
ENDBRANCH   5   6
BRANCH   5  15
HETATM   15  C23 UNL     1      18.189  -6.320 102.788  1.00  0.00     0.204 C 
BRANCH  15  16
HETATM   16  C24 UNL     1      17.078  -5.923 101.904  1.00  0.00     0.103 A 
HETATM   17  N5  UNL     1      17.067  -5.418 100.671  1.00  0.00    -0.333 N 
HETATM   18  C25 UNL     1      15.815  -5.195 100.241  1.00  0.00     0.130 A 
ATOM     19  H5  UNL     1      17.904  -5.224 100.122  1.00  0.00     0.168 HD
HETATM   20 CL1  UNL     1      15.309  -4.549  98.712  1.00  0.00    -0.062 Cl
HETATM   21  C26 UNL     1      15.008  -5.602 101.308  1.00  0.00     0.075 A 
HETATM   22  N6  UNL     1      15.783  -6.041 102.309  1.00  0.00    -0.339 N 
HETATM   23  C28 UNL     1      15.295  -6.540 103.570  1.00  0.00     0.157 C 
BRANCH  21  24
HETATM   24  C27 UNL     1      13.533  -5.514 101.227  1.00  0.00     0.224 C 
BRANCH  24  25
HETATM   25  O4  UNL     1      13.100  -4.275 101.656  1.00  0.00    -0.395 OA
ATOM     26  H4  UNL     1      13.816  -3.792 102.052  1.00  0.00     0.209 HD
ENDBRANCH  24  25
ENDBRANCH  21  24
ENDBRANCH  15  16
ENDBRANCH   5  15
ENDBRANCH   2   4
BRANCH   1  27
HETATM   27  C5  UNL     1      19.589  -3.184 100.477  1.00  0.00     0.213 C 
BRANCH  27  28
HETATM   28  C4  UNL     1      18.686  -2.702  99.372  1.00  0.00    -0.026 A 
HETATM   29  C3  UNL     1      17.724  -1.737  99.547  1.00  0.00     0.018 A 
HETATM   30  C2  UNL     1      16.918  -1.272  98.514  1.00  0.00    -0.040 A 
HETATM   31  C1  UNL     1      15.891  -0.228  98.730  1.00  0.00     0.050 C 
HETATM   32  C31 UNL     1      17.072  -1.790  97.252  1.00  0.00     0.040 A 
HETATM   33  C30 UNL     1      18.013  -2.751  97.026  1.00  0.00     0.025 A 
HETATM   34 CL2  UNL     1      16.076  -1.236  95.913  1.00  0.00    -0.084 Cl
HETATM   35  C29 UNL     1      18.797  -3.187  98.076  1.00  0.00     0.011 A 
ENDBRANCH  27  28
BRANCH  27  36
HETATM   36  C6  UNL     1      20.919  -3.504  99.946  1.00  0.00     0.245 C 
HETATM   37  O1  UNL     1      21.509  -4.564 100.207  1.00  0.00    -0.271 OA
HETATM   38  N1  UNL     1      21.554  -2.573  99.103  1.00  0.00    -0.351 N 
ATOM     39  H1  UNL     1      21.067  -1.703  98.892  1.00  0.00     0.163 HD
BRANCH  38  40
HETATM   40  C7  UNL     1      22.861  -2.787  98.520  1.00  0.00     0.022 C 
HETATM   41  C8  UNL     1      23.847  -3.358  99.517  1.00  0.00     0.037 C 
HETATM   42  C9  UNL     1      23.365  -1.453  98.020  1.00  0.00     0.037 C 
HETATM   43  C10 UNL     1      22.766  -3.715  97.330  1.00  0.00     0.037 C 
ENDBRANCH  38  40
ENDBRANCH  27  36
ENDBRANCH   1  27
BRANCH   1  44
HETATM   44  C11 UNL     1      19.576  -0.925 101.620  1.00  0.00     0.131 C 
BRANCH  44  45
HETATM   45  C12 UNL     1      20.783  -0.258 101.082  1.00  0.00    -0.005 C 
HETATM   46  C13 UNL     1      21.908  -0.529 102.106  1.00  0.00     0.011 C 
HETATM   47  C14 UNL     1      20.705   1.238 100.957  1.00  0.00     0.011 C 
ENDBRANCH  44  45
ENDBRANCH   1  44
TORSDOF 14
ENDMDL
