MODEL 1
REMARK VINA RESULT: -8.004556922      0.000      0.000
REMARK  7 active torsions:
REMARK  status: ('A' for Active; 'I' for Inactive)
REMARK    1  A    between atoms: O1_2  and  C2_3 
REMARK    2  A    between atoms: C2_3  and  C3_4 
REMARK    3  A    between atoms: C3_4  and  C4_5 
REMARK    4  A    between atoms: C4_5  and  N1_6 
REMARK    5  A    between atoms: N1_6  and  C5_8 
REMARK    6  A    between atoms: C15_18  and  C16_19 
REMARK    7  A    between atoms: C16_19  and  O2_22 
ROOT
HETATM    1  C5  UNL     1      67.782  51.839  10.793  1.00  0.00     0.088 C 
HETATM    2  C6  UNL     1      69.041  52.361  11.334  1.00  0.00     0.026 C 
HETATM    3  C7  UNL     1      70.146  51.405  10.933  1.00  0.00     0.012 C 
HETATM    4  C8  UNL     1      70.013  49.997  11.466  1.00  0.00    -0.032 C 
HETATM    5  C9  UNL     1      70.193  50.114  12.967  1.00  0.00     0.016 C 
HETATM    6  C10 UNL     1      68.617  49.491  11.273  1.00  0.00     0.004 C 
HETATM    7  C11 UNL     1      68.456  48.665  10.013  1.00  0.00     0.006 C 
HETATM    8  C12 UNL     1      69.290  47.458  10.267  1.00  0.00     0.006 C 
HETATM    9  C13 UNL     1      70.742  47.828  10.334  1.00  0.00    -0.005 C 
HETATM   10  C14 UNL     1      71.332  46.650  11.100  1.00  0.00     0.013 C 
HETATM   11  C15 UNL     1      72.697  46.842  11.628  1.00  0.00     0.019 C 
HETATM   12  C19 UNL     1      72.566  48.068  12.542  1.00  0.00     0.008 C 
HETATM   13  C20 UNL     1      72.406  49.214  11.594  1.00  0.00     0.011 C 
HETATM   14  C21 UNL     1      71.085  49.164  10.804  1.00  0.00    -0.033 C 
HETATM   15  C22 UNL     1      71.561  49.906   9.520  1.00  0.00     0.016 C 
HETATM   16  C23 UNL     1      67.537  50.471  11.428  1.00  0.00    -0.023 C 
HETATM   17  C24 UNL     1      66.266  49.980  10.708  1.00  0.00     0.017 C 
HETATM   18  C25 UNL     1      67.072  50.723  12.844  1.00  0.00     0.017 C 
ENDROOT
BRANCH   1  19
HETATM   19  N1  UNL     1      66.656  52.625  10.941  1.00  0.00    -0.397 N 
ATOM     20  H1  UNL     1      65.762  52.149  10.816  1.00  0.00     0.159 HD
BRANCH  19  21
HETATM   21  C4  UNL     1      66.587  53.968  11.234  1.00  0.00     0.058 C 
BRANCH  21  22
HETATM   22  C3  UNL     1      65.394  54.588  11.871  1.00  0.00     0.070 C 
BRANCH  22  23
HETATM   23  C2  UNL     1      64.114  53.918  11.279  1.00  0.00     0.172 C 
BRANCH  23  24
HETATM   24  O1  UNL     1      63.860  52.746  11.984  1.00  0.00    -0.396 OA
HETATM   25  C1  UNL     1      62.980  51.916  11.308  1.00  0.00     0.201 C 
ENDBRANCH  23  24
ENDBRANCH  22  23
ENDBRANCH  21  22
ENDBRANCH  19  21
ENDBRANCH   1  19
BRANCH  11  26
HETATM   26  C16 UNL     1      73.112  45.616  12.371  1.00  0.00     0.054 C 
HETATM   27  C17 UNL     1      72.984  45.787  13.865  1.00  0.00     0.045 C 
HETATM   28  C18 UNL     1      72.367  44.376  11.966  1.00  0.00     0.045 C 
BRANCH  26  29
HETATM   29  O2  UNL     1      74.471  45.397  12.047  1.00  0.00    -0.390 OA
ATOM     30  H2  UNL     1      74.858  44.964  12.799  1.00  0.00     0.210 HD
ENDBRANCH  26  29
ENDBRANCH  11  26
TORSDOF 7
ENDMDL
MODEL 2
REMARK VINA RESULT: -7.976904333      2.653      7.761
REMARK  7 active torsions:
REMARK  status: ('A' for Active; 'I' for Inactive)
REMARK    1  A    between atoms: O1_2  and  C2_3 
REMARK    2  A    between atoms: C2_3  and  C3_4 
REMARK    3  A    between atoms: C3_4  and  C4_5 
REMARK    4  A    between atoms: C4_5  and  N1_6 
REMARK    5  A    between atoms: N1_6  and  C5_8 
REMARK    6  A    between atoms: C15_18  and  C16_19 
REMARK    7  A    between atoms: C16_19  and  O2_22 
ROOT
HETATM    1  C5  UNL     1      72.846  49.027  10.829  1.00  0.00     0.088 C 
HETATM    2  C6  UNL     1      71.984  48.892   9.651  1.00  0.00     0.026 C 
HETATM    3  C7  UNL     1      70.803  49.824   9.836  1.00  0.00     0.012 C 
HETATM    4  C8  UNL     1      69.927  49.533  11.033  1.00  0.00    -0.032 C 
HETATM    5  C9  UNL     1      69.266  48.202  10.736  1.00  0.00     0.016 C 
HETATM    6  C10 UNL     1      70.764  49.297  12.252  1.00  0.00     0.004 C 
HETATM    7  C11 UNL     1      70.930  50.538  13.105  1.00  0.00     0.006 C 
HETATM    8  C12 UNL     1      69.556  50.815  13.606  1.00  0.00     0.006 C 
HETATM    9  C13 UNL     1      68.654  51.211  12.475  1.00  0.00    -0.005 C 
HETATM   10  C14 UNL     1      67.275  50.926  13.058  1.00  0.00     0.013 C 
HETATM   11  C15 UNL     1      66.159  50.899  12.092  1.00  0.00     0.019 C 
HETATM   12  C19 UNL     1      66.563  49.800  11.099  1.00  0.00     0.008 C 
HETATM   13  C20 UNL     1      67.677  50.411  10.311  1.00  0.00     0.011 C 
HETATM   14  C21 UNL     1      68.940  50.670  11.153  1.00  0.00    -0.033 C 
HETATM   15  C22 UNL     1      69.496  51.889  10.359  1.00  0.00     0.016 C 
HETATM   16  C23 UNL     1      72.036  48.596  12.049  1.00  0.00    -0.023 C 
HETATM   17  C24 UNL     1      72.994  48.885  13.221  1.00  0.00     0.017 C 
HETATM   18  C25 UNL     1      71.960  47.086  12.012  1.00  0.00     0.017 C 
ENDROOT
BRANCH   1  19
HETATM   19  N1  UNL     1      74.050  48.351  10.812  1.00  0.00    -0.397 N 
ATOM     20  H1  UNL     1      74.480  48.184  11.722  1.00  0.00     0.159 HD
BRANCH  19  21
HETATM   21  C4  UNL     1      74.745  47.873   9.723  1.00  0.00     0.058 C 
BRANCH  21  22
HETATM   22  C3  UNL     1      74.561  46.494   9.198  1.00  0.00     0.070 C 
BRANCH  22  23
HETATM   23  C2  UNL     1      74.287  46.582   7.663  1.00  0.00     0.172 C 
BRANCH  23  24
HETATM   24  O1  UNL     1      74.495  47.894   7.251  1.00  0.00    -0.396 OA
HETATM   25  C1  UNL     1      73.833  48.175   6.067  1.00  0.00     0.201 C 
ENDBRANCH  23  24
ENDBRANCH  22  23
ENDBRANCH  21  22
ENDBRANCH  19  21
ENDBRANCH   1  19
BRANCH  11  26
HETATM   26  C16 UNL     1      64.893  50.581  12.814  1.00  0.00     0.054 C 
HETATM   27  C17 UNL     1      64.189  49.381  12.226  1.00  0.00     0.045 C 
HETATM   28  C18 UNL     1      65.072  50.353  14.289  1.00  0.00     0.045 C 
BRANCH  26  29
HETATM   29  O2  UNL     1      64.061  51.716  12.677  1.00  0.00    -0.390 OA
ATOM     30  H2  UNL     1      64.610  52.408  12.328  1.00  0.00     0.210 HD
ENDBRANCH  26  29
ENDBRANCH  11  26
TORSDOF 7
ENDMDL
MODEL 3
REMARK VINA RESULT: -7.936324584      2.598      8.221
REMARK  7 active torsions:
REMARK  status: ('A' for Active; 'I' for Inactive)
REMARK    1  A    between atoms: O1_2  and  C2_3 
REMARK    2  A    between atoms: C2_3  and  C3_4 
REMARK    3  A    between atoms: C3_4  and  C4_5 
REMARK    4  A    between atoms: C4_5  and  N1_6 
REMARK    5  A    between atoms: N1_6  and  C5_8 
REMARK    6  A    between atoms: C15_18  and  C16_19 
REMARK    7  A    between atoms: C16_19  and  O2_22 
ROOT
HETATM    1  C5  UNL     1      72.916  49.046  10.840  1.00  0.00     0.088 C 
HETATM    2  C6  UNL     1      72.045  48.930   9.666  1.00  0.00     0.026 C 
HETATM    3  C7  UNL     1      70.871  49.867   9.869  1.00  0.00     0.012 C 
HETATM    4  C8  UNL     1      70.001  49.569  11.069  1.00  0.00    -0.032 C 
HETATM    5  C9  UNL     1      69.329  48.246  10.761  1.00  0.00     0.016 C 
HETATM    6  C10 UNL     1      70.845  49.314  12.280  1.00  0.00     0.004 C 
HETATM    7  C11 UNL     1      71.025  50.544  13.145  1.00  0.00     0.006 C 
HETATM    8  C12 UNL     1      69.656  50.825  13.659  1.00  0.00     0.006 C 
HETATM    9  C13 UNL     1      68.749  51.240  12.538  1.00  0.00    -0.005 C 
HETATM   10  C14 UNL     1      67.372  50.958  13.127  1.00  0.00     0.013 C 
HETATM   11  C15 UNL     1      66.249  50.949  12.168  1.00  0.00     0.019 C 
HETATM   12  C19 UNL     1      66.639  49.858  11.161  1.00  0.00     0.008 C 
HETATM   13  C20 UNL     1      67.753  50.471  10.371  1.00  0.00     0.011 C 
HETATM   14  C21 UNL     1      69.023  50.712  11.208  1.00  0.00    -0.033 C 
HETATM   15  C22 UNL     1      69.582  51.936  10.424  1.00  0.00     0.016 C 
HETATM   16  C23 UNL     1      72.110  48.607  12.061  1.00  0.00    -0.023 C 
HETATM   17  C24 UNL     1      73.079  48.876  13.229  1.00  0.00     0.017 C 
HETATM   18  C25 UNL     1      72.024  47.098  12.007  1.00  0.00     0.017 C 
ENDROOT
BRANCH   1  19
HETATM   19  N1  UNL     1      74.115  48.362  10.807  1.00  0.00    -0.397 N 
ATOM     20  H1  UNL     1      74.623  48.312  11.690  1.00  0.00     0.159 HD
BRANCH  19  21
HETATM   21  C4  UNL     1      74.712  47.740   9.734  1.00  0.00     0.058 C 
BRANCH  21  22
HETATM   22  C3  UNL     1      74.894  46.265   9.663  1.00  0.00     0.070 C 
BRANCH  22  23
HETATM   23  C2  UNL     1      76.409  45.944   9.858  1.00  0.00     0.172 C 
BRANCH  23  24
HETATM   24  O1  UNL     1      77.033  47.061  10.404  1.00  0.00    -0.396 OA
HETATM   25  C1  UNL     1      78.332  46.787  10.800  1.00  0.00     0.201 C 
ENDBRANCH  23  24
ENDBRANCH  22  23
ENDBRANCH  21  22
ENDBRANCH  19  21
ENDBRANCH   1  19
BRANCH  11  26
HETATM   26  C16 UNL     1      64.986  50.631  12.895  1.00  0.00     0.054 C 
HETATM   27  C17 UNL     1      64.297  49.412  12.331  1.00  0.00     0.045 C 
HETATM   28  C18 UNL     1      65.167  50.436  14.374  1.00  0.00     0.045 C 
BRANCH  26  29
HETATM   29  O2  UNL     1      64.142  51.754  12.735  1.00  0.00    -0.390 OA
ATOM     30  H2  UNL     1      64.627  52.379  12.208  1.00  0.00     0.210 HD
ENDBRANCH  26  29
ENDBRANCH  11  26
TORSDOF 7
ENDMDL
MODEL 4
REMARK VINA RESULT: -7.848710706      2.370      7.741
REMARK  7 active torsions:
REMARK  status: ('A' for Active; 'I' for Inactive)
REMARK    1  A    between atoms: O1_2  and  C2_3 
REMARK    2  A    between atoms: C2_3  and  C3_4 
REMARK    3  A    between atoms: C3_4  and  C4_5 
REMARK    4  A    between atoms: C4_5  and  N1_6 
REMARK    5  A    between atoms: N1_6  and  C5_8 
REMARK    6  A    between atoms: C15_18  and  C16_19 
REMARK    7  A    between atoms: C16_19  and  O2_22 
ROOT
HETATM    1  C5  UNL     1      72.721  49.162  10.773  1.00  0.00     0.088 C 
HETATM    2  C6  UNL     1      71.890  49.063   9.569  1.00  0.00     0.026 C 
HETATM    3  C7  UNL     1      70.733  50.029   9.727  1.00  0.00     0.012 C 
HETATM    4  C8  UNL     1      69.813  49.757  10.895  1.00  0.00    -0.032 C 
HETATM    5  C9  UNL     1      69.120  48.449  10.567  1.00  0.00     0.016 C 
HETATM    6  C10 UNL     1      70.606  49.485  12.136  1.00  0.00     0.004 C 
HETATM    7  C11 UNL     1      70.785  50.713  13.005  1.00  0.00     0.006 C 
HETATM    8  C12 UNL     1      69.405  51.030  13.467  1.00  0.00     0.006 C 
HETATM    9  C13 UNL     1      68.550  51.462  12.314  1.00  0.00    -0.005 C 
HETATM   10  C14 UNL     1      67.147  51.216  12.853  1.00  0.00     0.013 C 
HETATM   11  C15 UNL     1      66.059  51.231  11.854  1.00  0.00     0.019 C 
HETATM   12  C19 UNL     1      66.459  50.128  10.864  1.00  0.00     0.008 C 
HETATM   13  C20 UNL     1      67.614  50.710  10.114  1.00  0.00     0.011 C 
HETATM   14  C21 UNL     1      68.859  50.923  10.996  1.00  0.00    -0.033 C 
HETATM   15  C22 UNL     1      69.476  52.130  10.229  1.00  0.00     0.016 C 
HETATM   16  C23 UNL     1      71.861  48.746  11.966  1.00  0.00    -0.023 C 
HETATM   17  C24 UNL     1      72.793  48.996  13.167  1.00  0.00     0.017 C 
HETATM   18  C25 UNL     1      71.739  47.240  11.913  1.00  0.00     0.017 C 
ENDROOT
BRANCH   1  19
HETATM   19  N1  UNL     1      73.903  48.448  10.786  1.00  0.00    -0.397 N 
ATOM     20  H1  UNL     1      74.343  48.332  11.699  1.00  0.00     0.159 HD
BRANCH  19  21
HETATM   21  C4  UNL     1      74.564  47.874   9.723  1.00  0.00     0.058 C 
BRANCH  21  22
HETATM   22  C3  UNL     1      75.282  46.576   9.834  1.00  0.00     0.070 C 
BRANCH  22  23
HETATM   23  C2  UNL     1      74.283  45.428   9.487  1.00  0.00     0.172 C 
BRANCH  23  24
HETATM   24  O1  UNL     1      73.208  45.971   8.790  1.00  0.00    -0.396 OA
HETATM   25  C1  UNL     1      72.082  45.166   8.866  1.00  0.00     0.201 C 
ENDBRANCH  23  24
ENDBRANCH  22  23
ENDBRANCH  21  22
ENDBRANCH  19  21
ENDBRANCH   1  19
BRANCH  11  26
HETATM   26  C16 UNL     1      64.763  50.947  12.536  1.00  0.00     0.054 C 
HETATM   27  C17 UNL     1      63.591  51.552  11.802  1.00  0.00     0.045 C 
HETATM   28  C18 UNL     1      64.492  49.484  12.745  1.00  0.00     0.045 C 
BRANCH  26  29
HETATM   29  O2  UNL     1      64.854  51.530  13.820  1.00  0.00    -0.390 OA
ATOM     30  H2  UNL     1      64.042  51.321  14.267  1.00  0.00     0.210 HD
ENDBRANCH  26  29
ENDBRANCH  11  26
TORSDOF 7
ENDMDL
MODEL 5
REMARK VINA RESULT: -7.593825540      1.891      2.919
REMARK  7 active torsions:
REMARK  status: ('A' for Active; 'I' for Inactive)
REMARK    1  A    between atoms: O1_2  and  C2_3 
REMARK    2  A    between atoms: C2_3  and  C3_4 
REMARK    3  A    between atoms: C3_4  and  C4_5 
REMARK    4  A    between atoms: C4_5  and  N1_6 
REMARK    5  A    between atoms: N1_6  and  C5_8 
REMARK    6  A    between atoms: C15_18  and  C16_19 
REMARK    7  A    between atoms: C16_19  and  O2_22 
ROOT
HETATM    1  C5  UNL     1      65.030  51.633  11.588  1.00  0.00     0.088 C 
HETATM    2  C6  UNL     1      66.027  52.541  12.164  1.00  0.00     0.026 C 
HETATM    3  C7  UNL     1      67.379  52.161  11.597  1.00  0.00     0.012 C 
HETATM    4  C8  UNL     1      67.850  50.761  11.921  1.00  0.00    -0.032 C 
HETATM    5  C9  UNL     1      68.096  50.754  13.417  1.00  0.00     0.016 C 
HETATM    6  C10 UNL     1      66.750  49.771  11.695  1.00  0.00     0.004 C 
HETATM    7  C11 UNL     1      66.818  49.111  10.333  1.00  0.00     0.006 C 
HETATM    8  C12 UNL     1      68.075  48.313  10.384  1.00  0.00     0.006 C 
HETATM    9  C13 UNL     1      69.269  49.218  10.464  1.00  0.00    -0.005 C 
HETATM   10  C14 UNL     1      70.332  48.287  11.032  1.00  0.00     0.013 C 
HETATM   11  C15 UNL     1      71.554  48.938  11.544  1.00  0.00     0.019 C 
HETATM   12  C19 UNL     1      71.033  49.888  12.631  1.00  0.00     0.008 C 
HETATM   13  C20 UNL     1      70.361  50.984  11.866  1.00  0.00     0.011 C 
HETATM   14  C21 UNL     1      69.102  50.511  11.114  1.00  0.00    -0.033 C 
HETATM   15  C22 UNL     1      69.142  51.533   9.940  1.00  0.00     0.016 C 
HETATM   16  C23 UNL     1      65.391  50.213  12.022  1.00  0.00    -0.023 C 
HETATM   17  C24 UNL     1      64.356  49.350  11.274  1.00  0.00     0.017 C 
HETATM   18  C25 UNL     1      64.985  50.083  13.473  1.00  0.00     0.017 C 
ENDROOT
BRANCH   1  19
HETATM   19  N1  UNL     1      63.704  51.882  11.881  1.00  0.00    -0.397 N 
ATOM     20  H1  UNL     1      63.445  51.817  12.865  1.00  0.00     0.159 HD
BRANCH  19  21
HETATM   21  C4  UNL     1      62.686  52.207  11.013  1.00  0.00     0.058 C 
BRANCH  21  22
HETATM   22  C3  UNL     1      61.455  51.384  10.877  1.00  0.00     0.070 C 
BRANCH  22  23
HETATM   23  C2  UNL     1      61.128  50.751  12.267  1.00  0.00     0.172 C 
BRANCH  23  24
HETATM   24  O1  UNL     1      60.051  51.436  12.822  1.00  0.00    -0.396 OA
HETATM   25  C1  UNL     1      59.224  50.595  13.550  1.00  0.00     0.201 C 
ENDBRANCH  23  24
ENDBRANCH  22  23
ENDBRANCH  21  22
ENDBRANCH  19  21
ENDBRANCH   1  19
BRANCH  11  26
HETATM   26  C16 UNL     1      72.474  47.897  12.087  1.00  0.00     0.054 C 
HETATM   27  C17 UNL     1      72.564  47.949  13.593  1.00  0.00     0.045 C 
HETATM   28  C18 UNL     1      72.119  46.496  11.678  1.00  0.00     0.045 C 
BRANCH  26  29
HETATM   29  O2  UNL     1      73.749  48.169  11.539  1.00  0.00    -0.390 OA
ATOM     30  H2  UNL     1      74.383  47.799  12.143  1.00  0.00     0.210 HD
ENDBRANCH  26  29
ENDBRANCH  11  26
TORSDOF 7
ENDMDL
