MODEL 1
REMARK VINA RESULT: -3.526838733      0.000      0.000
REMARK  1 active torsions:
REMARK  status: ('A' for Active; 'I' for Inactive)
REMARK    1  A    between atoms: N1_1  and  C1_5 
ROOT
HETATM    1  C1  UNL     1     -19.905   4.850  92.889  1.00  0.00     0.380 C 
HETATM    2  C2  UNL     1     -20.126   4.910  94.407  1.00  0.00     0.064 C 
HETATM    3  C3  UNL     1     -21.255   3.874  94.510  1.00  0.00     0.031 C 
HETATM    4  C4  UNL     1     -20.657   2.776  93.628  1.00  0.00     0.235 C 
HETATM    5  N2  UNL     1     -20.127   3.494  92.498  1.00  0.00    -0.046 N 
ATOM      6  H21 UNL     1     -19.291   3.055  92.112  1.00  0.00     0.279 HD
ATOM      7  H22 UNL     1     -20.720   3.416  91.671  1.00  0.00     0.279 HD
ENDROOT
BRANCH   1   8
HETATM    8  N1  UNL     1     -18.629   5.379  92.543  1.00  0.00    -0.050 N 
ATOM      9  H13 UNL     1     -18.509   6.332  92.888  1.00  0.00     0.276 HD
ATOM     10  H12 UNL     1     -17.880   4.931  93.070  1.00  0.00     0.276 HD
ATOM     11  H11 UNL     1     -18.473   5.320  91.537  1.00  0.00     0.276 HD
ENDBRANCH   1   8
TORSDOF 1
ENDMDL
MODEL 2
REMARK VINA RESULT: -3.411849574      7.071      7.810
REMARK  1 active torsions:
REMARK  status: ('A' for Active; 'I' for Inactive)
REMARK    1  A    between atoms: N1_1  and  C1_5 
ROOT
HETATM    1  C1  UNL     1     -18.376  -2.343  90.456  1.00  0.00     0.380 C 
HETATM    2  C2  UNL     1     -19.323  -2.940  91.507  1.00  0.00     0.064 C 
HETATM    3  C3  UNL     1     -18.596  -4.274  91.731  1.00  0.00     0.031 C 
HETATM    4  C4  UNL     1     -17.164  -3.751  91.856  1.00  0.00     0.235 C 
HETATM    5  N2  UNL     1     -17.060  -2.779  90.800  1.00  0.00    -0.046 N 
ATOM      6  H21 UNL     1     -16.440  -2.005  91.039  1.00  0.00     0.279 HD
ATOM      7  H22 UNL     1     -16.540  -3.129  89.995  1.00  0.00     0.279 HD
ENDROOT
BRANCH   1   8
HETATM    8  N1  UNL     1     -18.544  -0.932  90.370  1.00  0.00    -0.050 N 
ATOM      9  H13 UNL     1     -19.521  -0.675  90.233  1.00  0.00     0.276 HD
ATOM     10  H12 UNL     1     -18.390  -0.477  91.270  1.00  0.00     0.276 HD
ATOM     11  H11 UNL     1     -17.945  -0.540  89.642  1.00  0.00     0.276 HD
ENDBRANCH   1   8
TORSDOF 1
ENDMDL
MODEL 3
REMARK VINA RESULT: -3.292349736      3.922      4.454
REMARK  1 active torsions:
REMARK  status: ('A' for Active; 'I' for Inactive)
REMARK    1  A    between atoms: N1_1  and  C1_5 
ROOT
HETATM    1  C1  UNL     1     -22.418   2.914  96.869  1.00  0.00     0.380 C 
HETATM    2  C2  UNL     1     -22.107   3.819  95.670  1.00  0.00     0.064 C 
HETATM    3  C3  UNL     1     -21.575   2.745  94.710  1.00  0.00     0.031 C 
HETATM    4  C4  UNL     1     -22.660   1.685  94.908  1.00  0.00     0.235 C 
HETATM    5  N2  UNL     1     -22.866   1.667  96.332  1.00  0.00    -0.046 N 
ATOM      6  H21 UNL     1     -23.831   1.455  96.586  1.00  0.00     0.279 HD
ATOM      7  H22 UNL     1     -22.424   0.865  96.783  1.00  0.00     0.279 HD
ENDROOT
BRANCH   1   8
HETATM    8  N1  UNL     1     -23.327   3.551  97.760  1.00  0.00    -0.050 N 
ATOM      9  H13 UNL     1     -23.907   4.240  97.281  1.00  0.00     0.276 HD
ATOM     10  H12 UNL     1     -24.064   2.916  98.065  1.00  0.00     0.276 HD
ATOM     11  H11 UNL     1     -22.830   3.961  98.551  1.00  0.00     0.276 HD
ENDBRANCH   1   8
TORSDOF 1
ENDMDL
MODEL 4
REMARK VINA RESULT: -3.246743294      6.659      7.559
REMARK  1 active torsions:
REMARK  status: ('A' for Active; 'I' for Inactive)
REMARK    1  A    between atoms: N1_1  and  C1_5 
ROOT
HETATM    1  C1  UNL     1     -18.483  -1.932  91.363  1.00  0.00     0.380 C 
HETATM    2  C2  UNL     1     -17.615  -3.146  91.005  1.00  0.00     0.064 C 
HETATM    3  C3  UNL     1     -18.150  -4.122  92.063  1.00  0.00     0.031 C 
HETATM    4  C4  UNL     1     -19.649  -3.877  91.884  1.00  0.00     0.235 C 
HETATM    5  N2  UNL     1     -19.751  -2.445  91.776  1.00  0.00    -0.046 N 
ATOM      6  H21 UNL     1     -20.512  -2.152  91.162  1.00  0.00     0.279 HD
ATOM      7  H22 UNL     1     -20.090  -2.010  92.634  1.00  0.00     0.279 HD
ENDROOT
BRANCH   1   8
HETATM    8  N1  UNL     1     -18.527  -1.006  90.281  1.00  0.00    -0.050 N 
ATOM      9  H13 UNL     1     -17.593  -0.773  89.945  1.00  0.00     0.276 HD
ATOM     10  H12 UNL     1     -18.893  -1.436  89.432  1.00  0.00     0.276 HD
ATOM     11  H11 UNL     1     -19.054  -0.172  90.540  1.00  0.00     0.276 HD
ENDBRANCH   1   8
TORSDOF 1
ENDMDL
MODEL 5
REMARK VINA RESULT: -3.233393355      7.489      8.320
REMARK  1 active torsions:
REMARK  status: ('A' for Active; 'I' for Inactive)
REMARK    1  A    between atoms: N1_1  and  C1_5 
ROOT
HETATM    1  C1  UNL     1     -17.122  -3.200  91.796  1.00  0.00     0.380 C 
HETATM    2  C2  UNL     1     -17.832  -4.508  91.421  1.00  0.00     0.064 C 
HETATM    3  C3  UNL     1     -19.279  -3.996  91.456  1.00  0.00     0.031 C 
HETATM    4  C4  UNL     1     -19.095  -2.696  90.670  1.00  0.00     0.235 C 
HETATM    5  N2  UNL     1     -17.878  -2.142  91.204  1.00  0.00    -0.046 N 
ATOM      6  H21 UNL     1     -17.346  -1.621  90.506  1.00  0.00     0.279 HD
ATOM      7  H22 UNL     1     -18.049  -1.372  91.851  1.00  0.00     0.279 HD
ENDROOT
BRANCH   1   8
HETATM    8  N1  UNL     1     -15.749  -3.246  91.422  1.00  0.00    -0.050 N 
ATOM      9  H13 UNL     1     -15.628  -3.139  90.414  1.00  0.00     0.276 HD
ATOM     10  H12 UNL     1     -15.247  -2.411  91.725  1.00  0.00     0.276 HD
ATOM     11  H11 UNL     1     -15.308  -4.098  91.767  1.00  0.00     0.276 HD
ENDBRANCH   1   8
TORSDOF 1
ENDMDL
