MODEL 1
REMARK VINA RESULT: -7.059581456      0.000      0.000
REMARK  5 active torsions:
REMARK  status: ('A' for Active; 'I' for Inactive)
REMARK    1  A    between atoms: C4_4  and  N1_5 
REMARK    2  A    between atoms: N1_5  and  C5_7 
REMARK    3  A    between atoms: C14_21  and  N5_22 
REMARK    4  A    between atoms: N5_22  and  S1_24 
REMARK    5  A    between atoms: S1_24  and  C15_27 
ROOT
HETATM    1  C5  UNL     1      64.637  -2.583  25.203  1.00  0.00     0.100 C 
HETATM    2  C6  UNL     1      65.833  -3.013  26.012  1.00  0.00     0.053 C 
HETATM    3  C7  UNL     1      66.660  -1.825  26.458  1.00  0.00     0.161 C 
HETATM    4  C8  UNL     1      68.025  -2.288  26.707  1.00  0.00     0.071 C 
HETATM    5  N2  UNL     1      69.107  -2.649  26.897  1.00  0.00    -0.196 NA
HETATM    6  C9  UNL     1      66.595  -0.757  25.434  1.00  0.00     0.090 C 
HETATM    7  N3  UNL     1      66.881   0.445  25.778  1.00  0.00    -0.388 N 
ATOM      8  H31 UNL     1      66.836   1.181  25.072  1.00  0.00     0.157 HD
ATOM      9  H32 UNL     1      67.141   0.679  26.735  1.00  0.00     0.157 HD
HETATM   10  N4  UNL     1      66.238  -1.079  24.117  1.00  0.00    -0.372 N 
HETATM   11  C10 UNL     1      66.852  -0.426  22.972  1.00  0.00     0.150 C 
HETATM   12  C11 UNL     1      65.228  -2.097  23.858  1.00  0.00     0.148 C 
ENDROOT
BRANCH   1  13
HETATM   13  N1  UNL     1      63.710  -3.559  24.873  1.00  0.00    -0.390 N 
ATOM     14  H1  UNL     1      64.085  -4.473  24.619  1.00  0.00     0.159 HD
BRANCH  13  15
HETATM   15  C4  UNL     1      62.338  -3.432  24.851  1.00  0.00    -0.017 C 
HETATM   16  C3  UNL     1      61.521  -4.088  25.926  1.00  0.00     0.058 C 
HETATM   17  C2  UNL     1      60.088  -4.293  25.562  1.00  0.00     0.010 C 
HETATM   18  C1  UNL     1      59.832  -5.748  25.250  1.00  0.00     0.012 C 
HETATM   19  C14 UNL     1      59.474  -3.418  24.548  1.00  0.00     0.097 C 
HETATM   20  C13 UNL     1      60.429  -2.812  23.524  1.00  0.00     0.032 C 
HETATM   21  C12 UNL     1      61.678  -3.658  23.511  1.00  0.00     0.054 C 
BRANCH  19  22
HETATM   22  N5  UNL     1      58.835  -2.259  25.133  1.00  0.00    -0.313 N 
ATOM     23  H5  UNL     1      59.378  -1.471  25.487  1.00  0.00     0.172 HD
BRANCH  22  24
HETATM   24  S1  UNL     1      57.163  -2.273  25.200  1.00  0.00     0.240 S 
HETATM   25  O1  UNL     1      56.674  -2.061  26.644  1.00  0.00    -0.205 OA
HETATM   26  O2  UNL     1      56.657  -3.692  24.888  1.00  0.00    -0.205 OA
BRANCH  24  27
HETATM   27  C15 UNL     1      56.276  -1.164  24.188  1.00  0.00     0.191 C 
HETATM   28  C16 UNL     1      55.316  -1.724  23.190  1.00  0.00     0.043 C 
HETATM   29  C17 UNL     1      55.374  -0.386  22.445  1.00  0.00     0.077 C 
HETATM   30  S2  UNL     1      57.149  -0.319  22.869  1.00  0.00    -0.147 SA
ENDBRANCH  24  27
ENDBRANCH  22  24
ENDBRANCH  19  22
ENDBRANCH  13  15
ENDBRANCH   1  13
TORSDOF 5
ENDMDL
MODEL 2
REMARK VINA RESULT: -6.910446392      5.158      8.312
REMARK  5 active torsions:
REMARK  status: ('A' for Active; 'I' for Inactive)
REMARK    1  A    between atoms: C4_4  and  N1_5 
REMARK    2  A    between atoms: N1_5  and  C5_7 
REMARK    3  A    between atoms: C14_21  and  N5_22 
REMARK    4  A    between atoms: N5_22  and  S1_24 
REMARK    5  A    between atoms: S1_24  and  C15_27 
ROOT
HETATM    1  C5  UNL     1      59.201  -8.962  26.434  1.00  0.00     0.100 C 
HETATM    2  C6  UNL     1      58.294  -9.875  25.651  1.00  0.00     0.053 C 
HETATM    3  C7  UNL     1      57.502 -10.789  26.563  1.00  0.00     0.161 C 
HETATM    4  C8  UNL     1      57.115 -11.973  25.797  1.00  0.00     0.071 C 
HETATM    5  N2  UNL     1      56.814 -12.915  25.197  1.00  0.00    -0.196 NA
HETATM    6  C9  UNL     1      58.307 -11.119  27.762  1.00  0.00     0.090 C 
HETATM    7  N3  UNL     1      57.703 -11.535  28.815  1.00  0.00    -0.388 N 
ATOM      8  H31 UNL     1      58.257 -11.762  29.641  1.00  0.00     0.157 HD
ATOM      9  H32 UNL     1      56.688 -11.632  28.845  1.00  0.00     0.157 HD
HETATM   10  N4  UNL     1      59.701 -10.986  27.720  1.00  0.00    -0.372 N 
HETATM   11  C10 UNL     1      60.585 -11.923  28.396  1.00  0.00     0.150 C 
HETATM   12  C11 UNL     1      60.312  -9.887  26.982  1.00  0.00     0.148 C 
ENDROOT
BRANCH   1  13
HETATM   13  N1  UNL     1      59.858  -7.965  25.730  1.00  0.00    -0.390 N 
ATOM     14  H1  UNL     1      60.790  -8.193  25.383  1.00  0.00     0.159 HD
BRANCH  13  15
HETATM   15  C4  UNL     1      59.393  -6.699  25.446  1.00  0.00    -0.017 C 
HETATM   16  C3  UNL     1      57.940  -6.385  25.659  1.00  0.00     0.058 C 
HETATM   17  C2  UNL     1      57.457  -5.193  24.901  1.00  0.00     0.010 C 
HETATM   18  C1  UNL     1      56.620  -5.629  23.722  1.00  0.00     0.012 C 
HETATM   19  C14 UNL     1      58.425  -4.154  24.507  1.00  0.00     0.097 C 
HETATM   20  C13 UNL     1      59.869  -4.618  24.337  1.00  0.00     0.032 C 
HETATM   21  C12 UNL     1      59.845  -6.112  24.130  1.00  0.00     0.054 C 
BRANCH  19  22
HETATM   22  N5  UNL     1      58.529  -3.097  25.490  1.00  0.00    -0.313 N 
ATOM     23  H5  UNL     1      59.411  -2.885  25.956  1.00  0.00     0.172 HD
BRANCH  22  24
HETATM   24  S1  UNL     1      57.131  -2.239  25.825  1.00  0.00     0.240 S 
HETATM   25  O1  UNL     1      57.306  -1.388  27.096  1.00  0.00    -0.205 OA
HETATM   26  O2  UNL     1      56.023  -3.222  26.239  1.00  0.00    -0.205 OA
BRANCH  24  27
HETATM   27  C15 UNL     1      56.476  -1.194  24.592  1.00  0.00     0.191 C 
HETATM   28  C16 UNL     1      55.653  -1.806  23.506  1.00  0.00     0.043 C 
HETATM   29  C17 UNL     1      55.901  -0.548  22.667  1.00  0.00     0.077 C 
HETATM   30  S2  UNL     1      57.589  -0.515  23.361  1.00  0.00    -0.147 SA
ENDBRANCH  24  27
ENDBRANCH  22  24
ENDBRANCH  19  22
ENDBRANCH  13  15
ENDBRANCH   1  13
TORSDOF 5
ENDMDL
MODEL 3
REMARK VINA RESULT: -6.617650273      1.633      2.424
REMARK  5 active torsions:
REMARK  status: ('A' for Active; 'I' for Inactive)
REMARK    1  A    between atoms: C4_4  and  N1_5 
REMARK    2  A    between atoms: N1_5  and  C5_7 
REMARK    3  A    between atoms: C14_21  and  N5_22 
REMARK    4  A    between atoms: N5_22  and  S1_24 
REMARK    5  A    between atoms: S1_24  and  C15_27 
ROOT
HETATM    1  C5  UNL     1      64.642  -3.557  24.001  1.00  0.00     0.100 C 
HETATM    2  C6  UNL     1      65.216  -2.165  23.962  1.00  0.00     0.053 C 
HETATM    3  C7  UNL     1      66.071  -1.949  22.730  1.00  0.00     0.161 C 
HETATM    4  C8  UNL     1      67.019  -0.872  23.016  1.00  0.00     0.071 C 
HETATM    5  N2  UNL     1      67.775  -0.027  23.241  1.00  0.00    -0.196 NA
HETATM    6  C9  UNL     1      66.739  -3.217  22.357  1.00  0.00     0.090 C 
HETATM    7  N3  UNL     1      67.173  -3.355  21.157  1.00  0.00    -0.388 N 
ATOM      8  H31 UNL     1      67.633  -4.228  20.900  1.00  0.00     0.157 HD
ATOM      9  H32 UNL     1      67.060  -2.619  20.460  1.00  0.00     0.157 HD
HETATM   10  N4  UNL     1      66.896  -4.228  23.315  1.00  0.00    -0.372 N 
HETATM   11  C10 UNL     1      68.088  -5.059  23.369  1.00  0.00     0.150 C 
HETATM   12  C11 UNL     1      65.851  -4.473  24.301  1.00  0.00     0.148 C 
ENDROOT
BRANCH   1  13
HETATM   13  N1  UNL     1      63.710  -3.831  24.990  1.00  0.00    -0.390 N 
ATOM     14  H1  UNL     1      64.072  -4.231  25.855  1.00  0.00     0.159 HD
BRANCH  13  15
HETATM   15  C4  UNL     1      62.349  -3.623  24.933  1.00  0.00    -0.017 C 
HETATM   16  C3  UNL     1      61.464  -4.258  25.966  1.00  0.00     0.058 C 
HETATM   17  C2  UNL     1      60.033  -4.369  25.557  1.00  0.00     0.010 C 
HETATM   18  C1  UNL     1      59.703  -5.799  25.198  1.00  0.00     0.012 C 
HETATM   19  C14 UNL     1      59.501  -3.434  24.551  1.00  0.00     0.097 C 
HETATM   20  C13 UNL     1      60.519  -2.859  23.571  1.00  0.00     0.032 C 
HETATM   21  C12 UNL     1      61.716  -3.776  23.570  1.00  0.00     0.054 C 
BRANCH  19  22
HETATM   22  N5  UNL     1      58.913  -2.255  25.151  1.00  0.00    -0.313 N 
ATOM     23  H5  UNL     1      59.487  -1.481  25.482  1.00  0.00     0.172 HD
BRANCH  22  24
HETATM   24  S1  UNL     1      57.243  -2.224  25.272  1.00  0.00     0.240 S 
HETATM   25  O1  UNL     1      56.809  -1.953  26.723  1.00  0.00    -0.205 OA
HETATM   26  O2  UNL     1      56.693  -3.638  25.023  1.00  0.00    -0.205 OA
BRANCH  24  27
HETATM   27  C15 UNL     1      56.351  -1.125  24.253  1.00  0.00     0.191 C 
HETATM   28  C16 UNL     1      55.406  -1.696  23.248  1.00  0.00     0.043 C 
HETATM   29  C17 UNL     1      55.454  -0.357  22.504  1.00  0.00     0.077 C 
HETATM   30  S2  UNL     1      57.225  -0.270  22.941  1.00  0.00    -0.147 SA
ENDBRANCH  24  27
ENDBRANCH  22  24
ENDBRANCH  19  22
ENDBRANCH  13  15
ENDBRANCH   1  13
TORSDOF 5
ENDMDL
MODEL 4
REMARK VINA RESULT: -6.568691346      6.716      9.619
REMARK  5 active torsions:
REMARK  status: ('A' for Active; 'I' for Inactive)
REMARK    1  A    between atoms: C4_4  and  N1_5 
REMARK    2  A    between atoms: N1_5  and  C5_7 
REMARK    3  A    between atoms: C14_21  and  N5_22 
REMARK    4  A    between atoms: N5_22  and  S1_24 
REMARK    5  A    between atoms: S1_24  and  C15_27 
ROOT
HETATM    1  C5  UNL     1      59.103  -6.912  25.756  1.00  0.00     0.100 C 
HETATM    2  C6  UNL     1      60.160  -6.014  25.169  1.00  0.00     0.053 C 
HETATM    3  C7  UNL     1      59.794  -4.552  25.314  1.00  0.00     0.161 C 
HETATM    4  C8  UNL     1      60.502  -3.800  24.279  1.00  0.00     0.071 C 
HETATM    5  N2  UNL     1      61.054  -3.203  23.457  1.00  0.00    -0.196 NA
HETATM    6  C9  UNL     1      58.323  -4.394  25.232  1.00  0.00     0.090 C 
HETATM    7  N3  UNL     1      57.789  -3.333  25.716  1.00  0.00    -0.388 N 
ATOM      8  H31 UNL     1      56.776  -3.224  25.660  1.00  0.00     0.157 HD
ATOM      9  H32 UNL     1      58.351  -2.606  26.159  1.00  0.00     0.157 HD
HETATM   10  N4  UNL     1      57.551  -5.392  24.622  1.00  0.00    -0.372 N 
HETATM   11  C10 UNL     1      56.385  -5.075  23.812  1.00  0.00     0.150 C 
HETATM   12  C11 UNL     1      57.906  -6.796  24.783  1.00  0.00     0.148 C 
ENDROOT
BRANCH   1  13
HETATM   13  N1  UNL     1      59.391  -8.265  25.836  1.00  0.00    -0.390 N 
ATOM     14  H1  UNL     1      60.371  -8.527  25.724  1.00  0.00     0.159 HD
BRANCH  13  15
HETATM   15  C4  UNL     1      58.502  -9.296  26.048  1.00  0.00    -0.017 C 
HETATM   16  C3  UNL     1      57.671  -9.305  27.299  1.00  0.00     0.058 C 
HETATM   17  C2  UNL     1      57.120 -10.645  27.655  1.00  0.00     0.010 C 
HETATM   18  C1  UNL     1      57.882 -11.230  28.820  1.00  0.00     0.012 C 
HETATM   19  C14 UNL     1      56.929 -11.646  26.591  1.00  0.00     0.097 C 
HETATM   20  C13 UNL     1      57.838 -11.507  25.373  1.00  0.00     0.032 C 
HETATM   21  C12 UNL     1      59.032 -10.686  25.790  1.00  0.00     0.054 C 
BRANCH  19  22
HETATM   22  N5  UNL     1      55.599 -11.598  26.020  1.00  0.00    -0.313 N 
ATOM     23  H5  UNL     1      55.308 -10.837  25.406  1.00  0.00     0.172 HD
BRANCH  22  24
HETATM   24  S1  UNL     1      54.563 -12.851  26.417  1.00  0.00     0.240 S 
HETATM   25  O1  UNL     1      55.265 -14.211  26.250  1.00  0.00    -0.205 OA
HETATM   26  O2  UNL     1      53.441 -12.930  25.368  1.00  0.00    -0.205 OA
BRANCH  24  27
HETATM   27  C15 UNL     1      53.812 -12.849  27.992  1.00  0.00     0.191 C 
HETATM   28  C16 UNL     1      53.592 -11.539  28.672  1.00  0.00     0.043 C 
HETATM   29  C17 UNL     1      53.456 -12.297  29.997  1.00  0.00     0.077 C 
HETATM   30  S2  UNL     1      54.769 -13.416  29.399  1.00  0.00    -0.147 SA
ENDBRANCH  24  27
ENDBRANCH  22  24
ENDBRANCH  19  22
ENDBRANCH  13  15
ENDBRANCH   1  13
TORSDOF 5
ENDMDL
MODEL 5
REMARK VINA RESULT: -6.566523112      6.566      9.678
REMARK  5 active torsions:
REMARK  status: ('A' for Active; 'I' for Inactive)
REMARK    1  A    between atoms: C4_4  and  N1_5 
REMARK    2  A    between atoms: N1_5  and  C5_7 
REMARK    3  A    between atoms: C14_21  and  N5_22 
REMARK    4  A    between atoms: N5_22  and  S1_24 
REMARK    5  A    between atoms: S1_24  and  C15_27 
ROOT
HETATM    1  C5  UNL     1      58.277  -6.302  25.453  1.00  0.00     0.100 C 
HETATM    2  C6  UNL     1      59.531  -5.757  24.820  1.00  0.00     0.053 C 
HETATM    3  C7  UNL     1      59.716  -4.286  25.127  1.00  0.00     0.161 C 
HETATM    4  C8  UNL     1      60.556  -3.704  24.081  1.00  0.00     0.071 C 
HETATM    5  N2  UNL     1      61.212  -3.238  23.250  1.00  0.00    -0.196 NA
HETATM    6  C9  UNL     1      58.394  -3.627  25.234  1.00  0.00     0.090 C 
HETATM    7  N3  UNL     1      58.310  -2.511  25.863  1.00  0.00    -0.388 N 
ATOM      8  H31 UNL     1      57.399  -2.057  25.937  1.00  0.00     0.157 HD
ATOM      9  H32 UNL     1      59.126  -2.079  26.295  1.00  0.00     0.157 HD
HETATM   10  N4  UNL     1      57.272  -4.221  24.640  1.00  0.00    -0.372 N 
HETATM   11  C10 UNL     1      56.229  -3.431  24.003  1.00  0.00     0.150 C 
HETATM   12  C11 UNL     1      57.121  -5.670  24.642  1.00  0.00     0.148 C 
ENDROOT
BRANCH   1  13
HETATM   13  N1  UNL     1      58.076  -7.671  25.386  1.00  0.00    -0.390 N 
ATOM     14  H1  UNL     1      57.674  -8.029  24.519  1.00  0.00     0.159 HD
BRANCH  13  15
HETATM   15  C4  UNL     1      58.359  -8.604  26.361  1.00  0.00    -0.017 C 
HETATM   16  C3  UNL     1      59.763  -9.116  26.504  1.00  0.00     0.058 C 
HETATM   17  C2  UNL     1      59.867 -10.417  27.228  1.00  0.00     0.010 C 
HETATM   18  C1  UNL     1      60.149 -11.534  26.253  1.00  0.00     0.012 C 
HETATM   19  C14 UNL     1      58.804 -10.796  28.175  1.00  0.00     0.097 C 
HETATM   20  C13 UNL     1      57.428 -10.191  27.911  1.00  0.00     0.032 C 
HETATM   21  C12 UNL     1      57.392  -9.760  26.466  1.00  0.00     0.054 C 
BRANCH  19  22
HETATM   22  N5  UNL     1      59.097 -10.376  29.529  1.00  0.00    -0.313 N 
ATOM     23  H5  UNL     1      59.468  -9.448  29.733  1.00  0.00     0.172 HD
BRANCH  22  24
HETATM   24  S1  UNL     1      58.796 -11.488  30.744  1.00  0.00     0.240 S 
HETATM   25  O1  UNL     1      59.627 -11.161  31.998  1.00  0.00    -0.205 OA
HETATM   26  O2  UNL     1      59.357 -12.857  30.326  1.00  0.00    -0.205 OA
BRANCH  24  27
HETATM   27  C15 UNL     1      57.149 -11.730  31.266  1.00  0.00     0.191 C 
HETATM   28  C16 UNL     1      56.908 -12.504  32.520  1.00  0.00     0.043 C 
HETATM   29  C17 UNL     1      55.466 -12.729  32.055  1.00  0.00     0.077 C 
HETATM   30  S2  UNL     1      56.122 -12.887  30.358  1.00  0.00    -0.147 SA
ENDBRANCH  24  27
ENDBRANCH  22  24
ENDBRANCH  19  22
ENDBRANCH  13  15
ENDBRANCH   1  13
TORSDOF 5
ENDMDL
