MODEL 1
REMARK VINA RESULT: -7.826130282      0.000      0.000
REMARK  7 active torsions:
REMARK  status: ('A' for Active; 'I' for Inactive)
REMARK    1  A    between atoms: N2_7  and  C5_8 
REMARK    2  A    between atoms: C5_8  and  C6_9 
REMARK    3  A    between atoms: C6_9  and  C7_10 
REMARK    4  A    between atoms: C6_9  and  C9_14 
REMARK    5  A    between atoms: C7_10  and  S1_11 
REMARK       I    between atoms: C9_14  and  N3_16 
REMARK    6  A    between atoms: N4_19  and  C12_21 
REMARK    7  A    between atoms: C12_21  and  C13_22 
ROOT
HETATM    1  C9  UNL     1      -6.686 -10.981   6.377  1.00  0.00     0.242 C 
HETATM    2  O2  UNL     1      -7.640 -10.315   6.860  1.00  0.00    -0.271 OA
HETATM    3  N3  UNL     1      -5.853 -10.343   5.424  1.00  0.00    -0.255 N 
HETATM    4  C10 UNL     1      -4.724 -10.986   4.779  1.00  0.00     0.223 C 
HETATM    5  C11 UNL     1      -4.640 -10.534   3.378  1.00  0.00     0.094 C 
HETATM    6  N4  UNL     1      -3.652 -10.833   2.598  1.00  0.00    -0.378 N 
ATOM      7  H4  UNL     1      -3.676 -10.478   1.642  1.00  0.00     0.160 HD
HETATM    8  N5  UNL     1      -5.675  -9.739   2.846  1.00  0.00    -0.354 N 
ATOM      9  H5  UNL     1      -5.848  -9.759   1.841  1.00  0.00     0.163 HD
HETATM   10  C17 UNL     1      -6.498  -8.898   3.681  1.00  0.00     0.115 C 
HETATM   11  C18 UNL     1      -7.941  -9.281   3.438  1.00  0.00     0.059 C 
HETATM   12  C19 UNL     1      -6.321  -7.461   3.231  1.00  0.00     0.059 C 
HETATM   13  N6  UNL     1      -6.098  -9.014   5.055  1.00  0.00    -0.104 NA
ENDROOT
BRANCH   1  14
HETATM   14  C6  UNL     1      -6.532 -12.367   6.859  1.00  0.00     0.109 C 
BRANCH  14  15
HETATM   15  C5  UNL     1      -5.468 -12.574   7.881  1.00  0.00     0.141 C 
BRANCH  15  16
HETATM   16  N2  UNL     1      -4.603 -13.701   7.661  1.00  0.00    -0.346 N 
HETATM   17  C4  UNL     1      -4.768 -14.702   6.634  1.00  0.00     0.132 C 
HETATM   18  C3  UNL     1      -3.461 -15.445   6.533  1.00  0.00     0.082 C 
HETATM   19  C2  UNL     1      -2.701 -15.101   7.731  1.00  0.00     0.074 C 
HETATM   20  N1  UNL     1      -1.601 -15.646   8.115  1.00  0.00    -0.393 N 
HETATM   21  C20 UNL     1      -3.439 -14.011   8.408  1.00  0.00     0.265 C 
HETATM   22  C1  UNL     1      -1.024 -16.703   7.319  1.00  0.00     0.146 C 
ATOM     23  H1  UNL     1      -1.143 -15.336   8.972  1.00  0.00     0.159 HD
HETATM   24  O3  UNL     1      -3.001 -13.516   9.479  1.00  0.00    -0.266 OA
ENDBRANCH  15  16
ENDBRANCH  14  15
BRANCH  14  25
HETATM   25  C7  UNL     1      -7.860 -12.992   7.200  1.00  0.00     0.124 C 
BRANCH  25  26
HETATM   26  S1  UNL     1      -7.843 -13.779   8.778  1.00  0.00     0.011 S 
HETATM   27  C8  UNL     1      -8.279 -15.476   8.701  1.00  0.00     0.127 C 
HETATM   28  O1  UNL     1      -8.883 -12.988   9.831  1.00  0.00    -0.258 OA
ENDBRANCH  25  26
ENDBRANCH  14  25
ENDBRANCH   1  14
BRANCH   6  29
HETATM   29  C12 UNL     1      -2.529 -11.629   2.986  1.00  0.00     0.129 C 
BRANCH  29  30
HETATM   30  C13 UNL     1      -1.357 -11.483   2.042  1.00  0.00    -0.035 C 
HETATM   31  C14 UNL     1      -0.143 -10.907   2.732  1.00  0.00     0.016 C 
HETATM   32  C15 UNL     1      -0.964 -12.836   1.496  1.00  0.00     0.016 C 
HETATM   33  C16 UNL     1      -1.691 -10.588   0.870  1.00  0.00     0.016 C 
ENDBRANCH  29  30
ENDBRANCH   6  29
TORSDOF 7
ENDMDL
MODEL 2
REMARK VINA RESULT: -7.814730771      1.157      1.199
REMARK  7 active torsions:
REMARK  status: ('A' for Active; 'I' for Inactive)
REMARK    1  A    between atoms: N2_7  and  C5_8 
REMARK    2  A    between atoms: C5_8  and  C6_9 
REMARK    3  A    between atoms: C6_9  and  C7_10 
REMARK    4  A    between atoms: C6_9  and  C9_14 
REMARK    5  A    between atoms: C7_10  and  S1_11 
REMARK       I    between atoms: C9_14  and  N3_16 
REMARK    6  A    between atoms: N4_19  and  C12_21 
REMARK    7  A    between atoms: C12_21  and  C13_22 
ROOT
HETATM    1  C9  UNL     1      -6.647 -11.158   6.229  1.00  0.00     0.242 C 
HETATM    2  O2  UNL     1      -7.622 -10.625   6.823  1.00  0.00    -0.271 OA
HETATM    3  N3  UNL     1      -5.933 -10.368   5.294  1.00  0.00    -0.255 N 
HETATM    4  C10 UNL     1      -4.796 -10.848   4.531  1.00  0.00     0.223 C 
HETATM    5  C11 UNL     1      -4.840 -10.271   3.175  1.00  0.00     0.094 C 
HETATM    6  N4  UNL     1      -3.882 -10.411   2.317  1.00  0.00    -0.378 N 
ATOM      7  H4  UNL     1      -3.997  -9.978   1.401  1.00  0.00     0.160 HD
HETATM    8  N5  UNL     1      -5.971  -9.530   2.776  1.00  0.00    -0.354 N 
ATOM      9  H5  UNL     1      -6.205  -9.479   1.784  1.00  0.00     0.163 HD
HETATM   10  C17 UNL     1      -6.808  -8.842   3.729  1.00  0.00     0.115 C 
HETATM   11  C18 UNL     1      -8.225  -9.332   3.533  1.00  0.00     0.059 C 
HETATM   12  C19 UNL     1      -6.783  -7.361   3.403  1.00  0.00     0.059 C 
HETATM   13  N6  UNL     1      -6.314  -9.039   5.062  1.00  0.00    -0.104 NA
ENDROOT
BRANCH   1  14
HETATM   14  C6  UNL     1      -6.345 -12.561   6.574  1.00  0.00     0.109 C 
BRANCH  14  15
HETATM   15  C5  UNL     1      -5.243 -12.755   7.557  1.00  0.00     0.141 C 
BRANCH  15  16
HETATM   16  N2  UNL     1      -4.375 -13.873   7.309  1.00  0.00    -0.346 N 
HETATM   17  C4  UNL     1      -4.392 -15.128   8.023  1.00  0.00     0.132 C 
HETATM   18  C3  UNL     1      -3.602 -16.111   7.198  1.00  0.00     0.082 C 
HETATM   19  C2  UNL     1      -2.858 -15.321   6.222  1.00  0.00     0.074 C 
HETATM   20  N1  UNL     1      -1.939 -15.757   5.435  1.00  0.00    -0.393 N 
HETATM   21  C20 UNL     1      -3.365 -13.934   6.316  1.00  0.00     0.265 C 
HETATM   22  C1  UNL     1      -1.575 -17.154   5.483  1.00  0.00     0.146 C 
ATOM     23  H1  UNL     1      -1.473 -15.125   4.784  1.00  0.00     0.159 HD
HETATM   24  O3  UNL     1      -2.893 -13.032   5.576  1.00  0.00    -0.266 OA
ENDBRANCH  15  16
ENDBRANCH  14  15
BRANCH  14  25
HETATM   25  C7  UNL     1      -7.596 -13.347   6.868  1.00  0.00     0.124 C 
BRANCH  25  26
HETATM   26  S1  UNL     1      -7.670 -13.881   8.547  1.00  0.00     0.011 S 
HETATM   27  C8  UNL     1      -8.415 -15.457   8.732  1.00  0.00     0.127 C 
HETATM   28  O1  UNL     1      -8.508 -12.762   9.475  1.00  0.00    -0.258 OA
ENDBRANCH  25  26
ENDBRANCH  14  25
ENDBRANCH   1  14
BRANCH   6  29
HETATM   29  C12 UNL     1      -2.673 -11.132   2.568  1.00  0.00     0.129 C 
BRANCH  29  30
HETATM   30  C13 UNL     1      -1.610 -10.868   1.525  1.00  0.00    -0.035 C 
HETATM   31  C14 UNL     1      -0.501  -9.992   2.057  1.00  0.00     0.016 C 
HETATM   32  C15 UNL     1      -0.982 -12.171   1.090  1.00  0.00     0.016 C 
HETATM   33  C16 UNL     1      -2.184 -10.196   0.299  1.00  0.00     0.016 C 
ENDBRANCH  29  30
ENDBRANCH   6  29
TORSDOF 7
ENDMDL
MODEL 3
REMARK VINA RESULT: -7.734711357      1.764      1.948
REMARK  7 active torsions:
REMARK  status: ('A' for Active; 'I' for Inactive)
REMARK    1  A    between atoms: N2_7  and  C5_8 
REMARK    2  A    between atoms: C5_8  and  C6_9 
REMARK    3  A    between atoms: C6_9  and  C7_10 
REMARK    4  A    between atoms: C6_9  and  C9_14 
REMARK    5  A    between atoms: C7_10  and  S1_11 
REMARK       I    between atoms: C9_14  and  N3_16 
REMARK    6  A    between atoms: N4_19  and  C12_21 
REMARK    7  A    between atoms: C12_21  and  C13_22 
ROOT
HETATM    1  C9  UNL     1      -6.768 -10.601   6.665  1.00  0.00     0.242 C 
HETATM    2  O2  UNL     1      -7.692  -9.857   7.089  1.00  0.00    -0.271 OA
HETATM    3  N3  UNL     1      -5.946 -10.101   5.624  1.00  0.00    -0.255 N 
HETATM    4  C10 UNL     1      -4.851 -10.846   5.031  1.00  0.00     0.223 C 
HETATM    5  C11 UNL     1      -4.794 -10.563   3.585  1.00  0.00     0.094 C 
HETATM    6  N4  UNL     1      -3.836 -10.978   2.821  1.00  0.00    -0.378 N 
ATOM      7  H4  UNL     1      -3.878 -10.736   1.831  1.00  0.00     0.160 HD
HETATM    8  N5  UNL     1      -5.825  -9.808   2.988  1.00  0.00    -0.354 N 
ATOM      9  H5  UNL     1      -6.025  -9.940   1.997  1.00  0.00     0.163 HD
HETATM   10  C17 UNL     1      -6.603  -8.852   3.739  1.00  0.00     0.115 C 
HETATM   11  C18 UNL     1      -8.061  -9.222   3.578  1.00  0.00     0.059 C 
HETATM   12  C19 UNL     1      -6.404  -7.483   3.119  1.00  0.00     0.059 C 
HETATM   13  N6  UNL     1      -6.169  -8.818   5.106  1.00  0.00    -0.104 NA
ENDROOT
BRANCH   1  14
HETATM   14  C6  UNL     1      -6.634 -11.924   7.303  1.00  0.00     0.109 C 
BRANCH  14  15
HETATM   15  C5  UNL     1      -6.236 -11.905   8.738  1.00  0.00     0.141 C 
BRANCH  15  16
HETATM   16  N2  UNL     1      -5.107 -12.724   9.083  1.00  0.00    -0.346 N 
HETATM   17  C4  UNL     1      -3.772 -12.588   8.549  1.00  0.00     0.132 C 
HETATM   18  C3  UNL     1      -2.858 -13.376   9.451  1.00  0.00     0.082 C 
HETATM   19  C2  UNL     1      -3.719 -14.230  10.263  1.00  0.00     0.074 C 
HETATM   20  N1  UNL     1      -3.332 -15.175  11.045  1.00  0.00    -0.393 N 
HETATM   21  C20 UNL     1      -5.112 -13.796  10.011  1.00  0.00     0.265 C 
HETATM   22  C1  UNL     1      -1.921 -15.455  11.165  1.00  0.00     0.146 C 
ATOM     23  H1  UNL     1      -4.014 -15.719  11.574  1.00  0.00     0.159 HD
HETATM   24  O3  UNL     1      -6.071 -14.368  10.592  1.00  0.00    -0.266 OA
ENDBRANCH  15  16
ENDBRANCH  14  15
BRANCH  14  25
HETATM   25  C7  UNL     1      -7.805 -12.819   6.987  1.00  0.00     0.124 C 
BRANCH  25  26
HETATM   26  S1  UNL     1      -7.310 -14.482   6.675  1.00  0.00     0.011 S 
HETATM   27  C8  UNL     1      -7.786 -15.589   7.948  1.00  0.00     0.127 C 
HETATM   28  O1  UNL     1      -5.647 -14.562   6.466  1.00  0.00    -0.258 OA
ENDBRANCH  25  26
ENDBRANCH  14  25
ENDBRANCH   1  14
BRANCH   6  29
HETATM   29  C12 UNL     1      -2.722 -11.753   3.273  1.00  0.00     0.129 C 
BRANCH  29  30
HETATM   30  C13 UNL     1      -1.531 -11.655   2.347  1.00  0.00    -0.035 C 
HETATM   31  C14 UNL     1      -0.307 -11.122   3.054  1.00  0.00     0.016 C 
HETATM   32  C15 UNL     1      -1.180 -13.024   1.814  1.00  0.00     0.016 C 
HETATM   33  C16 UNL     1      -1.813 -10.754   1.166  1.00  0.00     0.016 C 
ENDBRANCH  29  30
ENDBRANCH   6  29
TORSDOF 7
ENDMDL
MODEL 4
REMARK VINA RESULT: -7.359719225      2.049      3.430
REMARK  7 active torsions:
REMARK  status: ('A' for Active; 'I' for Inactive)
REMARK    1  A    between atoms: N2_7  and  C5_8 
REMARK    2  A    between atoms: C5_8  and  C6_9 
REMARK    3  A    between atoms: C6_9  and  C7_10 
REMARK    4  A    between atoms: C6_9  and  C9_14 
REMARK    5  A    between atoms: C7_10  and  S1_11 
REMARK       I    between atoms: C9_14  and  N3_16 
REMARK    6  A    between atoms: N4_19  and  C12_21 
REMARK    7  A    between atoms: C12_21  and  C13_22 
ROOT
HETATM    1  C9  UNL     1      -6.667 -11.138   6.439  1.00  0.00     0.242 C 
HETATM    2  O2  UNL     1      -7.651 -10.559   6.970  1.00  0.00    -0.271 OA
HETATM    3  N3  UNL     1      -5.914 -10.413   5.483  1.00  0.00    -0.255 N 
HETATM    4  C10 UNL     1      -4.762 -10.951   4.784  1.00  0.00     0.223 C 
HETATM    5  C11 UNL     1      -4.755 -10.453   3.396  1.00  0.00     0.094 C 
HETATM    6  N4  UNL     1      -3.774 -10.654   2.578  1.00  0.00    -0.378 N 
ATOM      7  H4  UNL     1      -3.854 -10.273   1.635  1.00  0.00     0.160 HD
HETATM    8  N5  UNL     1      -5.863  -9.721   2.921  1.00  0.00    -0.354 N 
ATOM      9  H5  UNL     1      -6.065  -9.723   1.921  1.00  0.00     0.163 HD
HETATM   10  C17 UNL     1      -6.717  -8.967   3.807  1.00  0.00     0.115 C 
HETATM   11  C18 UNL     1      -8.135  -9.449   3.595  1.00  0.00     0.059 C 
HETATM   12  C19 UNL     1      -6.659  -7.509   3.397  1.00  0.00     0.059 C 
HETATM   13  N6  UNL     1      -6.266  -9.094   5.163  1.00  0.00    -0.104 NA
ENDROOT
BRANCH   1  14
HETATM   14  C6  UNL     1      -6.397 -12.523   6.872  1.00  0.00     0.109 C 
BRANCH  14  15
HETATM   15  C5  UNL     1      -7.512 -13.195   7.597  1.00  0.00     0.141 C 
BRANCH  15  16
HETATM   16  N2  UNL     1      -7.135 -13.941   8.766  1.00  0.00    -0.346 N 
HETATM   17  C4  UNL     1      -5.937 -13.738   9.545  1.00  0.00     0.132 C 
HETATM   18  C3  UNL     1      -6.140 -14.454  10.855  1.00  0.00     0.082 C 
HETATM   19  C2  UNL     1      -7.285 -15.340  10.664  1.00  0.00     0.074 C 
HETATM   20  N1  UNL     1      -7.689 -16.246  11.483  1.00  0.00    -0.393 N 
HETATM   21  C20 UNL     1      -7.881 -14.992   9.355  1.00  0.00     0.265 C 
HETATM   22  C1  UNL     1      -6.976 -16.442  12.723  1.00  0.00     0.146 C 
ATOM     23  H1  UNL     1      -8.503 -16.818  11.259  1.00  0.00     0.159 HD
HETATM   24  O3  UNL     1      -8.896 -15.607   8.935  1.00  0.00    -0.266 OA
ENDBRANCH  15  16
ENDBRANCH  14  15
BRANCH  14  25
HETATM   25  C7  UNL     1      -5.779 -13.344   5.770  1.00  0.00     0.124 C 
BRANCH  25  26
HETATM   26  S1  UNL     1      -4.374 -14.254   6.322  1.00  0.00     0.011 S 
HETATM   27  C8  UNL     1      -3.171 -14.486   5.068  1.00  0.00     0.127 C 
HETATM   28  O1  UNL     1      -4.850 -15.751   6.914  1.00  0.00    -0.258 OA
ENDBRANCH  25  26
ENDBRANCH  14  25
ENDBRANCH   1  14
BRANCH   6  29
HETATM   29  C12 UNL     1      -2.584 -11.377   2.907  1.00  0.00     0.129 C 
BRANCH  29  30
HETATM   30  C13 UNL     1      -1.482 -11.178   1.891  1.00  0.00    -0.035 C 
HETATM   31  C14 UNL     1      -0.325 -10.391   2.459  1.00  0.00     0.016 C 
HETATM   32  C15 UNL     1      -0.941 -12.517   1.451  1.00  0.00     0.016 C 
HETATM   33  C16 UNL     1      -1.979 -10.450   0.663  1.00  0.00     0.016 C 
ENDBRANCH  29  30
ENDBRANCH   6  29
TORSDOF 7
ENDMDL
MODEL 5
REMARK VINA RESULT: -7.303512820      2.223      3.705
REMARK  7 active torsions:
REMARK  status: ('A' for Active; 'I' for Inactive)
REMARK    1  A    between atoms: N2_7  and  C5_8 
REMARK    2  A    between atoms: C5_8  and  C6_9 
REMARK    3  A    between atoms: C6_9  and  C7_10 
REMARK    4  A    between atoms: C6_9  and  C9_14 
REMARK    5  A    between atoms: C7_10  and  S1_11 
REMARK       I    between atoms: C9_14  and  N3_16 
REMARK    6  A    between atoms: N4_19  and  C12_21 
REMARK    7  A    between atoms: C12_21  and  C13_22 
ROOT
HETATM    1  C9  UNL     1      -6.703 -10.850   6.320  1.00  0.00     0.242 C 
HETATM    2  O2  UNL     1      -7.671 -10.223   6.827  1.00  0.00    -0.271 OA
HETATM    3  N3  UNL     1      -5.924 -10.181   5.343  1.00  0.00    -0.255 N 
HETATM    4  C10 UNL     1      -4.787 -10.778   4.668  1.00  0.00     0.223 C 
HETATM    5  C11 UNL     1      -4.760 -10.328   3.264  1.00  0.00     0.094 C 
HETATM    6  N4  UNL     1      -3.783 -10.587   2.458  1.00  0.00    -0.378 N 
ATOM      7  H4  UNL     1      -3.848 -10.237   1.502  1.00  0.00     0.160 HD
HETATM    8  N5  UNL     1      -5.843  -9.579   2.759  1.00  0.00    -0.354 N 
ATOM      9  H5  UNL     1      -6.042  -9.610   1.759  1.00  0.00     0.163 HD
HETATM   10  C17 UNL     1      -6.678  -8.771   3.614  1.00  0.00     0.115 C 
HETATM   11  C18 UNL     1      -8.109  -9.216   3.413  1.00  0.00     0.059 C 
HETATM   12  C19 UNL     1      -6.574  -7.329   3.156  1.00  0.00     0.059 C 
HETATM   13  N6  UNL     1      -6.236  -8.864   4.977  1.00  0.00    -0.104 NA
ENDROOT
BRANCH   1  14
HETATM   14  C6  UNL     1      -6.477 -12.227   6.801  1.00  0.00     0.109 C 
BRANCH  14  15
HETATM   15  C5  UNL     1      -7.642 -13.146   6.679  1.00  0.00     0.141 C 
BRANCH  15  16
HETATM   16  N2  UNL     1      -8.019 -13.839   7.880  1.00  0.00    -0.346 N 
HETATM   17  C4  UNL     1      -8.302 -15.250   7.986  1.00  0.00     0.132 C 
HETATM   18  C3  UNL     1      -8.273 -15.594   9.452  1.00  0.00     0.082 C 
HETATM   19  C2  UNL     1      -8.329 -14.325  10.171  1.00  0.00     0.074 C 
HETATM   20  N1  UNL     1      -8.490 -14.177  11.439  1.00  0.00    -0.393 N 
HETATM   21  C20 UNL     1      -8.166 -13.254   9.163  1.00  0.00     0.265 C 
HETATM   22  C1  UNL     1      -8.631 -15.348  12.272  1.00  0.00     0.146 C 
ATOM     23  H1  UNL     1      -8.517 -13.244  11.851  1.00  0.00     0.159 HD
HETATM   24  O3  UNL     1      -8.174 -12.045   9.513  1.00  0.00    -0.266 OA
ENDBRANCH  15  16
ENDBRANCH  14  15
BRANCH  14  25
HETATM   25  C7  UNL     1      -5.175 -12.790   6.294  1.00  0.00     0.124 C 
BRANCH  25  26
HETATM   26  S1  UNL     1      -4.050 -13.155   7.601  1.00  0.00     0.011 S 
HETATM   27  C8  UNL     1      -4.588 -12.551   9.157  1.00  0.00     0.127 C 
HETATM   28  O1  UNL     1      -2.536 -12.519   7.256  1.00  0.00    -0.258 OA
ENDBRANCH  25  26
ENDBRANCH  14  25
ENDBRANCH   1  14
BRANCH   6  29
HETATM   29  C12 UNL     1      -2.617 -11.333   2.817  1.00  0.00     0.129 C 
BRANCH  29  30
HETATM   30  C13 UNL     1      -1.493 -11.174   1.818  1.00  0.00    -0.035 C 
HETATM   31  C14 UNL     1      -0.961 -12.507   1.347  1.00  0.00     0.016 C 
HETATM   32  C15 UNL     1      -1.990 -10.433   0.599  1.00  0.00     0.016 C 
HETATM   33  C16 UNL     1      -0.335 -10.393   2.398  1.00  0.00     0.016 C 
ENDBRANCH  29  30
ENDBRANCH   6  29
TORSDOF 7
ENDMDL
