MODEL 1
REMARK VINA RESULT: -8.322920558      0.000      0.000
REMARK  3 active torsions:
REMARK  status: ('A' for Active; 'I' for Inactive)
REMARK    1  A    between atoms: C2_2  and  N1_3 
REMARK    2  A    between atoms: C2_2  and  C3_7 
REMARK    3  A    between atoms: C2_2  and  C9_13 
ROOT
HETATM    1  C1  UNL     1      32.350  17.679   2.651  1.00  0.00     0.057 C 
HETATM    2  C2  UNL     1      31.674  18.478   1.575  1.00  0.00     0.174 C 
ENDROOT
BRANCH   2   3
HETATM    3  N1  UNL     1      30.428  18.995   2.113  1.00  0.00    -0.062 N 
ATOM      4  H13 UNL     1      29.629  18.398   1.900  1.00  0.00     0.276 HD
ATOM      5  H12 UNL     1      30.380  18.931   3.130  1.00  0.00     0.276 HD
ATOM      6  H11 UNL     1      30.307  19.949   1.773  1.00  0.00     0.276 HD
ENDBRANCH   2   3
BRANCH   2   7
HETATM    7  C3  UNL     1      31.314  17.659   0.379  1.00  0.00    -0.018 A 
HETATM    8  C4  UNL     1      32.244  17.329  -0.579  1.00  0.00     0.010 A 
HETATM    9  C5  UNL     1      31.826  16.576  -1.653  1.00  0.00     0.001 A 
HETATM   10  C6  UNL     1      30.500  16.159  -1.767  1.00  0.00     0.000 A 
HETATM   11  C7  UNL     1      29.592  16.497  -0.805  1.00  0.00     0.001 A 
HETATM   12  C8  UNL     1      29.976  17.253   0.288  1.00  0.00     0.010 A 
ENDBRANCH   2   7
BRANCH   2  13
HETATM   13  C9  UNL     1      32.468  19.648   1.121  1.00  0.00    -0.018 A 
HETATM   14  C10 UNL     1      31.834  20.867   0.848  1.00  0.00     0.010 A 
HETATM   15  C11 UNL     1      32.586  21.944   0.428  1.00  0.00     0.001 A 
HETATM   16  C12 UNL     1      33.953  21.890   0.259  1.00  0.00     0.000 A 
HETATM   17  C13 UNL     1      34.580  20.691   0.528  1.00  0.00     0.001 A 
HETATM   18  C14 UNL     1      33.834  19.597   0.951  1.00  0.00     0.010 A 
ENDBRANCH   2  13
TORSDOF 3
ENDMDL
MODEL 2
REMARK VINA RESULT: -8.315590245      0.029      1.221
REMARK  3 active torsions:
REMARK  status: ('A' for Active; 'I' for Inactive)
REMARK    1  A    between atoms: C2_2  and  N1_3 
REMARK    2  A    between atoms: C2_2  and  C3_7 
REMARK    3  A    between atoms: C2_2  and  C9_13 
ROOT
HETATM    1  C1  UNL     1      32.337  17.679   2.644  1.00  0.00     0.057 C 
HETATM    2  C2  UNL     1      31.652  18.473   1.570  1.00  0.00     0.174 C 
ENDROOT
BRANCH   2   3
HETATM    3  N1  UNL     1      30.402  18.979   2.110  1.00  0.00    -0.062 N 
ATOM      4  H13 UNL     1      30.003  18.365   2.820  1.00  0.00     0.276 HD
ATOM      5  H12 UNL     1      30.532  19.803   2.697  1.00  0.00     0.276 HD
ATOM      6  H11 UNL     1      29.765  19.147   1.331  1.00  0.00     0.276 HD
ENDBRANCH   2   3
BRANCH   2   7
HETATM    7  C3  UNL     1      31.297  17.651   0.374  1.00  0.00    -0.018 A 
HETATM    8  C4  UNL     1      32.231  17.321  -0.581  1.00  0.00     0.010 A 
HETATM    9  C5  UNL     1      31.818  16.565  -1.654  1.00  0.00     0.001 A 
HETATM   10  C6  UNL     1      30.493  16.146  -1.773  1.00  0.00     0.000 A 
HETATM   11  C7  UNL     1      29.581  16.485  -0.814  1.00  0.00     0.001 A 
HETATM   12  C8  UNL     1      29.960  17.244   0.279  1.00  0.00     0.010 A 
ENDBRANCH   2   7
BRANCH   2  13
HETATM   13  C9  UNL     1      32.435  19.650   1.115  1.00  0.00    -0.018 A 
HETATM   14  C10 UNL     1      33.826  19.560   0.971  1.00  0.00     0.010 A 
HETATM   15  C11 UNL     1      34.537  20.662   0.546  1.00  0.00     0.001 A 
HETATM   16  C12 UNL     1      33.947  21.872   0.249  1.00  0.00     0.000 A 
HETATM   17  C13 UNL     1      32.578  21.964   0.390  1.00  0.00     0.001 A 
HETATM   18  C14 UNL     1      31.849  20.861   0.818  1.00  0.00     0.010 A 
ENDBRANCH   2  13
TORSDOF 3
ENDMDL
MODEL 3
REMARK VINA RESULT: -8.148388489      0.095      1.246
REMARK  3 active torsions:
REMARK  status: ('A' for Active; 'I' for Inactive)
REMARK    1  A    between atoms: C2_2  and  N1_3 
REMARK    2  A    between atoms: C2_2  and  C3_7 
REMARK    3  A    between atoms: C2_2  and  C9_13 
ROOT
HETATM    1  C1  UNL     1      32.382  17.702   2.670  1.00  0.00     0.057 C 
HETATM    2  C2  UNL     1      31.681  18.510   1.619  1.00  0.00     0.174 C 
ENDROOT
BRANCH   2   3
HETATM    3  N1  UNL     1      30.460  19.044   2.199  1.00  0.00    -0.062 N 
ATOM      4  H13 UNL     1      29.988  18.375   2.807  1.00  0.00     0.276 HD
ATOM      5  H12 UNL     1      30.639  19.765   2.898  1.00  0.00     0.276 HD
ATOM      6  H11 UNL     1      29.865  19.373   1.438  1.00  0.00     0.276 HD
ENDBRANCH   2   3
BRANCH   2   7
HETATM    7  C3  UNL     1      31.269  17.697   0.436  1.00  0.00    -0.018 A 
HETATM    8  C4  UNL     1      29.959  17.330   0.230  1.00  0.00     0.010 A 
HETATM    9  C5  UNL     1      29.666  16.575  -0.883  1.00  0.00     0.001 A 
HETATM   10  C6  UNL     1      30.666  16.192  -1.776  1.00  0.00     0.000 A 
HETATM   11  C7  UNL     1      31.961  16.566  -1.554  1.00  0.00     0.001 A 
HETATM   12  C8  UNL     1      32.292  17.325  -0.445  1.00  0.00     0.010 A 
ENDBRANCH   2   7
BRANCH   2  13
HETATM   13  C9  UNL     1      32.474  19.670   1.138  1.00  0.00    -0.018 A 
HETATM   14  C10 UNL     1      31.836  20.875   0.815  1.00  0.00     0.010 A 
HETATM   15  C11 UNL     1      32.588  21.943   0.371  1.00  0.00     0.001 A 
HETATM   16  C12 UNL     1      33.958  21.892   0.223  1.00  0.00     0.000 A 
HETATM   17  C13 UNL     1      34.587  20.707   0.541  1.00  0.00     0.001 A 
HETATM   18  C14 UNL     1      33.842  19.623   0.989  1.00  0.00     0.010 A 
ENDBRANCH   2  13
TORSDOF 3
ENDMDL
MODEL 4
REMARK VINA RESULT: -8.148372828      0.092      1.744
REMARK  3 active torsions:
REMARK  status: ('A' for Active; 'I' for Inactive)
REMARK    1  A    between atoms: C2_2  and  N1_3 
REMARK    2  A    between atoms: C2_2  and  C3_7 
REMARK    3  A    between atoms: C2_2  and  C9_13 
ROOT
HETATM    1  C1  UNL     1      32.346  17.685   2.641  1.00  0.00     0.057 C 
HETATM    2  C2  UNL     1      31.639  18.497   1.595  1.00  0.00     0.174 C 
ENDROOT
BRANCH   2   3
HETATM    3  N1  UNL     1      30.410  19.010   2.176  1.00  0.00    -0.062 N 
ATOM      4  H13 UNL     1      30.047  19.821   1.675  1.00  0.00     0.276 HD
ATOM      5  H12 UNL     1      29.615  18.388   2.027  1.00  0.00     0.276 HD
ATOM      6  H11 UNL     1      30.581  19.201   3.163  1.00  0.00     0.276 HD
ENDBRANCH   2   3
BRANCH   2   7
HETATM    7  C3  UNL     1      31.242  17.692   0.401  1.00  0.00    -0.018 A 
HETATM    8  C4  UNL     1      29.940  17.299   0.194  1.00  0.00     0.010 A 
HETATM    9  C5  UNL     1      29.660  16.555  -0.929  1.00  0.00     0.001 A 
HETATM   10  C6  UNL     1      30.666  16.207  -1.831  1.00  0.00     0.000 A 
HETATM   11  C7  UNL     1      31.952  16.607  -1.607  1.00  0.00     0.001 A 
HETATM   12  C8  UNL     1      32.270  17.357  -0.488  1.00  0.00     0.010 A 
ENDBRANCH   2   7
BRANCH   2  13
HETATM   13  C9  UNL     1      32.421  19.671   1.131  1.00  0.00    -0.018 A 
HETATM   14  C10 UNL     1      33.813  19.582   0.993  1.00  0.00     0.010 A 
HETATM   15  C11 UNL     1      34.523  20.682   0.559  1.00  0.00     0.001 A 
HETATM   16  C12 UNL     1      33.931  21.887   0.246  1.00  0.00     0.000 A 
HETATM   17  C13 UNL     1      32.562  21.977   0.380  1.00  0.00     0.001 A 
HETATM   18  C14 UNL     1      31.833  20.877   0.817  1.00  0.00     0.010 A 
ENDBRANCH   2  13
TORSDOF 3
ENDMDL
MODEL 5
REMARK VINA RESULT: -8.066286550      1.483      2.424
REMARK  3 active torsions:
REMARK  status: ('A' for Active; 'I' for Inactive)
REMARK    1  A    between atoms: C2_2  and  N1_3 
REMARK    2  A    between atoms: C2_2  and  C3_7 
REMARK    3  A    between atoms: C2_2  and  C9_13 
ROOT
HETATM    1  C1  UNL     1      32.834  20.774   3.155  1.00  0.00     0.057 C 
HETATM    2  C2  UNL     1      32.466  20.747   1.701  1.00  0.00     0.174 C 
ENDROOT
BRANCH   2   3
HETATM    3  N1  UNL     1      31.283  21.571   1.519  1.00  0.00    -0.062 N 
ATOM      4  H13 UNL     1      31.509  22.534   1.271  1.00  0.00     0.276 HD
ATOM      5  H12 UNL     1      30.760  21.330   0.677  1.00  0.00     0.276 HD
ATOM      6  H11 UNL     1      30.718  21.505   2.366  1.00  0.00     0.276 HD
ENDBRANCH   2   3
BRANCH   2   7
HETATM    7  C3  UNL     1      32.109  19.380   1.215  1.00  0.00    -0.018 A 
HETATM    8  C4  UNL     1      31.490  19.181   0.003  1.00  0.00     0.010 A 
HETATM    9  C5  UNL     1      31.192  17.889  -0.366  1.00  0.00     0.001 A 
HETATM   10  C6  UNL     1      31.506  16.813   0.463  1.00  0.00     0.000 A 
HETATM   11  C7  UNL     1      32.120  17.031   1.663  1.00  0.00     0.001 A 
HETATM   12  C8  UNL     1      32.435  18.317   2.067  1.00  0.00     0.010 A 
ENDBRANCH   2   7
BRANCH   2  13
HETATM   13  C9  UNL     1      33.519  21.300   0.813  1.00  0.00    -0.018 A 
HETATM   14  C10 UNL     1      33.260  22.436   0.034  1.00  0.00     0.010 A 
HETATM   15  C11 UNL     1      34.249  22.938  -0.785  1.00  0.00     0.001 A 
HETATM   16  C12 UNL     1      35.505  22.376  -0.882  1.00  0.00     0.000 A 
HETATM   17  C13 UNL     1      35.763  21.259  -0.117  1.00  0.00     0.001 A 
HETATM   18  C14 UNL     1      34.774  20.742   0.712  1.00  0.00     0.010 A 
ENDBRANCH   2  13
TORSDOF 3
ENDMDL
