MODEL 1
REMARK VINA RESULT: -9.585344931      0.000      0.000
REMARK  2 active torsions:
REMARK  status: ('A' for Active; 'I' for Inactive)
REMARK    1  A    between atoms: C10_16  and  N4_17 
REMARK       I    between atoms: N4_17  and  C11_18 
REMARK       I    between atoms: C11_18  and  N5_20 
REMARK    2  A    between atoms: N5_20  and  C12_22 
ROOT
HETATM    1  C1  UNL     1     -20.574 -33.964  -3.292  1.00  0.00     0.035 C 
HETATM    2  C2  UNL     1     -21.763 -33.247  -2.733  1.00  0.00     0.082 C 
HETATM    3  C3  UNL     1     -22.567 -32.610  -3.764  1.00  0.00     0.072 C 
HETATM    4  N1  UNL     1     -23.232 -32.111  -4.601  1.00  0.00    -0.196 NA
HETATM    5  C4  UNL     1     -21.185 -32.113  -1.852  1.00  0.00     0.062 C 
HETATM    6  C5  UNL     1     -21.726 -32.439  -0.485  1.00  0.00    -0.066 C 
HETATM    7  C6  UNL     1     -22.207 -31.893   0.572  1.00  0.00    -0.004 C 
HETATM    8  C7  UNL     1     -22.686 -32.552   1.818  1.00  0.00     0.148 C 
HETATM    9  N2  UNL     1     -22.835 -33.978   1.631  1.00  0.00    -0.376 N 
ATOM     10  H2  UNL     1     -23.518 -34.512   2.170  1.00  0.00     0.161 HD
HETATM   11  C8  UNL     1     -21.987 -34.618   0.660  1.00  0.00     0.082 C 
HETATM   12  N3  UNL     1     -21.545 -35.807   0.906  1.00  0.00    -0.388 N 
ATOM     13  H31 UNL     1     -20.945 -36.260   0.218  1.00  0.00     0.157 HD
ATOM     14  H32 UNL     1     -21.825 -36.266   1.773  1.00  0.00     0.157 HD
HETATM   15  C9  UNL     1     -21.593 -33.972  -0.561  1.00  0.00     0.119 C 
HETATM   16  C10 UNL     1     -22.556 -34.057  -1.756  1.00  0.00     0.206 C 
ENDROOT
BRANCH  16  17
HETATM   17  N4  UNL     1     -22.993 -35.299  -2.076  1.00  0.00    -0.388 NA
HETATM   18  C11 UNL     1     -23.437 -36.560  -2.400  1.00  0.00     0.389 C 
HETATM   19  O1  UNL     1     -23.883 -37.396  -1.579  1.00  0.00    -0.231 OA
HETATM   20  N5  UNL     1     -23.420 -37.060  -3.751  1.00  0.00    -0.322 N 
ATOM     21  H5  UNL     1     -23.103 -36.408  -4.469  1.00  0.00     0.166 HD
BRANCH  20  22
HETATM   22  C12 UNL     1     -23.792 -38.350  -4.197  1.00  0.00     0.040 C 
HETATM   23  C13 UNL     1     -25.306 -38.487  -4.279  1.00  0.00     0.036 C 
HETATM   24  C14 UNL     1     -25.780 -39.050  -5.556  1.00  0.00    -0.007 C 
HETATM   25  C15 UNL     1     -25.225 -38.180  -6.702  1.00  0.00     0.010 C 
HETATM   26  C17 UNL     1     -24.952 -40.161  -6.124  1.00  0.00    -0.005 C 
HETATM   27  C16 UNL     1     -24.024 -39.062  -6.620  1.00  0.00    -0.003 C 
HETATM   28  C21 UNL     1     -23.123 -38.834  -5.465  1.00  0.00     0.022 C 
HETATM   29  C19 UNL     1     -22.954 -40.174  -4.816  1.00  0.00    -0.005 C 
HETATM   30  C18 UNL     1     -24.142 -41.011  -5.223  1.00  0.00     0.010 C 
HETATM   31  C20 UNL     1     -23.240 -39.521  -3.469  1.00  0.00     0.036 C 
ENDBRANCH  20  22
ENDBRANCH  16  17
TORSDOF 2
ENDMDL
MODEL 2
REMARK VINA RESULT: -9.266491554      1.083      1.099
REMARK  2 active torsions:
REMARK  status: ('A' for Active; 'I' for Inactive)
REMARK    1  A    between atoms: C10_16  and  N4_17 
REMARK       I    between atoms: N4_17  and  C11_18 
REMARK       I    between atoms: C11_18  and  N5_20 
REMARK    2  A    between atoms: N5_20  and  C12_22 
ROOT
HETATM    1  C1  UNL     1     -20.546 -33.975  -3.663  1.00  0.00     0.035 C 
HETATM    2  C2  UNL     1     -21.703 -33.351  -2.946  1.00  0.00     0.082 C 
HETATM    3  C3  UNL     1     -22.363 -32.325  -3.737  1.00  0.00     0.072 C 
HETATM    4  N1  UNL     1     -22.914 -31.507  -4.385  1.00  0.00    -0.196 NA
HETATM    5  C4  UNL     1     -21.090 -32.641  -1.714  1.00  0.00     0.062 C 
HETATM    6  C5  UNL     1     -21.761 -33.334  -0.557  1.00  0.00    -0.066 C 
HETATM    7  C6  UNL     1     -22.268 -33.114   0.600  1.00  0.00    -0.004 C 
HETATM    8  C7  UNL     1     -22.898 -34.086   1.535  1.00  0.00     0.148 C 
HETATM    9  N2  UNL     1     -23.165 -35.346   0.877  1.00  0.00    -0.376 N 
ATOM     10  H2  UNL     1     -23.933 -35.946   1.178  1.00  0.00     0.161 HD
HETATM   11  C8  UNL     1     -22.309 -35.723  -0.218  1.00  0.00     0.082 C 
HETATM   12  N3  UNL     1     -21.999 -36.969  -0.364  1.00  0.00    -0.388 N 
ATOM     13  H31 UNL     1     -21.393 -37.237  -1.140  1.00  0.00     0.157 HD
ATOM     14  H32 UNL     1     -22.386 -37.652   0.288  1.00  0.00     0.157 HD
HETATM   15  C9  UNL     1     -21.765 -34.762  -1.136  1.00  0.00     0.119 C 
HETATM   16  C10 UNL     1     -22.638 -34.342  -2.328  1.00  0.00     0.206 C 
ENDROOT
BRANCH  16  17
HETATM   17  N4  UNL     1     -23.163 -35.353  -3.062  1.00  0.00    -0.388 NA
HETATM   18  C11 UNL     1     -23.696 -36.379  -3.808  1.00  0.00     0.389 C 
HETATM   19  O1  UNL     1     -24.577 -36.241  -4.688  1.00  0.00    -0.231 OA
HETATM   20  N5  UNL     1     -23.290 -37.750  -3.634  1.00  0.00    -0.322 N 
ATOM     21  H5  UNL     1     -22.546 -37.917  -2.957  1.00  0.00     0.166 HD
BRANCH  20  22
HETATM   22  C12 UNL     1     -23.803 -38.890  -4.295  1.00  0.00     0.040 C 
HETATM   23  C13 UNL     1     -25.319 -38.820  -4.415  1.00  0.00     0.036 C 
HETATM   24  C14 UNL     1     -25.817 -39.100  -5.773  1.00  0.00    -0.007 C 
HETATM   25  C15 UNL     1     -25.124 -38.130  -6.751  1.00  0.00     0.010 C 
HETATM   26  C17 UNL     1     -25.114 -40.197  -6.512  1.00  0.00    -0.005 C 
HETATM   27  C16 UNL     1     -24.043 -39.157  -6.805  1.00  0.00    -0.003 C 
HETATM   28  C21 UNL     1     -23.158 -39.239  -5.618  1.00  0.00     0.022 C 
HETATM   29  C19 UNL     1     -23.176 -40.678  -5.203  1.00  0.00    -0.005 C 
HETATM   30  C18 UNL     1     -24.444 -41.280  -5.757  1.00  0.00     0.010 C 
HETATM   31  C20 UNL     1     -23.422 -40.226  -3.768  1.00  0.00     0.036 C 
ENDBRANCH  20  22
ENDBRANCH  16  17
TORSDOF 2
ENDMDL
MODEL 3
REMARK VINA RESULT: -9.077669548      1.438      1.982
REMARK  2 active torsions:
REMARK  status: ('A' for Active; 'I' for Inactive)
REMARK    1  A    between atoms: C10_16  and  N4_17 
REMARK       I    between atoms: N4_17  and  C11_18 
REMARK       I    between atoms: C11_18  and  N5_20 
REMARK    2  A    between atoms: N5_20  and  C12_22 
ROOT
HETATM    1  C1  UNL     1     -20.575 -33.633  -3.136  1.00  0.00     0.035 C 
HETATM    2  C2  UNL     1     -21.709 -33.134  -2.296  1.00  0.00     0.082 C 
HETATM    3  C3  UNL     1     -22.283 -31.900  -2.809  1.00  0.00     0.072 C 
HETATM    4  N1  UNL     1     -22.765 -30.911  -3.235  1.00  0.00    -0.196 NA
HETATM    5  C4  UNL     1     -21.088 -32.801  -0.919  1.00  0.00     0.062 C 
HETATM    6  C5  UNL     1     -21.831 -33.716   0.018  1.00  0.00    -0.066 C 
HETATM    7  C6  UNL     1     -22.355 -33.762   1.188  1.00  0.00    -0.004 C 
HETATM    8  C7  UNL     1     -23.069 -34.894   1.839  1.00  0.00     0.148 C 
HETATM    9  N2  UNL     1     -23.396 -35.927   0.880  1.00  0.00    -0.376 N 
ATOM     10  H2  UNL     1     -24.207 -36.531   1.011  1.00  0.00     0.161 HD
HETATM   11  C8  UNL     1     -22.535 -36.072  -0.265  1.00  0.00     0.082 C 
HETATM   12  N3  UNL     1     -22.299 -37.259  -0.719  1.00  0.00    -0.388 N 
ATOM     13  H31 UNL     1     -21.690 -37.361  -1.531  1.00  0.00     0.157 HD
ATOM     14  H32 UNL     1     -22.745 -38.056  -0.266  1.00  0.00     0.157 HD
HETATM   15  C9  UNL     1     -21.908 -34.949  -0.904  1.00  0.00     0.119 C 
HETATM   16  C10 UNL     1     -22.721 -34.184  -1.960  1.00  0.00     0.206 C 
ENDROOT
BRANCH  16  17
HETATM   17  N4  UNL     1     -23.288 -34.940  -2.932  1.00  0.00    -0.388 NA
HETATM   18  C11 UNL     1     -23.862 -35.707  -3.919  1.00  0.00     0.389 C 
HETATM   19  O1  UNL     1     -24.728 -35.300  -4.728  1.00  0.00    -0.231 OA
HETATM   20  N5  UNL     1     -23.524 -37.093  -4.114  1.00  0.00    -0.322 N 
ATOM     21  H5  UNL     1     -22.794 -37.469  -3.508  1.00  0.00     0.166 HD
BRANCH  20  22
HETATM   22  C12 UNL     1     -24.085 -37.994  -5.048  1.00  0.00     0.040 C 
HETATM   23  C13 UNL     1     -23.801 -37.551  -6.477  1.00  0.00     0.036 C 
HETATM   24  C14 UNL     1     -23.271 -38.627  -7.334  1.00  0.00    -0.007 C 
HETATM   25  C15 UNL     1     -22.012 -39.207  -6.657  1.00  0.00     0.010 C 
HETATM   26  C17 UNL     1     -23.885 -39.979  -7.137  1.00  0.00    -0.005 C 
HETATM   27  C16 UNL     1     -22.967 -40.093  -5.928  1.00  0.00    -0.003 C 
HETATM   28  C21 UNL     1     -23.754 -39.456  -4.845  1.00  0.00     0.022 C 
HETATM   29  C19 UNL     1     -25.186 -39.781  -5.144  1.00  0.00    -0.005 C 
HETATM   30  C18 UNL     1     -25.267 -40.091  -6.619  1.00  0.00     0.010 C 
HETATM   31  C20 UNL     1     -25.531 -38.314  -4.921  1.00  0.00     0.036 C 
ENDBRANCH  20  22
ENDBRANCH  16  17
TORSDOF 2
ENDMDL
MODEL 4
REMARK VINA RESULT: -8.918986994      1.310      1.825
REMARK  2 active torsions:
REMARK  status: ('A' for Active; 'I' for Inactive)
REMARK    1  A    between atoms: C10_16  and  N4_17 
REMARK       I    between atoms: N4_17  and  C11_18 
REMARK       I    between atoms: C11_18  and  N5_20 
REMARK    2  A    between atoms: N5_20  and  C12_22 
ROOT
HETATM    1  C1  UNL     1     -20.514 -33.674  -3.300  1.00  0.00     0.035 C 
HETATM    2  C2  UNL     1     -21.745 -33.246  -2.562  1.00  0.00     0.082 C 
HETATM    3  C3  UNL     1     -22.419 -32.128  -3.202  1.00  0.00     0.072 C 
HETATM    4  N1  UNL     1     -22.980 -31.235  -3.732  1.00  0.00    -0.196 NA
HETATM    5  C4  UNL     1     -21.246 -32.740  -1.187  1.00  0.00     0.062 C 
HETATM    6  C5  UNL     1     -21.939 -33.661  -0.218  1.00  0.00    -0.066 C 
HETATM    7  C6  UNL     1     -22.523 -33.678   0.924  1.00  0.00    -0.004 C 
HETATM    8  C7  UNL     1     -23.147 -34.832   1.629  1.00  0.00     0.148 C 
HETATM    9  N2  UNL     1     -23.300 -35.965   0.742  1.00  0.00    -0.376 N 
ATOM     10  H2  UNL     1     -24.047 -36.646   0.881  1.00  0.00     0.161 HD
HETATM   11  C8  UNL     1     -22.362 -36.097  -0.342  1.00  0.00     0.082 C 
HETATM   12  N3  UNL     1     -21.971 -37.280  -0.686  1.00  0.00    -0.388 N 
ATOM     13  H31 UNL     1     -21.307 -37.373  -1.454  1.00  0.00     0.157 HD
ATOM     14  H32 UNL     1     -22.352 -38.087  -0.191  1.00  0.00     0.157 HD
HETATM   15  C9  UNL     1     -21.826 -34.961  -1.038  1.00  0.00     0.119 C 
HETATM   16  C10 UNL     1     -22.653 -34.376  -2.193  1.00  0.00     0.206 C 
ENDROOT
BRANCH  16  17
HETATM   17  N4  UNL     1     -23.075 -35.263  -3.127  1.00  0.00    -0.388 NA
HETATM   18  C11 UNL     1     -23.502 -36.163  -4.076  1.00  0.00     0.389 C 
HETATM   19  O1  UNL     1     -24.597 -36.097  -4.682  1.00  0.00    -0.231 OA
HETATM   20  N5  UNL     1     -22.716 -37.305  -4.465  1.00  0.00    -0.322 N 
ATOM     21  H5  UNL     1     -21.797 -37.388  -4.032  1.00  0.00     0.166 HD
BRANCH  20  22
HETATM   22  C12 UNL     1     -23.072 -38.324  -5.378  1.00  0.00     0.040 C 
HETATM   23  C13 UNL     1     -23.465 -39.602  -4.650  1.00  0.00     0.036 C 
HETATM   24  C14 UNL     1     -24.736 -40.182  -5.120  1.00  0.00    -0.007 C 
HETATM   25  C15 UNL     1     -25.831 -39.102  -5.005  1.00  0.00     0.010 C 
HETATM   26  C17 UNL     1     -24.970 -40.128  -6.598  1.00  0.00    -0.005 C 
HETATM   27  C16 UNL     1     -25.381 -38.681  -6.364  1.00  0.00    -0.003 C 
HETATM   28  C21 UNL     1     -24.094 -37.949  -6.430  1.00  0.00     0.022 C 
HETATM   29  C19 UNL     1     -23.265 -38.683  -7.440  1.00  0.00    -0.005 C 
HETATM   30  C18 UNL     1     -23.816 -40.085  -7.525  1.00  0.00     0.010 C 
HETATM   31  C20 UNL     1     -22.103 -38.661  -6.454  1.00  0.00     0.036 C 
ENDBRANCH  20  22
ENDBRANCH  16  17
TORSDOF 2
ENDMDL
MODEL 5
REMARK VINA RESULT: -8.746568816      1.418      2.242
REMARK  2 active torsions:
REMARK  status: ('A' for Active; 'I' for Inactive)
REMARK    1  A    between atoms: C10_16  and  N4_17 
REMARK       I    between atoms: N4_17  and  C11_18 
REMARK       I    between atoms: C11_18  and  N5_20 
REMARK    2  A    between atoms: N5_20  and  C12_22 
ROOT
HETATM    1  C1  UNL     1     -20.549 -33.713  -3.562  1.00  0.00     0.035 C 
HETATM    2  C2  UNL     1     -21.713 -33.218  -2.760  1.00  0.00     0.082 C 
HETATM    3  C3  UNL     1     -22.331 -32.038  -3.343  1.00  0.00     0.072 C 
HETATM    4  N1  UNL     1     -22.848 -31.093  -3.826  1.00  0.00    -0.196 NA
HETATM    5  C4  UNL     1     -21.121 -32.786  -1.397  1.00  0.00     0.062 C 
HETATM    6  C5  UNL     1     -21.837 -33.681  -0.420  1.00  0.00    -0.066 C 
HETATM    7  C6  UNL     1     -22.372 -33.686   0.746  1.00  0.00    -0.004 C 
HETATM    8  C7  UNL     1     -23.047 -34.811   1.450  1.00  0.00     0.148 C 
HETATM    9  N2  UNL     1     -23.320 -35.905   0.545  1.00  0.00    -0.376 N 
ATOM     10  H2  UNL     1     -24.107 -36.535   0.701  1.00  0.00     0.161 HD
HETATM   11  C8  UNL     1     -22.441 -36.076  -0.583  1.00  0.00     0.082 C 
HETATM   12  N3  UNL     1     -22.151 -37.274  -0.971  1.00  0.00    -0.388 N 
ATOM     13  H31 UNL     1     -21.529 -37.394  -1.770  1.00  0.00     0.157 HD
ATOM     14  H32 UNL     1     -22.569 -38.064  -0.479  1.00  0.00     0.157 HD
HETATM   15  C9  UNL     1     -21.853 -34.963  -1.275  1.00  0.00     0.119 C 
HETATM   16  C10 UNL     1     -22.685 -34.289  -2.378  1.00  0.00     0.206 C 
ENDROOT
BRANCH  16  17
HETATM   17  N4  UNL     1     -23.208 -35.119  -3.313  1.00  0.00    -0.388 NA
HETATM   18  C11 UNL     1     -23.741 -35.960  -4.263  1.00  0.00     0.389 C 
HETATM   19  O1  UNL     1     -24.947 -35.985  -4.601  1.00  0.00    -0.231 OA
HETATM   20  N5  UNL     1     -22.942 -36.928  -4.970  1.00  0.00    -0.322 N 
ATOM     21  H5  UNL     1     -21.943 -36.926  -4.763  1.00  0.00     0.166 HD
BRANCH  20  22
HETATM   22  C12 UNL     1     -23.383 -37.880  -5.918  1.00  0.00     0.040 C 
HETATM   23  C13 UNL     1     -22.334 -38.962  -6.138  1.00  0.00     0.036 C 
HETATM   24  C14 UNL     1     -22.875 -40.331  -6.064  1.00  0.00    -0.007 C 
HETATM   25  C15 UNL     1     -23.586 -40.497  -4.706  1.00  0.00     0.010 C 
HETATM   26  C17 UNL     1     -24.221 -40.535  -6.687  1.00  0.00    -0.005 C 
HETATM   27  C16 UNL     1     -24.778 -39.935  -5.404  1.00  0.00    -0.003 C 
HETATM   28  C21 UNL     1     -24.752 -38.477  -5.674  1.00  0.00     0.022 C 
HETATM   29  C19 UNL     1     -25.031 -38.335  -7.140  1.00  0.00    -0.005 C 
HETATM   30  C18 UNL     1     -24.665 -39.648  -7.786  1.00  0.00     0.010 C 
HETATM   31  C20 UNL     1     -23.846 -37.381  -7.238  1.00  0.00     0.036 C 
ENDBRANCH  20  22
ENDBRANCH  16  17
TORSDOF 2
ENDMDL
