MODEL 1
REMARK VINA RESULT: -8.937043067      0.000      0.000
REMARK  16 active torsions:
REMARK  status: ('A' for Active; 'I' for Inactive)
REMARK    1  A    between atoms: N1_1  and  C1_4 
REMARK    2  A    between atoms: C2_7  and  N3_8 
REMARK    3  A    between atoms: C3_13  and  N5_14 
REMARK    4  A    between atoms: N5_14  and  C4_16 
REMARK    5  A    between atoms: C5_17  and  C6_18 
REMARK    6  A    between atoms: C6_18  and  S1_19 
REMARK    7  A    between atoms: S1_19  and  C7_20 
REMARK    8  A    between atoms: N11_35  and  C13_36 
REMARK    9  A    between atoms: C14_37  and  O1_38 
REMARK   10  A    between atoms: C15_40  and  O2_41 
REMARK   11  A    between atoms: C16_43  and  O3_44 
REMARK   12  A    between atoms: C16_43  and  C17_46 
REMARK   13  A    between atoms: C17_46  and  O4_47 
REMARK   14  A    between atoms: C17_46  and  C18_49 
REMARK   15  A    between atoms: C18_49  and  O5_50 
REMARK   16  A    between atoms: C19_52  and  O6_53 
ROOT
HETATM    1  C7  UNL     1      30.535  29.366  83.070  1.00  0.00     0.104 A 
HETATM    2  N6  UNL     1      30.126  29.961  81.936  1.00  0.00    -0.345 N 
ATOM      3  H6  UNL     1      30.789  30.118  81.176  1.00  0.00     0.167 HD
HETATM    4  C8  UNL     1      28.829  30.356  81.796  1.00  0.00     0.183 A 
HETATM    5  N7  UNL     1      27.916  30.179  82.757  1.00  0.00    -0.336 N 
ATOM      6  H7  UNL     1      26.952  30.484  82.626  1.00  0.00     0.168 HD
HETATM    7  C9  UNL     1      28.305  29.584  83.903  1.00  0.00     0.157 A 
HETATM    8  C10 UNL     1      29.601  29.179  84.065  1.00  0.00     0.152 A 
HETATM    9  N8  UNL     1      29.661  28.626  85.308  1.00  0.00    -0.079 N 
HETATM   10  N9  UNL     1      30.540  28.050  86.116  1.00  0.00    -0.274 N 
ATOM     11  H9  UNL     1      31.525  27.885  85.912  1.00  0.00     0.189 HD
HETATM   12  C11 UNL     1      29.907  27.725  87.246  1.00  0.00     0.215 A 
HETATM   13  N10 UNL     1      28.628  28.117  87.104  1.00  0.00    -0.184 N 
ATOM     14  H10 UNL     1      27.900  28.001  87.809  1.00  0.00     0.185 HD
HETATM   15  C12 UNL     1      28.447  28.693  85.878  1.00  0.00     0.709 A 
HETATM   16  N11 UNL     1      27.616  29.278  85.021  1.00  0.00    -0.154 N 
ENDROOT
BRANCH   1  17
HETATM   17  S1  UNL     1      32.204  28.813  83.361  1.00  0.00    -0.106 SA
BRANCH  17  18
HETATM   18  C6  UNL     1      32.999  29.985  84.495  1.00  0.00     0.109 C 
BRANCH  18  19
HETATM   19  C5  UNL     1      32.788  31.382  84.041  1.00  0.00     0.001 C 
HETATM   20  C4  UNL     1      32.038  32.189  84.766  1.00  0.00     0.103 C 
BRANCH  20  21
HETATM   21  N5  UNL     1      31.456  31.714  85.948  1.00  0.00    -0.201 N 
ATOM     22  H5  UNL     1      31.280  30.717  86.077  1.00  0.00     0.183 HD
BRANCH  21  23
HETATM   23  C3  UNL     1      31.144  32.564  86.878  1.00  0.00     0.711 A 
HETATM   24  N4  UNL     1      30.023  32.419  87.600  1.00  0.00    -0.021 N 
HETATM   25  C2  UNL     1      29.707  33.302  88.562  1.00  0.00     0.705 A 
ATOM     26  H4  UNL     1      29.404  31.629  87.418  1.00  0.00     0.203 HD
HETATM   27  N2  UNL     1      30.504  34.340  88.815  1.00  0.00    -0.022 N 
HETATM   28  C1  UNL     1      31.637  34.469  88.071  1.00  0.00     0.705 A 
ATOM     29  H2  UNL     1      30.272  35.016  89.542  1.00  0.00     0.203 HD
HETATM   30  N12 UNL     1      31.957  33.589  87.108  1.00  0.00    -0.021 N 
ATOM     31  H12 UNL     1      32.811  33.705  86.563  1.00  0.00     0.203 HD
BRANCH  25  32
HETATM   32  N3  UNL     1      28.619  33.178  89.275  1.00  0.00    -0.234 N 
ATOM     33  H32 UNL     1      27.701  33.408  88.895  1.00  0.00     0.174 HD
ATOM     34  H31 UNL     1      28.713  32.841  90.234  1.00  0.00     0.174 HD
ENDBRANCH  25  32
BRANCH  28  35
HETATM   35  N1  UNL     1      32.423  35.454  88.288  1.00  0.00    -0.234 N 
ATOM     36  H12 UNL     1      32.050  36.287  88.743  1.00  0.00     0.174 HD
ATOM     37  H11 UNL     1      33.401  35.388  88.004  1.00  0.00     0.174 HD
ENDBRANCH  28  35
ENDBRANCH  21  23
ENDBRANCH  20  21
ENDBRANCH  18  19
ENDBRANCH  17  18
ENDBRANCH   1  17
BRANCH  16  38
HETATM   38  C13 UNL     1      26.226  29.524  85.285  1.00  0.00     0.173 C 
HETATM   39  C14 UNL     1      25.633  28.791  86.425  1.00  0.00     0.176 C 
HETATM   40  C15 UNL     1      24.164  28.580  86.026  1.00  0.00     0.188 C 
HETATM   41  C16 UNL     1      24.031  29.116  84.651  1.00  0.00     0.141 C 
HETATM   42  C19 UNL     1      25.427  28.956  84.102  1.00  0.00     0.184 C 
BRANCH  39  43
HETATM   43  O1  UNL     1      25.667  29.497  87.624  1.00  0.00    -0.391 OA
ATOM     44  H1  UNL     1      25.082  29.152  88.287  1.00  0.00     0.210 HD
ENDBRANCH  39  43
BRANCH  40  45
HETATM   45  O2  UNL     1      23.356  29.335  86.911  1.00  0.00    -0.390 OA
ATOM     46  H2  UNL     1      23.461  30.255  86.695  1.00  0.00     0.210 HD
ENDBRANCH  40  45
BRANCH  41  47
HETATM   47  O3  UNL     1      23.851  30.520  84.802  1.00  0.00    -0.382 OA
ATOM     48  H3  UNL     1      24.458  30.923  84.192  1.00  0.00     0.211 HD
ENDBRANCH  41  47
BRANCH  41  49
HETATM   49  C17 UNL     1      22.950  28.609  83.796  1.00  0.00     0.181 C 
BRANCH  49  50
HETATM   50  O4  UNL     1      23.433  28.383  82.497  1.00  0.00    -0.390 OA
ATOM     51  H4  UNL     1      22.826  27.832  82.017  1.00  0.00     0.210 HD
ENDBRANCH  49  50
BRANCH  49  52
HETATM   52  C18 UNL     1      21.685  29.367  83.711  1.00  0.00     0.199 C 
BRANCH  52  53
HETATM   53  O5  UNL     1      21.078  29.469  84.937  1.00  0.00    -0.398 OA
ATOM     54  H5  UNL     1      20.328  28.889  85.002  1.00  0.00     0.209 HD
ENDBRANCH  52  53
ENDBRANCH  49  52
ENDBRANCH  41  49
BRANCH  42  55
HETATM   55  O6  UNL     1      25.763  27.609  84.051  1.00  0.00    -0.390 OA
ATOM     56  H6  UNL     1      25.096  27.207  83.506  1.00  0.00     0.210 HD
ENDBRANCH  42  55
ENDBRANCH  16  38
TORSDOF 16
ENDMDL
MODEL 2
REMARK VINA RESULT: -8.671726056      1.152      2.606
REMARK  16 active torsions:
REMARK  status: ('A' for Active; 'I' for Inactive)
REMARK    1  A    between atoms: N1_1  and  C1_4 
REMARK    2  A    between atoms: C2_7  and  N3_8 
REMARK    3  A    between atoms: C3_13  and  N5_14 
REMARK    4  A    between atoms: N5_14  and  C4_16 
REMARK    5  A    between atoms: C5_17  and  C6_18 
REMARK    6  A    between atoms: C6_18  and  S1_19 
REMARK    7  A    between atoms: S1_19  and  C7_20 
REMARK    8  A    between atoms: N11_35  and  C13_36 
REMARK    9  A    between atoms: C14_37  and  O1_38 
REMARK   10  A    between atoms: C15_40  and  O2_41 
REMARK   11  A    between atoms: C16_43  and  O3_44 
REMARK   12  A    between atoms: C16_43  and  C17_46 
REMARK   13  A    between atoms: C17_46  and  O4_47 
REMARK   14  A    between atoms: C17_46  and  C18_49 
REMARK   15  A    between atoms: C18_49  and  O5_50 
REMARK   16  A    between atoms: C19_52  and  O6_53 
ROOT
HETATM    1  C7  UNL     1      30.795  28.035  85.399  1.00  0.00     0.104 A 
HETATM    2  N6  UNL     1      30.739  27.617  86.676  1.00  0.00    -0.345 N 
ATOM      3  H6  UNL     1      31.573  27.235  87.123  1.00  0.00     0.167 HD
HETATM    4  C8  UNL     1      29.573  27.702  87.376  1.00  0.00     0.183 A 
HETATM    5  N7  UNL     1      28.449  28.192  86.843  1.00  0.00    -0.336 N 
ATOM      6  H7  UNL     1      27.589  28.243  87.390  1.00  0.00     0.168 HD
HETATM    7  C9  UNL     1      28.482  28.617  85.563  1.00  0.00     0.157 A 
HETATM    8  C10 UNL     1      29.641  28.541  84.842  1.00  0.00     0.152 A 
HETATM    9  N8  UNL     1      29.342  29.042  83.611  1.00  0.00    -0.079 N 
HETATM   10  N9  UNL     1      29.928  29.276  82.446  1.00  0.00    -0.274 N 
ATOM     11  H9  UNL     1      30.903  29.084  82.215  1.00  0.00     0.189 HD
HETATM   12  C11 UNL     1      29.017  29.806  81.627  1.00  0.00     0.215 A 
HETATM   13  N10 UNL     1      27.868  29.887  82.321  1.00  0.00    -0.184 N 
ATOM     14  H10 UNL     1      26.989  30.254  81.956  1.00  0.00     0.185 HD
HETATM   15  C12 UNL     1      28.050  29.407  83.588  1.00  0.00     0.709 A 
HETATM   16  N11 UNL     1      27.522  29.148  84.780  1.00  0.00    -0.154 N 
ENDROOT
BRANCH   1  17
HETATM   17  S1  UNL     1      32.263  27.969  84.391  1.00  0.00    -0.106 SA
BRANCH  17  18
HETATM   18  C6  UNL     1      33.208  29.493  84.667  1.00  0.00     0.109 C 
BRANCH  18  19
HETATM   19  C5  UNL     1      33.098  30.400  83.497  1.00  0.00     0.001 C 
HETATM   20  C4  UNL     1      32.375  31.498  83.599  1.00  0.00     0.103 C 
BRANCH  20  21
HETATM   21  N5  UNL     1      31.725  31.788  84.806  1.00  0.00    -0.201 N 
ATOM     22  H5  UNL     1      30.999  31.169  85.167  1.00  0.00     0.183 HD
BRANCH  21  23
HETATM   23  C3  UNL     1      32.063  32.858  85.458  1.00  0.00     0.711 A 
HETATM   24  N4  UNL     1      31.632  33.072  86.709  1.00  0.00    -0.021 N 
HETATM   25  C2  UNL     1      31.986  34.182  87.377  1.00  0.00     0.705 A 
ATOM     26  H4  UNL     1      31.027  32.384  87.158  1.00  0.00     0.203 HD
HETATM   27  N2  UNL     1      32.774  35.092  86.807  1.00  0.00    -0.022 N 
HETATM   28  C1  UNL     1      33.202  34.857  85.536  1.00  0.00     0.705 A 
ATOM     29  H2  UNL     1      33.048  35.938  87.306  1.00  0.00     0.203 HD
HETATM   30  N12 UNL     1      32.850  33.748  84.863  1.00  0.00    -0.021 N 
ATOM     31  H12 UNL     1      33.183  33.593  83.911  1.00  0.00     0.203 HD
BRANCH  25  32
HETATM   32  N3  UNL     1      31.574  34.407  88.597  1.00  0.00    -0.234 N 
ATOM     33  H32 UNL     1      31.006  35.222  88.828  1.00  0.00     0.174 HD
ATOM     34  H31 UNL     1      31.840  33.740  89.322  1.00  0.00     0.174 HD
ENDBRANCH  25  32
BRANCH  28  35
HETATM   35  N1  UNL     1      33.960  35.710  84.959  1.00  0.00    -0.234 N 
ATOM     36  H12 UNL     1      34.970  35.579  85.009  1.00  0.00     0.174 HD
ATOM     37  H11 UNL     1      33.544  36.499  84.464  1.00  0.00     0.174 HD
ENDBRANCH  28  35
ENDBRANCH  21  23
ENDBRANCH  20  21
ENDBRANCH  18  19
ENDBRANCH  17  18
ENDBRANCH   1  17
BRANCH  16  38
HETATM   38  C13 UNL     1      26.154  29.406  85.130  1.00  0.00     0.173 C 
HETATM   39  C14 UNL     1      25.641  28.718  86.335  1.00  0.00     0.176 C 
HETATM   40  C15 UNL     1      24.148  28.496  86.047  1.00  0.00     0.188 C 
HETATM   41  C16 UNL     1      23.920  28.981  84.665  1.00  0.00     0.141 C 
HETATM   42  C19 UNL     1      25.275  28.797  84.027  1.00  0.00     0.184 C 
BRANCH  39  43
HETATM   43  O1  UNL     1      25.757  29.468  87.502  1.00  0.00    -0.391 OA
ATOM     44  H1  UNL     1      25.959  28.950  88.271  1.00  0.00     0.210 HD
ENDBRANCH  39  43
BRANCH  40  45
HETATM   45  O2  UNL     1      23.403  29.286  86.957  1.00  0.00    -0.390 OA
ATOM     46  H2  UNL     1      22.542  28.895  87.051  1.00  0.00     0.210 HD
ENDBRANCH  40  45
BRANCH  41  47
HETATM   47  O3  UNL     1      23.751  30.390  84.776  1.00  0.00    -0.382 OA
ATOM     48  H3  UNL     1      24.629  30.751  84.814  1.00  0.00     0.211 HD
ENDBRANCH  41  47
BRANCH  41  49
HETATM   49  C17 UNL     1      22.782  28.445  83.906  1.00  0.00     0.181 C 
BRANCH  49  50
HETATM   50  O4  UNL     1      23.197  28.082  82.615  1.00  0.00    -0.390 OA
ATOM     51  H4  UNL     1      23.177  28.840  82.043  1.00  0.00     0.210 HD
ENDBRANCH  49  50
BRANCH  49  52
HETATM   52  C18 UNL     1      21.546  29.246  83.805  1.00  0.00     0.199 C 
BRANCH  52  53
HETATM   53  O5  UNL     1      20.960  29.422  85.033  1.00  0.00    -0.398 OA
ATOM     54  H5  UNL     1      20.521  30.263  85.091  1.00  0.00     0.209 HD
ENDBRANCH  52  53
ENDBRANCH  49  52
ENDBRANCH  41  49
BRANCH  42  55
HETATM   55  O6  UNL     1      25.606  27.448  84.004  1.00  0.00    -0.390 OA
ATOM     56  H6  UNL     1      26.463  27.410  83.594  1.00  0.00     0.210 HD
ENDBRANCH  42  55
ENDBRANCH  16  38
TORSDOF 16
ENDMDL
MODEL 3
REMARK VINA RESULT: -8.638440330      1.178      2.852
REMARK  16 active torsions:
REMARK  status: ('A' for Active; 'I' for Inactive)
REMARK    1  A    between atoms: N1_1  and  C1_4 
REMARK    2  A    between atoms: C2_7  and  N3_8 
REMARK    3  A    between atoms: C3_13  and  N5_14 
REMARK    4  A    between atoms: N5_14  and  C4_16 
REMARK    5  A    between atoms: C5_17  and  C6_18 
REMARK    6  A    between atoms: C6_18  and  S1_19 
REMARK    7  A    between atoms: S1_19  and  C7_20 
REMARK    8  A    between atoms: N11_35  and  C13_36 
REMARK    9  A    between atoms: C14_37  and  O1_38 
REMARK   10  A    between atoms: C15_40  and  O2_41 
REMARK   11  A    between atoms: C16_43  and  O3_44 
REMARK   12  A    between atoms: C16_43  and  C17_46 
REMARK   13  A    between atoms: C17_46  and  O4_47 
REMARK   14  A    between atoms: C17_46  and  C18_49 
REMARK   15  A    between atoms: C18_49  and  O5_50 
REMARK   16  A    between atoms: C19_52  and  O6_53 
ROOT
HETATM    1  C7  UNL     1      30.803  28.052  85.366  1.00  0.00     0.104 A 
HETATM    2  N6  UNL     1      30.758  27.643  86.646  1.00  0.00    -0.345 N 
ATOM      3  H6  UNL     1      31.596  27.266  87.089  1.00  0.00     0.167 HD
HETATM    4  C8  UNL     1      29.597  27.730  87.355  1.00  0.00     0.183 A 
HETATM    5  N7  UNL     1      28.467  28.213  86.827  1.00  0.00    -0.336 N 
ATOM      6  H7  UNL     1      27.612  28.265  87.380  1.00  0.00     0.168 HD
HETATM    7  C9  UNL     1      28.489  28.628  85.544  1.00  0.00     0.157 A 
HETATM    8  C10 UNL     1      29.643  28.551  84.814  1.00  0.00     0.152 A 
HETATM    9  N8  UNL     1      29.333  29.042  83.583  1.00  0.00    -0.079 N 
HETATM   10  N9  UNL     1      29.909  29.269  82.411  1.00  0.00    -0.274 N 
ATOM     11  H9  UNL     1      30.883  29.079  82.174  1.00  0.00     0.189 HD
HETATM   12  C11 UNL     1      28.990  29.792  81.596  1.00  0.00     0.215 A 
HETATM   13  N10 UNL     1      27.846  29.874  82.298  1.00  0.00    -0.184 N 
ATOM     14  H10 UNL     1      26.963  30.236  81.937  1.00  0.00     0.185 HD
HETATM   15  C12 UNL     1      28.039  29.404  83.567  1.00  0.00     0.709 A 
HETATM   16  N11 UNL     1      27.522  29.151  84.765  1.00  0.00    -0.154 N 
ENDROOT
BRANCH   1  17
HETATM   17  S1  UNL     1      32.263  27.983  84.347  1.00  0.00    -0.106 SA
BRANCH  17  18
HETATM   18  C6  UNL     1      33.200  29.516  84.597  1.00  0.00     0.109 C 
BRANCH  18  19
HETATM   19  C5  UNL     1      33.060  30.416  83.425  1.00  0.00     0.001 C 
HETATM   20  C4  UNL     1      32.342  31.515  83.539  1.00  0.00     0.103 C 
BRANCH  20  21
HETATM   21  N5  UNL     1      31.726  31.815  84.761  1.00  0.00    -0.201 N 
ATOM     22  H5  UNL     1      31.009  31.199  85.146  1.00  0.00     0.183 HD
BRANCH  21  23
HETATM   23  C3  UNL     1      32.083  32.889  85.397  1.00  0.00     0.711 A 
HETATM   24  N4  UNL     1      32.873  33.805  84.819  1.00  0.00    -0.021 N 
HETATM   25  C2  UNL     1      33.237  34.914  85.484  1.00  0.00     0.705 A 
ATOM     26  H4  UNL     1      33.201  33.658  83.865  1.00  0.00     0.203 HD
HETATM   27  N2  UNL     1      32.818  35.123  86.731  1.00  0.00    -0.022 N 
HETATM   28  C1  UNL     1      32.017  34.181  87.300  1.00  0.00     0.705 A 
ATOM     29  H2  UNL     1      33.090  35.962  87.243  1.00  0.00     0.203 HD
HETATM   30  N12 UNL     1      31.650  33.070  86.640  1.00  0.00    -0.021 N 
ATOM     31  H12 UNL     1      31.049  32.377  87.086  1.00  0.00     0.203 HD
BRANCH  25  32
HETATM   32  N3  UNL     1      34.006  35.818  84.937  1.00  0.00    -0.234 N 
ATOM     33  H32 UNL     1      33.848  36.815  85.084  1.00  0.00     0.174 HD
ATOM     34  H31 UNL     1      34.778  35.498  84.352  1.00  0.00     0.174 HD
ENDBRANCH  25  32
BRANCH  28  35
HETATM   35  N1  UNL     1      31.597  34.351  88.496  1.00  0.00    -0.234 N 
ATOM     36  H12 UNL     1      32.038  35.068  89.072  1.00  0.00     0.174 HD
ATOM     37  H11 UNL     1      30.836  33.770  88.849  1.00  0.00     0.174 HD
ENDBRANCH  28  35
ENDBRANCH  21  23
ENDBRANCH  20  21
ENDBRANCH  18  19
ENDBRANCH  17  18
ENDBRANCH   1  17
BRANCH  16  38
HETATM   38  C13 UNL     1      26.156  29.409  85.124  1.00  0.00     0.173 C 
HETATM   39  C14 UNL     1      25.654  28.728  86.338  1.00  0.00     0.176 C 
HETATM   40  C15 UNL     1      24.160  28.499  86.064  1.00  0.00     0.188 C 
HETATM   41  C16 UNL     1      23.919  28.973  84.680  1.00  0.00     0.141 C 
HETATM   42  C19 UNL     1      25.270  28.788  84.033  1.00  0.00     0.184 C 
BRANCH  39  43
HETATM   43  O1  UNL     1      25.778  29.488  87.498  1.00  0.00    -0.391 OA
ATOM     44  H1  UNL     1      25.105  30.151  87.594  1.00  0.00     0.210 HD
ENDBRANCH  39  43
BRANCH  40  45
HETATM   45  O2  UNL     1      23.420  29.294  86.973  1.00  0.00    -0.390 OA
ATOM     46  H2  UNL     1      22.590  28.861  87.136  1.00  0.00     0.210 HD
ENDBRANCH  40  45
BRANCH  41  47
HETATM   47  O3  UNL     1      23.747  30.382  84.781  1.00  0.00    -0.382 OA
ATOM     48  H3  UNL     1      24.620  30.740  84.890  1.00  0.00     0.211 HD
ENDBRANCH  41  47
BRANCH  41  49
HETATM   49  C17 UNL     1      22.777  28.428  83.934  1.00  0.00     0.181 C 
BRANCH  49  50
HETATM   50  O4  UNL     1      23.183  28.054  82.643  1.00  0.00    -0.390 OA
ATOM     51  H4  UNL     1      23.768  27.307  82.691  1.00  0.00     0.210 HD
ENDBRANCH  49  50
BRANCH  49  52
HETATM   52  C18 UNL     1      21.538  29.225  83.835  1.00  0.00     0.199 C 
BRANCH  52  53
HETATM   53  O5  UNL     1      20.974  29.430  85.070  1.00  0.00    -0.398 OA
ATOM     54  H5  UNL     1      20.254  30.048  85.023  1.00  0.00     0.209 HD
ENDBRANCH  52  53
ENDBRANCH  49  52
ENDBRANCH  41  49
BRANCH  42  55
HETATM   55  O6  UNL     1      25.605  27.440  84.018  1.00  0.00    -0.390 OA
ATOM     56  H6  UNL     1      25.181  27.087  83.243  1.00  0.00     0.210 HD
ENDBRANCH  42  55
ENDBRANCH  16  38
TORSDOF 16
ENDMDL
MODEL 4
REMARK VINA RESULT: -8.621193805      1.137      1.466
REMARK  16 active torsions:
REMARK  status: ('A' for Active; 'I' for Inactive)
REMARK    1  A    between atoms: N1_1  and  C1_4 
REMARK    2  A    between atoms: C2_7  and  N3_8 
REMARK    3  A    between atoms: C3_13  and  N5_14 
REMARK    4  A    between atoms: N5_14  and  C4_16 
REMARK    5  A    between atoms: C5_17  and  C6_18 
REMARK    6  A    between atoms: C6_18  and  S1_19 
REMARK    7  A    between atoms: S1_19  and  C7_20 
REMARK    8  A    between atoms: N11_35  and  C13_36 
REMARK    9  A    between atoms: C14_37  and  O1_38 
REMARK   10  A    between atoms: C15_40  and  O2_41 
REMARK   11  A    between atoms: C16_43  and  O3_44 
REMARK   12  A    between atoms: C16_43  and  C17_46 
REMARK   13  A    between atoms: C17_46  and  O4_47 
REMARK   14  A    between atoms: C17_46  and  C18_49 
REMARK   15  A    between atoms: C18_49  and  O5_50 
REMARK   16  A    between atoms: C19_52  and  O6_53 
ROOT
HETATM    1  C7  UNL     1      30.257  28.617  82.737  1.00  0.00     0.104 A 
HETATM    2  N6  UNL     1      29.761  28.978  81.540  1.00  0.00    -0.345 N 
ATOM      3  H6  UNL     1      30.359  28.952  80.714  1.00  0.00     0.167 HD
HETATM    4  C8  UNL     1      28.463  29.377  81.426  1.00  0.00     0.183 A 
HETATM    5  N7  UNL     1      27.633  29.432  82.473  1.00  0.00    -0.336 N 
ATOM      6  H7  UNL     1      26.667  29.736  82.360  1.00  0.00     0.168 HD
HETATM    7  C9  UNL     1      28.110  29.076  83.684  1.00  0.00     0.157 A 
HETATM    8  C10 UNL     1      29.409  28.671  83.822  1.00  0.00     0.152 A 
HETATM    9  N8  UNL     1      29.567  28.386  85.144  1.00  0.00    -0.079 N 
HETATM   10  N9  UNL     1      30.503  27.961  85.981  1.00  0.00    -0.274 N 
ATOM     11  H9  UNL     1      31.464  27.724  85.737  1.00  0.00     0.189 HD
HETATM   12  C11 UNL     1      29.964  27.898  87.201  1.00  0.00     0.215 A 
HETATM   13  N10 UNL     1      28.684  28.294  87.084  1.00  0.00    -0.184 N 
ATOM     14  H10 UNL     1      28.017  28.350  87.854  1.00  0.00     0.185 HD
HETATM   15  C12 UNL     1      28.407  28.610  85.783  1.00  0.00     0.709 A 
HETATM   16  N11 UNL     1      27.515  29.031  84.892  1.00  0.00    -0.154 N 
ENDROOT
BRANCH   1  17
HETATM   17  S1  UNL     1      31.935  28.081  83.002  1.00  0.00    -0.106 SA
BRANCH  17  18
HETATM   18  C6  UNL     1      32.898  29.503  83.588  1.00  0.00     0.109 C 
BRANCH  18  19
HETATM   19  C5  UNL     1      32.721  30.668  82.685  1.00  0.00     0.001 C 
HETATM   20  C4  UNL     1      32.168  31.769  83.153  1.00  0.00     0.103 C 
BRANCH  20  21
HETATM   21  N5  UNL     1      31.759  31.821  84.492  1.00  0.00    -0.201 N 
ATOM     22  H5  UNL     1      31.203  31.066  84.895  1.00  0.00     0.183 HD
BRANCH  21  23
HETATM   23  C3  UNL     1      32.098  32.846  85.212  1.00  0.00     0.711 A 
HETATM   24  N4  UNL     1      31.659  32.984  86.471  1.00  0.00    -0.021 N 
HETATM   25  C2  UNL     1      32.015  34.048  87.210  1.00  0.00     0.705 A 
ATOM     26  H4  UNL     1      31.047  32.273  86.872  1.00  0.00     0.203 HD
HETATM   27  N2  UNL     1      32.813  34.986  86.703  1.00  0.00    -0.022 N 
HETATM   28  C1  UNL     1      33.249  34.828  85.423  1.00  0.00     0.705 A 
ATOM     29  H2  UNL     1      33.089  35.797  87.256  1.00  0.00     0.203 HD
HETATM   30  N12 UNL     1      32.895  33.766  84.680  1.00  0.00    -0.021 N 
ATOM     31  H12 UNL     1      33.234  33.668  83.722  1.00  0.00     0.203 HD
BRANCH  25  32
HETATM   32  N3  UNL     1      31.596  34.199  88.439  1.00  0.00    -0.234 N 
ATOM     33  H32 UNL     1      31.432  35.123  88.838  1.00  0.00     0.174 HD
ATOM     34  H31 UNL     1      31.436  33.359  88.995  1.00  0.00     0.174 HD
ENDBRANCH  25  32
BRANCH  28  35
HETATM   35  N1  UNL     1      34.017  35.710  84.906  1.00  0.00    -0.234 N 
ATOM     36  H12 UNL     1      34.519  36.346  85.526  1.00  0.00     0.174 HD
ATOM     37  H11 UNL     1      34.112  35.762  83.892  1.00  0.00     0.174 HD
ENDBRANCH  28  35
ENDBRANCH  21  23
ENDBRANCH  20  21
ENDBRANCH  18  19
ENDBRANCH  17  18
ENDBRANCH   1  17
BRANCH  16  38
HETATM   38  C13 UNL     1      26.157  29.371  85.210  1.00  0.00     0.173 C 
HETATM   39  C14 UNL     1      25.566  28.693  86.385  1.00  0.00     0.176 C 
HETATM   40  C15 UNL     1      24.071  28.575  86.051  1.00  0.00     0.188 C 
HETATM   41  C16 UNL     1      23.914  29.103  84.675  1.00  0.00     0.141 C 
HETATM   42  C19 UNL     1      25.272  28.844  84.070  1.00  0.00     0.184 C 
BRANCH  39  43
HETATM   43  O1  UNL     1      25.697  29.410  87.571  1.00  0.00    -0.391 OA
ATOM     44  H1  UNL     1      26.350  29.056  88.162  1.00  0.00     0.210 HD
ENDBRANCH  39  43
BRANCH  40  45
HETATM   45  O2  UNL     1      23.352  29.393  86.958  1.00  0.00    -0.390 OA
ATOM     46  H2  UNL     1      22.775  28.835  87.465  1.00  0.00     0.210 HD
ENDBRANCH  40  45
BRANCH  41  47
HETATM   47  O3  UNL     1      23.833  30.517  84.813  1.00  0.00    -0.382 OA
ATOM     48  H3  UNL     1      24.500  30.751  85.448  1.00  0.00     0.211 HD
ENDBRANCH  41  47
BRANCH  41  49
HETATM   49  C17 UNL     1      22.767  28.658  83.873  1.00  0.00     0.181 C 
BRANCH  49  50
HETATM   50  O4  UNL     1      23.174  28.406  82.553  1.00  0.00    -0.390 OA
ATOM     51  H4  UNL     1      22.417  28.227  82.009  1.00  0.00     0.210 HD
ENDBRANCH  49  50
BRANCH  49  52
HETATM   52  C18 UNL     1      21.545  29.487  83.847  1.00  0.00     0.199 C 
BRANCH  52  53
HETATM   53  O5  UNL     1      20.905  29.476  85.061  1.00  0.00    -0.398 OA
ATOM     54  H5  UNL     1      21.419  29.917  85.728  1.00  0.00     0.209 HD
ENDBRANCH  52  53
ENDBRANCH  49  52
ENDBRANCH  41  49
BRANCH  42  55
HETATM   55  O6  UNL     1      25.516  27.477  84.026  1.00  0.00    -0.390 OA
ATOM     56  H6  UNL     1      26.462  27.395  83.982  1.00  0.00     0.210 HD
ENDBRANCH  42  55
ENDBRANCH  16  38
TORSDOF 16
ENDMDL
MODEL 5
REMARK VINA RESULT: -8.608947538      0.643      2.594
REMARK  16 active torsions:
REMARK  status: ('A' for Active; 'I' for Inactive)
REMARK    1  A    between atoms: N1_1  and  C1_4 
REMARK    2  A    between atoms: C2_7  and  N3_8 
REMARK    3  A    between atoms: C3_13  and  N5_14 
REMARK    4  A    between atoms: N5_14  and  C4_16 
REMARK    5  A    between atoms: C5_17  and  C6_18 
REMARK    6  A    between atoms: C6_18  and  S1_19 
REMARK    7  A    between atoms: S1_19  and  C7_20 
REMARK    8  A    between atoms: N11_35  and  C13_36 
REMARK    9  A    between atoms: C14_37  and  O1_38 
REMARK   10  A    between atoms: C15_40  and  O2_41 
REMARK   11  A    between atoms: C16_43  and  O3_44 
REMARK   12  A    between atoms: C16_43  and  C17_46 
REMARK   13  A    between atoms: C17_46  and  O4_47 
REMARK   14  A    between atoms: C17_46  and  C18_49 
REMARK   15  A    between atoms: C18_49  and  O5_50 
REMARK   16  A    between atoms: C19_52  and  O6_53 
ROOT
HETATM    1  C7  UNL     1      30.670  28.054  85.525  1.00  0.00     0.104 A 
HETATM    2  N6  UNL     1      30.559  27.525  86.757  1.00  0.00    -0.345 N 
ATOM      3  H6  UNL     1      31.374  27.104  87.204  1.00  0.00     0.167 HD
HETATM    4  C8  UNL     1      29.363  27.546  87.409  1.00  0.00     0.183 A 
HETATM    5  N7  UNL     1      28.261  28.082  86.872  1.00  0.00    -0.336 N 
ATOM      6  H7  UNL     1      27.378  28.084  87.381  1.00  0.00     0.168 HD
HETATM    7  C9  UNL     1      28.350  28.618  85.637  1.00  0.00     0.157 A 
HETATM    8  C10 UNL     1      29.540  28.608  84.965  1.00  0.00     0.152 A 
HETATM    9  N8  UNL     1      29.294  29.216  83.771  1.00  0.00    -0.079 N 
HETATM   10  N9  UNL     1      29.930  29.553  82.659  1.00  0.00    -0.274 N 
ATOM     11  H9  UNL     1      30.915  29.383  82.456  1.00  0.00     0.189 HD
HETATM   12  C11 UNL     1      29.054  30.154  81.850  1.00  0.00     0.215 A 
HETATM   13  N10 UNL     1      27.875  30.172  82.497  1.00  0.00    -0.184 N 
ATOM     14  H10 UNL     1      27.011  30.570  82.126  1.00  0.00     0.185 HD
HETATM   15  C12 UNL     1      28.002  29.581  83.723  1.00  0.00     0.709 A 
HETATM   16  N11 UNL     1      27.424  29.217  84.863  1.00  0.00    -0.154 N 
ENDROOT
BRANCH   1  17
HETATM   17  S1  UNL     1      32.182  28.079  84.582  1.00  0.00    -0.106 SA
BRANCH  17  18
HETATM   18  C6  UNL     1      33.138  29.537  85.083  1.00  0.00     0.109 C 
BRANCH  18  19
HETATM   19  C5  UNL     1      32.663  30.749  84.370  1.00  0.00     0.001 C 
HETATM   20  C4  UNL     1      31.837  31.575  84.982  1.00  0.00     0.103 C 
BRANCH  20  21
HETATM   21  N5  UNL     1      31.426  31.295  86.292  1.00  0.00    -0.201 N 
ATOM     22  H5  UNL     1      31.356  30.332  86.619  1.00  0.00     0.183 HD
BRANCH  21  23
HETATM   23  C3  UNL     1      31.133  32.283  87.082  1.00  0.00     0.711 A 
HETATM   24  N4  UNL     1      31.937  33.351  87.181  1.00  0.00    -0.021 N 
HETATM   25  C2  UNL     1      31.627  34.369  88.000  1.00  0.00     0.705 A 
ATOM     26  H4  UNL     1      32.793  33.391  86.627  1.00  0.00     0.203 HD
HETATM   27  N2  UNL     1      30.514  34.334  88.731  1.00  0.00    -0.022 N 
HETATM   28  C1  UNL     1      29.711  33.241  88.617  1.00  0.00     0.705 A 
ATOM     29  H2  UNL     1      30.271  35.102  89.356  1.00  0.00     0.203 HD
HETATM   30  N12 UNL     1      30.016  32.220  87.798  1.00  0.00    -0.021 N 
ATOM     31  H12 UNL     1      29.400  31.410  87.728  1.00  0.00     0.203 HD
BRANCH  25  32
HETATM   32  N3  UNL     1      32.398  35.419  88.110  1.00  0.00    -0.234 N 
ATOM     33  H32 UNL     1      32.149  36.312  87.686  1.00  0.00     0.174 HD
ATOM     34  H31 UNL     1      33.267  35.320  88.636  1.00  0.00     0.174 HD
ENDBRANCH  25  32
BRANCH  28  35
HETATM   35  N1  UNL     1      28.634  33.175  89.303  1.00  0.00    -0.234 N 
ATOM     36  H12 UNL     1      27.773  33.540  88.897  1.00  0.00     0.174 HD
ATOM     37  H11 UNL     1      28.657  32.763  90.236  1.00  0.00     0.174 HD
ENDBRANCH  28  35
ENDBRANCH  21  23
ENDBRANCH  20  21
ENDBRANCH  18  19
ENDBRANCH  17  18
ENDBRANCH   1  17
BRANCH  16  38
HETATM   38  C13 UNL     1      26.040  29.443  85.172  1.00  0.00     0.173 C 
HETATM   39  C14 UNL     1      25.509  28.744  86.364  1.00  0.00     0.176 C 
HETATM   40  C15 UNL     1      24.031  28.486  86.034  1.00  0.00     0.188 C 
HETATM   41  C16 UNL     1      23.831  28.963  84.645  1.00  0.00     0.141 C 
HETATM   42  C19 UNL     1      25.208  28.810  84.046  1.00  0.00     0.184 C 
BRANCH  39  43
HETATM   43  O1  UNL     1      25.574  29.499  87.531  1.00  0.00    -0.391 OA
ATOM     44  H1  UNL     1      24.729  29.806  87.836  1.00  0.00     0.210 HD
ENDBRANCH  39  43
BRANCH  40  45
HETATM   45  O2  UNL     1      23.241  29.259  86.920  1.00  0.00    -0.390 OA
ATOM     46  H2  UNL     1      22.361  28.901  86.920  1.00  0.00     0.210 HD
ENDBRANCH  40  45
BRANCH  41  47
HETATM   47  O3  UNL     1      23.625  30.367  84.748  1.00  0.00    -0.382 OA
ATOM     48  H3  UNL     1      22.683  30.491  84.716  1.00  0.00     0.211 HD
ENDBRANCH  41  47
BRANCH  41  49
HETATM   49  C17 UNL     1      22.729  28.398  83.855  1.00  0.00     0.181 C 
BRANCH  49  50
HETATM   50  O4  UNL     1      23.186  28.056  82.572  1.00  0.00    -0.390 OA
ATOM     51  H4  UNL     1      23.475  27.151  82.561  1.00  0.00     0.210 HD
ENDBRANCH  49  50
BRANCH  49  52
HETATM   52  C18 UNL     1      21.472  29.163  83.727  1.00  0.00     0.199 C 
BRANCH  52  53
HETATM   53  O5  UNL     1      20.878  29.360  84.950  1.00  0.00    -0.398 OA
ATOM     54  H5  UNL     1      21.195  28.737  85.593  1.00  0.00     0.209 HD
ENDBRANCH  52  53
ENDBRANCH  49  52
ENDBRANCH  41  49
BRANCH  42  55
HETATM   55  O6  UNL     1      25.572  27.470  84.036  1.00  0.00    -0.390 OA
ATOM     56  H6  UNL     1      24.752  26.990  84.056  1.00  0.00     0.210 HD
ENDBRANCH  42  55
ENDBRANCH  16  38
TORSDOF 16
ENDMDL
