MODEL 1
REMARK VINA RESULT: -7.074937490      0.000      0.000
REMARK  8 active torsions:
REMARK  status: ('A' for Active; 'I' for Inactive)
REMARK    1  A    between atoms: C2_2  and  S1_3 
REMARK    2  A    between atoms: S1_3  and  C3_4 
REMARK    3  A    between atoms: C3_4  and  C4_5 
REMARK       I    between atoms: C4_5  and  N1_7 
REMARK    4  A    between atoms: N1_7  and  C5_8 
REMARK    5  A    between atoms: N2_10  and  C7_11 
REMARK    6  A    between atoms: C10_14  and  C11_15 
REMARK    7  A    between atoms: C11_15  and  C12_16 
REMARK    8  A    between atoms: C17_21  and  O2_22 
ROOT
HETATM    1  C7  UNL     1     -26.842  22.862   4.540  1.00  0.00     0.108 C 
HETATM    2  C8  UNL     1     -27.150  21.635   3.700  1.00  0.00     0.028 C 
HETATM    3  C9  UNL     1     -25.910  21.125   3.076  1.00  0.00     0.007 C 
HETATM    4  C10 UNL     1     -24.709  20.964   3.991  1.00  0.00    -0.011 C 
HETATM    5  C16 UNL     1     -24.672  21.968   5.075  1.00  0.00     0.038 C 
HETATM    6  C17 UNL     1     -25.994  22.296   5.696  1.00  0.00     0.141 C 
ENDROOT
BRANCH   1   7
HETATM    7  N2  UNL     1     -27.859  23.597   5.008  1.00  0.00    -0.400 N 
HETATM    8  C6  UNL     1     -29.069  23.251   5.584  1.00  0.00     0.158 C 
HETATM    9  C5  UNL     1     -29.050  24.734   6.195  1.00  0.00     0.201 C 
HETATM   10  C18 UNL     1     -28.196  24.933   4.927  1.00  0.00     0.158 C 
BRANCH   9  11
HETATM   11  N1  UNL     1     -30.207  25.340   6.402  1.00  0.00    -0.406 NA
HETATM   12  C4  UNL     1     -31.400  25.970   6.611  1.00  0.00     0.296 C 
HETATM   13  O1  UNL     1     -31.710  27.198   6.369  1.00  0.00    -0.257 OA
BRANCH  12  14
HETATM   14  C3  UNL     1     -32.593  25.220   7.178  1.00  0.00     0.192 C 
BRANCH  14  15
HETATM   15  S1  UNL     1     -32.870  23.687   6.271  1.00  0.00    -0.159 SA
BRANCH  15  16
HETATM   16  C2  UNL     1     -32.377  22.264   7.303  1.00  0.00     0.070 C 
HETATM   17  C1  UNL     1     -33.516  21.297   7.392  1.00  0.00     0.016 C 
ENDBRANCH  15  16
ENDBRANCH  14  15
ENDBRANCH  12  14
ENDBRANCH   9  11
ENDBRANCH   1   7
BRANCH   6  18
HETATM   18  O2  UNL     1     -25.863  23.225   6.674  1.00  0.00    -0.394 OA
ATOM     19  H2  UNL     1     -26.719  23.480   6.998  1.00  0.00     0.210 HD
ENDBRANCH   6  18
BRANCH   4  20
HETATM   20  C11 UNL     1     -24.587  19.530   4.304  1.00  0.00     0.013 C 
BRANCH  20  21
HETATM   21  C12 UNL     1     -23.387  18.918   4.867  1.00  0.00    -0.051 C 
HETATM   22  C13 UNL     1     -23.508  17.389   4.523  1.00  0.00     0.014 C 
HETATM   23  C14 UNL     1     -23.301  18.933   6.357  1.00  0.00     0.014 C 
HETATM   24  C15 UNL     1     -22.077  19.333   4.278  1.00  0.00     0.014 C 
ENDBRANCH  20  21
ENDBRANCH   4  20
TORSDOF 8
ENDMDL
MODEL 2
REMARK VINA RESULT: -7.029998691      8.414     11.637
REMARK  8 active torsions:
REMARK  status: ('A' for Active; 'I' for Inactive)
REMARK    1  A    between atoms: C2_2  and  S1_3 
REMARK    2  A    between atoms: S1_3  and  C3_4 
REMARK    3  A    between atoms: C3_4  and  C4_5 
REMARK       I    between atoms: C4_5  and  N1_7 
REMARK    4  A    between atoms: N1_7  and  C5_8 
REMARK    5  A    between atoms: N2_10  and  C7_11 
REMARK    6  A    between atoms: C10_14  and  C11_15 
REMARK    7  A    between atoms: C11_15  and  C12_16 
REMARK    8  A    between atoms: C17_21  and  O2_22 
ROOT
HETATM    1  C7  UNL     1     -20.750  20.472   0.762  1.00  0.00     0.108 C 
HETATM    2  C8  UNL     1     -21.751  21.079   1.728  1.00  0.00     0.028 C 
HETATM    3  C9  UNL     1     -22.544  20.010   2.374  1.00  0.00     0.007 C 
HETATM    4  C10 UNL     1     -21.762  18.840   2.944  1.00  0.00    -0.011 C 
HETATM    5  C16 UNL     1     -20.537  18.536   2.177  1.00  0.00     0.038 C 
HETATM    6  C17 UNL     1     -19.770  19.726   1.688  1.00  0.00     0.141 C 
ENDROOT
BRANCH   1   7
HETATM    7  N2  UNL     1     -20.092  21.280  -0.080  1.00  0.00    -0.400 N 
HETATM    8  C6  UNL     1     -19.202  22.319   0.133  1.00  0.00     0.158 C 
HETATM    9  C5  UNL     1     -18.725  22.041  -1.373  1.00  0.00     0.201 C 
HETATM   10  C18 UNL     1     -20.181  21.535  -1.433  1.00  0.00     0.158 C 
BRANCH   9  11
HETATM   11  N1  UNL     1     -18.275  23.060  -2.085  1.00  0.00    -0.406 NA
HETATM   12  C4  UNL     1     -17.809  24.116  -2.815  1.00  0.00     0.296 C 
HETATM   13  O1  UNL     1     -17.771  25.362  -2.486  1.00  0.00    -0.257 OA
BRANCH  12  14
HETATM   14  C3  UNL     1     -17.217  23.911  -4.199  1.00  0.00     0.192 C 
BRANCH  14  15
HETATM   15  S1  UNL     1     -16.849  22.169  -4.481  1.00  0.00    -0.159 SA
BRANCH  15  16
HETATM   16  C2  UNL     1     -17.951  21.511  -5.781  1.00  0.00     0.070 C 
HETATM   17  C1  UNL     1     -19.323  22.083  -5.605  1.00  0.00     0.016 C 
ENDBRANCH  15  16
ENDBRANCH  14  15
ENDBRANCH  12  14
ENDBRANCH   9  11
ENDBRANCH   1   7
BRANCH   6  18
HETATM   18  O2  UNL     1     -18.668  19.352   0.993  1.00  0.00    -0.394 OA
ATOM     19  H2  UNL     1     -17.904  19.374   1.558  1.00  0.00     0.210 HD
ENDBRANCH   6  18
BRANCH   4  20
HETATM   20  C11 UNL     1     -21.695  19.028   4.403  1.00  0.00     0.013 C 
BRANCH  20  21
HETATM   21  C12 UNL     1     -22.712  18.545   5.334  1.00  0.00    -0.051 C 
HETATM   22  C13 UNL     1     -21.909  18.027   6.583  1.00  0.00     0.014 C 
HETATM   23  C14 UNL     1     -23.469  17.340   4.884  1.00  0.00     0.014 C 
HETATM   24  C15 UNL     1     -23.657  19.561   5.890  1.00  0.00     0.014 C 
ENDBRANCH  20  21
ENDBRANCH   4  20
TORSDOF 8
ENDMDL
MODEL 3
REMARK VINA RESULT: -6.953089300      5.897      7.276
REMARK  8 active torsions:
REMARK  status: ('A' for Active; 'I' for Inactive)
REMARK    1  A    between atoms: C2_2  and  S1_3 
REMARK    2  A    between atoms: S1_3  and  C3_4 
REMARK    3  A    between atoms: C3_4  and  C4_5 
REMARK       I    between atoms: C4_5  and  N1_7 
REMARK    4  A    between atoms: N1_7  and  C5_8 
REMARK    5  A    between atoms: N2_10  and  C7_11 
REMARK    6  A    between atoms: C10_14  and  C11_15 
REMARK    7  A    between atoms: C11_15  and  C12_16 
REMARK    8  A    between atoms: C17_21  and  O2_22 
ROOT
HETATM    1  C7  UNL     1     -24.727  20.784   2.946  1.00  0.00     0.108 C 
HETATM    2  C8  UNL     1     -24.447  21.384   4.311  1.00  0.00     0.028 C 
HETATM    3  C9  UNL     1     -24.333  20.312   5.323  1.00  0.00     0.007 C 
HETATM    4  C10 UNL     1     -23.437  19.138   4.966  1.00  0.00    -0.011 C 
HETATM    5  C16 UNL     1     -23.427  18.840   3.519  1.00  0.00     0.038 C 
HETATM    6  C17 UNL     1     -23.422  20.033   2.614  1.00  0.00     0.141 C 
ENDROOT
BRANCH   1   7
HETATM    7  N2  UNL     1     -25.081  21.597   1.942  1.00  0.00    -0.400 N 
HETATM    8  C6  UNL     1     -24.560  22.798   1.490  1.00  0.00     0.158 C 
HETATM    9  C5  UNL     1     -25.292  22.442   0.108  1.00  0.00     0.201 C 
HETATM   10  C18 UNL     1     -26.179  21.676   1.111  1.00  0.00     0.158 C 
BRANCH   9  11
HETATM   11  N1  UNL     1     -25.729  23.439  -0.643  1.00  0.00    -0.406 NA
HETATM   12  C4  UNL     1     -26.180  24.471  -1.414  1.00  0.00     0.296 C 
HETATM   13  O1  UNL     1     -26.838  25.516  -1.046  1.00  0.00    -0.257 OA
BRANCH  12  14
HETATM   14  C3  UNL     1     -25.911  24.508  -2.908  1.00  0.00     0.192 C 
BRANCH  14  15
HETATM   15  S1  UNL     1     -26.315  22.924  -3.667  1.00  0.00    -0.159 SA
BRANCH  15  16
HETATM   16  C2  UNL     1     -24.777  22.066  -4.153  1.00  0.00     0.070 C 
HETATM   17  C1  UNL     1     -24.475  20.987  -3.160  1.00  0.00     0.016 C 
ENDBRANCH  15  16
ENDBRANCH  14  15
ENDBRANCH  12  14
ENDBRANCH   9  11
ENDBRANCH   1   7
BRANCH   6  18
HETATM   18  O2  UNL     1     -23.418  19.664   1.310  1.00  0.00    -0.394 OA
ATOM     19  H2  UNL     1     -23.137  20.391   0.767  1.00  0.00     0.210 HD
ENDBRANCH   6  18
BRANCH   4  20
HETATM   20  C11 UNL     1     -22.170  19.319   5.694  1.00  0.00     0.013 C 
BRANCH  20  21
HETATM   21  C12 UNL     1     -21.871  18.689   6.977  1.00  0.00    -0.051 C 
HETATM   22  C13 UNL     1     -22.578  17.286   6.918  1.00  0.00     0.014 C 
HETATM   23  C14 UNL     1     -22.492  19.341   8.168  1.00  0.00     0.014 C 
HETATM   24  C15 UNL     1     -20.437  18.376   7.260  1.00  0.00     0.014 C 
ENDBRANCH  20  21
ENDBRANCH   4  20
TORSDOF 8
ENDMDL
MODEL 4
REMARK VINA RESULT: -6.879222276      5.961      6.846
REMARK  8 active torsions:
REMARK  status: ('A' for Active; 'I' for Inactive)
REMARK    1  A    between atoms: C2_2  and  S1_3 
REMARK    2  A    between atoms: S1_3  and  C3_4 
REMARK    3  A    between atoms: C3_4  and  C4_5 
REMARK       I    between atoms: C4_5  and  N1_7 
REMARK    4  A    between atoms: N1_7  and  C5_8 
REMARK    5  A    between atoms: N2_10  and  C7_11 
REMARK    6  A    between atoms: C10_14  and  C11_15 
REMARK    7  A    between atoms: C11_15  and  C12_16 
REMARK    8  A    between atoms: C17_21  and  O2_22 
ROOT
HETATM    1  C7  UNL     1     -24.500  20.889   2.756  1.00  0.00     0.108 C 
HETATM    2  C8  UNL     1     -24.291  21.478   4.139  1.00  0.00     0.028 C 
HETATM    3  C9  UNL     1     -24.297  20.403   5.154  1.00  0.00     0.007 C 
HETATM    4  C10 UNL     1     -23.433  19.190   4.859  1.00  0.00    -0.011 C 
HETATM    5  C16 UNL     1     -23.334  18.889   3.416  1.00  0.00     0.038 C 
HETATM    6  C17 UNL     1     -23.211  20.079   2.516  1.00  0.00     0.141 C 
ENDROOT
BRANCH   1   7
HETATM    7  N2  UNL     1     -24.744  21.716   1.731  1.00  0.00    -0.400 N 
HETATM    8  C6  UNL     1     -24.213  22.945   1.381  1.00  0.00     0.158 C 
HETATM    9  C5  UNL     1     -24.735  22.602  -0.096  1.00  0.00     0.201 C 
HETATM   10  C18 UNL     1     -25.721  21.779   0.758  1.00  0.00     0.158 C 
BRANCH   9  11
HETATM   11  N1  UNL     1     -25.103  23.602  -0.878  1.00  0.00    -0.406 NA
HETATM   12  C4  UNL     1     -25.481  24.639  -1.683  1.00  0.00     0.296 C 
HETATM   13  O1  UNL     1     -25.516  25.896  -1.403  1.00  0.00    -0.257 OA
BRANCH  12  14
HETATM   14  C3  UNL     1     -25.913  24.398  -3.119  1.00  0.00     0.192 C 
BRANCH  14  15
HETATM   15  S1  UNL     1     -27.234  23.175  -3.189  1.00  0.00    -0.159 SA
BRANCH  15  16
HETATM   16  C2  UNL     1     -28.595  23.674  -2.078  1.00  0.00     0.070 C 
HETATM   17  C1  UNL     1     -28.740  22.662  -0.985  1.00  0.00     0.016 C 
ENDBRANCH  15  16
ENDBRANCH  14  15
ENDBRANCH  12  14
ENDBRANCH   9  11
ENDBRANCH   1   7
BRANCH   6  18
HETATM   18  O2  UNL     1     -23.131  19.708   1.215  1.00  0.00    -0.394 OA
ATOM     19  H2  UNL     1     -22.745  18.843   1.147  1.00  0.00     0.210 HD
ENDBRANCH   6  18
BRANCH   4  20
HETATM   20  C11 UNL     1     -22.213  19.313   5.676  1.00  0.00     0.013 C 
BRANCH  20  21
HETATM   21  C12 UNL     1     -22.028  18.657   6.967  1.00  0.00    -0.051 C 
HETATM   22  C13 UNL     1     -22.716  17.251   6.813  1.00  0.00     0.014 C 
HETATM   23  C14 UNL     1     -22.760  19.279   8.110  1.00  0.00     0.014 C 
HETATM   24  C15 UNL     1     -20.623  18.346   7.372  1.00  0.00     0.014 C 
ENDBRANCH  20  21
ENDBRANCH   4  20
TORSDOF 8
ENDMDL
MODEL 5
REMARK VINA RESULT: -6.876073759      8.060     10.801
REMARK  8 active torsions:
REMARK  status: ('A' for Active; 'I' for Inactive)
REMARK    1  A    between atoms: C2_2  and  S1_3 
REMARK    2  A    between atoms: S1_3  and  C3_4 
REMARK    3  A    between atoms: C3_4  and  C4_5 
REMARK       I    between atoms: C4_5  and  N1_7 
REMARK    4  A    between atoms: N1_7  and  C5_8 
REMARK    5  A    between atoms: N2_10  and  C7_11 
REMARK    6  A    between atoms: C10_14  and  C11_15 
REMARK    7  A    between atoms: C11_15  and  C12_16 
REMARK    8  A    between atoms: C17_21  and  O2_22 
ROOT
HETATM    1  C7  UNL     1     -20.860  20.443   0.884  1.00  0.00     0.108 C 
HETATM    2  C8  UNL     1     -21.778  21.059   1.925  1.00  0.00     0.028 C 
HETATM    3  C9  UNL     1     -22.587  20.005   2.574  1.00  0.00     0.007 C 
HETATM    4  C10 UNL     1     -21.835  18.778   3.060  1.00  0.00    -0.011 C 
HETATM    5  C16 UNL     1     -20.668  18.446   2.216  1.00  0.00     0.038 C 
HETATM    6  C17 UNL     1     -19.871  19.617   1.730  1.00  0.00     0.141 C 
ENDROOT
BRANCH   1   7
HETATM    7  N2  UNL     1     -20.209  21.251   0.038  1.00  0.00    -0.400 N 
HETATM    8  C6  UNL     1     -19.303  22.277   0.242  1.00  0.00     0.158 C 
HETATM    9  C5  UNL     1     -18.857  22.007  -1.274  1.00  0.00     0.201 C 
HETATM   10  C18 UNL     1     -20.319  21.518  -1.311  1.00  0.00     0.158 C 
BRANCH   9  11
HETATM   11  N1  UNL     1     -18.408  23.027  -1.985  1.00  0.00    -0.406 NA
HETATM   12  C4  UNL     1     -17.939  24.080  -2.718  1.00  0.00     0.296 C 
HETATM   13  O1  UNL     1     -16.808  24.688  -2.612  1.00  0.00    -0.257 OA
BRANCH  12  14
HETATM   14  C3  UNL     1     -18.764  24.679  -3.844  1.00  0.00     0.192 C 
BRANCH  14  15
HETATM   15  S1  UNL     1     -20.310  25.356  -3.210  1.00  0.00    -0.159 SA
BRANCH  15  16
HETATM   16  C2  UNL     1     -19.974  26.375  -1.732  1.00  0.00     0.070 C 
HETATM   17  C1  UNL     1     -20.556  25.707  -0.526  1.00  0.00     0.016 C 
ENDBRANCH  15  16
ENDBRANCH  14  15
ENDBRANCH  12  14
ENDBRANCH   9  11
ENDBRANCH   1   7
BRANCH   6  18
HETATM   18  O2  UNL     1     -18.826  19.218   0.963  1.00  0.00    -0.394 OA
ATOM     19  H2  UNL     1     -18.250  18.655   1.466  1.00  0.00     0.210 HD
ENDBRANCH   6  18
BRANCH   4  20
HETATM   20  C11 UNL     1     -21.683  18.907   4.518  1.00  0.00     0.013 C 
BRANCH  20  21
HETATM   21  C12 UNL     1     -22.692  18.481   5.484  1.00  0.00    -0.051 C 
HETATM   22  C13 UNL     1     -23.557  17.410   4.724  1.00  0.00     0.014 C 
HETATM   23  C14 UNL     1     -23.690  19.524   5.866  1.00  0.00     0.014 C 
HETATM   24  C15 UNL     1     -22.204  17.773   6.706  1.00  0.00     0.014 C 
ENDBRANCH  20  21
ENDBRANCH   4  20
TORSDOF 8
ENDMDL
