MODEL 1
REMARK VINA RESULT: -5.676385339      0.000      0.000
REMARK  3 active torsions:
REMARK  status: ('A' for Active; 'I' for Inactive)
REMARK    1  A    between atoms: C2_2  and  O1_4 
REMARK    2  A    between atoms: O1_4  and  C4_5 
REMARK    3  A    between atoms: C5_6  and  O2_7 
ROOT
HETATM    1  C4  UNL     1     -25.356  22.470   7.554  1.00  0.00     0.188 C 
HETATM    2  C5  UNL     1     -26.615  22.948   8.226  1.00  0.00     0.152 C 
HETATM    3  C6  UNL     1     -27.590  22.912   7.038  1.00  0.00     0.069 C 
HETATM    4  C7  UNL     1     -26.783  23.747   6.063  1.00  0.00     0.159 C 
HETATM    5  O3  UNL     1     -27.161  23.526   4.750  1.00  0.00    -0.348 OA
HETATM    6  C8  UNL     1     -26.248  22.690   4.176  1.00  0.00     0.158 C 
HETATM    7  C9  UNL     1     -26.975  21.489   3.586  1.00  0.00     0.078 C 
HETATM    8  C10 UNL     1     -25.544  23.421   3.053  1.00  0.00     0.078 C 
HETATM    9  O4  UNL     1     -25.364  22.255   5.149  1.00  0.00    -0.345 OA
HETATM   10  C11 UNL     1     -25.413  23.137   6.200  1.00  0.00     0.186 C 
ENDROOT
BRANCH   1  11
HETATM   11  O1  UNL     1     -25.353  21.065   7.455  1.00  0.00    -0.346 OA
BRANCH  11  12
HETATM   12  C2  UNL     1     -24.359  20.283   8.039  1.00  0.00     0.034 C 
HETATM   13  C1  UNL     1     -24.064  20.338   9.316  1.00  0.00     0.045 C 
HETATM   14  C3  UNL     1     -23.611  19.348   7.153  1.00  0.00     0.075 C 
ENDBRANCH  11  12
ENDBRANCH   1  11
BRANCH   2  15
HETATM   15  O2  UNL     1     -27.043  22.189   9.278  1.00  0.00    -0.393 OA
ATOM     16  H2  UNL     1     -27.741  22.570   9.799  1.00  0.00     0.210 HD
ENDBRANCH   2  15
TORSDOF 3
ENDMDL
MODEL 2
REMARK VINA RESULT: -5.463064791      1.715      2.633
REMARK  3 active torsions:
REMARK  status: ('A' for Active; 'I' for Inactive)
REMARK    1  A    between atoms: C2_2  and  O1_4 
REMARK    2  A    between atoms: O1_4  and  C4_5 
REMARK    3  A    between atoms: C5_6  and  O2_7 
ROOT
HETATM    1  C4  UNL     1     -25.033  21.982   4.891  1.00  0.00     0.188 C 
HETATM    2  C5  UNL     1     -25.500  23.056   5.836  1.00  0.00     0.152 C 
HETATM    3  C6  UNL     1     -26.985  23.134   5.448  1.00  0.00     0.069 C 
HETATM    4  C7  UNL     1     -26.815  23.338   3.956  1.00  0.00     0.159 C 
HETATM    5  O3  UNL     1     -27.952  22.990   3.248  1.00  0.00    -0.348 OA
HETATM    6  C8  UNL     1     -27.756  21.755   2.702  1.00  0.00     0.158 C 
HETATM    7  C9  UNL     1     -28.894  20.835   3.126  1.00  0.00     0.078 C 
HETATM    8  C10 UNL     1     -27.774  21.872   1.193  1.00  0.00     0.078 C 
HETATM    9  O4  UNL     1     -26.557  21.243   3.170  1.00  0.00    -0.345 OA
HETATM   10  C11 UNL     1     -25.790  22.288   3.620  1.00  0.00     0.186 C 
ENDROOT
BRANCH   1  11
HETATM   11  O1  UNL     1     -25.346  20.707   5.401  1.00  0.00    -0.346 OA
BRANCH  11  12
HETATM   12  C2  UNL     1     -24.395  19.693   5.495  1.00  0.00     0.034 C 
HETATM   13  C1  UNL     1     -24.001  18.984   4.465  1.00  0.00     0.045 C 
HETATM   14  C3  UNL     1     -23.813  19.420   6.839  1.00  0.00     0.075 C 
ENDBRANCH  11  12
ENDBRANCH   1  11
BRANCH   2  15
HETATM   15  O2  UNL     1     -25.318  22.790   7.164  1.00  0.00    -0.393 OA
ATOM     16  H2  UNL     1     -24.837  21.994   7.359  1.00  0.00     0.210 HD
ENDBRANCH   2  15
TORSDOF 3
ENDMDL
MODEL 3
REMARK VINA RESULT: -5.333501729      1.773      2.414
REMARK  3 active torsions:
REMARK  status: ('A' for Active; 'I' for Inactive)
REMARK    1  A    between atoms: C2_2  and  O1_4 
REMARK    2  A    between atoms: O1_4  and  C4_5 
REMARK    3  A    between atoms: C5_6  and  O2_7 
ROOT
HETATM    1  C4  UNL     1     -25.333  22.466   5.941  1.00  0.00     0.188 C 
HETATM    2  C5  UNL     1     -25.553  22.751   7.402  1.00  0.00     0.152 C 
HETATM    3  C6  UNL     1     -27.074  22.973   7.411  1.00  0.00     0.069 C 
HETATM    4  C7  UNL     1     -27.151  24.026   6.324  1.00  0.00     0.159 C 
HETATM    5  O3  UNL     1     -28.416  24.110   5.767  1.00  0.00    -0.348 OA
HETATM    6  C8  UNL     1     -28.403  23.447   4.575  1.00  0.00     0.158 C 
HETATM    7  C9  UNL     1     -29.512  22.402   4.574  1.00  0.00     0.078 C 
HETATM    8  C10 UNL     1     -28.675  24.431   3.457  1.00  0.00     0.078 C 
HETATM    9  O4  UNL     1     -27.181  22.814   4.426  1.00  0.00    -0.345 OA
HETATM   10  C11 UNL     1     -26.276  23.427   5.256  1.00  0.00     0.186 C 
ENDROOT
BRANCH   1  11
HETATM   11  O1  UNL     1     -25.641  21.122   5.649  1.00  0.00    -0.346 OA
BRANCH  11  12
HETATM   12  C2  UNL     1     -24.707  20.253   5.090  1.00  0.00     0.034 C 
HETATM   13  C1  UNL     1     -24.440  20.220   3.806  1.00  0.00     0.045 C 
HETATM   14  C3  UNL     1     -23.992  19.327   6.012  1.00  0.00     0.075 C 
ENDBRANCH  11  12
ENDBRANCH   1  11
BRANCH   2  15
HETATM   15  O2  UNL     1     -25.163  21.761   8.259  1.00  0.00    -0.393 OA
ATOM     16  H2  UNL     1     -24.270  21.455   8.151  1.00  0.00     0.210 HD
ENDBRANCH   2  15
TORSDOF 3
ENDMDL
MODEL 4
REMARK VINA RESULT: -5.321987932      3.210      5.884
REMARK  3 active torsions:
REMARK  status: ('A' for Active; 'I' for Inactive)
REMARK    1  A    between atoms: C2_2  and  O1_4 
REMARK    2  A    between atoms: O1_4  and  C4_5 
REMARK    3  A    between atoms: C5_6  and  O2_7 
ROOT
HETATM    1  C4  UNL     1     -24.629  19.410   4.914  1.00  0.00     0.188 C 
HETATM    2  C5  UNL     1     -24.452  19.532   6.403  1.00  0.00     0.152 C 
HETATM    3  C6  UNL     1     -23.000  19.048   6.547  1.00  0.00     0.069 C 
HETATM    4  C7  UNL     1     -23.133  17.726   5.817  1.00  0.00     0.159 C 
HETATM    5  O3  UNL     1     -21.913  17.253   5.368  1.00  0.00    -0.348 OA
HETATM    6  C8  UNL     1     -21.812  17.526   4.035  1.00  0.00     0.158 C 
HETATM    7  C9  UNL     1     -20.527  18.304   3.781  1.00  0.00     0.078 C 
HETATM    8  C10 UNL     1     -21.742  16.224   3.266  1.00  0.00     0.078 C 
HETATM    9  O4  UNL     1     -22.895  18.299   3.652  1.00  0.00    -0.345 OA
HETATM   10  C11 UNL     1     -23.891  18.134   4.582  1.00  0.00     0.186 C 
ENDROOT
BRANCH   1  11
HETATM   11  O1  UNL     1     -24.077  20.528   4.258  1.00  0.00    -0.346 OA
BRANCH  11  12
HETATM   12  C2  UNL     1     -24.872  21.528   3.702  1.00  0.00     0.034 C 
HETATM   13  C1  UNL     1     -24.419  22.724   3.415  1.00  0.00     0.045 C 
HETATM   14  C3  UNL     1     -26.299  21.199   3.430  1.00  0.00     0.075 C 
ENDBRANCH  11  12
ENDBRANCH   1  11
BRANCH   2  15
HETATM   15  O2  UNL     1     -24.641  20.784   6.916  1.00  0.00    -0.393 OA
ATOM     16  H2  UNL     1     -23.871  21.340   6.930  1.00  0.00     0.210 HD
ENDBRANCH   2  15
TORSDOF 3
ENDMDL
MODEL 5
REMARK VINA RESULT: -5.313939233      3.361      5.106
REMARK  3 active torsions:
REMARK  status: ('A' for Active; 'I' for Inactive)
REMARK    1  A    between atoms: C2_2  and  O1_4 
REMARK    2  A    between atoms: O1_4  and  C4_5 
REMARK    3  A    between atoms: C5_6  and  O2_7 
ROOT
HETATM    1  C4  UNL     1     -24.704  21.102   2.608  1.00  0.00     0.188 C 
HETATM    2  C5  UNL     1     -24.084  20.828   1.264  1.00  0.00     0.152 C 
HETATM    3  C6  UNL     1     -23.205  22.079   1.109  1.00  0.00     0.069 C 
HETATM    4  C7  UNL     1     -24.271  23.130   1.349  1.00  0.00     0.159 C 
HETATM    5  O3  UNL     1     -23.729  24.345   1.733  1.00  0.00    -0.348 OA
HETATM    6  C8  UNL     1     -23.864  24.466   3.085  1.00  0.00     0.158 C 
HETATM    7  C9  UNL     1     -22.499  24.745   3.700  1.00  0.00     0.078 C 
HETATM    8  C10 UNL     1     -24.773  25.638   3.388  1.00  0.00     0.078 C 
HETATM    9  O4  UNL     1     -24.360  23.278   3.595  1.00  0.00    -0.345 OA
HETATM   10  C11 UNL     1     -24.963  22.589   2.572  1.00  0.00     0.186 C 
ENDROOT
BRANCH   1  11
HETATM   11  O1  UNL     1     -23.819  20.741   3.642  1.00  0.00    -0.346 OA
BRANCH  11  12
HETATM   12  C2  UNL     1     -24.196  19.887   4.677  1.00  0.00     0.034 C 
HETATM   13  C1  UNL     1     -24.695  20.316   5.811  1.00  0.00     0.045 C 
HETATM   14  C3  UNL     1     -24.014  18.425   4.461  1.00  0.00     0.075 C 
ENDBRANCH  11  12
ENDBRANCH   1  11
BRANCH   2  15
HETATM   15  O2  UNL     1     -23.366  19.669   1.174  1.00  0.00    -0.393 OA
ATOM     16  H2  UNL     1     -22.692  19.657   0.505  1.00  0.00     0.210 HD
ENDBRANCH   2  15
TORSDOF 3
ENDMDL
