MODEL 1
REMARK VINA RESULT: -6.718711056      0.000      0.000
REMARK  3 active torsions:
REMARK  status: ('A' for Active; 'I' for Inactive)
REMARK    1  A    between atoms: C6_6  and  O1_7 
REMARK    2  A    between atoms: O1_7  and  C7_8 
REMARK    3  A    between atoms: C11_15  and  S1_16 
ROOT
HETATM    1  C7  UNL     1      72.532  35.632  -1.193  1.00  0.00     0.174 A 
HETATM    2  N1  UNL     1      73.203  36.422  -0.344  1.00  0.00    -0.338 N 
ATOM      3  H1  UNL     1      73.159  36.346   0.672  1.00  0.00     0.168 HD
HETATM    4  C8  UNL     1      73.951  37.342  -1.017  1.00  0.00     0.031 A 
HETATM    5  C9  UNL     1      74.814  38.367  -0.350  1.00  0.00     0.070 C 
HETATM    6  C10 UNL     1      73.759  37.144  -2.351  1.00  0.00     0.085 A 
HETATM    7 CL1  UNL     1      74.502  38.072  -3.667  1.00  0.00    -0.080 Cl
HETATM    8  C11 UNL     1      72.885  36.092  -2.467  1.00  0.00     0.155 A 
ENDROOT
BRANCH   1   9
HETATM    9  O1  UNL     1      71.677  34.587  -1.009  1.00  0.00    -0.292 OA
BRANCH   9  10
HETATM   10  C6  UNL     1      71.759  33.313  -0.651  1.00  0.00     0.084 A 
HETATM   11  C5  UNL     1      72.876  32.566  -0.348  1.00  0.00     0.038 A 
HETATM   12  C4  UNL     1      72.847  31.222   0.016  1.00  0.00     0.003 A 
HETATM   13  C3  UNL     1      71.640  30.583   0.085  1.00  0.00     0.007 A 
HETATM   14  C2  UNL     1      70.487  31.270  -0.204  1.00  0.00    -0.053 A 
HETATM   15  C1  UNL     1      69.173  30.581  -0.131  1.00  0.00     0.049 C 
HETATM   16  C12 UNL     1      70.544  32.598  -0.563  1.00  0.00    -0.022 A 
HETATM   17  C13 UNL     1      69.315  33.332  -0.888  1.00  0.00     0.052 C 
ENDBRANCH   9  10
ENDBRANCH   1   9
BRANCH   8  18
HETATM   18  S1  UNL     1      72.308  35.496  -3.997  1.00  0.00     0.143 S 
HETATM   19  O2  UNL     1      73.241  34.428  -4.538  1.00  0.00    -0.591 OA
HETATM   20  O3  UNL     1      72.296  36.576  -5.022  1.00  0.00    -0.591 OA
HETATM   21  O4  UNL     1      70.800  34.824  -3.869  1.00  0.00    -0.591 OA
ENDBRANCH   8  18
TORSDOF 3
ENDMDL
MODEL 2
REMARK VINA RESULT: -6.566506770      3.108      3.686
REMARK  3 active torsions:
REMARK  status: ('A' for Active; 'I' for Inactive)
REMARK    1  A    between atoms: C6_6  and  O1_7 
REMARK    2  A    between atoms: O1_7  and  C7_8 
REMARK    3  A    between atoms: C11_15  and  S1_16 
ROOT
HETATM    1  C7  UNL     1      74.769  32.923  -2.517  1.00  0.00     0.174 A 
HETATM    2  N1  UNL     1      75.894  32.290  -2.154  1.00  0.00    -0.338 N 
ATOM      3  H1  UNL     1      76.050  31.872  -1.238  1.00  0.00     0.168 HD
HETATM    4  C8  UNL     1      76.801  32.278  -3.172  1.00  0.00     0.031 A 
HETATM    5  C9  UNL     1      78.154  31.646  -3.079  1.00  0.00     0.070 C 
HETATM    6  C10 UNL     1      76.248  32.929  -4.235  1.00  0.00     0.085 A 
HETATM    7 CL1  UNL     1      77.010  33.194  -5.813  1.00  0.00    -0.080 Cl
HETATM    8  C11 UNL     1      74.997  33.329  -3.838  1.00  0.00     0.155 A 
ENDROOT
BRANCH   1   9
HETATM    9  O1  UNL     1      73.601  33.184  -1.867  1.00  0.00    -0.292 OA
BRANCH   9  10
HETATM   10  C6  UNL     1      72.695  32.502  -1.180  1.00  0.00     0.084 A 
HETATM   11  C5  UNL     1      72.859  31.370  -0.413  1.00  0.00     0.038 A 
HETATM   12  C4  UNL     1      71.828  30.728   0.269  1.00  0.00     0.003 A 
HETATM   13  C3  UNL     1      70.562  31.239   0.186  1.00  0.00     0.007 A 
HETATM   14  C2  UNL     1      70.331  32.367  -0.563  1.00  0.00    -0.053 A 
HETATM   15  C1  UNL     1      68.958  32.926  -0.658  1.00  0.00     0.049 C 
HETATM   16  C12 UNL     1      71.367  32.981  -1.229  1.00  0.00    -0.022 A 
HETATM   17  C13 UNL     1      71.121  34.178  -2.042  1.00  0.00     0.052 C 
ENDBRANCH   9  10
ENDBRANCH   1   9
BRANCH   8  18
HETATM   18  S1  UNL     1      73.919  34.240  -4.857  1.00  0.00     0.143 S 
HETATM   19  O2  UNL     1      72.643  33.458  -5.115  1.00  0.00    -0.591 OA
HETATM   20  O3  UNL     1      74.523  34.476  -6.198  1.00  0.00    -0.591 OA
HETATM   21  O4  UNL     1      73.490  35.684  -4.169  1.00  0.00    -0.591 OA
ENDBRANCH   8  18
TORSDOF 3
ENDMDL
MODEL 3
REMARK VINA RESULT: -6.558384834      2.536      2.690
REMARK  3 active torsions:
REMARK  status: ('A' for Active; 'I' for Inactive)
REMARK    1  A    between atoms: C6_6  and  O1_7 
REMARK    2  A    between atoms: O1_7  and  C7_8 
REMARK    3  A    between atoms: C11_15  and  S1_16 
ROOT
HETATM    1  C7  UNL     1      74.656  34.266  -2.365  1.00  0.00     0.174 A 
HETATM    2  N1  UNL     1      75.625  34.619  -1.509  1.00  0.00    -0.338 N 
ATOM      3  H1  UNL     1      75.527  34.619  -0.494  1.00  0.00     0.168 HD
HETATM    4  C8  UNL     1      76.759  34.981  -2.174  1.00  0.00     0.031 A 
HETATM    5  C9  UNL     1      78.019  35.426  -1.498  1.00  0.00     0.070 C 
HETATM    6  C10 UNL     1      76.519  34.860  -3.510  1.00  0.00     0.085 A 
HETATM    7 CL1  UNL     1      77.667  35.205  -4.817  1.00  0.00    -0.080 Cl
HETATM    8  C11 UNL     1      75.226  34.420  -3.634  1.00  0.00     0.155 A 
ENDROOT
BRANCH   1   9
HETATM    9  O1  UNL     1      73.376  33.834  -2.189  1.00  0.00    -0.292 OA
BRANCH   9  10
HETATM   10  C6  UNL     1      72.744  32.937  -1.445  1.00  0.00     0.084 A 
HETATM   11  C5  UNL     1      73.259  31.858  -0.761  1.00  0.00     0.038 A 
HETATM   12  C4  UNL     1      72.496  30.971  -0.006  1.00  0.00     0.003 A 
HETATM   13  C3  UNL     1      71.145  31.166   0.077  1.00  0.00     0.007 A 
HETATM   14  C2  UNL     1      70.569  32.224  -0.581  1.00  0.00    -0.053 A 
HETATM   15  C1  UNL     1      69.101  32.440  -0.496  1.00  0.00     0.049 C 
HETATM   16  C12 UNL     1      71.344  33.086  -1.323  1.00  0.00    -0.022 A 
HETATM   17  C13 UNL     1      70.729  34.209  -2.040  1.00  0.00     0.052 C 
ENDBRANCH   9  10
ENDBRANCH   1   9
BRANCH   8  18
HETATM   18  S1  UNL     1      74.452  34.155  -5.172  1.00  0.00     0.143 S 
HETATM   19  O2  UNL     1      75.272  33.200  -6.021  1.00  0.00    -0.591 OA
HETATM   20  O3  UNL     1      74.370  35.419  -5.954  1.00  0.00    -0.591 OA
HETATM   21  O4  UNL     1      72.942  33.499  -4.998  1.00  0.00    -0.591 OA
ENDBRANCH   8  18
TORSDOF 3
ENDMDL
MODEL 4
REMARK VINA RESULT: -6.544530449      2.114      2.925
REMARK  3 active torsions:
REMARK  status: ('A' for Active; 'I' for Inactive)
REMARK    1  A    between atoms: C6_6  and  O1_7 
REMARK    2  A    between atoms: O1_7  and  C7_8 
REMARK    3  A    between atoms: C11_15  and  S1_16 
ROOT
HETATM    1  C7  UNL     1      71.984  35.705  -2.251  1.00  0.00     0.174 A 
HETATM    2  N1  UNL     1      71.748  35.993  -3.539  1.00  0.00    -0.338 N 
ATOM      3  H1  UNL     1      71.067  35.510  -4.123  1.00  0.00     0.168 HD
HETATM    4  C8  UNL     1      72.540  37.019  -3.964  1.00  0.00     0.031 A 
HETATM    5  C9  UNL     1      72.512  37.574  -5.354  1.00  0.00     0.070 C 
HETATM    6  C10 UNL     1      73.320  37.410  -2.918  1.00  0.00     0.085 A 
HETATM    7 CL1  UNL     1      74.526  38.709  -2.937  1.00  0.00    -0.080 Cl
HETATM    8  C11 UNL     1      72.983  36.604  -1.859  1.00  0.00     0.155 A 
ENDROOT
BRANCH   1   9
HETATM    9  O1  UNL     1      71.455  34.787  -1.394  1.00  0.00    -0.292 OA
BRANCH   9  10
HETATM   10  C6  UNL     1      71.727  33.548  -1.005  1.00  0.00     0.084 A 
HETATM   11  C5  UNL     1      72.951  32.937  -0.846  1.00  0.00     0.038 A 
HETATM   12  C4  UNL     1      73.121  31.618  -0.430  1.00  0.00     0.003 A 
HETATM   13  C3  UNL     1      72.014  30.864  -0.156  1.00  0.00     0.007 A 
HETATM   14  C2  UNL     1      70.764  31.415  -0.294  1.00  0.00    -0.053 A 
HETATM   15  C1  UNL     1      69.557  30.600   0.003  1.00  0.00     0.049 C 
HETATM   16  C12 UNL     1      70.622  32.720  -0.708  1.00  0.00    -0.022 A 
HETATM   17  C13 UNL     1      69.287  33.307  -0.871  1.00  0.00     0.052 C 
ENDBRANCH   9  10
ENDBRANCH   1   9
BRANCH   8  18
HETATM   18  S1  UNL     1      73.751  36.708  -0.300  1.00  0.00     0.143 S 
HETATM   19  O2  UNL     1      74.176  38.136  -0.011  1.00  0.00    -0.591 OA
HETATM   20  O3  UNL     1      75.002  35.901  -0.266  1.00  0.00    -0.591 OA
HETATM   21  O4  UNL     1      72.739  36.230   0.920  1.00  0.00    -0.591 OA
ENDBRANCH   8  18
TORSDOF 3
ENDMDL
MODEL 5
REMARK VINA RESULT: -6.442225809      2.876      3.437
REMARK  3 active torsions:
REMARK  status: ('A' for Active; 'I' for Inactive)
REMARK    1  A    between atoms: C6_6  and  O1_7 
REMARK    2  A    between atoms: O1_7  and  C7_8 
REMARK    3  A    between atoms: C11_15  and  S1_16 
ROOT
HETATM    1  C7  UNL     1      74.340  33.615  -3.097  1.00  0.00     0.174 A 
HETATM    2  N1  UNL     1      75.149  32.674  -3.604  1.00  0.00    -0.338 N 
ATOM      3  H1  UNL     1      75.312  31.763  -3.177  1.00  0.00     0.168 HD
HETATM    4  C8  UNL     1      75.726  33.097  -4.764  1.00  0.00     0.031 A 
HETATM    5  C9  UNL     1      76.680  32.273  -5.572  1.00  0.00     0.070 C 
HETATM    6  C10 UNL     1      75.278  34.358  -5.021  1.00  0.00     0.085 A 
HETATM    7 CL1  UNL     1      75.721  35.365  -6.412  1.00  0.00    -0.080 Cl
HETATM    8  C11 UNL     1      74.424  34.683  -3.998  1.00  0.00     0.155 A 
ENDROOT
BRANCH   1   9
HETATM    9  O1  UNL     1      73.556  33.663  -1.984  1.00  0.00    -0.292 OA
BRANCH   9  10
HETATM   10  C6  UNL     1      72.826  32.816  -1.270  1.00  0.00     0.084 A 
HETATM   11  C5  UNL     1      73.230  31.715  -0.548  1.00  0.00     0.038 A 
HETATM   12  C4  UNL     1      72.369  30.887   0.168  1.00  0.00     0.003 A 
HETATM   13  C3  UNL     1      71.031  31.169   0.170  1.00  0.00     0.007 A 
HETATM   14  C2  UNL     1      70.563  32.254  -0.530  1.00  0.00    -0.053 A 
HETATM   15  C1  UNL     1      69.110  32.564  -0.532  1.00  0.00     0.049 C 
HETATM   16  C12 UNL     1      71.434  33.055  -1.231  1.00  0.00    -0.022 A 
HETATM   17  C13 UNL     1      70.935  34.207  -1.992  1.00  0.00     0.052 C 
ENDBRANCH   9  10
ENDBRANCH   1   9
BRANCH   8  18
HETATM   18  S1  UNL     1      73.630  36.228  -3.873  1.00  0.00     0.143 S 
HETATM   19  O2  UNL     1      73.372  36.577  -2.419  1.00  0.00    -0.591 OA
HETATM   20  O3  UNL     1      72.290  36.193  -4.522  1.00  0.00    -0.591 OA
HETATM   21  O4  UNL     1      74.542  37.446  -4.527  1.00  0.00    -0.591 OA
ENDBRANCH   8  18
TORSDOF 3
ENDMDL
