MODEL 1
REMARK VINA RESULT: -6.996874271      0.000      0.000
REMARK  4 active torsions:
REMARK  status: ('A' for Active; 'I' for Inactive)
REMARK    1  A    between atoms: C3_4  and  C4_5 
REMARK    2  A    between atoms: C4_5  and  N1_6 
REMARK    3  A    between atoms: N1_6  and  C6_8 
REMARK    4  A    between atoms: C7_11  and  N3_12 
ROOT
HETATM    1  C6  UNL     1      67.648  30.415  -0.082  1.00  0.00     0.681 A 
HETATM    2  N2  UNL     1      67.406  30.127   1.228  1.00  0.00    -0.177 N 
ATOM      3  H2  UNL     1      68.056  30.477   1.931  1.00  0.00     0.185 HD
HETATM    4  C7  UNL     1      66.358  29.410   1.631  1.00  0.00     0.116 A 
HETATM    5  C8  UNL     1      65.473  28.932   0.702  1.00  0.00     0.066 A 
HETATM    6  C9  UNL     1      65.684  29.203  -0.631  1.00  0.00     0.110 A 
HETATM    7  N4  UNL     1      66.759  29.932  -0.967  1.00  0.00    -0.202 N 
ATOM      8  H4  UNL     1      66.912  30.131  -1.956  1.00  0.00     0.183 HD
ENDROOT
BRANCH   1   9
HETATM    9  N1  UNL     1      68.773  31.181  -0.478  1.00  0.00    -0.216 N 
HETATM   10  C5  UNL     1      68.635  32.620  -0.503  1.00  0.00     0.169 C 
BRANCH   9  11
HETATM   11  C4  UNL     1      69.984  30.493  -0.830  1.00  0.00     0.206 C 
BRANCH  11  12
HETATM   12  C3  UNL     1      71.053  31.417  -1.284  1.00  0.00     0.079 A 
HETATM   13  O1  UNL     1      71.051  32.239  -2.305  1.00  0.00    -0.316 OA
HETATM   14  C2  UNL     1      72.182  32.899  -2.391  1.00  0.00     0.067 A 
HETATM   15  C1  UNL     1      72.462  33.912  -3.466  1.00  0.00     0.078 C 
HETATM   16  C12 UNL     1      72.990  32.495  -1.371  1.00  0.00     0.048 A 
HETATM   17  C10 UNL     1      72.277  31.552  -0.664  1.00  0.00    -0.011 A 
HETATM   18 BR1  UNL     1      74.752  33.117  -1.006  1.00  0.00    -0.048 Br
HETATM   19  C11 UNL     1      72.790  30.844   0.544  1.00  0.00     0.052 C 
ENDBRANCH  11  12
ENDBRANCH   9  11
ENDBRANCH   1   9
BRANCH   4  20
HETATM   20  N3  UNL     1      66.179  29.167   2.893  1.00  0.00    -0.385 N 
ATOM     21  H32 UNL     1      66.961  29.222   3.545  1.00  0.00     0.157 HD
ATOM     22  H31 UNL     1      65.253  28.919   3.242  1.00  0.00     0.157 HD
ENDBRANCH   4  20
TORSDOF 4
ENDMDL
MODEL 2
REMARK VINA RESULT: -6.341265855      1.319      1.963
REMARK  4 active torsions:
REMARK  status: ('A' for Active; 'I' for Inactive)
REMARK    1  A    between atoms: C3_4  and  C4_5 
REMARK    2  A    between atoms: C4_5  and  N1_6 
REMARK    3  A    between atoms: N1_6  and  C6_8 
REMARK    4  A    between atoms: C7_11  and  N3_12 
ROOT
HETATM    1  C6  UNL     1      67.291  30.011   0.357  1.00  0.00     0.681 A 
HETATM    2  N2  UNL     1      66.297  29.424  -0.367  1.00  0.00    -0.177 N 
ATOM      3  H2  UNL     1      66.378  29.411  -1.384  1.00  0.00     0.185 HD
HETATM    4  C7  UNL     1      65.224  28.867   0.192  1.00  0.00     0.116 A 
HETATM    5  C8  UNL     1      65.097  28.874   1.555  1.00  0.00     0.066 A 
HETATM    6  C9  UNL     1      66.081  29.458   2.321  1.00  0.00     0.110 A 
HETATM    7  N4  UNL     1      67.135  30.000   1.692  1.00  0.00    -0.202 N 
ATOM      8  H4  UNL     1      67.863  30.431   2.262  1.00  0.00     0.183 HD
ENDROOT
BRANCH   1   9
HETATM    9  N1  UNL     1      68.420  30.597  -0.270  1.00  0.00    -0.216 N 
HETATM   10  C5  UNL     1      68.863  30.031  -1.525  1.00  0.00     0.169 C 
BRANCH   9  11
HETATM   11  C4  UNL     1      69.059  31.714   0.368  1.00  0.00     0.206 C 
BRANCH  11  12
HETATM   12  C3  UNL     1      70.049  32.383  -0.512  1.00  0.00     0.079 A 
HETATM   13  O1  UNL     1      69.858  33.340  -1.387  1.00  0.00    -0.316 OA
HETATM   14  C2  UNL     1      70.978  33.679  -1.980  1.00  0.00     0.067 A 
HETATM   15  C1  UNL     1      71.061  34.750  -3.031  1.00  0.00     0.078 C 
HETATM   16  C12 UNL     1      71.978  32.903  -1.476  1.00  0.00     0.048 A 
HETATM   17  C10 UNL     1      71.392  32.077  -0.541  1.00  0.00    -0.011 A 
HETATM   18 BR1  UNL     1      73.816  32.959  -1.971  1.00  0.00    -0.048 Br
HETATM   19  C11 UNL     1      72.132  31.059   0.260  1.00  0.00     0.052 C 
ENDBRANCH  11  12
ENDBRANCH   9  11
ENDBRANCH   1   9
BRANCH   4  20
HETATM   20  N3  UNL     1      64.309  28.322  -0.549  1.00  0.00    -0.385 N 
ATOM     21  H32 UNL     1      63.692  28.903  -1.117  1.00  0.00     0.157 HD
ATOM     22  H31 UNL     1      64.201  27.308  -0.569  1.00  0.00     0.157 HD
ENDBRANCH   4  20
TORSDOF 4
ENDMDL
MODEL 3
REMARK VINA RESULT: -6.190994494      3.063      5.119
REMARK  4 active torsions:
REMARK  status: ('A' for Active; 'I' for Inactive)
REMARK    1  A    between atoms: C3_4  and  C4_5 
REMARK    2  A    between atoms: C4_5  and  N1_6 
REMARK    3  A    between atoms: N1_6  and  C6_8 
REMARK    4  A    between atoms: C7_11  and  N3_12 
ROOT
HETATM    1  C6  UNL     1      71.137  33.182  -0.997  1.00  0.00     0.681 A 
HETATM    2  N2  UNL     1      69.807  32.891  -0.925  1.00  0.00    -0.177 N 
ATOM      3  H2  UNL     1      69.137  33.593  -1.237  1.00  0.00     0.185 HD
HETATM    4  C7  UNL     1      69.344  31.729  -0.465  1.00  0.00     0.116 A 
HETATM    5  C8  UNL     1      70.227  30.773  -0.043  1.00  0.00     0.066 A 
HETATM    6  C9  UNL     1      71.578  31.031  -0.101  1.00  0.00     0.110 A 
HETATM    7  N4  UNL     1      71.976  32.221  -0.575  1.00  0.00    -0.202 N 
ATOM      8  H4  UNL     1      72.978  32.409  -0.618  1.00  0.00     0.183 HD
ENDROOT
BRANCH   1   9
HETATM    9  N1  UNL     1      71.597  34.429  -1.491  1.00  0.00    -0.216 N 
HETATM   10  C5  UNL     1      72.534  35.171  -0.678  1.00  0.00     0.169 C 
BRANCH   9  11
HETATM   11  C4  UNL     1      71.114  34.886  -2.764  1.00  0.00     0.206 C 
BRANCH  11  12
HETATM   12  C3  UNL     1      72.209  35.139  -3.732  1.00  0.00     0.079 A 
HETATM   13  O1  UNL     1      72.937  34.274  -4.397  1.00  0.00    -0.316 OA
HETATM   14  C2  UNL     1      73.814  34.875  -5.165  1.00  0.00     0.067 A 
HETATM   15  C1  UNL     1      74.784  34.133  -6.042  1.00  0.00     0.078 C 
HETATM   16  C12 UNL     1      73.669  36.221  -5.005  1.00  0.00     0.048 A 
HETATM   17  C10 UNL     1      72.649  36.394  -4.095  1.00  0.00    -0.011 A 
HETATM   18 BR1  UNL     1      74.679  37.581  -5.873  1.00  0.00    -0.048 Br
HETATM   19  C11 UNL     1      72.157  37.722  -3.629  1.00  0.00     0.052 C 
ENDBRANCH  11  12
ENDBRANCH   9  11
ENDBRANCH   1   9
BRANCH   4  20
HETATM   20  N3  UNL     1      68.066  31.508  -0.419  1.00  0.00    -0.385 N 
ATOM     21  H32 UNL     1      67.616  30.934  -1.132  1.00  0.00     0.157 HD
ATOM     22  H31 UNL     1      67.502  31.907   0.331  1.00  0.00     0.157 HD
ENDBRANCH   4  20
TORSDOF 4
ENDMDL
MODEL 4
REMARK VINA RESULT: -6.041891756      1.593      2.738
REMARK  4 active torsions:
REMARK  status: ('A' for Active; 'I' for Inactive)
REMARK    1  A    between atoms: C3_4  and  C4_5 
REMARK    2  A    between atoms: C4_5  and  N1_6 
REMARK    3  A    between atoms: N1_6  and  C6_8 
REMARK    4  A    between atoms: C7_11  and  N3_12 
ROOT
HETATM    1  C6  UNL     1      66.936  29.840   0.323  1.00  0.00     0.681 A 
HETATM    2  N2  UNL     1      65.912  29.173  -0.279  1.00  0.00    -0.177 N 
ATOM      3  H2  UNL     1      65.905  29.107  -1.297  1.00  0.00     0.185 HD
HETATM    4  C7  UNL     1      64.918  28.604   0.402  1.00  0.00     0.116 A 
HETATM    5  C8  UNL     1      64.908  28.682   1.768  1.00  0.00     0.066 A 
HETATM    6  C9  UNL     1      65.927  29.347   2.412  1.00  0.00     0.110 A 
HETATM    7  N4  UNL     1      66.897  29.896   1.665  1.00  0.00    -0.202 N 
ATOM      8  H4  UNL     1      67.651  30.388   2.146  1.00  0.00     0.183 HD
ENDROOT
BRANCH   1   9
HETATM    9  N1  UNL     1      67.979  30.435  -0.431  1.00  0.00    -0.216 N 
HETATM   10  C5  UNL     1      68.423  29.751  -1.625  1.00  0.00     0.169 C 
BRANCH   9  11
HETATM   11  C4  UNL     1      68.535  31.678   0.025  1.00  0.00     0.206 C 
BRANCH  11  12
HETATM   12  C3  UNL     1      70.011  31.729  -0.118  1.00  0.00     0.079 A 
HETATM   13  O1  UNL     1      70.915  30.925   0.386  1.00  0.00    -0.316 OA
HETATM   14  C2  UNL     1      72.127  31.289   0.040  1.00  0.00     0.067 A 
HETATM   15  C1  UNL     1      73.363  30.550   0.473  1.00  0.00     0.078 C 
HETATM   16  C12 UNL     1      72.031  32.403  -0.739  1.00  0.00     0.048 A 
HETATM   17  C10 UNL     1      70.687  32.687  -0.843  1.00  0.00    -0.011 A 
HETATM   18 BR1  UNL     1      73.475  33.365  -1.524  1.00  0.00    -0.048 Br
HETATM   19  C11 UNL     1      70.130  33.835  -1.614  1.00  0.00     0.052 C 
ENDBRANCH  11  12
ENDBRANCH   9  11
ENDBRANCH   1   9
BRANCH   4  20
HETATM   20  N3  UNL     1      63.968  27.982  -0.227  1.00  0.00    -0.385 N 
ATOM     21  H32 UNL     1      64.032  27.823  -1.232  1.00  0.00     0.157 HD
ATOM     22  H31 UNL     1      63.149  27.648   0.282  1.00  0.00     0.157 HD
ENDBRANCH   4  20
TORSDOF 4
ENDMDL
MODEL 5
REMARK VINA RESULT: -6.027864335      3.112      4.789
REMARK  4 active torsions:
REMARK  status: ('A' for Active; 'I' for Inactive)
REMARK    1  A    between atoms: C3_4  and  C4_5 
REMARK    2  A    between atoms: C4_5  and  N1_6 
REMARK    3  A    between atoms: N1_6  and  C6_8 
REMARK    4  A    between atoms: C7_11  and  N3_12 
ROOT
HETATM    1  C6  UNL     1      71.603  33.136  -1.212  1.00  0.00     0.681 A 
HETATM    2  N2  UNL     1      70.253  32.994  -1.090  1.00  0.00    -0.177 N 
ATOM      3  H2  UNL     1      69.648  33.704  -1.502  1.00  0.00     0.185 HD
HETATM    4  C7  UNL     1      69.688  31.968  -0.455  1.00  0.00     0.116 A 
HETATM    5  C8  UNL     1      70.482  31.004   0.105  1.00  0.00     0.066 A 
HETATM    6  C9  UNL     1      71.850  31.114   0.001  1.00  0.00     0.110 A 
HETATM    7  N4  UNL     1      72.353  32.172  -0.652  1.00  0.00    -0.202 N 
ATOM      8  H4  UNL     1      73.367  32.251  -0.728  1.00  0.00     0.183 HD
ENDROOT
BRANCH   1   9
HETATM    9  N1  UNL     1      72.173  34.242  -1.894  1.00  0.00    -0.216 N 
HETATM   10  C5  UNL     1      71.290  35.084  -2.669  1.00  0.00     0.169 C 
BRANCH   9  11
HETATM   11  C4  UNL     1      73.587  34.466  -1.779  1.00  0.00     0.206 C 
BRANCH  11  12
HETATM   12  C3  UNL     1      74.334  34.022  -2.982  1.00  0.00     0.079 A 
HETATM   13  O1  UNL     1      74.284  34.496  -4.203  1.00  0.00    -0.316 OA
HETATM   14  C2  UNL     1      75.094  33.845  -5.003  1.00  0.00     0.067 A 
HETATM   15  C1  UNL     1      75.245  34.171  -6.463  1.00  0.00     0.078 C 
HETATM   16  C12 UNL     1      75.722  32.877  -4.279  1.00  0.00     0.048 A 
HETATM   17  C10 UNL     1      75.242  32.985  -2.992  1.00  0.00    -0.011 A 
HETATM   18 BR1  UNL     1      77.005  31.629  -4.927  1.00  0.00    -0.048 Br
HETATM   19  C11 UNL     1      75.668  32.111  -1.861  1.00  0.00     0.052 C 
ENDBRANCH  11  12
ENDBRANCH   9  11
ENDBRANCH   1   9
BRANCH   4  20
HETATM   20  N3  UNL     1      68.395  31.884  -0.370  1.00  0.00    -0.385 N 
ATOM     21  H32 UNL     1      67.808  32.668  -0.654  1.00  0.00     0.157 HD
ATOM     22  H31 UNL     1      67.958  31.033  -0.017  1.00  0.00     0.157 HD
ENDBRANCH   4  20
TORSDOF 4
ENDMDL
