MODEL 1
REMARK VINA RESULT: -8.090492254      0.000      0.000
REMARK  9 active torsions:
REMARK  status: ('A' for Active; 'I' for Inactive)
REMARK    1  A    between atoms: C4_7  and  C5_8 
REMARK    2  A    between atoms: C5_8  and  C6_9 
REMARK    3  A    between atoms: N3_14  and  C8_15 
REMARK    4  A    between atoms: N5_24  and  C15_26 
REMARK    5  A    between atoms: C18_29  and  C19_30 
REMARK    6  A    between atoms: C19_30  and  O3_31 
REMARK    7  A    between atoms: C19_30  and  N6_33 
REMARK    8  A    between atoms: N6_33  and  C20_34 
REMARK    9  A    between atoms: N6_33  and  C23_37 
ROOT
HETATM    1  C1  UNL     1      10.639  12.774  18.756  1.00  0.00     0.047 C 
HETATM    2  C2  UNL     1      10.435  13.742  19.625  1.00  0.00     0.070 A 
HETATM    3  N1  UNL     1       9.334  14.535  19.475  1.00  0.00    -0.319 N 
ATOM      4  H1  UNL     1       8.699  14.353  18.698  1.00  0.00     0.169 HD
HETATM    5  C3  UNL     1       9.060  15.546  20.314  1.00  0.00     0.272 A 
HETATM    6  O1  UNL     1       8.031  16.240  20.123  1.00  0.00    -0.266 OA
HETATM    7  C4  UNL     1       9.879  15.843  21.381  1.00  0.00     0.104 A 
HETATM    8  N4  UNL     1      10.951  15.081  21.537  1.00  0.00    -0.336 N 
ATOM      9  H4  UNL     1      11.576  15.279  22.318  1.00  0.00     0.168 HD
HETATM   10  C14 UNL     1      11.267  14.023  20.686  1.00  0.00     0.133 A 
HETATM   11  N5  UNL     1      12.266  13.389  20.945  1.00  0.00    -0.341 N 
ATOM     12  H5  UNL     1      12.643  13.851  21.773  1.00  0.00     0.167 HD
ENDROOT
BRANCH  11  13
HETATM   13  C15 UNL     1      13.139  12.387  20.704  1.00  0.00     0.033 A 
HETATM   14  C16 UNL     1      14.231  12.575  19.847  1.00  0.00     0.030 A 
HETATM   15  C17 UNL     1      15.116  11.562  19.605  1.00  0.00     0.018 A 
HETATM   16  C18 UNL     1      15.020  10.327  20.158  1.00  0.00     0.015 A 
HETATM   17  C26 UNL     1      13.925  10.131  21.016  1.00  0.00     0.018 A 
HETATM   18  C27 UNL     1      13.012  11.115  21.288  1.00  0.00     0.030 A 
BRANCH  16  19
HETATM   19  C19 UNL     1      15.965   9.265  20.019  1.00  0.00     0.149 C 
BRANCH  19  20
HETATM   20  O3  UNL     1      16.299   8.716  21.180  1.00  0.00    -0.346 OA
ATOM     21  H3  UNL     1      16.422   7.775  21.122  1.00  0.00     0.219 HD
ENDBRANCH  19  20
BRANCH  19  22
HETATM   22  N6  UNL     1      16.598   8.702  18.921  1.00  0.00    -0.353 N 
BRANCH  22  23
HETATM   23  C20 UNL     1      17.790   9.403  18.395  1.00  0.00     0.078 C 
HETATM   24  C21 UNL     1      18.612  10.013  19.485  1.00  0.00     0.032 C 
HETATM   25  C22 UNL     1      18.600   8.390  17.580  1.00  0.00     0.032 C 
ENDBRANCH  22  23
BRANCH  22  26
HETATM   26  C23 UNL     1      16.171   7.586  18.159  1.00  0.00     0.078 C 
HETATM   27  C24 UNL     1      15.847   6.390  19.063  1.00  0.00     0.032 C 
HETATM   28  C25 UNL     1      14.853   7.859  17.432  1.00  0.00     0.032 C 
ENDBRANCH  22  26
ENDBRANCH  19  22
ENDBRANCH  16  19
ENDBRANCH  11  13
BRANCH   7  29
HETATM   29  C5  UNL     1       9.629  16.833  22.234  1.00  0.00     0.069 C 
BRANCH  29  30
HETATM   30  C6  UNL     1      10.431  17.146  23.388  1.00  0.00     0.085 A 
HETATM   31  C7  UNL     1      10.594  16.329  24.519  1.00  0.00     0.201 A 
HETATM   32  O2  UNL     1      11.393  16.996  25.341  1.00  0.00    -0.232 OA
HETATM   33  N2  UNL     1      11.715  18.129  24.799  1.00  0.00    -0.195 N 
HETATM   34  N3  UNL     1      11.155  18.251  23.625  1.00  0.00    -0.235 N 
ATOM     35  H2  UNL     1      12.321  18.828  25.229  1.00  0.00     0.217 HD
BRANCH  34  36
HETATM   36  C8  UNL     1      11.271  19.354  22.735  1.00  0.00     0.058 A 
HETATM   37  C9  UNL     1      11.692  19.190  21.423  1.00  0.00     0.031 A 
HETATM   38  C10 UNL     1      11.805  20.257  20.562  1.00  0.00     0.002 A 
HETATM   39  C11 UNL     1      11.499  21.524  20.995  1.00  0.00     0.000 A 
HETATM   40  C12 UNL     1      11.080  21.701  22.293  1.00  0.00     0.002 A 
HETATM   41  C13 UNL     1      10.963  20.639  23.163  1.00  0.00     0.031 A 
ENDBRANCH  34  36
ENDBRANCH  29  30
ENDBRANCH   7  29
TORSDOF 9
ENDMDL
MODEL 2
REMARK VINA RESULT: -7.964759621      0.488      1.792
REMARK  9 active torsions:
REMARK  status: ('A' for Active; 'I' for Inactive)
REMARK    1  A    between atoms: C4_7  and  C5_8 
REMARK    2  A    between atoms: C5_8  and  C6_9 
REMARK    3  A    between atoms: N3_14  and  C8_15 
REMARK    4  A    between atoms: N5_24  and  C15_26 
REMARK    5  A    between atoms: C18_29  and  C19_30 
REMARK    6  A    between atoms: C19_30  and  O3_31 
REMARK    7  A    between atoms: C19_30  and  N6_33 
REMARK    8  A    between atoms: N6_33  and  C20_34 
REMARK    9  A    between atoms: N6_33  and  C23_37 
ROOT
HETATM    1  C1  UNL     1      10.635  12.984  18.879  1.00  0.00     0.047 C 
HETATM    2  C2  UNL     1      10.401  13.919  19.776  1.00  0.00     0.070 A 
HETATM    3  N1  UNL     1       9.334  14.749  19.593  1.00  0.00    -0.319 N 
ATOM      4  H1  UNL     1       8.745  14.620  18.770  1.00  0.00     0.169 HD
HETATM    5  C3  UNL     1       9.033  15.731  20.458  1.00  0.00     0.272 A 
HETATM    6  O1  UNL     1       8.038  16.463  20.234  1.00  0.00    -0.266 OA
HETATM    7  C4  UNL     1       9.790  15.957  21.587  1.00  0.00     0.104 A 
HETATM    8  N4  UNL     1      10.829  15.158  21.775  1.00  0.00    -0.336 N 
ATOM      9  H4  UNL     1      11.408  15.304  22.602  1.00  0.00     0.168 HD
HETATM   10  C14 UNL     1      11.170  14.129  20.899  1.00  0.00     0.133 A 
HETATM   11  N5  UNL     1      12.134  13.455  21.191  1.00  0.00    -0.341 N 
ATOM     12  H5  UNL     1      12.469  13.869  22.061  1.00  0.00     0.167 HD
ENDROOT
BRANCH  11  13
HETATM   13  C15 UNL     1      12.994  12.439  20.961  1.00  0.00     0.033 A 
HETATM   14  C16 UNL     1      12.783  11.176  21.527  1.00  0.00     0.030 A 
HETATM   15  C17 UNL     1      13.651  10.147  21.292  1.00  0.00     0.018 A 
HETATM   16  C18 UNL     1      14.756  10.254  20.513  1.00  0.00     0.015 A 
HETATM   17  C26 UNL     1      14.974  11.520  19.943  1.00  0.00     0.018 A 
HETATM   18  C27 UNL     1      14.133  12.581  20.151  1.00  0.00     0.030 A 
BRANCH  16  19
HETATM   19  C19 UNL     1      15.641   9.192  20.154  1.00  0.00     0.149 C 
BRANCH  19  20
HETATM   20  O3  UNL     1      16.150   8.566  21.209  1.00  0.00    -0.346 OA
ATOM     21  H3  UNL     1      17.092   8.456  21.154  1.00  0.00     0.219 HD
ENDBRANCH  19  20
BRANCH  19  22
HETATM   22  N6  UNL     1      16.071   8.691  18.935  1.00  0.00    -0.353 N 
BRANCH  22  23
HETATM   23  C20 UNL     1      15.152   7.783  18.216  1.00  0.00     0.078 C 
HETATM   24  C21 UNL     1      14.562   6.747  19.120  1.00  0.00     0.032 C 
HETATM   25  C22 UNL     1      14.066   8.643  17.564  1.00  0.00     0.032 C 
ENDBRANCH  22  23
BRANCH  22  26
HETATM   26  C23 UNL     1      17.347   8.853  18.339  1.00  0.00     0.078 C 
HETATM   27  C24 UNL     1      18.147   9.962  19.035  1.00  0.00     0.032 C 
HETATM   28  C25 UNL     1      18.222   7.610  18.511  1.00  0.00     0.032 C 
ENDBRANCH  22  26
ENDBRANCH  19  22
ENDBRANCH  16  19
ENDBRANCH  11  13
BRANCH   7  29
HETATM   29  C5  UNL     1       9.512  16.916  22.466  1.00  0.00     0.069 C 
BRANCH  29  30
HETATM   30  C6  UNL     1      10.344  17.269  23.588  1.00  0.00     0.085 A 
HETATM   31  C7  UNL     1      10.495  16.517  24.764  1.00  0.00     0.201 A 
HETATM   32  O2  UNL     1      11.331  17.202  25.532  1.00  0.00    -0.232 OA
HETATM   33  N2  UNL     1      11.686  18.288  24.917  1.00  0.00    -0.195 N 
HETATM   34  N3  UNL     1      11.111  18.358  23.746  1.00  0.00    -0.235 N 
ATOM     35  H2  UNL     1      12.324  18.988  25.295  1.00  0.00     0.217 HD
BRANCH  34  36
HETATM   36  C8  UNL     1      11.253  19.400  22.788  1.00  0.00     0.058 A 
HETATM   37  C9  UNL     1      11.689  19.145  21.495  1.00  0.00     0.031 A 
HETATM   38  C10 UNL     1      11.828  20.152  20.568  1.00  0.00     0.002 A 
HETATM   39  C11 UNL     1      11.533  21.449  20.914  1.00  0.00     0.000 A 
HETATM   40  C12 UNL     1      11.100  21.715  22.192  1.00  0.00     0.002 A 
HETATM   41  C13 UNL     1      10.957  20.714  23.128  1.00  0.00     0.031 A 
ENDBRANCH  34  36
ENDBRANCH  29  30
ENDBRANCH   7  29
TORSDOF 9
ENDMDL
MODEL 3
REMARK VINA RESULT: -7.841065700      5.298     10.559
REMARK  9 active torsions:
REMARK  status: ('A' for Active; 'I' for Inactive)
REMARK    1  A    between atoms: C4_7  and  C5_8 
REMARK    2  A    between atoms: C5_8  and  C6_9 
REMARK    3  A    between atoms: N3_14  and  C8_15 
REMARK    4  A    between atoms: N5_24  and  C15_26 
REMARK    5  A    between atoms: C18_29  and  C19_30 
REMARK    6  A    between atoms: C19_30  and  O3_31 
REMARK    7  A    between atoms: C19_30  and  N6_33 
REMARK    8  A    between atoms: N6_33  and  C20_34 
REMARK    9  A    between atoms: N6_33  and  C23_37 
ROOT
HETATM    1  C1  UNL     1      11.490  13.187  27.274  1.00  0.00     0.047 C 
HETATM    2  C2  UNL     1      11.579  13.654  26.046  1.00  0.00     0.070 A 
HETATM    3  N1  UNL     1      11.429  12.786  25.004  1.00  0.00    -0.319 N 
ATOM      4  H1  UNL     1      11.247  11.803  25.203  1.00  0.00     0.169 HD
HETATM    5  C3  UNL     1      11.513  13.184  23.724  1.00  0.00     0.272 A 
HETATM    6  O1  UNL     1      11.366  12.337  22.807  1.00  0.00    -0.266 OA
HETATM    7  C4  UNL     1      11.758  14.497  23.389  1.00  0.00     0.104 A 
HETATM    8  N4  UNL     1      11.907  15.348  24.392  1.00  0.00    -0.336 N 
ATOM      9  H4  UNL     1      12.091  16.328  24.173  1.00  0.00     0.168 HD
HETATM   10  C14 UNL     1      11.825  14.972  25.732  1.00  0.00     0.133 A 
HETATM   11  N5  UNL     1      11.961  15.848  26.558  1.00  0.00    -0.341 N 
ATOM     12  H5  UNL     1      12.128  16.686  26.002  1.00  0.00     0.167 HD
ENDROOT
BRANCH  11  13
HETATM   13  C15 UNL     1      12.006  16.287  27.834  1.00  0.00     0.033 A 
HETATM   14  C16 UNL     1      10.868  16.824  28.450  1.00  0.00     0.030 A 
HETATM   15  C17 UNL     1      10.912  17.266  29.742  1.00  0.00     0.018 A 
HETATM   16  C18 UNL     1      12.024  17.224  30.518  1.00  0.00     0.015 A 
HETATM   17  C26 UNL     1      13.170  16.689  29.905  1.00  0.00     0.018 A 
HETATM   18  C27 UNL     1      13.174  16.235  28.613  1.00  0.00     0.030 A 
BRANCH  16  19
HETATM   19  C19 UNL     1      12.103  17.580  31.899  1.00  0.00     0.149 C 
BRANCH  19  20
HETATM   20  O3  UNL     1      11.209  16.945  32.647  1.00  0.00    -0.346 OA
ATOM     21  H3  UNL     1      10.518  17.515  32.961  1.00  0.00     0.219 HD
ENDBRANCH  19  20
BRANCH  19  22
HETATM   22  N6  UNL     1      12.920  18.451  32.604  1.00  0.00    -0.353 N 
BRANCH  22  23
HETATM   23  C20 UNL     1      13.726  17.879  33.705  1.00  0.00     0.078 C 
HETATM   24  C21 UNL     1      14.979  17.231  33.206  1.00  0.00     0.032 C 
HETATM   25  C22 UNL     1      14.034  19.010  34.690  1.00  0.00     0.032 C 
ENDBRANCH  22  23
BRANCH  22  26
HETATM   26  C23 UNL     1      12.991  19.861  32.476  1.00  0.00     0.078 C 
HETATM   27  C24 UNL     1      13.647  20.263  31.149  1.00  0.00     0.032 C 
HETATM   28  C25 UNL     1      11.604  20.501  32.405  1.00  0.00     0.032 C 
ENDBRANCH  22  26
ENDBRANCH  19  22
ENDBRANCH  16  19
ENDBRANCH  11  13
BRANCH   7  29
HETATM   29  C5  UNL     1      11.839  14.922  22.130  1.00  0.00     0.069 C 
BRANCH  29  30
HETATM   30  C6  UNL     1      10.717  15.341  21.331  1.00  0.00     0.085 A 
HETATM   31  C7  UNL     1      10.148  14.615  20.272  1.00  0.00     0.201 A 
HETATM   32  O2  UNL     1       9.157  15.362  19.806  1.00  0.00    -0.232 OA
HETATM   33  N2  UNL     1       9.091  16.461  20.491  1.00  0.00    -0.195 N 
HETATM   34  N3  UNL     1      10.014  16.480  21.415  1.00  0.00    -0.235 N 
ATOM     35  H2  UNL     1       8.413  17.206  20.330  1.00  0.00     0.217 HD
BRANCH  34  36
HETATM   36  C8  UNL     1      10.255  17.518  22.358  1.00  0.00     0.058 A 
HETATM   37  C9  UNL     1       9.591  17.564  23.576  1.00  0.00     0.031 A 
HETATM   38  C10 UNL     1       9.824  18.567  24.487  1.00  0.00     0.002 A 
HETATM   39  C11 UNL     1      10.731  19.558  24.201  1.00  0.00     0.000 A 
HETATM   40  C12 UNL     1      11.396  19.525  22.997  1.00  0.00     0.002 A 
HETATM   41  C13 UNL     1      11.171  18.524  22.078  1.00  0.00     0.031 A 
ENDBRANCH  34  36
ENDBRANCH  29  30
ENDBRANCH   7  29
TORSDOF 9
ENDMDL
MODEL 4
REMARK VINA RESULT: -7.790554785      5.289     10.659
REMARK  9 active torsions:
REMARK  status: ('A' for Active; 'I' for Inactive)
REMARK    1  A    between atoms: C4_7  and  C5_8 
REMARK    2  A    between atoms: C5_8  and  C6_9 
REMARK    3  A    between atoms: N3_14  and  C8_15 
REMARK    4  A    between atoms: N5_24  and  C15_26 
REMARK    5  A    between atoms: C18_29  and  C19_30 
REMARK    6  A    between atoms: C19_30  and  O3_31 
REMARK    7  A    between atoms: C19_30  and  N6_33 
REMARK    8  A    between atoms: N6_33  and  C20_34 
REMARK    9  A    between atoms: N6_33  and  C23_37 
ROOT
HETATM    1  C1  UNL     1      11.711  13.534  27.373  1.00  0.00     0.047 C 
HETATM    2  C2  UNL     1      11.753  13.930  26.118  1.00  0.00     0.070 A 
HETATM    3  N1  UNL     1      11.415  13.041  25.140  1.00  0.00    -0.319 N 
ATOM      4  H1  UNL     1      11.134  12.097  25.408  1.00  0.00     0.169 HD
HETATM    5  C3  UNL     1      11.439  13.366  23.838  1.00  0.00     0.272 A 
HETATM    6  O1  UNL     1      11.117  12.503  22.984  1.00  0.00    -0.266 OA
HETATM    7  C4  UNL     1      11.810  14.623  23.413  1.00  0.00     0.104 A 
HETATM    8  N4  UNL     1      12.142  15.494  24.353  1.00  0.00    -0.336 N 
ATOM      9  H4  UNL     1      12.422  16.432  24.067  1.00  0.00     0.168 HD
HETATM   10  C14 UNL     1      12.127  15.192  25.714  1.00  0.00     0.133 A 
HETATM   11  N5  UNL     1      12.435  16.081  26.477  1.00  0.00    -0.341 N 
ATOM     12  H5  UNL     1      12.654  16.866  25.865  1.00  0.00     0.167 HD
ENDROOT
BRANCH  11  13
HETATM   13  C15 UNL     1      12.637  16.569  27.720  1.00  0.00     0.033 A 
HETATM   14  C16 UNL     1      11.584  17.132  28.452  1.00  0.00     0.030 A 
HETATM   15  C17 UNL     1      11.788  17.624  29.711  1.00  0.00     0.018 A 
HETATM   16  C18 UNL     1      12.988  17.609  30.343  1.00  0.00     0.015 A 
HETATM   17  C26 UNL     1      14.050  17.048  29.612  1.00  0.00     0.018 A 
HETATM   18  C27 UNL     1      13.894  16.544  28.348  1.00  0.00     0.030 A 
BRANCH  16  19
HETATM   19  C19 UNL     1      13.238  18.018  31.688  1.00  0.00     0.149 C 
BRANCH  19  20
HETATM   20  O3  UNL     1      14.492  17.801  32.068  1.00  0.00    -0.346 OA
ATOM     21  H3  UNL     1      14.679  18.143  32.935  1.00  0.00     0.219 HD
ENDBRANCH  19  20
BRANCH  19  22
HETATM   22  N6  UNL     1      12.438  18.589  32.666  1.00  0.00    -0.353 N 
BRANCH  22  23
HETATM   23  C20 UNL     1      12.706  20.000  33.020  1.00  0.00     0.078 C 
HETATM   24  C21 UNL     1      11.862  20.949  32.229  1.00  0.00     0.032 C 
HETATM   25  C22 UNL     1      12.465  20.153  34.524  1.00  0.00     0.032 C 
ENDBRANCH  22  23
BRANCH  22  26
HETATM   26  C23 UNL     1      11.457  17.945  33.461  1.00  0.00     0.078 C 
HETATM   27  C24 UNL     1      10.096  17.927  32.755  1.00  0.00     0.032 C 
HETATM   28  C25 UNL     1      11.775  16.464  33.676  1.00  0.00     0.032 C 
ENDBRANCH  22  26
ENDBRANCH  19  22
ENDBRANCH  16  19
ENDBRANCH  11  13
BRANCH   7  29
HETATM   29  C5  UNL     1      11.837  14.976  22.130  1.00  0.00     0.069 C 
BRANCH  29  30
HETATM   30  C6  UNL     1      10.686  15.387  21.367  1.00  0.00     0.085 A 
HETATM   31  C7  UNL     1      10.096  14.661  20.320  1.00  0.00     0.201 A 
HETATM   32  O2  UNL     1       9.082  15.399  19.888  1.00  0.00    -0.232 OA
HETATM   33  N2  UNL     1       9.021  16.491  20.585  1.00  0.00    -0.195 N 
HETATM   34  N3  UNL     1       9.970  16.515  21.482  1.00  0.00    -0.235 N 
ATOM     35  H2  UNL     1       8.329  17.228  20.450  1.00  0.00     0.217 HD
BRANCH  34  36
HETATM   36  C8  UNL     1      10.225  17.548  22.426  1.00  0.00     0.058 A 
HETATM   37  C9  UNL     1       9.573  17.592  23.651  1.00  0.00     0.031 A 
HETATM   38  C10 UNL     1       9.819  18.591  24.564  1.00  0.00     0.002 A 
HETATM   39  C11 UNL     1      10.727  19.580  24.272  1.00  0.00     0.000 A 
HETATM   40  C12 UNL     1      11.380  19.549  23.062  1.00  0.00     0.002 A 
HETATM   41  C13 UNL     1      11.142  18.552  22.141  1.00  0.00     0.031 A 
ENDBRANCH  34  36
ENDBRANCH  29  30
ENDBRANCH   7  29
TORSDOF 9
ENDMDL
MODEL 5
REMARK VINA RESULT: -7.763956080      6.112     11.814
REMARK  9 active torsions:
REMARK  status: ('A' for Active; 'I' for Inactive)
REMARK    1  A    between atoms: C4_7  and  C5_8 
REMARK    2  A    between atoms: C5_8  and  C6_9 
REMARK    3  A    between atoms: N3_14  and  C8_15 
REMARK    4  A    between atoms: N5_24  and  C15_26 
REMARK    5  A    between atoms: C18_29  and  C19_30 
REMARK    6  A    between atoms: C19_30  and  O3_31 
REMARK    7  A    between atoms: C19_30  and  N6_33 
REMARK    8  A    between atoms: N6_33  and  C20_34 
REMARK    9  A    between atoms: N6_33  and  C23_37 
ROOT
HETATM    1  C1  UNL     1      12.686  14.491  29.041  1.00  0.00     0.047 C 
HETATM    2  C2  UNL     1      12.583  14.675  27.741  1.00  0.00     0.070 A 
HETATM    3  N1  UNL     1      12.611  13.584  26.922  1.00  0.00    -0.319 N 
ATOM      4  H1  UNL     1      12.706  12.658  27.338  1.00  0.00     0.169 HD
HETATM    5  C3  UNL     1      12.519  13.689  25.587  1.00  0.00     0.272 A 
HETATM    6  O1  UNL     1      12.551  12.648  24.885  1.00  0.00    -0.266 OA
HETATM    7  C4  UNL     1      12.390  14.912  24.964  1.00  0.00     0.104 A 
HETATM    8  N4  UNL     1      12.362  15.977  25.749  1.00  0.00    -0.336 N 
ATOM      9  H4  UNL     1      12.269  16.896  25.315  1.00  0.00     0.168 HD
HETATM   10  C14 UNL     1      12.454  15.907  27.138  1.00  0.00     0.133 A 
HETATM   11  N5  UNL     1      12.399  16.953  27.747  1.00  0.00    -0.341 N 
ATOM     12  H5  UNL     1      12.309  17.658  27.016  1.00  0.00     0.167 HD
ENDROOT
BRANCH  11  13
HETATM   13  C15 UNL     1      12.394  17.667  28.893  1.00  0.00     0.033 A 
HETATM   14  C16 UNL     1      13.468  18.504  29.223  1.00  0.00     0.030 A 
HETATM   15  C17 UNL     1      13.463  19.229  30.381  1.00  0.00     0.018 A 
HETATM   16  C18 UNL     1      12.449  19.206  31.283  1.00  0.00     0.015 A 
HETATM   17  C26 UNL     1      11.370  18.366  30.958  1.00  0.00     0.018 A 
HETATM   18  C27 UNL     1      11.332  17.620  29.811  1.00  0.00     0.030 A 
BRANCH  16  19
HETATM   19  C19 UNL     1      12.346  20.013  32.456  1.00  0.00     0.149 C 
BRANCH  19  20
HETATM   20  O3  UNL     1      12.749  21.263  32.260  1.00  0.00    -0.346 OA
ATOM     21  H3  UNL     1      13.236  21.614  32.996  1.00  0.00     0.219 HD
ENDBRANCH  19  20
BRANCH  19  22
HETATM   22  N6  UNL     1      11.914  19.751  33.747  1.00  0.00    -0.353 N 
BRANCH  22  23
HETATM   23  C20 UNL     1      10.734  20.501  34.230  1.00  0.00     0.078 C 
HETATM   24  C21 UNL     1       9.453  19.785  33.937  1.00  0.00     0.032 C 
HETATM   25  C22 UNL     1      10.916  20.732  35.733  1.00  0.00     0.032 C 
ENDBRANCH  22  23
BRANCH  22  26
HETATM   26  C23 UNL     1      12.542  18.928  34.716  1.00  0.00     0.078 C 
HETATM   27  C24 UNL     1      12.212  17.449  34.483  1.00  0.00     0.032 C 
HETATM   28  C25 UNL     1      14.067  18.982  34.611  1.00  0.00     0.032 C 
ENDBRANCH  22  26
ENDBRANCH  19  22
ENDBRANCH  16  19
ENDBRANCH  11  13
BRANCH   7  29
HETATM   29  C5  UNL     1      12.289  15.046  23.644  1.00  0.00     0.069 C 
BRANCH  29  30
HETATM   30  C6  UNL     1      11.054  14.995  22.906  1.00  0.00     0.085 A 
HETATM   31  C7  UNL     1      10.506  13.851  22.304  1.00  0.00     0.201 A 
HETATM   32  O2  UNL     1       9.381  14.245  21.722  1.00  0.00    -0.232 OA
HETATM   33  N2  UNL     1       9.217  15.515  21.925  1.00  0.00    -0.195 N 
HETATM   34  N3  UNL     1      10.204  15.996  22.633  1.00  0.00    -0.235 N 
ATOM     35  H2  UNL     1       8.428  16.062  21.580  1.00  0.00     0.217 HD
BRANCH  34  36
HETATM   36  C8  UNL     1      10.374  17.345  23.052  1.00  0.00     0.058 A 
HETATM   37  C9  UNL     1      11.140  18.243  22.323  1.00  0.00     0.031 A 
HETATM   38  C10 UNL     1      11.305  19.547  22.727  1.00  0.00     0.002 A 
HETATM   39  C11 UNL     1      10.704  19.989  23.881  1.00  0.00     0.000 A 
HETATM   40  C12 UNL     1       9.941  19.110  24.614  1.00  0.00     0.002 A 
HETATM   41  C13 UNL     1       9.770  17.802  24.217  1.00  0.00     0.031 A 
ENDBRANCH  34  36
ENDBRANCH  29  30
ENDBRANCH   7  29
TORSDOF 9
ENDMDL
