MODEL 1
REMARK VINA RESULT: -6.007481381      0.000      0.000
REMARK  3 active torsions:
REMARK  status: ('A' for Active; 'I' for Inactive)
REMARK    1  A    between atoms: C2_2  and  N1_3 
REMARK    2  A    between atoms: C3_5  and  N2_6 
REMARK    3  A    between atoms: N3_8  and  N4_10 
ROOT
HETATM    1  N2  UNL     1      30.757  18.010  16.501  1.00  0.00    -0.282 N 
ATOM      2  H2  UNL     1      30.064  18.041  17.249  1.00  0.00     0.189 HD
HETATM    3  N3  UNL     1      31.897  18.512  16.650  1.00  0.00    -0.243 N 
ATOM      4  H3  UNL     1      32.552  18.452  15.871  1.00  0.00     0.208 HD
ENDROOT
BRANCH   3   5
HETATM    5  N4  UNL     1      32.329  19.148  17.822  1.00  0.00    -0.305 N 
HETATM    6  C4  UNL     1      32.120  18.418  19.060  1.00  0.00     0.100 C 
HETATM    7  C5  UNL     1      32.477  16.965  18.929  1.00  0.00     0.034 C 
HETATM    8  C6  UNL     1      32.999  19.059  20.108  1.00  0.00     0.026 C 
HETATM    9  C7  UNL     1      32.533  20.493  20.263  1.00  0.00     0.004 C 
HETATM   10  C8  UNL     1      32.641  21.284  18.998  1.00  0.00     0.026 C 
HETATM   11  C9  UNL     1      32.948  20.462  17.786  1.00  0.00     0.100 C 
HETATM   12  C10 UNL     1      34.437  20.373  17.504  1.00  0.00     0.034 C 
ENDBRANCH   3   5
BRANCH   1  13
HETATM   13  C3  UNL     1      30.467  17.398  15.250  1.00  0.00     0.194 C 
HETATM   14  N1  UNL     1      30.356  16.116  15.233  1.00  0.00    -0.385 N 
ATOM     15  H1  UNL     1      30.476  15.582  16.094  1.00  0.00     0.160 HD
BRANCH  14  16
HETATM   16  C2  UNL     1      30.062  15.434  13.993  1.00  0.00     0.116 C 
HETATM   17  C1  UNL     1      29.302  14.163  14.302  1.00  0.00     0.026 C 
ENDBRANCH  14  16
ENDBRANCH   1  13
TORSDOF 3
ENDMDL
MODEL 2
REMARK VINA RESULT: -5.726639363      9.016     13.895
REMARK  3 active torsions:
REMARK  status: ('A' for Active; 'I' for Inactive)
REMARK    1  A    between atoms: C2_2  and  N1_3 
REMARK    2  A    between atoms: C3_5  and  N2_6 
REMARK    3  A    between atoms: N3_8  and  N4_10 
ROOT
HETATM    1  N2  UNL     1      27.657   8.029  13.863  1.00  0.00    -0.282 N 
ATOM      2  H2  UNL     1      26.846   7.750  14.414  1.00  0.00     0.189 HD
HETATM    3  N3  UNL     1      28.319   7.188  13.207  1.00  0.00    -0.243 N 
ATOM      4  H3  UNL     1      29.120   7.522  12.672  1.00  0.00     0.208 HD
ENDROOT
BRANCH   3   5
HETATM    5  N4  UNL     1      28.026   5.819  13.165  1.00  0.00    -0.305 N 
HETATM    6  C4  UNL     1      26.747   5.456  12.579  1.00  0.00     0.100 C 
HETATM    7  C5  UNL     1      26.458   6.232  11.326  1.00  0.00     0.034 C 
HETATM    8  C6  UNL     1      26.809   3.981  12.255  1.00  0.00     0.026 C 
HETATM    9  C7  UNL     1      27.009   3.247  13.565  1.00  0.00     0.004 C 
HETATM   10  C8  UNL     1      28.271   3.635  14.268  1.00  0.00     0.026 C 
HETATM   11  C9  UNL     1      28.957   4.829  13.681  1.00  0.00     0.100 C 
HETATM   12  C10 UNL     1      30.003   4.451  12.648  1.00  0.00     0.034 C 
ENDBRANCH   3   5
BRANCH   1  13
HETATM   13  C3  UNL     1      28.081   9.387  13.807  1.00  0.00     0.194 C 
HETATM   14  N1  UNL     1      27.659  10.175  14.732  1.00  0.00    -0.385 N 
ATOM     15  H1  UNL     1      27.046   9.818  15.466  1.00  0.00     0.160 HD
BRANCH  14  16
HETATM   16  C2  UNL     1      28.053  11.565  14.731  1.00  0.00     0.116 C 
HETATM   17  C1  UNL     1      28.423  11.968  13.320  1.00  0.00     0.026 C 
ENDBRANCH  14  16
ENDBRANCH   1  13
TORSDOF 3
ENDMDL
MODEL 3
REMARK VINA RESULT: -5.538796422      3.019      5.837
REMARK  3 active torsions:
REMARK  status: ('A' for Active; 'I' for Inactive)
REMARK    1  A    between atoms: C2_2  and  N1_3 
REMARK    2  A    between atoms: C3_5  and  N2_6 
REMARK    3  A    between atoms: N3_8  and  N4_10 
ROOT
HETATM    1  N2  UNL     1      33.831  21.636  17.407  1.00  0.00    -0.282 N 
ATOM      2  H2  UNL     1      32.839  21.870  17.439  1.00  0.00     0.189 HD
HETATM    3  N3  UNL     1      34.247  20.514  17.785  1.00  0.00    -0.243 N 
ATOM      4  H3  UNL     1      35.249  20.332  17.730  1.00  0.00     0.208 HD
ENDROOT
BRANCH   3   5
HETATM    5  N4  UNL     1      33.421  19.495  18.278  1.00  0.00    -0.305 N 
HETATM    6  C4  UNL     1      33.295  19.417  19.723  1.00  0.00     0.100 C 
HETATM    7  C5  UNL     1      33.121  20.770  20.351  1.00  0.00     0.034 C 
HETATM    8  C6  UNL     1      32.082  18.565  20.019  1.00  0.00     0.026 C 
HETATM    9  C7  UNL     1      32.355  17.190  19.444  1.00  0.00     0.004 C 
HETATM   10  C8  UNL     1      32.579  17.207  17.965  1.00  0.00     0.026 C 
HETATM   11  C9  UNL     1      32.735  18.577  17.385  1.00  0.00     0.100 C 
HETATM   12  C10 UNL     1      31.420  19.154  16.890  1.00  0.00     0.034 C 
ENDBRANCH   3   5
BRANCH   1  13
HETATM   13  C3  UNL     1      34.795  22.568  16.931  1.00  0.00     0.194 C 
HETATM   14  N1  UNL     1      36.002  22.146  16.786  1.00  0.00    -0.385 N 
ATOM     15  H1  UNL     1      36.234  21.178  17.009  1.00  0.00     0.160 HD
BRANCH  14  16
HETATM   16  C2  UNL     1      37.028  23.044  16.306  1.00  0.00     0.116 C 
HETATM   17  C1  UNL     1      36.481  23.831  15.136  1.00  0.00     0.026 C 
ENDBRANCH  14  16
ENDBRANCH   1  13
TORSDOF 3
ENDMDL
MODEL 4
REMARK VINA RESULT: -5.495816579      3.435      8.608
REMARK  3 active torsions:
REMARK  status: ('A' for Active; 'I' for Inactive)
REMARK    1  A    between atoms: C2_2  and  N1_3 
REMARK    2  A    between atoms: C3_5  and  N2_6 
REMARK    3  A    between atoms: N3_8  and  N4_10 
ROOT
HETATM    1  N2  UNL     1      29.976  14.356  13.390  1.00  0.00    -0.282 N 
ATOM      2  H2  UNL     1      30.384  13.915  12.565  1.00  0.00     0.189 HD
HETATM    3  N3  UNL     1      29.207  13.722  14.152  1.00  0.00    -0.243 N 
ATOM      4  H3  UNL     1      28.828  14.210  14.963  1.00  0.00     0.208 HD
ENDROOT
BRANCH   3   5
HETATM    5  N4  UNL     1      28.835  12.385  13.958  1.00  0.00    -0.305 N 
HETATM    6  C4  UNL     1      28.354  11.678  15.133  1.00  0.00     0.100 C 
HETATM    7  C5  UNL     1      27.410  12.514  15.950  1.00  0.00     0.034 C 
HETATM    8  C6  UNL     1      27.636  10.441  14.645  1.00  0.00     0.026 C 
HETATM    9  C7  UNL     1      28.657   9.596  13.910  1.00  0.00     0.004 C 
HETATM   10  C8  UNL     1      29.259  10.297  12.733  1.00  0.00     0.026 C 
HETATM   11  C9  UNL     1      28.930  11.754  12.653  1.00  0.00     0.100 C 
HETATM   12  C10 UNL     1      27.699  12.028  11.807  1.00  0.00     0.034 C 
ENDBRANCH   3   5
BRANCH   1  13
HETATM   13  C3  UNL     1      30.259  15.711  13.720  1.00  0.00     0.194 C 
HETATM   14  N1  UNL     1      30.000  16.091  14.922  1.00  0.00    -0.385 N 
ATOM     15  H1  UNL     1      29.609  15.430  15.593  1.00  0.00     0.160 HD
BRANCH  14  16
HETATM   16  C2  UNL     1      30.264  17.455  15.320  1.00  0.00     0.116 C 
HETATM   17  C1  UNL     1      31.402  17.462  16.317  1.00  0.00     0.026 C 
ENDBRANCH  14  16
ENDBRANCH   1  13
TORSDOF 3
ENDMDL
MODEL 5
REMARK VINA RESULT: -5.453916878      1.401      6.158
REMARK  3 active torsions:
REMARK  status: ('A' for Active; 'I' for Inactive)
REMARK    1  A    between atoms: C2_2  and  N1_3 
REMARK    2  A    between atoms: C3_5  and  N2_6 
REMARK    3  A    between atoms: N3_8  and  N4_10 
ROOT
HETATM    1  N2  UNL     1      31.509  18.133  16.646  1.00  0.00    -0.282 N 
ATOM      2  H2  UNL     1      31.595  18.516  15.704  1.00  0.00     0.189 HD
HETATM    3  N3  UNL     1      30.915  17.047  16.854  1.00  0.00    -0.243 N 
ATOM      4  H3  UNL     1      30.860  16.709  17.815  1.00  0.00     0.208 HD
ENDROOT
BRANCH   3   5
HETATM    5  N4  UNL     1      30.324  16.270  15.850  1.00  0.00    -0.305 N 
HETATM    6  C4  UNL     1      29.735  15.012  16.278  1.00  0.00     0.100 C 
HETATM    7  C5  UNL     1      28.949  15.157  17.549  1.00  0.00     0.034 C 
HETATM    8  C6  UNL     1      28.818  14.550  15.169  1.00  0.00     0.026 C 
HETATM    9  C7  UNL     1      29.679  14.332  13.942  1.00  0.00     0.004 C 
HETATM   10  C8  UNL     1      30.386  15.572  13.493  1.00  0.00     0.026 C 
HETATM   11  C9  UNL     1      30.305  16.708  14.465  1.00  0.00     0.100 C 
HETATM   12  C10 UNL     1      29.135  17.633  14.185  1.00  0.00     0.034 C 
ENDBRANCH   3   5
BRANCH   1  13
HETATM   13  C3  UNL     1      32.058  18.808  17.771  1.00  0.00     0.194 C 
HETATM   14  N1  UNL     1      32.106  20.093  17.722  1.00  0.00    -0.385 N 
ATOM     15  H1  UNL     1      31.758  20.586  16.899  1.00  0.00     0.160 HD
BRANCH  14  16
HETATM   16  C2  UNL     1      32.653  20.838  18.834  1.00  0.00     0.116 C 
HETATM   17  C1  UNL     1      32.670  19.948  20.057  1.00  0.00     0.026 C 
ENDBRANCH  14  16
ENDBRANCH   1  13
TORSDOF 3
ENDMDL
