MODEL 1
REMARK VINA RESULT: -8.165320571      0.000      0.000
REMARK  10 active torsions:
REMARK  status: ('A' for Active; 'I' for Inactive)
REMARK    1  A    between atoms: C2_2  and  O1_5 
REMARK    2  A    between atoms: O1_5  and  C5_6 
REMARK    3  A    between atoms: C5_6  and  C6_7 
REMARK    4  A    between atoms: C5_6  and  N1_9 
REMARK    5  A    between atoms: N1_9  and  C7_11 
REMARK    6  A    between atoms: N2_13  and  C9_14 
REMARK    7  A    between atoms: C9_14  and  C10_15 
REMARK    8  A    between atoms: C15_23  and  C16_24 
REMARK    9  A    between atoms: C17_25  and  C18_26 
REMARK   10  A    between atoms: C21_31  and  N5_32 
ROOT
HETATM    1  C7  UNL     1       5.062  32.756  25.781  1.00  0.00     0.084 A 
HETATM    2  C8  UNL     1       3.708  32.780  25.924  1.00  0.00     0.142 A 
HETATM    3  N2  UNL     1       3.132  32.024  24.928  1.00  0.00    -0.300 N 
HETATM    4  N3  UNL     1       4.114  31.559  24.209  1.00  0.00    -0.289 N 
ATOM      5  H3  UNL     1       3.985  30.960  23.394  1.00  0.00     0.188 HD
HETATM    6  C15 UNL     1       5.303  31.952  24.656  1.00  0.00     0.130 A 
ENDROOT
BRANCH   6   7
HETATM    7  C16 UNL     1       6.604  31.644  24.128  1.00  0.00    -0.038 C 
HETATM    8  C17 UNL     1       7.702  31.371  23.693  1.00  0.00    -0.041 C 
BRANCH   8   9
HETATM    9  C18 UNL     1       9.003  31.040  23.181  1.00  0.00     0.104 A 
HETATM   10  C19 UNL     1       9.632  29.898  23.634  1.00  0.00     0.057 A 
HETATM   11  C20 UNL     1      10.877  29.594  23.135  1.00  0.00     0.109 A 
HETATM   12  N4  UNL     1      11.486  30.374  22.227  1.00  0.00    -0.202 N 
HETATM   13  C21 UNL     1      10.866  31.477  21.796  1.00  0.00     0.676 A 
ATOM     14  H4  UNL     1      12.410  30.128  21.871  1.00  0.00     0.183 HD
HETATM   15  N6  UNL     1       9.642  31.791  22.277  1.00  0.00    -0.184 N 
ATOM     16  H6  UNL     1       9.186  32.637  21.936  1.00  0.00     0.185 HD
BRANCH  13  17
HETATM   17  N5  UNL     1      11.415  32.243  20.934  1.00  0.00    -0.234 N 
ATOM     18  H52 UNL     1      10.939  32.422  20.049  1.00  0.00     0.174 HD
ATOM     19  H51 UNL     1      12.319  32.678  21.120  1.00  0.00     0.174 HD
ENDBRANCH  13  17
ENDBRANCH   8   9
ENDBRANCH   6   7
BRANCH   1  20
HETATM   20  N1  UNL     1       6.039  33.368  26.601  1.00  0.00    -0.358 N 
ATOM     21  H1  UNL     1       6.353  32.838  27.414  1.00  0.00     0.162 HD
BRANCH  20  22
HETATM   22  C5  UNL     1       6.633  34.662  26.402  1.00  0.00     0.251 C 
BRANCH  22  23
HETATM   23  O1  UNL     1       6.118  35.223  25.274  1.00  0.00    -0.355 OA
BRANCH  23  24
HETATM   24  C2  UNL     1       5.399  36.360  25.400  1.00  0.00     0.052 C 
HETATM   25  C1  UNL     1       6.253  37.510  24.854  1.00  0.00     0.045 C 
HETATM   26  C3  UNL     1       4.978  36.741  26.777  1.00  0.00     0.045 C 
HETATM   27  C4  UNL     1       4.184  36.281  24.499  1.00  0.00     0.045 C 
ENDBRANCH  23  24
ENDBRANCH  22  23
BRANCH  22  28
HETATM   28  C6  UNL     1       8.131  34.575  26.304  1.00  0.00     0.275 C 
HETATM   29  F1  UNL     1       8.568  34.282  25.043  1.00  0.00    -0.251 F 
ENDBRANCH  22  28
ENDBRANCH  20  22
ENDBRANCH   1  20
BRANCH   3  30
HETATM   30  C9  UNL     1       1.734  31.784  24.735  1.00  0.00     0.153 C 
BRANCH  30  31
HETATM   31  C10 UNL     1       0.937  32.918  25.300  1.00  0.00     0.009 C 
HETATM   32  C11 UNL     1      -0.440  32.357  25.638  1.00  0.00     0.032 C 
HETATM   33  C12 UNL     1      -1.393  32.764  24.543  1.00  0.00     0.168 C 
HETATM   34  O2  UNL     1      -0.801  32.618  23.307  1.00  0.00    -0.391 OA
HETATM   35  C13 UNL     1       0.056  33.706  23.113  1.00  0.00     0.168 C 
HETATM   36  C14 UNL     1       0.835  34.075  24.354  1.00  0.00     0.032 C 
ENDBRANCH  30  31
ENDBRANCH   3  30
TORSDOF 10
ENDMDL
MODEL 2
REMARK VINA RESULT: -8.112963132      2.544      7.794
REMARK  10 active torsions:
REMARK  status: ('A' for Active; 'I' for Inactive)
REMARK    1  A    between atoms: C2_2  and  O1_5 
REMARK    2  A    between atoms: O1_5  and  C5_6 
REMARK    3  A    between atoms: C5_6  and  C6_7 
REMARK    4  A    between atoms: C5_6  and  N1_9 
REMARK    5  A    between atoms: N1_9  and  C7_11 
REMARK    6  A    between atoms: N2_13  and  C9_14 
REMARK    7  A    between atoms: C9_14  and  C10_15 
REMARK    8  A    between atoms: C15_23  and  C16_24 
REMARK    9  A    between atoms: C17_25  and  C18_26 
REMARK   10  A    between atoms: C21_31  and  N5_32 
ROOT
HETATM    1  C7  UNL     1       5.586  32.822  26.077  1.00  0.00     0.084 A 
HETATM    2  C8  UNL     1       6.858  32.372  25.895  1.00  0.00     0.142 A 
HETATM    3  N2  UNL     1       6.819  31.105  25.357  1.00  0.00    -0.300 N 
HETATM    4  N3  UNL     1       5.559  30.806  25.220  1.00  0.00    -0.289 N 
ATOM      5  H3  UNL     1       5.225  29.920  24.841  1.00  0.00     0.188 HD
HETATM    6  C15 UNL     1       4.756  31.783  25.629  1.00  0.00     0.130 A 
ENDROOT
BRANCH   6   7
HETATM    7  C16 UNL     1       3.319  31.819  25.632  1.00  0.00    -0.038 C 
HETATM    8  C17 UNL     1       2.108  31.857  25.649  1.00  0.00    -0.041 C 
BRANCH   8   9
HETATM    9  C18 UNL     1       0.672  31.907  25.676  1.00  0.00     0.104 A 
HETATM   10  C19 UNL     1      -0.004  32.408  24.582  1.00  0.00     0.057 A 
HETATM   11  C20 UNL     1      -1.378  32.449  24.623  1.00  0.00     0.109 A 
HETATM   12  N4  UNL     1      -2.068  32.017  25.691  1.00  0.00    -0.202 N 
HETATM   13  C21 UNL     1      -1.402  31.534  26.744  1.00  0.00     0.676 A 
ATOM     14  H4  UNL     1      -3.087  32.057  25.698  1.00  0.00     0.183 HD
HETATM   15  N6  UNL     1      -0.052  31.487  26.721  1.00  0.00    -0.184 N 
ATOM     16  H6  UNL     1       0.438  31.116  27.535  1.00  0.00     0.185 HD
BRANCH  13  17
HETATM   17  N5  UNL     1      -2.025  31.115  27.778  1.00  0.00    -0.234 N 
ATOM     18  H52 UNL     1      -2.919  30.637  27.663  1.00  0.00     0.174 HD
ATOM     19  H51 UNL     1      -1.639  31.251  28.712  1.00  0.00     0.174 HD
ENDBRANCH  13  17
ENDBRANCH   8   9
ENDBRANCH   6   7
BRANCH   1  20
HETATM   20  N1  UNL     1       5.167  34.079  26.572  1.00  0.00    -0.358 N 
ATOM     21  H1  UNL     1       4.897  34.119  27.555  1.00  0.00     0.162 HD
BRANCH  20  22
HETATM   22  C5  UNL     1       5.083  35.307  25.828  1.00  0.00     0.251 C 
BRANCH  22  23
HETATM   23  O1  UNL     1       4.062  35.219  24.932  1.00  0.00    -0.355 OA
BRANCH  23  24
HETATM   24  C2  UNL     1       3.122  36.189  24.942  1.00  0.00     0.052 C 
HETATM   25  C1  UNL     1       3.229  36.950  23.616  1.00  0.00     0.045 C 
HETATM   26  C3  UNL     1       3.206  37.197  26.036  1.00  0.00     0.045 C 
HETATM   27  C4  UNL     1       1.749  35.549  24.944  1.00  0.00     0.045 C 
ENDBRANCH  23  24
ENDBRANCH  22  23
BRANCH  22  28
HETATM   28  C6  UNL     1       6.374  35.615  25.121  1.00  0.00     0.275 C 
HETATM   29  F1  UNL     1       6.444  36.904  24.673  1.00  0.00    -0.251 F 
ENDBRANCH  22  28
ENDBRANCH  20  22
ENDBRANCH   1  20
BRANCH   3  30
HETATM   30  C9  UNL     1       7.942  30.290  25.003  1.00  0.00     0.153 C 
BRANCH  30  31
HETATM   31  C10 UNL     1       8.164  30.338  23.524  1.00  0.00     0.009 C 
HETATM   32  C11 UNL     1       9.500  29.651  23.261  1.00  0.00     0.032 C 
HETATM   33  C12 UNL     1      10.540  30.719  23.043  1.00  0.00     0.168 C 
HETATM   34  O2  UNL     1      10.382  31.741  23.955  1.00  0.00    -0.391 OA
HETATM   35  C13 UNL     1       9.318  32.539  23.522  1.00  0.00     0.168 C 
HETATM   36  C14 UNL     1       8.157  31.736  22.987  1.00  0.00     0.032 C 
ENDBRANCH  30  31
ENDBRANCH   3  30
TORSDOF 10
ENDMDL
MODEL 3
REMARK VINA RESULT: -8.104734717      2.577      7.703
REMARK  10 active torsions:
REMARK  status: ('A' for Active; 'I' for Inactive)
REMARK    1  A    between atoms: C2_2  and  O1_5 
REMARK    2  A    between atoms: O1_5  and  C5_6 
REMARK    3  A    between atoms: C5_6  and  C6_7 
REMARK    4  A    between atoms: C5_6  and  N1_9 
REMARK    5  A    between atoms: N1_9  and  C7_11 
REMARK    6  A    between atoms: N2_13  and  C9_14 
REMARK    7  A    between atoms: C9_14  and  C10_15 
REMARK    8  A    between atoms: C15_23  and  C16_24 
REMARK    9  A    between atoms: C17_25  and  C18_26 
REMARK   10  A    between atoms: C21_31  and  N5_32 
ROOT
HETATM    1  C7  UNL     1       5.622  32.881  26.110  1.00  0.00     0.084 A 
HETATM    2  C8  UNL     1       6.886  32.423  25.885  1.00  0.00     0.142 A 
HETATM    3  N2  UNL     1       6.823  31.145  25.377  1.00  0.00    -0.300 N 
HETATM    4  N3  UNL     1       5.557  30.847  25.298  1.00  0.00    -0.289 N 
ATOM      5  H3  UNL     1       5.207  29.953  24.951  1.00  0.00     0.188 HD
HETATM    6  C15 UNL     1       4.773  31.834  25.718  1.00  0.00     0.130 A 
ENDROOT
BRANCH   6   7
HETATM    7  C16 UNL     1       3.337  31.874  25.779  1.00  0.00    -0.038 C 
HETATM    8  C17 UNL     1       2.128  31.904  25.845  1.00  0.00    -0.041 C 
BRANCH   8   9
HETATM    9  C18 UNL     1       0.694  31.937  25.933  1.00  0.00     0.104 A 
HETATM   10  C19 UNL     1       0.076  31.398  27.043  1.00  0.00     0.057 A 
HETATM   11  C20 UNL     1      -1.297  31.437  27.112  1.00  0.00     0.109 A 
HETATM   12  N4  UNL     1      -2.041  31.982  26.136  1.00  0.00    -0.202 N 
HETATM   13  C21 UNL     1      -1.430  32.501  25.066  1.00  0.00     0.676 A 
ATOM     14  H4  UNL     1      -3.058  32.000  26.210  1.00  0.00     0.183 HD
HETATM   15  N6  UNL     1      -0.082  32.470  24.982  1.00  0.00    -0.184 N 
ATOM     16  H6  UNL     1       0.365  32.870  24.156  1.00  0.00     0.185 HD
BRANCH  13  17
HETATM   17  N5  UNL     1      -2.105  33.027  24.117  1.00  0.00    -0.234 N 
ATOM     18  H52 UNL     1      -3.018  32.639  23.879  1.00  0.00     0.174 HD
ATOM     19  H51 UNL     1      -1.742  33.827  23.598  1.00  0.00     0.174 HD
ENDBRANCH  13  17
ENDBRANCH   8   9
ENDBRANCH   6   7
BRANCH   1  20
HETATM   20  N1  UNL     1       5.225  34.149  26.595  1.00  0.00    -0.358 N 
ATOM     21  H1  UNL     1       4.990  34.208  27.585  1.00  0.00     0.162 HD
BRANCH  20  22
HETATM   22  C5  UNL     1       5.122  35.363  25.830  1.00  0.00     0.251 C 
BRANCH  22  23
HETATM   23  O1  UNL     1       4.112  35.238  24.926  1.00  0.00    -0.355 OA
BRANCH  23  24
HETATM   24  C2  UNL     1       3.135  36.170  24.931  1.00  0.00     0.052 C 
HETATM   25  C1  UNL     1       3.218  36.935  23.606  1.00  0.00     0.045 C 
HETATM   26  C3  UNL     1       3.175  37.181  26.026  1.00  0.00     0.045 C 
HETATM   27  C4  UNL     1       1.788  35.478  24.928  1.00  0.00     0.045 C 
ENDBRANCH  23  24
ENDBRANCH  22  23
BRANCH  22  28
HETATM   28  C6  UNL     1       6.413  35.688  25.131  1.00  0.00     0.275 C 
HETATM   29  F1  UNL     1       6.443  36.958  24.628  1.00  0.00    -0.251 F 
ENDBRANCH  22  28
ENDBRANCH  20  22
ENDBRANCH   1  20
BRANCH   3  30
HETATM   30  C9  UNL     1       7.929  30.321  24.995  1.00  0.00     0.153 C 
BRANCH  30  31
HETATM   31  C10 UNL     1       8.134  30.393  23.514  1.00  0.00     0.009 C 
HETATM   32  C11 UNL     1       9.437  29.657  23.219  1.00  0.00     0.032 C 
HETATM   33  C12 UNL     1      10.518  30.686  23.012  1.00  0.00     0.168 C 
HETATM   34  O2  UNL     1      10.415  31.692  23.948  1.00  0.00    -0.391 OA
HETATM   35  C13 UNL     1       9.380  32.543  23.547  1.00  0.00     0.168 C 
HETATM   36  C14 UNL     1       8.180  31.802  23.009  1.00  0.00     0.032 C 
ENDBRANCH  30  31
ENDBRANCH   3  30
TORSDOF 10
ENDMDL
MODEL 4
REMARK VINA RESULT: -8.077724675      2.884      7.925
REMARK  10 active torsions:
REMARK  status: ('A' for Active; 'I' for Inactive)
REMARK    1  A    between atoms: C2_2  and  O1_5 
REMARK    2  A    between atoms: O1_5  and  C5_6 
REMARK    3  A    between atoms: C5_6  and  C6_7 
REMARK    4  A    between atoms: C5_6  and  N1_9 
REMARK    5  A    between atoms: N1_9  and  C7_11 
REMARK    6  A    between atoms: N2_13  and  C9_14 
REMARK    7  A    between atoms: C9_14  and  C10_15 
REMARK    8  A    between atoms: C15_23  and  C16_24 
REMARK    9  A    between atoms: C17_25  and  C18_26 
REMARK   10  A    between atoms: C21_31  and  N5_32 
ROOT
HETATM    1  C7  UNL     1       5.559  32.799  26.099  1.00  0.00     0.084 A 
HETATM    2  C8  UNL     1       6.826  32.347  25.883  1.00  0.00     0.142 A 
HETATM    3  N2  UNL     1       6.770  31.079  25.347  1.00  0.00    -0.300 N 
HETATM    4  N3  UNL     1       5.507  30.782  25.244  1.00  0.00    -0.289 N 
ATOM      5  H3  UNL     1       5.162  29.896  24.875  1.00  0.00     0.188 HD
HETATM    6  C15 UNL     1       4.716  31.760  25.674  1.00  0.00     0.130 A 
ENDROOT
BRANCH   6   7
HETATM    7  C16 UNL     1       3.279  31.799  25.716  1.00  0.00    -0.038 C 
HETATM    8  C17 UNL     1       2.069  31.846  25.748  1.00  0.00    -0.041 C 
BRANCH   8   9
HETATM    9  C18 UNL     1       0.634  31.910  25.782  1.00  0.00     0.104 A 
HETATM   10  C19 UNL     1      -0.036  32.534  24.748  1.00  0.00     0.057 A 
HETATM   11  C20 UNL     1      -1.409  32.587  24.796  1.00  0.00     0.109 A 
HETATM   12  N4  UNL     1      -2.105  32.053  25.812  1.00  0.00    -0.202 N 
HETATM   13  C21 UNL     1      -1.444  31.452  26.808  1.00  0.00     0.676 A 
ATOM     14  H4  UNL     1      -3.123  32.105  25.825  1.00  0.00     0.183 HD
HETATM   15  N6  UNL     1      -0.095  31.391  26.777  1.00  0.00    -0.184 N 
ATOM     16  H6  UNL     1       0.390  30.929  27.547  1.00  0.00     0.185 HD
BRANCH  13  17
HETATM   17  N5  UNL     1      -2.072  30.933  27.792  1.00  0.00    -0.234 N 
ATOM     18  H52 UNL     1      -3.093  30.927  27.786  1.00  0.00     0.174 HD
ATOM     19  H51 UNL     1      -1.567  30.526  28.579  1.00  0.00     0.174 HD
ENDBRANCH  13  17
ENDBRANCH   8   9
ENDBRANCH   6   7
BRANCH   1  20
HETATM   20  N1  UNL     1       5.155  34.057  26.604  1.00  0.00    -0.358 N 
ATOM     21  H1  UNL     1       4.694  34.059  27.514  1.00  0.00     0.162 HD
BRANCH  20  22
HETATM   22  C5  UNL     1       5.329  35.332  25.963  1.00  0.00     0.251 C 
BRANCH  22  23
HETATM   23  O1  UNL     1       6.076  36.139  26.766  1.00  0.00    -0.355 OA
BRANCH  23  24
HETATM   24  C2  UNL     1       7.398  36.241  26.512  1.00  0.00     0.052 C 
HETATM   25  C1  UNL     1       7.732  37.731  26.386  1.00  0.00     0.045 C 
HETATM   26  C3  UNL     1       7.900  35.572  25.278  1.00  0.00     0.045 C 
HETATM   27  C4  UNL     1       8.175  35.741  27.712  1.00  0.00     0.045 C 
ENDBRANCH  23  24
ENDBRANCH  22  23
BRANCH  22  28
HETATM   28  C6  UNL     1       4.008  35.981  25.654  1.00  0.00     0.275 C 
HETATM   29  F1  UNL     1       3.029  35.080  25.343  1.00  0.00    -0.251 F 
ENDBRANCH  22  28
ENDBRANCH  20  22
ENDBRANCH   1  20
BRANCH   3  30
HETATM   30  C9  UNL     1       7.882  30.263  24.963  1.00  0.00     0.153 C 
BRANCH  30  31
HETATM   31  C10 UNL     1       8.101  30.357  23.486  1.00  0.00     0.009 C 
HETATM   32  C11 UNL     1       9.412  29.635  23.193  1.00  0.00     0.032 C 
HETATM   33  C12 UNL     1      10.488  30.674  23.011  1.00  0.00     0.168 C 
HETATM   34  O2  UNL     1      10.369  31.666  23.960  1.00  0.00    -0.391 OA
HETATM   35  C13 UNL     1       9.332  32.515  23.561  1.00  0.00     0.168 C 
HETATM   36  C14 UNL     1       8.142  31.774  23.001  1.00  0.00     0.032 C 
ENDBRANCH  30  31
ENDBRANCH   3  30
TORSDOF 10
ENDMDL
MODEL 5
REMARK VINA RESULT: -8.009899672      2.933      7.820
REMARK  10 active torsions:
REMARK  status: ('A' for Active; 'I' for Inactive)
REMARK    1  A    between atoms: C2_2  and  O1_5 
REMARK    2  A    between atoms: O1_5  and  C5_6 
REMARK    3  A    between atoms: C5_6  and  C6_7 
REMARK    4  A    between atoms: C5_6  and  N1_9 
REMARK    5  A    between atoms: N1_9  and  C7_11 
REMARK    6  A    between atoms: N2_13  and  C9_14 
REMARK    7  A    between atoms: C9_14  and  C10_15 
REMARK    8  A    between atoms: C15_23  and  C16_24 
REMARK    9  A    between atoms: C17_25  and  C18_26 
REMARK   10  A    between atoms: C21_31  and  N5_32 
ROOT
HETATM    1  C7  UNL     1       5.587  32.813  26.121  1.00  0.00     0.084 A 
HETATM    2  C8  UNL     1       6.852  32.361  25.895  1.00  0.00     0.142 A 
HETATM    3  N2  UNL     1       6.793  31.092  25.365  1.00  0.00    -0.300 N 
HETATM    4  N3  UNL     1       5.528  30.793  25.275  1.00  0.00    -0.289 N 
ATOM      5  H3  UNL     1       5.181  29.905  24.912  1.00  0.00     0.188 HD
HETATM    6  C15 UNL     1       4.741  31.772  25.708  1.00  0.00     0.130 A 
ENDROOT
BRANCH   6   7
HETATM    7  C16 UNL     1       3.305  31.809  25.763  1.00  0.00    -0.038 C 
HETATM    8  C17 UNL     1       2.095  31.847  25.824  1.00  0.00    -0.041 C 
BRANCH   8   9
HETATM    9  C18 UNL     1       0.661  31.896  25.904  1.00  0.00     0.104 A 
HETATM   10  C19 UNL     1       0.031  31.369  27.013  1.00  0.00     0.057 A 
HETATM   11  C20 UNL     1      -1.341  31.423  27.075  1.00  0.00     0.109 A 
HETATM   12  N4  UNL     1      -2.074  31.972  26.092  1.00  0.00    -0.202 N 
HETATM   13  C21 UNL     1      -1.452  32.479  25.023  1.00  0.00     0.676 A 
ATOM     14  H4  UNL     1      -3.091  32.001  26.161  1.00  0.00     0.183 HD
HETATM   15  N6  UNL     1      -0.103  32.433  24.946  1.00  0.00    -0.184 N 
ATOM     16  H6  UNL     1       0.352  32.825  24.121  1.00  0.00     0.185 HD
BRANCH  13  17
HETATM   17  N5  UNL     1      -2.116  33.008  24.068  1.00  0.00    -0.234 N 
ATOM     18  H52 UNL     1      -2.968  32.552  23.740  1.00  0.00     0.174 HD
ATOM     19  H51 UNL     1      -1.805  33.877  23.633  1.00  0.00     0.174 HD
ENDBRANCH  13  17
ENDBRANCH   8   9
ENDBRANCH   6   7
BRANCH   1  20
HETATM   20  N1  UNL     1       5.186  34.072  26.626  1.00  0.00    -0.358 N 
ATOM     21  H1  UNL     1       4.736  34.078  27.541  1.00  0.00     0.162 HD
BRANCH  20  22
HETATM   22  C5  UNL     1       5.351  35.345  25.977  1.00  0.00     0.251 C 
BRANCH  22  23
HETATM   23  O1  UNL     1       6.107  36.156  26.766  1.00  0.00    -0.355 OA
BRANCH  23  24
HETATM   24  C2  UNL     1       7.430  36.241  26.508  1.00  0.00     0.052 C 
HETATM   25  C1  UNL     1       7.789  37.728  26.416  1.00  0.00     0.045 C 
HETATM   26  C3  UNL     1       7.914  35.594  25.256  1.00  0.00     0.045 C 
HETATM   27  C4  UNL     1       8.203  35.700  27.692  1.00  0.00     0.045 C 
ENDBRANCH  23  24
ENDBRANCH  22  23
BRANCH  22  28
HETATM   28  C6  UNL     1       4.025  35.992  25.682  1.00  0.00     0.275 C 
HETATM   29  F1  UNL     1       3.073  35.099  25.278  1.00  0.00    -0.251 F 
ENDBRANCH  22  28
ENDBRANCH  20  22
ENDBRANCH   1  20
BRANCH   3  30
HETATM   30  C9  UNL     1       7.902  30.275  24.974  1.00  0.00     0.153 C 
BRANCH  30  31
HETATM   31  C10 UNL     1       8.114  30.372  23.496  1.00  0.00     0.009 C 
HETATM   32  C11 UNL     1       9.414  29.634  23.193  1.00  0.00     0.032 C 
HETATM   33  C12 UNL     1      10.502  30.660  23.009  1.00  0.00     0.168 C 
HETATM   34  O2  UNL     1      10.401  31.649  23.963  1.00  0.00    -0.391 OA
HETATM   35  C13 UNL     1       9.373  32.514  23.573  1.00  0.00     0.168 C 
HETATM   36  C14 UNL     1       8.171  31.790  23.016  1.00  0.00     0.032 C 
ENDBRANCH  30  31
ENDBRANCH   3  30
TORSDOF 10
ENDMDL
