MODEL 1
REMARK VINA RESULT: -9.012325488      0.000      0.000
REMARK  5 active torsions:
REMARK  status: ('A' for Active; 'I' for Inactive)
REMARK    1  A    between atoms: N1_2  and  C2_4 
REMARK    2  A    between atoms: C5_7  and  C6_8 
REMARK    3  A    between atoms: C8_14  and  N4_15 
REMARK    4  A    between atoms: C18_31  and  N8_32 
REMARK    5  A    between atoms: C19_34  and  C20_35 
ROOT
HETATM    1  C6  UNL     1       4.277  33.024  25.108  1.00  0.00     0.044 A 
HETATM    2  N2  UNL     1       4.308  34.320  25.424  1.00  0.00    -0.342 N 
ATOM      3  H2  UNL     1       3.429  34.830  25.512  1.00  0.00     0.167 HD
HETATM    4  C7  UNL     1       5.469  34.975  25.630  1.00  0.00     0.135 A 
HETATM    5  N3  UNL     1       5.447  36.289  25.913  1.00  0.00    -0.176 N 
ATOM      6  H3  UNL     1       4.555  36.779  25.988  1.00  0.00     0.186 HD
HETATM    7  C8  UNL     1       6.599  36.957  26.098  1.00  0.00     0.681 A 
HETATM    8  N6  UNL     1       7.773  36.339  26.009  1.00  0.00    -0.201 N 
ATOM      9  H6  UNL     1       8.631  36.871  26.156  1.00  0.00     0.183 HD
HETATM   10  C15 UNL     1       7.851  35.029  25.727  1.00  0.00     0.123 A 
HETATM   11  C16 UNL     1       6.685  34.321  25.528  1.00  0.00     0.053 A 
HETATM   12  C17 UNL     1       6.695  32.988  25.199  1.00  0.00     0.070 A 
HETATM   13  N7  UNL     1       7.804  32.353  25.154  1.00  0.00    -0.396 N 
ATOM     14  H71 UNL     1       7.810  31.363  24.909  1.00  0.00     0.156 HD
ATOM     15  H72 UNL     1       8.699  32.819  25.305  1.00  0.00     0.156 HD
HETATM   16  C18 UNL     1       5.467  32.348  24.991  1.00  0.00     0.082 A 
ENDROOT
BRANCH   1  17
HETATM   17  C5  UNL     1       3.002  32.283  24.850  1.00  0.00     0.038 C 
HETATM   18  C4  UNL     1       2.727  31.529  26.173  1.00  0.00     0.013 C 
HETATM   19  C3  UNL     1       1.451  30.857  26.266  1.00  0.00     0.025 C 
HETATM   20  C2  UNL     1       0.302  31.391  25.482  1.00  0.00     0.076 C 
HETATM   21  C22 UNL     1       0.630  32.303  24.377  1.00  0.00     0.025 C 
HETATM   22  C21 UNL     1       1.786  33.213  24.698  1.00  0.00     0.013 C 
BRANCH  20  23
HETATM   23  N1  UNL     1      -0.715  31.897  26.334  1.00  0.00    -0.421 N 
HETATM   24  C1  UNL     1      -0.809  31.386  27.656  1.00  0.00     0.140 C 
ATOM     25  H1  UNL     1      -1.363  32.613  26.005  1.00  0.00     0.153 HD
ENDBRANCH  20  23
ENDBRANCH   1  17
BRANCH  16  26
HETATM   26  N8  UNL     1       5.515  30.983  24.653  1.00  0.00    -0.364 N 
HETATM   27  C19 UNL     1       5.518  30.598  23.429  1.00  0.00     0.092 C 
ATOM     28  H8  UNL     1       5.548  30.285  25.396  1.00  0.00     0.165 HD
BRANCH  27  29
HETATM   29  C20 UNL     1       5.573  29.160  23.099  1.00  0.00     0.266 C 
HETATM   30  F1  UNL     1       5.583  28.445  24.293  1.00  0.00    -0.250 F 
ENDBRANCH  27  29
ENDBRANCH  16  26
BRANCH   7  31
HETATM   31  N4  UNL     1       6.606  38.393  26.303  1.00  0.00    -0.216 N 
HETATM   32  C9  UNL     1       7.967  38.849  26.464  1.00  0.00     0.143 C 
HETATM   33  C10 UNL     1       8.158  40.322  26.502  1.00  0.00     0.050 C 
HETATM   34  C11 UNL     1       7.292  41.024  27.515  1.00  0.00     0.273 C 
HETATM   35  N5  UNL     1       5.950  41.215  27.088  1.00  0.00     0.085 N 
HETATM   36  C12 UNL     1       5.839  41.629  25.707  1.00  0.00     0.309 C 
HETATM   37  C13 UNL     1       5.166  40.053  27.374  1.00  0.00     0.292 C 
HETATM   38  C14 UNL     1       5.309  38.975  26.316  1.00  0.00     0.171 C 
ENDBRANCH   7  31
TORSDOF 5
ENDMDL
MODEL 2
REMARK VINA RESULT: -8.670217391      1.961      4.647
REMARK  5 active torsions:
REMARK  status: ('A' for Active; 'I' for Inactive)
REMARK    1  A    between atoms: N1_2  and  C2_4 
REMARK    2  A    between atoms: C5_7  and  C6_8 
REMARK    3  A    between atoms: C8_14  and  N4_15 
REMARK    4  A    between atoms: C18_31  and  N8_32 
REMARK    5  A    between atoms: C19_34  and  C20_35 
ROOT
HETATM    1  C6  UNL     1       5.262  33.152  24.823  1.00  0.00     0.044 A 
HETATM    2  N2  UNL     1       5.933  34.281  25.063  1.00  0.00    -0.342 N 
ATOM      3  H2  UNL     1       6.953  34.257  25.080  1.00  0.00     0.167 HD
HETATM    4  C7  UNL     1       5.303  35.453  25.282  1.00  0.00     0.135 A 
HETATM    5  N3  UNL     1       6.025  36.553  25.552  1.00  0.00    -0.176 N 
ATOM      6  H3  UNL     1       7.043  36.503  25.572  1.00  0.00     0.186 HD
HETATM    7  C8  UNL     1       5.405  37.722  25.795  1.00  0.00     0.681 A 
HETATM    8  N6  UNL     1       4.078  37.814  25.771  1.00  0.00    -0.201 N 
ATOM      9  H6  UNL     1       3.636  38.714  25.957  1.00  0.00     0.183 HD
HETATM   10  C15 UNL     1       3.312  36.745  25.508  1.00  0.00     0.123 A 
HETATM   11  C16 UNL     1       3.920  35.534  25.261  1.00  0.00     0.053 A 
HETATM   12  C17 UNL     1       3.193  34.393  25.023  1.00  0.00     0.070 A 
HETATM   13  N7  UNL     1       1.919  34.457  24.944  1.00  0.00    -0.396 N 
ATOM     14  H71 UNL     1       1.379  33.609  24.768  1.00  0.00     0.156 HD
ATOM     15  H72 UNL     1       1.411  35.328  25.104  1.00  0.00     0.156 HD
HETATM   16  C18 UNL     1       3.889  33.198  24.803  1.00  0.00     0.082 A 
ENDROOT
BRANCH   1  17
HETATM   17  C5  UNL     1       5.940  31.837  24.602  1.00  0.00     0.038 C 
HETATM   18  C4  UNL     1       6.772  32.051  23.316  1.00  0.00     0.013 C 
HETATM   19  C3  UNL     1       7.674  30.979  22.959  1.00  0.00     0.025 C 
HETATM   20  C2  UNL     1       8.220  30.113  24.041  1.00  0.00     0.076 C 
HETATM   21  C22 UNL     1       7.510  30.145  25.328  1.00  0.00     0.025 C 
HETATM   22  C21 UNL     1       6.997  31.518  25.674  1.00  0.00     0.013 C 
BRANCH  20  23
HETATM   23  N1  UNL     1       9.623  30.280  24.179  1.00  0.00    -0.421 N 
HETATM   24  C1  UNL     1      10.465  29.849  23.120  1.00  0.00     0.140 C 
ATOM     25  H1  UNL     1      10.018  30.701  25.021  1.00  0.00     0.153 HD
ENDBRANCH  20  23
ENDBRANCH   1  17
BRANCH  16  26
HETATM   26  N8  UNL     1       3.113  32.049  24.565  1.00  0.00    -0.364 N 
HETATM   27  C19 UNL     1       2.642  31.350  25.533  1.00  0.00     0.092 C 
ATOM     28  H8  UNL     1       2.920  31.766  23.605  1.00  0.00     0.165 HD
BRANCH  27  29
HETATM   29  C20 UNL     1       1.826  30.151  25.259  1.00  0.00     0.266 C 
HETATM   30  F1  UNL     1       2.544  29.035  25.681  1.00  0.00    -0.250 F 
ENDBRANCH  27  29
ENDBRANCH  16  26
BRANCH   7  31
HETATM   31  N4  UNL     1       6.157  38.898  26.189  1.00  0.00    -0.216 N 
HETATM   32  C9  UNL     1       7.562  38.569  26.264  1.00  0.00     0.143 C 
HETATM   33  C10 UNL     1       8.486  39.712  26.479  1.00  0.00     0.050 C 
HETATM   34  C11 UNL     1       8.128  40.572  27.664  1.00  0.00     0.273 C 
HETATM   35  N5  UNL     1       7.068  41.484  27.411  1.00  0.00     0.085 N 
HETATM   36  C12 UNL     1       7.157  42.125  26.118  1.00  0.00     0.309 C 
HETATM   37  C13 UNL     1       5.804  40.848  27.620  1.00  0.00     0.292 C 
HETATM   38  C14 UNL     1       5.347  40.044  26.418  1.00  0.00     0.171 C 
ENDBRANCH   7  31
TORSDOF 5
ENDMDL
MODEL 3
REMARK VINA RESULT: -8.436678574      4.479      7.115
REMARK  5 active torsions:
REMARK  status: ('A' for Active; 'I' for Inactive)
REMARK    1  A    between atoms: N1_2  and  C2_4 
REMARK    2  A    between atoms: C5_7  and  C6_8 
REMARK    3  A    between atoms: C8_14  and  N4_15 
REMARK    4  A    between atoms: C18_31  and  N8_32 
REMARK    5  A    between atoms: C19_34  and  C20_35 
ROOT
HETATM    1  C6  UNL     1       2.710  32.731  24.802  1.00  0.00     0.044 A 
HETATM    2  N2  UNL     1       4.006  32.830  24.499  1.00  0.00    -0.342 N 
ATOM      3  H2  UNL     1       4.388  33.741  24.248  1.00  0.00     0.167 HD
HETATM    4  C7  UNL     1       4.825  31.759  24.515  1.00  0.00     0.135 A 
HETATM    5  N3  UNL     1       6.116  31.906  24.169  1.00  0.00    -0.176 N 
ATOM      6  H3  UNL     1       6.473  32.827  23.914  1.00  0.00     0.186 HD
HETATM    7  C8  UNL     1       6.936  30.841  24.159  1.00  0.00     0.681 A 
HETATM    8  N6  UNL     1       6.494  29.630  24.491  1.00  0.00    -0.201 N 
ATOM      9  H6  UNL     1       7.140  28.841  24.477  1.00  0.00     0.183 HD
HETATM   10  C15 UNL     1       5.215  29.429  24.842  1.00  0.00     0.123 A 
HETATM   11  C16 UNL     1       4.351  30.503  24.856  1.00  0.00     0.053 A 
HETATM   12  C17 UNL     1       3.022  30.359  25.169  1.00  0.00     0.070 A 
HETATM   13  N7  UNL     1       2.576  29.219  25.540  1.00  0.00    -0.396 N 
ATOM     14  H71 UNL     1       1.589  29.113  25.772  1.00  0.00     0.156 HD
ATOM     15  H72 UNL     1       3.170  28.390  25.563  1.00  0.00     0.156 HD
HETATM   16  C18 UNL     1       2.207  31.497  25.137  1.00  0.00     0.082 A 
ENDROOT
BRANCH   1  17
HETATM   17  C5  UNL     1       1.777  33.900  24.766  1.00  0.00     0.038 C 
HETATM   18  C4  UNL     1       2.621  35.038  24.143  1.00  0.00     0.013 C 
HETATM   19  C3  UNL     1       1.908  36.256  23.829  1.00  0.00     0.025 C 
HETATM   20  C2  UNL     1       0.454  36.174  23.514  1.00  0.00     0.076 C 
HETATM   21  C22 UNL     1      -0.238  34.944  23.927  1.00  0.00     0.025 C 
HETATM   22  C21 UNL     1       0.618  33.715  23.770  1.00  0.00     0.013 C 
BRANCH  20  23
HETATM   23  N1  UNL     1       0.197  36.527  22.163  1.00  0.00    -0.421 N 
HETATM   24  C1  UNL     1       1.219  36.315  21.201  1.00  0.00     0.140 C 
ATOM     25  H1  UNL     1      -0.703  36.923  21.890  1.00  0.00     0.153 HD
ENDBRANCH  20  23
ENDBRANCH   1  17
BRANCH  16  26
HETATM   26  N8  UNL     1       0.850  31.312  25.460  1.00  0.00    -0.364 N 
HETATM   27  C19 UNL     1       0.396  31.602  26.625  1.00  0.00     0.092 C 
ATOM     28  H8  UNL     1       0.214  30.941  24.755  1.00  0.00     0.165 HD
BRANCH  27  29
HETATM   29  C20 UNL     1      -1.033  31.403  26.939  1.00  0.00     0.266 C 
HETATM   30  F1  UNL     1      -1.760  32.391  26.279  1.00  0.00    -0.250 F 
ENDBRANCH  27  29
ENDBRANCH  16  26
BRANCH   7  31
HETATM   31  N4  UNL     1       8.304  30.955  23.692  1.00  0.00    -0.216 N 
HETATM   32  C9  UNL     1       8.369  31.931  22.627  1.00  0.00     0.143 C 
HETATM   33  C10 UNL     1       9.732  32.296  22.164  1.00  0.00     0.050 C 
HETATM   34  C11 UNL     1      10.586  31.113  21.786  1.00  0.00     0.273 C 
HETATM   35  N5  UNL     1      11.152  30.436  22.900  1.00  0.00     0.085 N 
HETATM   36  C12 UNL     1      11.654  31.328  23.921  1.00  0.00     0.309 C 
HETATM   37  C13 UNL     1      10.230  29.474  23.420  1.00  0.00     0.292 C 
HETATM   38  C14 UNL     1       9.212  30.089  24.361  1.00  0.00     0.171 C 
ENDBRANCH   7  31
TORSDOF 5
ENDMDL
MODEL 4
REMARK VINA RESULT: -8.434220993      1.700      2.395
REMARK  5 active torsions:
REMARK  status: ('A' for Active; 'I' for Inactive)
REMARK    1  A    between atoms: N1_2  and  C2_4 
REMARK    2  A    between atoms: C5_7  and  C6_8 
REMARK    3  A    between atoms: C8_14  and  N4_15 
REMARK    4  A    between atoms: C18_31  and  N8_32 
REMARK    5  A    between atoms: C19_34  and  C20_35 
ROOT
HETATM    1  C6  UNL     1       5.409  33.200  25.733  1.00  0.00     0.044 A 
HETATM    2  N2  UNL     1       4.897  34.432  25.778  1.00  0.00    -0.342 N 
ATOM      3  H2  UNL     1       3.887  34.546  25.870  1.00  0.00     0.167 HD
HETATM    4  C7  UNL     1       5.675  35.531  25.704  1.00  0.00     0.135 A 
HETATM    5  N3  UNL     1       5.106  36.748  25.719  1.00  0.00    -0.176 N 
ATOM      6  H3  UNL     1       4.094  36.837  25.804  1.00  0.00     0.186 HD
HETATM    7  C8  UNL     1       5.871  37.850  25.622  1.00  0.00     0.681 A 
HETATM    8  N6  UNL     1       7.194  37.760  25.513  1.00  0.00    -0.201 N 
ATOM      9  H6  UNL     1       7.749  38.613  25.445  1.00  0.00     0.183 HD
HETATM   10  C15 UNL     1       7.811  36.569  25.492  1.00  0.00     0.123 A 
HETATM   11  C16 UNL     1       7.051  35.424  25.584  1.00  0.00     0.053 A 
HETATM   12  C17 UNL     1       7.616  34.173  25.531  1.00  0.00     0.070 A 
HETATM   13  N7  UNL     1       8.887  34.052  25.476  1.00  0.00    -0.396 N 
ATOM     14  H71 UNL     1       9.306  33.123  25.436  1.00  0.00     0.156 HD
ATOM     15  H72 UNL     1       9.504  34.863  25.420  1.00  0.00     0.156 HD
HETATM   16  C18 UNL     1       6.769  33.060  25.608  1.00  0.00     0.082 A 
ENDROOT
BRANCH   1  17
HETATM   17  C5  UNL     1       4.562  31.968  25.788  1.00  0.00     0.038 C 
HETATM   18  C4  UNL     1       3.251  32.438  26.464  1.00  0.00     0.013 C 
HETATM   19  C3  UNL     1       2.173  31.476  26.492  1.00  0.00     0.025 C 
HETATM   20  C2  UNL     1       2.107  30.442  25.421  1.00  0.00     0.076 C 
HETATM   21  C22 UNL     1       3.339  30.218  24.651  1.00  0.00     0.025 C 
HETATM   22  C21 UNL     1       4.107  31.488  24.399  1.00  0.00     0.013 C 
BRANCH  20  23
HETATM   23  N1  UNL     1       0.964  30.622  24.598  1.00  0.00    -0.421 N 
HETATM   24  C1  UNL     1       0.039  31.644  24.937  1.00  0.00     0.140 C 
ATOM     25  H1  UNL     1       0.812  30.030  23.781  1.00  0.00     0.153 HD
ENDBRANCH  20  23
ENDBRANCH   1  17
BRANCH  16  26
HETATM   26  N8  UNL     1       7.382  31.794  25.547  1.00  0.00    -0.364 N 
HETATM   27  C19 UNL     1       7.697  31.260  24.423  1.00  0.00     0.092 C 
ATOM     28  H8  UNL     1       7.579  31.292  26.412  1.00  0.00     0.165 HD
BRANCH  27  29
HETATM   29  C20 UNL     1       8.343  29.933  24.385  1.00  0.00     0.266 C 
HETATM   30  F1  UNL     1       8.392  29.440  25.686  1.00  0.00    -0.250 F 
ENDBRANCH  27  29
ENDBRANCH  16  26
BRANCH   7  31
HETATM   31  N4  UNL     1       5.275  39.168  25.533  1.00  0.00    -0.216 N 
HETATM   32  C9  UNL     1       4.445  39.243  24.352  1.00  0.00     0.143 C 
HETATM   33  C10 UNL     1       3.620  40.470  24.214  1.00  0.00     0.050 C 
HETATM   34  C11 UNL     1       4.406  41.751  24.332  1.00  0.00     0.273 C 
HETATM   35  N5  UNL     1       4.712  42.114  25.671  1.00  0.00     0.085 N 
HETATM   36  C12 UNL     1       3.611  41.914  26.587  1.00  0.00     0.309 C 
HETATM   37  C13 UNL     1       5.908  41.459  26.104  1.00  0.00     0.292 C 
HETATM   38  C14 UNL     1       5.660  40.043  26.586  1.00  0.00     0.171 C 
ENDBRANCH   7  31
TORSDOF 5
ENDMDL
MODEL 5
REMARK VINA RESULT: -8.420694589      1.778      2.277
REMARK  5 active torsions:
REMARK  status: ('A' for Active; 'I' for Inactive)
REMARK    1  A    between atoms: N1_2  and  C2_4 
REMARK    2  A    between atoms: C5_7  and  C6_8 
REMARK    3  A    between atoms: C8_14  and  N4_15 
REMARK    4  A    between atoms: C18_31  and  N8_32 
REMARK    5  A    between atoms: C19_34  and  C20_35 
ROOT
HETATM    1  C6  UNL     1       5.329  33.215  25.719  1.00  0.00     0.044 A 
HETATM    2  N2  UNL     1       4.817  34.447  25.719  1.00  0.00    -0.342 N 
ATOM      3  H2  UNL     1       3.806  34.564  25.788  1.00  0.00     0.167 HD
HETATM    4  C7  UNL     1       5.597  35.544  25.629  1.00  0.00     0.135 A 
HETATM    5  N3  UNL     1       5.029  36.761  25.599  1.00  0.00    -0.176 N 
ATOM      6  H3  UNL     1       4.015  36.852  25.661  1.00  0.00     0.186 HD
HETATM    7  C8  UNL     1       5.796  37.859  25.487  1.00  0.00     0.681 A 
HETATM    8  N6  UNL     1       7.121  37.767  25.407  1.00  0.00    -0.201 N 
ATOM      9  H6  UNL     1       7.678  38.618  25.325  1.00  0.00     0.183 HD
HETATM   10  C15 UNL     1       7.738  36.576  25.432  1.00  0.00     0.123 A 
HETATM   11  C16 UNL     1       6.975  35.433  25.541  1.00  0.00     0.053 A 
HETATM   12  C17 UNL     1       7.540  34.182  25.533  1.00  0.00     0.070 A 
HETATM   13  N7  UNL     1       8.813  34.059  25.508  1.00  0.00    -0.396 N 
ATOM     14  H71 UNL     1       9.232  33.130  25.502  1.00  0.00     0.156 HD
ATOM     15  H72 UNL     1       9.431  34.869  25.441  1.00  0.00     0.156 HD
HETATM   16  C18 UNL     1       6.692  33.071  25.625  1.00  0.00     0.082 A 
ENDROOT
BRANCH   1  17
HETATM   17  C5  UNL     1       4.481  31.984  25.792  1.00  0.00     0.038 C 
HETATM   18  C4  UNL     1       3.178  32.462  26.475  1.00  0.00     0.013 C 
HETATM   19  C3  UNL     1       2.098  31.503  26.521  1.00  0.00     0.025 C 
HETATM   20  C2  UNL     1       2.021  30.460  25.459  1.00  0.00     0.076 C 
HETATM   21  C22 UNL     1       3.245  30.227  24.679  1.00  0.00     0.025 C 
HETATM   22  C21 UNL     1       4.013  31.494  24.410  1.00  0.00     0.013 C 
BRANCH  20  23
HETATM   23  N1  UNL     1       0.871  30.635  24.645  1.00  0.00    -0.421 N 
HETATM   24  C1  UNL     1      -0.032  31.684  24.963  1.00  0.00     0.140 C 
ATOM     25  H1  UNL     1       0.698  30.021  23.849  1.00  0.00     0.153 HD
ENDBRANCH  20  23
ENDBRANCH   1  17
BRANCH  16  26
HETATM   26  N8  UNL     1       7.305  31.804  25.611  1.00  0.00    -0.364 N 
HETATM   27  C19 UNL     1       7.620  31.227  24.509  1.00  0.00     0.092 C 
ATOM     28  H8  UNL     1       7.504  31.336  26.495  1.00  0.00     0.165 HD
BRANCH  27  29
HETATM   29  C20 UNL     1       8.267  29.900  24.521  1.00  0.00     0.266 C 
HETATM   30  F1  UNL     1       8.282  29.441  25.835  1.00  0.00    -0.250 F 
ENDBRANCH  27  29
ENDBRANCH  16  26
BRANCH   7  31
HETATM   31  N4  UNL     1       5.202  39.175  25.349  1.00  0.00    -0.216 N 
HETATM   32  C9  UNL     1       5.856  40.096  26.250  1.00  0.00     0.143 C 
HETATM   33  C10 UNL     1       5.485  41.526  26.100  1.00  0.00     0.050 C 
HETATM   34  C11 UNL     1       4.000  41.780  26.146  1.00  0.00     0.273 C 
HETATM   35  N5  UNL     1       3.330  41.484  24.929  1.00  0.00     0.085 N 
HETATM   36  C12 UNL     1       4.050  41.922  23.755  1.00  0.00     0.309 C 
HETATM   37  C13 UNL     1       2.988  40.096  24.873  1.00  0.00     0.292 C 
HETATM   38  C14 UNL     1       4.140  39.227  24.405  1.00  0.00     0.171 C 
ENDBRANCH   7  31
TORSDOF 5
ENDMDL
