MODEL 1
REMARK VINA RESULT: -8.447827240      0.000      0.000
REMARK  6 active torsions:
REMARK  status: ('A' for Active; 'I' for Inactive)
REMARK    1  A    between atoms: C2_2  and  C3_3 
REMARK    2  A    between atoms: C3_3  and  C5_6 
REMARK       I    between atoms: C5_6  and  N2_8 
REMARK    3  A    between atoms: N2_8  and  C6_9 
REMARK    4  A    between atoms: C7_10  and  C8_11 
REMARK    5  A    between atoms: C8_11  and  N3_12 
REMARK    6  A    between atoms: C14_22  and  N5_23 
ROOT
HETATM    1  C3  UNL     1       3.713  36.921  24.157  1.00  0.00     0.199 C 
HETATM    2  C4  UNL     1       2.729  36.935  23.082  1.00  0.00     0.074 C 
HETATM    3  N1  UNL     1       1.934  36.942  22.248  1.00  0.00    -0.196 NA
ENDROOT
BRANCH   1   4
HETATM    4  C2  UNL     1       4.025  38.314  24.558  1.00  0.00     0.025 C 
HETATM    5  C1  UNL     1       5.415  38.489  25.140  1.00  0.00     0.007 C 
ENDBRANCH   1   4
BRANCH   1   6
HETATM    6  C5  UNL     1       3.145  36.100  25.292  1.00  0.00     0.309 C 
HETATM    7  O1  UNL     1       2.497  36.743  26.118  1.00  0.00    -0.256 OA
HETATM    8  N2  UNL     1       3.380  34.715  25.333  1.00  0.00    -0.367 NA
BRANCH   8   9
HETATM    9  C6  UNL     1       3.598  33.410  25.375  1.00  0.00     0.140 A 
HETATM   10  C7  UNL     1       2.470  32.549  25.454  1.00  0.00     0.054 A 
HETATM   11  S1  UNL     1       3.124  30.996  25.355  1.00  0.00    -0.071 SA
HETATM   12  C13 UNL     1       4.770  31.393  25.223  1.00  0.00     0.091 A 
HETATM   13  N4  UNL     1       5.866  30.610  25.122  1.00  0.00    -0.335 N 
HETATM   14  C18 UNL     1       4.785  32.737  25.259  1.00  0.00     0.063 A 
HETATM   15  C14 UNL     1       7.118  31.144  25.047  1.00  0.00     0.122 A 
ATOM     16  H4  UNL     1       5.754  29.596  25.101  1.00  0.00     0.168 HD
HETATM   17  C15 UNL     1       7.186  32.492  25.081  1.00  0.00     0.110 A 
HETATM   18  C16 UNL     1       8.506  33.100  25.000  1.00  0.00     0.105 C 
HETATM   19  C17 UNL     1       6.061  33.317  25.185  1.00  0.00     0.074 A 
HETATM   20  N6  UNL     1       9.557  33.590  24.916  1.00  0.00    -0.191 NA
HETATM   21 CL1  UNL     1       6.340  35.018  25.280  1.00  0.00    -0.081 Cl
BRANCH  10  22
HETATM   22  C8  UNL     1       1.039  32.944  25.591  1.00  0.00     0.322 C 
BRANCH  22  23
HETATM   23  N3  UNL     1       0.379  32.663  24.313  1.00  0.00     0.097 N 
HETATM   24  C9  UNL     1       0.439  33.923  23.582  1.00  0.00     0.299 C 
HETATM   25  C10 UNL     1      -0.422  33.970  22.364  1.00  0.00     0.198 C 
HETATM   26  O2  UNL     1      -1.555  33.161  22.465  1.00  0.00    -0.388 OA
HETATM   27  C11 UNL     1      -1.951  33.210  23.799  1.00  0.00     0.198 C 
HETATM   28  C12 UNL     1      -0.995  32.266  24.534  1.00  0.00     0.299 C 
ENDBRANCH  22  23
ENDBRANCH  10  22
BRANCH  15  29
HETATM   29  N5  UNL     1       8.136  30.332  24.976  1.00  0.00    -0.384 N 
ATOM     30  H52 UNL     1       8.083  29.319  24.863  1.00  0.00     0.157 HD
ATOM     31  H51 UNL     1       9.075  30.726  25.014  1.00  0.00     0.157 HD
ENDBRANCH  15  29
ENDBRANCH   8   9
ENDBRANCH   1   6
TORSDOF 6
ENDMDL
MODEL 2
REMARK VINA RESULT: -8.343579266      2.809      6.461
REMARK  6 active torsions:
REMARK  status: ('A' for Active; 'I' for Inactive)
REMARK    1  A    between atoms: C2_2  and  C3_3 
REMARK    2  A    between atoms: C3_3  and  C5_6 
REMARK       I    between atoms: C5_6  and  N2_8 
REMARK    3  A    between atoms: N2_8  and  C6_9 
REMARK    4  A    between atoms: C7_10  and  C8_11 
REMARK    5  A    between atoms: C8_11  and  N3_12 
REMARK    6  A    between atoms: C14_22  and  N5_23 
ROOT
HETATM    1  C3  UNL     1       6.795  35.531  26.724  1.00  0.00     0.199 C 
HETATM    2  C4  UNL     1       5.902  35.397  27.868  1.00  0.00     0.074 C 
HETATM    3  N1  UNL     1       5.181  35.282  28.759  1.00  0.00    -0.196 NA
ENDROOT
BRANCH   1   4
HETATM    4  C2  UNL     1       7.740  34.390  26.699  1.00  0.00     0.025 C 
HETATM    5  C1  UNL     1       8.940  34.606  25.796  1.00  0.00     0.007 C 
ENDBRANCH   1   4
BRANCH   1   6
HETATM    6  C5  UNL     1       5.940  35.608  25.479  1.00  0.00     0.309 C 
HETATM    7  O1  UNL     1       6.242  36.514  24.703  1.00  0.00    -0.256 OA
HETATM    8  N2  UNL     1       4.899  34.683  25.292  1.00  0.00    -0.367 NA
BRANCH   8   9
HETATM    9  C6  UNL     1       3.918  33.811  25.113  1.00  0.00     0.140 A 
HETATM   10  C7  UNL     1       4.214  32.433  25.288  1.00  0.00     0.054 A 
HETATM   11  S1  UNL     1       2.723  31.662  25.111  1.00  0.00    -0.071 SA
HETATM   12  C13 UNL     1       1.740  33.016  24.817  1.00  0.00     0.091 A 
HETATM   13  N4  UNL     1       0.416  33.114  24.571  1.00  0.00    -0.335 N 
HETATM   14  C18 UNL     1       2.594  34.053  24.863  1.00  0.00     0.063 A 
HETATM   15  C14 UNL     1      -0.177  34.320  24.339  1.00  0.00     0.122 A 
ATOM     16  H4  UNL     1      -0.153  32.268  24.559  1.00  0.00     0.168 HD
HETATM   17  C15 UNL     1       0.640  35.394  24.372  1.00  0.00     0.110 A 
HETATM   18  C16 UNL     1       0.043  36.699  24.131  1.00  0.00     0.105 C 
HETATM   19  C17 UNL     1       2.013  35.309  24.626  1.00  0.00     0.074 A 
HETATM   20  N6  UNL     1      -0.434  37.745  23.958  1.00  0.00    -0.191 NA
HETATM   21 CL1  UNL     1       2.916  36.779  24.564  1.00  0.00    -0.081 Cl
BRANCH  10  22
HETATM   22  C8  UNL     1       5.545  31.821  25.566  1.00  0.00     0.322 C 
BRANCH  22  23
HETATM   23  N3  UNL     1       6.140  31.453  24.277  1.00  0.00     0.097 N 
HETATM   24  C9  UNL     1       5.668  30.097  24.028  1.00  0.00     0.299 C 
HETATM   25  C10 UNL     1       6.371  29.397  22.912  1.00  0.00     0.198 C 
HETATM   26  O2  UNL     1       7.686  29.827  22.740  1.00  0.00    -0.388 OA
HETATM   27  C11 UNL     1       8.172  30.114  24.012  1.00  0.00     0.198 C 
HETATM   28  C12 UNL     1       7.584  31.484  24.363  1.00  0.00     0.299 C 
ENDBRANCH  22  23
ENDBRANCH  10  22
BRANCH  15  29
HETATM   29  N5  UNL     1      -1.456  34.342  24.082  1.00  0.00    -0.384 N 
ATOM     30  H52 UNL     1      -2.086  33.542  24.124  1.00  0.00     0.157 HD
ATOM     31  H51 UNL     1      -1.885  35.234  23.837  1.00  0.00     0.157 HD
ENDBRANCH  15  29
ENDBRANCH   8   9
ENDBRANCH   1   6
TORSDOF 6
ENDMDL
MODEL 3
REMARK VINA RESULT: -8.270099589      1.269      1.522
REMARK  6 active torsions:
REMARK  status: ('A' for Active; 'I' for Inactive)
REMARK    1  A    between atoms: C2_2  and  C3_3 
REMARK    2  A    between atoms: C3_3  and  C5_6 
REMARK       I    between atoms: C5_6  and  N2_8 
REMARK    3  A    between atoms: N2_8  and  C6_9 
REMARK    4  A    between atoms: C7_10  and  C8_11 
REMARK    5  A    between atoms: C8_11  and  N3_12 
REMARK    6  A    between atoms: C14_22  and  N5_23 
ROOT
HETATM    1  C3  UNL     1       2.086  36.231  24.563  1.00  0.00     0.199 C 
HETATM    2  C4  UNL     1       1.334  37.221  25.323  1.00  0.00     0.074 C 
HETATM    3  N1  UNL     1       0.757  38.005  25.939  1.00  0.00    -0.196 NA
ENDROOT
BRANCH   1   4
HETATM    4  C2  UNL     1       2.719  36.884  23.393  1.00  0.00     0.025 C 
HETATM    5  C1  UNL     1       2.302  36.292  22.059  1.00  0.00     0.007 C 
ENDBRANCH   1   4
BRANCH   1   6
HETATM    6  C5  UNL     1       3.096  35.602  25.497  1.00  0.00     0.309 C 
HETATM    7  O1  UNL     1       3.662  36.394  26.251  1.00  0.00    -0.256 OA
HETATM    8  N2  UNL     1       3.317  34.215  25.450  1.00  0.00    -0.367 NA
BRANCH   8   9
HETATM    9  C6  UNL     1       3.527  32.908  25.410  1.00  0.00     0.140 A 
HETATM   10  C7  UNL     1       2.408  32.050  25.572  1.00  0.00     0.054 A 
HETATM   11  S1  UNL     1       3.033  30.500  25.334  1.00  0.00    -0.071 SA
HETATM   12  C13 UNL     1       4.659  30.896  25.042  1.00  0.00     0.091 A 
HETATM   13  N4  UNL     1       5.730  30.114  24.788  1.00  0.00    -0.335 N 
HETATM   14  C18 UNL     1       4.689  32.237  25.136  1.00  0.00     0.063 A 
HETATM   15  C14 UNL     1       6.972  30.647  24.602  1.00  0.00     0.122 A 
ATOM     16  H4  UNL     1       5.608  29.103  24.734  1.00  0.00     0.168 HD
HETATM   17  C15 UNL     1       7.054  31.992  24.688  1.00  0.00     0.110 A 
HETATM   18  C16 UNL     1       8.363  32.597  24.492  1.00  0.00     0.105 C 
HETATM   19  C17 UNL     1       5.955  32.815  24.950  1.00  0.00     0.074 A 
HETATM   20  N6  UNL     1       9.403  33.086  24.317  1.00  0.00    -0.191 NA
HETATM   21 CL1  UNL     1       6.257  34.509  25.091  1.00  0.00    -0.081 Cl
BRANCH  10  22
HETATM   22  C8  UNL     1       1.003  32.444  25.881  1.00  0.00     0.322 C 
BRANCH  22  23
HETATM   23  N3  UNL     1       0.204  32.213  24.674  1.00  0.00     0.097 N 
HETATM   24  C9  UNL     1       0.444  33.386  23.844  1.00  0.00     0.299 C 
HETATM   25  C10 UNL     1      -0.486  33.520  22.683  1.00  0.00     0.198 C 
HETATM   26  O2  UNL     1      -1.739  32.954  22.920  1.00  0.00    -0.388 OA
HETATM   27  C11 UNL     1      -2.014  33.166  24.268  1.00  0.00     0.198 C 
HETATM   28  C12 UNL     1      -1.199  32.105  25.013  1.00  0.00     0.299 C 
ENDBRANCH  22  23
ENDBRANCH  10  22
BRANCH  15  29
HETATM   29  N5  UNL     1       7.968  29.834  24.385  1.00  0.00    -0.384 N 
ATOM     30  H52 UNL     1       8.569  29.424  25.100  1.00  0.00     0.157 HD
ATOM     31  H51 UNL     1       8.168  29.557  23.424  1.00  0.00     0.157 HD
ENDBRANCH  15  29
ENDBRANCH   8   9
ENDBRANCH   1   6
TORSDOF 6
ENDMDL
MODEL 4
REMARK VINA RESULT: -8.256978266      2.280      3.398
REMARK  6 active torsions:
REMARK  status: ('A' for Active; 'I' for Inactive)
REMARK    1  A    between atoms: C2_2  and  C3_3 
REMARK    2  A    between atoms: C3_3  and  C5_6 
REMARK       I    between atoms: C5_6  and  N2_8 
REMARK    3  A    between atoms: N2_8  and  C6_9 
REMARK    4  A    between atoms: C7_10  and  C8_11 
REMARK    5  A    between atoms: C8_11  and  N3_12 
REMARK    6  A    between atoms: C14_22  and  N5_23 
ROOT
HETATM    1  C3  UNL     1       0.875  35.058  22.361  1.00  0.00     0.199 C 
HETATM    2  C4  UNL     1      -0.249  34.183  22.053  1.00  0.00     0.074 C 
HETATM    3  N1  UNL     1      -1.144  33.494  21.830  1.00  0.00    -0.196 NA
ENDROOT
BRANCH   1   4
HETATM    4  C2  UNL     1       0.570  36.434  21.903  1.00  0.00     0.025 C 
HETATM    5  C1  UNL     1       0.631  36.606  20.397  1.00  0.00     0.007 C 
ENDBRANCH   1   4
BRANCH   1   6
HETATM    6  C5  UNL     1       1.123  34.981  23.852  1.00  0.00     0.309 C 
HETATM    7  O1  UNL     1       0.385  35.692  24.533  1.00  0.00    -0.256 OA
HETATM    8  N2  UNL     1       2.136  34.141  24.345  1.00  0.00    -0.367 NA
BRANCH   8   9
HETATM    9  C6  UNL     1       3.088  33.350  24.814  1.00  0.00     0.140 A 
HETATM   10  C7  UNL     1       2.784  31.973  24.986  1.00  0.00     0.054 A 
HETATM   11  S1  UNL     1       4.247  31.279  25.461  1.00  0.00    -0.071 SA
HETATM   12  C13 UNL     1       5.229  32.665  25.458  1.00  0.00     0.091 A 
HETATM   13  N4  UNL     1       6.535  32.828  25.761  1.00  0.00    -0.335 N 
HETATM   14  C18 UNL     1       4.396  33.652  25.083  1.00  0.00     0.063 A 
HETATM   15  C14 UNL     1       7.130  34.053  25.710  1.00  0.00     0.122 A 
ATOM     16  H4  UNL     1       7.088  32.016  26.033  1.00  0.00     0.168 HD
HETATM   17  C15 UNL     1       6.334  35.080  25.341  1.00  0.00     0.110 A 
HETATM   18  C16 UNL     1       6.934  36.403  25.273  1.00  0.00     0.105 C 
HETATM   19  C17 UNL     1       4.980  34.928  25.023  1.00  0.00     0.074 A 
HETATM   20  N6  UNL     1       7.414  37.460  25.198  1.00  0.00    -0.191 NA
HETATM   21 CL1  UNL     1       4.098  36.361  24.636  1.00  0.00    -0.081 Cl
BRANCH  10  22
HETATM   22  C8  UNL     1       1.465  31.306  24.786  1.00  0.00     0.322 C 
BRANCH  22  23
HETATM   23  N3  UNL     1       0.499  31.965  25.670  1.00  0.00     0.097 N 
HETATM   24  C9  UNL     1       0.458  31.126  26.861  1.00  0.00     0.299 C 
HETATM   25  C10 UNL     1      -0.668  31.433  27.791  1.00  0.00     0.198 C 
HETATM   26  O2  UNL     1      -1.790  31.946  27.140  1.00  0.00    -0.388 OA
HETATM   27  C11 UNL     1      -1.848  31.310  25.904  1.00  0.00     0.198 C 
HETATM   28  C12 UNL     1      -0.802  32.021  25.040  1.00  0.00     0.299 C 
ENDBRANCH  22  23
ENDBRANCH  10  22
BRANCH  15  29
HETATM   29  N5  UNL     1       8.388  34.146  26.040  1.00  0.00    -0.384 N 
ATOM     30  H52 UNL     1       9.004  33.365  26.265  1.00  0.00     0.157 HD
ATOM     31  H51 UNL     1       8.818  35.070  26.060  1.00  0.00     0.157 HD
ENDBRANCH  15  29
ENDBRANCH   8   9
ENDBRANCH   1   6
TORSDOF 6
ENDMDL
MODEL 5
REMARK VINA RESULT: -8.241420380      2.506      4.501
REMARK  6 active torsions:
REMARK  status: ('A' for Active; 'I' for Inactive)
REMARK    1  A    between atoms: C2_2  and  C3_3 
REMARK    2  A    between atoms: C3_3  and  C5_6 
REMARK       I    between atoms: C5_6  and  N2_8 
REMARK    3  A    between atoms: N2_8  and  C6_9 
REMARK    4  A    between atoms: C7_10  and  C8_11 
REMARK    5  A    between atoms: C8_11  and  N3_12 
REMARK    6  A    between atoms: C14_22  and  N5_23 
ROOT
HETATM    1  C3  UNL     1       3.431  31.047  25.457  1.00  0.00     0.199 C 
HETATM    2  C4  UNL     1       2.324  30.199  25.035  1.00  0.00     0.074 C 
HETATM    3  N1  UNL     1       1.435  29.545  24.702  1.00  0.00    -0.196 NA
ENDROOT
BRANCH   1   4
HETATM    4  C2  UNL     1       4.241  31.426  24.275  1.00  0.00     0.025 C 
HETATM    5  C1  UNL     1       4.851  30.243  23.546  1.00  0.00     0.007 C 
ENDBRANCH   1   4
BRANCH   1   6
HETATM    6  C5  UNL     1       2.846  32.245  26.172  1.00  0.00     0.309 C 
HETATM    7  O1  UNL     1       2.107  31.970  27.117  1.00  0.00    -0.256 OA
HETATM    8  N2  UNL     1       3.167  33.541  25.733  1.00  0.00    -0.367 NA
BRANCH   8   9
HETATM    9  C6  UNL     1       3.468  34.763  25.322  1.00  0.00     0.140 A 
HETATM   10  C7  UNL     1       2.403  35.605  24.902  1.00  0.00     0.054 A 
HETATM   11  S1  UNL     1       3.144  37.088  24.586  1.00  0.00    -0.071 SA
HETATM   12  C13 UNL     1       4.752  36.683  24.959  1.00  0.00     0.091 A 
HETATM   13  N4  UNL     1       5.885  37.416  24.909  1.00  0.00    -0.335 N 
HETATM   14  C18 UNL     1       4.684  35.391  25.326  1.00  0.00     0.063 A 
HETATM   15  C14 UNL     1       7.094  36.879  25.238  1.00  0.00     0.122 A 
ATOM     16  H4  UNL     1       5.835  38.392  24.619  1.00  0.00     0.168 HD
HETATM   17  C15 UNL     1       7.080  35.581  25.612  1.00  0.00     0.110 A 
HETATM   18  C16 UNL     1       8.352  34.974  25.973  1.00  0.00     0.105 C 
HETATM   19  C17 UNL     1       5.915  34.809  25.670  1.00  0.00     0.074 A 
HETATM   20  N6  UNL     1       9.363  34.490  26.281  1.00  0.00    -0.191 NA
HETATM   21 CL1  UNL     1       6.093  33.148  26.106  1.00  0.00    -0.081 Cl
BRANCH  10  22
HETATM   22  C8  UNL     1       0.962  35.245  24.776  1.00  0.00     0.322 C 
BRANCH  22  23
HETATM   23  N3  UNL     1       0.802  34.494  23.527  1.00  0.00     0.097 N 
HETATM   24  C9  UNL     1       0.075  35.398  22.645  1.00  0.00     0.299 C 
HETATM   25  C10 UNL     1      -0.459  34.753  21.409  1.00  0.00     0.198 C 
HETATM   26  O2  UNL     1      -0.754  33.401  21.582  1.00  0.00    -0.388 OA
HETATM   27  C11 UNL     1      -1.218  33.267  22.888  1.00  0.00     0.198 C 
HETATM   28  C12 UNL     1       0.041  33.286  23.761  1.00  0.00     0.299 C 
ENDBRANCH  22  23
ENDBRANCH  10  22
BRANCH  15  29
HETATM   29  N5  UNL     1       8.154  37.633  25.144  1.00  0.00    -0.384 N 
ATOM     30  H52 UNL     1       8.748  37.725  24.320  1.00  0.00     0.157 HD
ATOM     31  H51 UNL     1       8.415  38.204  25.947  1.00  0.00     0.157 HD
ENDBRANCH  15  29
ENDBRANCH   8   9
ENDBRANCH   1   6
TORSDOF 6
ENDMDL
