MODEL 1
REMARK VINA RESULT: -9.082135693      0.000      0.000
REMARK  7 active torsions:
REMARK  status: ('A' for Active; 'I' for Inactive)
REMARK    1  A    between atoms: C2_2  and  C4_4 
REMARK    2  A    between atoms: C4_4  and  N1_5 
REMARK    3  A    between atoms: C4_4  and  N2_9 
REMARK    4  A    between atoms: N2_9  and  C5_11 
REMARK    5  A    between atoms: C8_14  and  N3_15 
REMARK       I    between atoms: N4_18  and  C11_19 
REMARK    6  A    between atoms: C11_19  and  C12_21 
REMARK    7  A    between atoms: C12_21  and  C13_22 
ROOT
HETATM    1  C5  UNL     1       1.088  37.151  24.939  1.00  0.00     0.105 A 
HETATM    2  C6  UNL     1       2.421  36.754  25.018  1.00  0.00     0.067 A 
HETATM    3  C7  UNL     1       3.057  37.589  25.910  1.00  0.00     0.056 A 
HETATM    4  C8  UNL     1       4.318  37.708  26.386  1.00  0.00     0.118 A 
HETATM    5  N5  UNL     1       4.599  38.705  27.282  1.00  0.00    -0.338 N 
ATOM      6  H5  UNL     1       5.555  38.782  27.630  1.00  0.00     0.168 HD
HETATM    7  C19 UNL     1       3.698  39.580  27.728  1.00  0.00     0.183 A 
HETATM    8  N6  UNL     1       2.445  39.477  27.274  1.00  0.00    -0.338 N 
ATOM      9  H6  UNL     1       1.731  40.130  27.598  1.00  0.00     0.168 HD
HETATM   10  C20 UNL     1       2.118  38.498  26.375  1.00  0.00     0.121 A 
HETATM   11  N7  UNL     1       0.962  38.198  25.770  1.00  0.00    -0.328 N 
ATOM     12  H7  UNL     1       0.090  38.705  25.923  1.00  0.00     0.169 HD
ENDROOT
BRANCH   4  13
HETATM   13  N3  UNL     1       5.346  36.803  26.029  1.00  0.00    -0.363 N 
HETATM   14  C9  UNL     1       5.304  35.523  26.757  1.00  0.00     0.144 C 
HETATM   15  C10 UNL     1       6.061  34.430  26.056  1.00  0.00     0.145 C 
HETATM   16  N4  UNL     1       7.385  34.870  25.628  1.00  0.00    -0.349 N 
HETATM   17  C11 UNL     1       8.328  33.892  25.257  1.00  0.00     0.220 C 
HETATM   18  C17 UNL     1       7.662  36.315  25.582  1.00  0.00     0.145 C 
HETATM   19  O1  UNL     1       9.491  34.254  24.945  1.00  0.00    -0.273 OA
HETATM   20  C18 UNL     1       6.361  36.936  25.045  1.00  0.00     0.144 C 
BRANCH  17  21
HETATM   21  C12 UNL     1       7.977  32.469  25.226  1.00  0.00     0.109 C 
BRANCH  21  22
HETATM   22  C13 UNL     1       7.232  32.030  23.993  1.00  0.00     0.020 C 
HETATM   23  C14 UNL     1       6.465  30.753  24.236  1.00  0.00     0.033 C 
HETATM   24  C15 UNL     1       6.831  29.941  22.978  1.00  0.00     0.168 C 
HETATM   25  O2  UNL     1       8.207  30.245  22.929  1.00  0.00    -0.391 OA
HETATM   26  C16 UNL     1       8.262  31.615  22.960  1.00  0.00     0.172 C 
ENDBRANCH  21  22
ENDBRANCH  17  21
ENDBRANCH   4  13
BRANCH   1  27
HETATM   27  N2  UNL     1       0.072  36.552  24.141  1.00  0.00    -0.349 N 
ATOM     28  H2  UNL     1      -0.805  37.040  23.956  1.00  0.00     0.163 HD
BRANCH  27  29
HETATM   29  C4  UNL     1       0.313  35.239  23.603  1.00  0.00     0.286 C 
BRANCH  29  30
HETATM   30  C2  UNL     1       0.484  35.169  22.129  1.00  0.00     0.027 C 
HETATM   31  C1  UNL     1       0.199  36.521  21.526  1.00  0.00     0.013 C 
HETATM   32  C3  UNL     1      -0.481  34.098  21.624  1.00  0.00     0.013 C 
ENDBRANCH  29  30
BRANCH  29  33
HETATM   33  N1  UNL     1      -0.866  34.422  23.949  1.00  0.00    -0.058 N 
ATOM     34  H13 UNL     1      -1.749  34.901  23.768  1.00  0.00     0.276 HD
ATOM     35  H12 UNL     1      -1.007  33.637  23.313  1.00  0.00     0.276 HD
ATOM     36  H11 UNL     1      -0.761  34.133  24.922  1.00  0.00     0.276 HD
ENDBRANCH  29  33
ENDBRANCH  27  29
ENDBRANCH   1  27
TORSDOF 7
ENDMDL
MODEL 2
REMARK VINA RESULT: -8.827429799      1.364      1.880
REMARK  7 active torsions:
REMARK  status: ('A' for Active; 'I' for Inactive)
REMARK    1  A    between atoms: C2_2  and  C4_4 
REMARK    2  A    between atoms: C4_4  and  N1_5 
REMARK    3  A    between atoms: C4_4  and  N2_9 
REMARK    4  A    between atoms: N2_9  and  C5_11 
REMARK    5  A    between atoms: C8_14  and  N3_15 
REMARK       I    between atoms: N4_18  and  C11_19 
REMARK    6  A    between atoms: C11_19  and  C12_21 
REMARK    7  A    between atoms: C12_21  and  C13_22 
ROOT
HETATM    1  C5  UNL     1       0.566  35.717  24.038  1.00  0.00     0.105 A 
HETATM    2  C6  UNL     1       1.934  35.565  24.255  1.00  0.00     0.067 A 
HETATM    3  C7  UNL     1       2.356  36.618  25.036  1.00  0.00     0.056 A 
HETATM    4  C8  UNL     1       3.539  37.017  25.557  1.00  0.00     0.118 A 
HETATM    5  N5  UNL     1       3.585  38.169  26.296  1.00  0.00    -0.338 N 
ATOM      6  H5  UNL     1       4.485  38.457  26.680  1.00  0.00     0.168 HD
HETATM    7  C19 UNL     1       2.525  38.938  26.543  1.00  0.00     0.183 A 
HETATM    8  N6  UNL     1       1.345  38.560  26.041  1.00  0.00    -0.338 N 
ATOM      9  H6  UNL     1       0.514  39.126  26.214  1.00  0.00     0.168 HD
HETATM   10  C20 UNL     1       1.250  37.417  25.294  1.00  0.00     0.121 A 
HETATM   11  N7  UNL     1       0.209  36.841  24.681  1.00  0.00    -0.328 N 
ATOM     12  H7  UNL     1      -0.740  37.211  24.701  1.00  0.00     0.169 HD
ENDROOT
BRANCH   4  13
HETATM   13  N3  UNL     1       4.721  36.254  25.411  1.00  0.00    -0.363 N 
HETATM   14  C9  UNL     1       4.692  34.953  26.102  1.00  0.00     0.144 C 
HETATM   15  C10 UNL     1       5.704  33.983  25.562  1.00  0.00     0.145 C 
HETATM   16  N4  UNL     1       7.023  34.592  25.419  1.00  0.00    -0.349 N 
HETATM   17  C11 UNL     1       8.135  33.747  25.239  1.00  0.00     0.220 C 
HETATM   18  C17 UNL     1       7.122  36.060  25.444  1.00  0.00     0.145 C 
HETATM   19  O1  UNL     1       9.283  34.255  25.175  1.00  0.00    -0.273 OA
HETATM   20  C18 UNL     1       5.890  36.540  24.657  1.00  0.00     0.144 C 
BRANCH  17  21
HETATM   21  C12 UNL     1       7.976  32.294  25.123  1.00  0.00     0.109 C 
BRANCH  21  22
HETATM   22  C13 UNL     1       7.130  31.843  23.963  1.00  0.00     0.020 C 
HETATM   23  C14 UNL     1       6.459  30.521  24.248  1.00  0.00     0.033 C 
HETATM   24  C15 UNL     1       6.733  29.758  22.937  1.00  0.00     0.168 C 
HETATM   25  O2  UNL     1       8.078  30.137  22.754  1.00  0.00    -0.391 OA
HETATM   26  C16 UNL     1       8.065  31.507  22.817  1.00  0.00     0.172 C 
ENDBRANCH  21  22
ENDBRANCH  17  21
ENDBRANCH   4  13
BRANCH   1  27
HETATM   27  N2  UNL     1      -0.274  34.843  23.291  1.00  0.00    -0.349 N 
ATOM     28  H2  UNL     1      -0.326  34.908  22.274  1.00  0.00     0.163 HD
BRANCH  27  29
HETATM   29  C4  UNL     1      -1.051  33.865  24.007  1.00  0.00     0.286 C 
BRANCH  29  30
HETATM   30  C2  UNL     1      -0.291  33.008  24.953  1.00  0.00     0.027 C 
HETATM   31  C1  UNL     1       0.596  32.068  24.177  1.00  0.00     0.013 C 
HETATM   32  C3  UNL     1      -1.323  32.261  25.797  1.00  0.00     0.013 C 
ENDBRANCH  29  30
BRANCH  29  33
HETATM   33  N1  UNL     1      -1.647  32.978  22.991  1.00  0.00    -0.058 N 
ATOM     34  H13 UNL     1      -1.211  33.075  22.073  1.00  0.00     0.276 HD
ATOM     35  H12 UNL     1      -1.425  31.994  23.140  1.00  0.00     0.276 HD
ATOM     36  H11 UNL     1      -2.650  33.162  22.977  1.00  0.00     0.276 HD
ENDBRANCH  29  33
ENDBRANCH  27  29
ENDBRANCH   1  27
TORSDOF 7
ENDMDL
MODEL 3
REMARK VINA RESULT: -8.678679405      2.232      3.402
REMARK  7 active torsions:
REMARK  status: ('A' for Active; 'I' for Inactive)
REMARK    1  A    between atoms: C2_2  and  C4_4 
REMARK    2  A    between atoms: C4_4  and  N1_5 
REMARK    3  A    between atoms: C4_4  and  N2_9 
REMARK    4  A    between atoms: N2_9  and  C5_11 
REMARK    5  A    between atoms: C8_14  and  N3_15 
REMARK       I    between atoms: N4_18  and  C11_19 
REMARK    6  A    between atoms: C11_19  and  C12_21 
REMARK    7  A    between atoms: C12_21  and  C13_22 
ROOT
HETATM    1  C5  UNL     1       0.713  35.233  24.231  1.00  0.00     0.105 A 
HETATM    2  C6  UNL     1       1.920  34.542  24.320  1.00  0.00     0.067 A 
HETATM    3  C7  UNL     1       2.809  35.334  25.013  1.00  0.00     0.056 A 
HETATM    4  C8  UNL     1       4.100  35.221  25.400  1.00  0.00     0.118 A 
HETATM    5  N5  UNL     1       4.682  36.255  26.084  1.00  0.00    -0.338 N 
ATOM      6  H5  UNL     1       5.657  36.155  26.367  1.00  0.00     0.168 HD
HETATM    7  C19 UNL     1       4.052  37.385  26.403  1.00  0.00     0.183 A 
HETATM    8  N6  UNL     1       2.773  37.516  26.034  1.00  0.00    -0.338 N 
ATOM      9  H6  UNL     1       2.261  38.367  26.265  1.00  0.00     0.168 HD
HETATM   10  C20 UNL     1       2.150  36.510  25.346  1.00  0.00     0.121 A 
HETATM   11  N7  UNL     1       0.907  36.403  24.861  1.00  0.00    -0.328 N 
ATOM     12  H7  UNL     1       0.193  37.124  24.959  1.00  0.00     0.169 HD
ENDROOT
BRANCH   4  13
HETATM   13  N3  UNL     1       4.855  34.047  25.169  1.00  0.00    -0.363 N 
HETATM   14  C9  UNL     1       6.190  34.289  24.595  1.00  0.00     0.144 C 
HETATM   15  C10 UNL     1       7.130  33.135  24.801  1.00  0.00     0.145 C 
HETATM   16  N4  UNL     1       6.514  31.859  24.451  1.00  0.00    -0.349 N 
HETATM   17  C11 UNL     1       7.349  30.738  24.279  1.00  0.00     0.220 C 
HETATM   18  C17 UNL     1       5.050  31.800  24.321  1.00  0.00     0.145 C 
HETATM   19  O1  UNL     1       6.838  29.647  23.918  1.00  0.00    -0.273 OA
HETATM   20  C18 UNL     1       4.529  32.696  25.459  1.00  0.00     0.144 C 
BRANCH  17  21
HETATM   21  C12 UNL     1       8.794  30.821  24.514  1.00  0.00     0.109 C 
BRANCH  21  22
HETATM   22  C13 UNL     1       9.634  30.861  23.265  1.00  0.00     0.020 C 
HETATM   23  C14 UNL     1      10.861  29.991  23.396  1.00  0.00     0.033 C 
HETATM   24  C15 UNL     1      11.954  30.932  22.853  1.00  0.00     0.168 C 
HETATM   25  O2  UNL     1      11.541  32.119  23.492  1.00  0.00    -0.391 OA
HETATM   26  C16 UNL     1      10.219  32.256  23.151  1.00  0.00     0.172 C 
ENDBRANCH  21  22
ENDBRANCH  17  21
ENDBRANCH   4  13
BRANCH   1  27
HETATM   27  N2  UNL     1      -0.481  34.774  23.606  1.00  0.00    -0.349 N 
ATOM     28  H2  UNL     1      -0.818  35.202  22.743  1.00  0.00     0.163 HD
BRANCH  27  29
HETATM   29  C4  UNL     1      -1.200  33.690  24.221  1.00  0.00     0.286 C 
BRANCH  29  30
HETATM   30  C2  UNL     1      -0.384  32.759  25.042  1.00  0.00     0.027 C 
HETATM   31  C1  UNL     1       0.184  31.677  24.159  1.00  0.00     0.013 C 
HETATM   32  C3  UNL     1      -1.307  32.197  26.121  1.00  0.00     0.013 C 
ENDBRANCH  29  30
BRANCH  29  33
HETATM   33  N1  UNL     1      -1.792  32.904  23.122  1.00  0.00    -0.058 N 
ATOM     34  H13 UNL     1      -2.054  31.959  23.404  1.00  0.00     0.276 HD
ATOM     35  H12 UNL     1      -2.724  33.226  22.858  1.00  0.00     0.276 HD
ATOM     36  H11 UNL     1      -1.130  32.919  22.346  1.00  0.00     0.276 HD
ENDBRANCH  29  33
ENDBRANCH  27  29
ENDBRANCH   1  27
TORSDOF 7
ENDMDL
MODEL 4
REMARK VINA RESULT: -8.674999707      3.377      7.340
REMARK  7 active torsions:
REMARK  status: ('A' for Active; 'I' for Inactive)
REMARK    1  A    between atoms: C2_2  and  C4_4 
REMARK    2  A    between atoms: C4_4  and  N1_5 
REMARK    3  A    between atoms: C4_4  and  N2_9 
REMARK    4  A    between atoms: N2_9  and  C5_11 
REMARK    5  A    between atoms: C8_14  and  N3_15 
REMARK       I    between atoms: N4_18  and  C11_19 
REMARK    6  A    between atoms: C11_19  and  C12_21 
REMARK    7  A    between atoms: C12_21  and  C13_22 
ROOT
HETATM    1  C5  UNL     1       7.986  33.112  25.077  1.00  0.00     0.105 A 
HETATM    2  C6  UNL     1       6.733  33.648  24.788  1.00  0.00     0.067 A 
HETATM    3  C7  UNL     1       6.819  35.016  24.918  1.00  0.00     0.056 A 
HETATM    4  C8  UNL     1       5.960  36.053  24.781  1.00  0.00     0.118 A 
HETATM    5  N5  UNL     1       6.410  37.325  25.016  1.00  0.00    -0.338 N 
ATOM      6  H5  UNL     1       5.749  38.095  24.910  1.00  0.00     0.168 HD
HETATM    7  C19 UNL     1       7.659  37.618  25.375  1.00  0.00     0.183 A 
HETATM    8  N6  UNL     1       8.526  36.609  25.512  1.00  0.00    -0.338 N 
ATOM      9  H6  UNL     1       9.491  36.800  25.783  1.00  0.00     0.168 HD
HETATM   10  C20 UNL     1       8.121  35.320  25.290  1.00  0.00     0.121 A 
HETATM   11  N7  UNL     1       8.778  34.157  25.371  1.00  0.00    -0.328 N 
ATOM     12  H7  UNL     1       9.762  34.073  25.626  1.00  0.00     0.169 HD
ENDROOT
BRANCH   4  13
HETATM   13  N3  UNL     1       4.625  35.871  24.349  1.00  0.00    -0.363 N 
HETATM   14  C9  UNL     1       3.955  34.695  24.932  1.00  0.00     0.144 C 
HETATM   15  C10 UNL     1       2.457  34.783  24.858  1.00  0.00     0.145 C 
HETATM   16  N4  UNL     1       1.997  35.178  23.530  1.00  0.00    -0.349 N 
HETATM   17  C11 UNL     1       0.639  34.991  23.209  1.00  0.00     0.220 C 
HETATM   18  C17 UNL     1       2.970  35.775  22.601  1.00  0.00     0.145 C 
HETATM   19  O1  UNL     1       0.243  35.270  22.049  1.00  0.00    -0.273 OA
HETATM   20  C18 UNL     1       3.838  36.683  23.490  1.00  0.00     0.144 C 
BRANCH  17  21
HETATM   21  C12 UNL     1      -0.315  34.482  24.200  1.00  0.00     0.109 C 
BRANCH  21  22
HETATM   22  C13 UNL     1      -0.787  33.073  23.954  1.00  0.00     0.020 C 
HETATM   23  C14 UNL     1      -1.735  32.612  25.035  1.00  0.00     0.033 C 
HETATM   24  C15 UNL     1      -1.175  31.209  25.343  1.00  0.00     0.168 C 
HETATM   25  O2  UNL     1       0.198  31.529  25.336  1.00  0.00    -0.391 OA
HETATM   26  C16 UNL     1       0.404  32.153  24.132  1.00  0.00     0.172 C 
ENDBRANCH  21  22
ENDBRANCH  17  21
ENDBRANCH   4  13
BRANCH   1  27
HETATM   27  N2  UNL     1       8.344  31.735  25.052  1.00  0.00    -0.349 N 
ATOM     28  H2  UNL     1       8.240  31.151  25.882  1.00  0.00     0.163 HD
BRANCH  27  29
HETATM   29  C4  UNL     1       8.857  31.185  23.824  1.00  0.00     0.286 C 
BRANCH  29  30
HETATM   30  C2  UNL     1       7.936  30.281  23.090  1.00  0.00     0.027 C 
HETATM   31  C1  UNL     1       7.431  30.977  21.851  1.00  0.00     0.013 C 
HETATM   32  C3  UNL     1       6.805  29.926  24.052  1.00  0.00     0.013 C 
ENDBRANCH  29  30
BRANCH  29  33
HETATM   33  N1  UNL     1      10.052  30.399  24.186  1.00  0.00    -0.058 N 
ATOM     34  H13 UNL     1       9.985  29.420  23.904  1.00  0.00     0.276 HD
ATOM     35  H12 UNL     1      10.872  30.641  23.629  1.00  0.00     0.276 HD
ATOM     36  H11 UNL     1      10.202  30.515  25.188  1.00  0.00     0.276 HD
ENDBRANCH  29  33
ENDBRANCH  27  29
ENDBRANCH   1  27
TORSDOF 7
ENDMDL
MODEL 5
REMARK VINA RESULT: -8.664215720      3.944      5.214
REMARK  7 active torsions:
REMARK  status: ('A' for Active; 'I' for Inactive)
REMARK    1  A    between atoms: C2_2  and  C4_4 
REMARK    2  A    between atoms: C4_4  and  N1_5 
REMARK    3  A    between atoms: C4_4  and  N2_9 
REMARK    4  A    between atoms: N2_9  and  C5_11 
REMARK    5  A    between atoms: C8_14  and  N3_15 
REMARK       I    between atoms: N4_18  and  C11_19 
REMARK    6  A    between atoms: C11_19  and  C12_21 
REMARK    7  A    between atoms: C12_21  and  C13_22 
ROOT
HETATM    1  C5  UNL     1      -0.698  33.632  23.320  1.00  0.00     0.105 A 
HETATM    2  C6  UNL     1       0.489  32.963  23.610  1.00  0.00     0.067 A 
HETATM    3  C7  UNL     1       0.337  32.342  24.829  1.00  0.00     0.056 A 
HETATM    4  C8  UNL     1       1.118  31.573  25.623  1.00  0.00     0.118 A 
HETATM    5  N5  UNL     1       0.619  31.131  26.820  1.00  0.00    -0.338 N 
ATOM      6  H5  UNL     1       1.221  30.555  27.407  1.00  0.00     0.168 HD
HETATM    7  C19 UNL     1      -0.606  31.410  27.263  1.00  0.00     0.183 A 
HETATM    8  N6  UNL     1      -1.396  32.165  26.493  1.00  0.00    -0.338 N 
ATOM      9  H6  UNL     1      -2.341  32.394  26.803  1.00  0.00     0.168 HD
HETATM   10  C20 UNL     1      -0.940  32.631  25.289  1.00  0.00     0.121 A 
HETATM   11  N7  UNL     1      -1.518  33.400  24.359  1.00  0.00    -0.328 N 
ATOM     12  H7  UNL     1      -2.468  33.765  24.429  1.00  0.00     0.169 HD
ENDROOT
BRANCH   4  13
HETATM   13  N3  UNL     1       2.415  31.165  25.233  1.00  0.00    -0.363 N 
HETATM   14  C9  UNL     1       3.342  32.276  24.958  1.00  0.00     0.144 C 
HETATM   15  C10 UNL     1       4.785  31.860  25.021  1.00  0.00     0.145 C 
HETATM   16  N4  UNL     1       5.032  30.631  24.273  1.00  0.00    -0.349 N 
HETATM   17  C11 UNL     1       6.364  30.291  23.966  1.00  0.00     0.220 C 
HETATM   18  C17 UNL     1       3.881  29.794  23.900  1.00  0.00     0.145 C 
HETATM   19  O1  UNL     1       6.587  29.268  23.270  1.00  0.00    -0.273 OA
HETATM   20  C18 UNL     1       2.952  29.854  25.126  1.00  0.00     0.144 C 
BRANCH  17  21
HETATM   21  C12 UNL     1       7.487  31.105  24.442  1.00  0.00     0.109 C 
BRANCH  21  22
HETATM   22  C13 UNL     1       8.162  31.930  23.379  1.00  0.00     0.020 C 
HETATM   23  C14 UNL     1       9.308  31.181  22.743  1.00  0.00     0.033 C 
HETATM   24  C15 UNL     1      10.407  32.262  22.743  1.00  0.00     0.168 C 
HETATM   25  O2  UNL     1      10.192  32.777  24.037  1.00  0.00    -0.391 OA
HETATM   26  C16 UNL     1       8.857  33.088  24.070  1.00  0.00     0.172 C 
ENDBRANCH  21  22
ENDBRANCH  17  21
ENDBRANCH   4  13
BRANCH   1  27
HETATM   27  N2  UNL     1      -0.977  34.395  22.151  1.00  0.00    -0.349 N 
ATOM     28  H2  UNL     1      -1.936  34.538  21.835  1.00  0.00     0.163 HD
BRANCH  27  29
HETATM   29  C4  UNL     1       0.131  34.959  21.424  1.00  0.00     0.286 C 
BRANCH  29  30
HETATM   30  C2  UNL     1       0.963  35.933  22.174  1.00  0.00     0.027 C 
HETATM   31  C1  UNL     1       0.082  37.022  22.732  1.00  0.00     0.013 C 
HETATM   32  C3  UNL     1       1.998  36.477  21.192  1.00  0.00     0.013 C 
ENDBRANCH  29  30
BRANCH  29  33
HETATM   33  N1  UNL     1      -0.447  35.670  20.269  1.00  0.00    -0.058 N 
ATOM     34  H13 UNL     1      -0.113  36.631  20.184  1.00  0.00     0.276 HD
ATOM     35  H12 UNL     1      -0.096  35.329  19.373  1.00  0.00     0.276 HD
ATOM     36  H11 UNL     1      -1.462  35.607  20.348  1.00  0.00     0.276 HD
ENDBRANCH  29  33
ENDBRANCH  27  29
ENDBRANCH   1  27
TORSDOF 7
ENDMDL
