MODEL 1
REMARK VINA RESULT: -8.689497255      0.000      0.000
REMARK  9 active torsions:
REMARK  status: ('A' for Active; 'I' for Inactive)
REMARK    1  A    between atoms: C2_2  and  C4_4 
REMARK    2  A    between atoms: C4_4  and  O1_5 
REMARK    3  A    between atoms: O1_5  and  C5_6 
REMARK    4  A    between atoms: C5_6  and  C6_7 
REMARK    5  A    between atoms: C6_7  and  O2_8 
REMARK    6  A    between atoms: C11_14  and  N1_15 
REMARK    7  A    between atoms: C14_20  and  N3_21 
REMARK    8  A    between atoms: N3_21  and  C15_22 
REMARK    9  A    between atoms: C20_32  and  O3_33 
ROOT
HETATM    1  C6  UNL     1       2.126  32.278  25.935  1.00  0.00     0.110 C 
HETATM    2  C7  UNL     1       1.420  31.044  25.482  1.00  0.00     0.026 C 
HETATM    3  C8  UNL     1       1.617  30.654  24.063  1.00  0.00     0.014 C 
HETATM    4  C9  UNL     1       2.999  30.121  24.498  1.00  0.00     0.012 C 
HETATM    5  C10 UNL     1       2.360  29.876  25.834  1.00  0.00     0.014 C 
HETATM    6  C11 UNL     1       3.915  31.327  24.468  1.00  0.00     0.128 C 
HETATM    7  C20 UNL     1       3.603  32.250  25.588  1.00  0.00     0.178 C 
ENDROOT
BRANCH   6   8
HETATM    8  N1  UNL     1       5.255  30.894  24.317  1.00  0.00    -0.319 N 
HETATM    9  C12 UNL     1       5.654  29.621  24.012  1.00  0.00     0.185 A 
HETATM   10  N2  UNL     1       6.967  29.588  23.953  1.00  0.00    -0.345 N 
HETATM   11  C13 UNL     1       7.488  30.801  24.205  1.00  0.00     0.136 A 
ATOM     12  H2  UNL     1       7.516  28.755  23.743  1.00  0.00     0.167 HD
HETATM   13  C14 UNL     1       8.777  31.298  24.267  1.00  0.00     0.206 A 
HETATM   14  C19 UNL     1       6.406  31.610  24.432  1.00  0.00     0.143 A 
HETATM   15  N4  UNL     1       8.901  32.630  24.564  1.00  0.00    -0.306 N 
HETATM   16  C18 UNL     1       7.858  33.412  24.782  1.00  0.00     0.182 A 
ATOM     17  H4  UNL     1       9.836  33.034  24.619  1.00  0.00     0.171 HD
HETATM   18 CL1  UNL     1       8.113  35.126  25.160  1.00  0.00    -0.045 Cl
HETATM   19  N5  UNL     1       6.625  32.893  24.714  1.00  0.00    -0.316 N 
ATOM     20  H5  UNL     1       5.825  33.502  24.884  1.00  0.00     0.170 HD
BRANCH  13  21
HETATM   21  N3  UNL     1       9.735  30.583  24.067  1.00  0.00    -0.423 NA
BRANCH  21  22
HETATM   22  C15 UNL     1      10.939  30.126  23.661  1.00  0.00     0.165 A 
HETATM   23  C16 UNL     1      11.435  30.243  22.241  1.00  0.00     0.042 A 
HETATM   24  C17 UNL     1      12.138  30.948  23.334  1.00  0.00     0.042 A 
ENDBRANCH  21  22
ENDBRANCH  13  21
ENDBRANCH   6   8
BRANCH   7  25
HETATM   25  O3  UNL     1       3.945  33.548  25.182  1.00  0.00    -0.390 OA
ATOM     26  H3  UNL     1       4.636  33.842  25.764  1.00  0.00     0.210 HD
ENDBRANCH   7  25
BRANCH   1  27
HETATM   27  C5  UNL     1       1.479  33.566  25.476  1.00  0.00     0.209 C 
BRANCH  27  28
HETATM   28  O1  UNL     1       1.480  33.715  24.108  1.00  0.00    -0.384 OA
BRANCH  28  29
HETATM   29  C4  UNL     1       0.414  34.512  23.729  1.00  0.00     0.200 C 
BRANCH  29  30
HETATM   30  C2  UNL     1      -0.600  33.790  22.934  1.00  0.00    -0.070 C 
HETATM   31  C1  UNL     1      -1.551  33.076  23.517  1.00  0.00     0.016 C 
HETATM   32  C3  UNL     1      -0.533  33.883  21.459  1.00  0.00     0.044 C 
ENDBRANCH  29  30
ENDBRANCH  28  29
ENDBRANCH  27  28
ENDBRANCH   1  27
BRANCH   1  33
HETATM   33  O2  UNL     1       2.012  32.294  27.348  1.00  0.00    -0.385 OA
ATOM     34  H2  UNL     1       1.800  31.400  27.587  1.00  0.00     0.210 HD
ENDBRANCH   1  33
TORSDOF 9
ENDMDL
MODEL 2
REMARK VINA RESULT: -8.422909947      2.515      3.929
REMARK  9 active torsions:
REMARK  status: ('A' for Active; 'I' for Inactive)
REMARK    1  A    between atoms: C2_2  and  C4_4 
REMARK    2  A    between atoms: C4_4  and  O1_5 
REMARK    3  A    between atoms: O1_5  and  C5_6 
REMARK    4  A    between atoms: C5_6  and  C6_7 
REMARK    5  A    between atoms: C6_7  and  O2_8 
REMARK    6  A    between atoms: C11_14  and  N1_15 
REMARK    7  A    between atoms: C14_20  and  N3_21 
REMARK    8  A    between atoms: N3_21  and  C15_22 
REMARK    9  A    between atoms: C20_32  and  O3_33 
ROOT
HETATM    1  C6  UNL     1       3.608  36.065  24.489  1.00  0.00     0.110 C 
HETATM    2  C7  UNL     1       4.184  37.060  25.440  1.00  0.00     0.026 C 
HETATM    3  C8  UNL     1       4.680  36.526  26.734  1.00  0.00     0.014 C 
HETATM    4  C9  UNL     1       5.919  36.038  25.952  1.00  0.00     0.012 C 
HETATM    5  C10 UNL     1       5.666  37.205  25.042  1.00  0.00     0.014 C 
HETATM    6  C11 UNL     1       5.514  34.702  25.364  1.00  0.00     0.128 C 
HETATM    7  C20 UNL     1       4.539  34.889  24.261  1.00  0.00     0.178 C 
ENDROOT
BRANCH   6   8
HETATM    8  N1  UNL     1       6.674  33.934  25.103  1.00  0.00    -0.319 N 
HETATM    9  C12 UNL     1       7.960  34.402  25.106  1.00  0.00     0.185 A 
HETATM   10  N2  UNL     1       8.776  33.410  24.822  1.00  0.00    -0.345 N 
HETATM   11  C13 UNL     1       8.092  32.270  24.626  1.00  0.00     0.136 A 
ATOM     12  H2  UNL     1       9.790  33.495  24.760  1.00  0.00     0.167 HD
HETATM   13  C14 UNL     1       8.459  30.974  24.310  1.00  0.00     0.206 A 
HETATM   14  C19 UNL     1       6.778  32.610  24.804  1.00  0.00     0.143 A 
HETATM   15  N4  UNL     1       7.439  30.067  24.191  1.00  0.00    -0.306 N 
HETATM   16  C18 UNL     1       6.169  30.394  24.364  1.00  0.00     0.182 A 
ATOM     17  H4  UNL     1       7.668  29.101  23.959  1.00  0.00     0.171 HD
HETATM   18 CL1  UNL     1       4.915  29.153  24.189  1.00  0.00    -0.045 Cl
HETATM   19  N5  UNL     1       5.855  31.660  24.667  1.00  0.00    -0.316 N 
ATOM     20  H5  UNL     1       4.874  31.905  24.799  1.00  0.00     0.170 HD
BRANCH  13  21
HETATM   21  N3  UNL     1       9.621  30.672  24.151  1.00  0.00    -0.423 NA
BRANCH  21  22
HETATM   22  C15 UNL     1      10.910  30.675  23.748  1.00  0.00     0.165 A 
HETATM   23  C16 UNL     1      11.377  30.049  22.457  1.00  0.00     0.042 A 
HETATM   24  C17 UNL     1      11.500  31.507  22.663  1.00  0.00     0.042 A 
ENDBRANCH  21  22
ENDBRANCH  13  21
ENDBRANCH   6   8
BRANCH   7  25
HETATM   25  O3  UNL     1       3.731  33.744  24.203  1.00  0.00    -0.390 OA
ATOM     26  H3  UNL     1       2.965  33.924  24.735  1.00  0.00     0.210 HD
ENDBRANCH   7  25
BRANCH   1  27
HETATM   27  C5  UNL     1       2.214  35.602  24.848  1.00  0.00     0.209 C 
BRANCH  27  28
HETATM   28  O1  UNL     1       1.472  35.220  23.753  1.00  0.00    -0.384 OA
BRANCH  28  29
HETATM   29  C4  UNL     1       0.132  35.177  24.095  1.00  0.00     0.200 C 
BRANCH  29  30
HETATM   30  C2  UNL     1      -0.512  33.887  23.775  1.00  0.00    -0.070 C 
HETATM   31  C1  UNL     1      -0.674  33.490  22.522  1.00  0.00     0.016 C 
HETATM   32  C3  UNL     1      -0.977  33.038  24.894  1.00  0.00     0.044 C 
ENDBRANCH  29  30
ENDBRANCH  28  29
ENDBRANCH  27  28
ENDBRANCH   1  27
BRANCH   1  33
HETATM   33  O2  UNL     1       3.461  36.748  23.255  1.00  0.00    -0.385 OA
ATOM     34  H2  UNL     1       2.668  37.261  23.352  1.00  0.00     0.210 HD
ENDBRANCH   1  33
TORSDOF 9
ENDMDL
MODEL 3
REMARK VINA RESULT: -8.328842272      3.489      7.773
REMARK  9 active torsions:
REMARK  status: ('A' for Active; 'I' for Inactive)
REMARK    1  A    between atoms: C2_2  and  C4_4 
REMARK    2  A    between atoms: C4_4  and  O1_5 
REMARK    3  A    between atoms: O1_5  and  C5_6 
REMARK    4  A    between atoms: C5_6  and  C6_7 
REMARK    5  A    between atoms: C6_7  and  O2_8 
REMARK    6  A    between atoms: C11_14  and  N1_15 
REMARK    7  A    between atoms: C14_20  and  N3_21 
REMARK    8  A    between atoms: N3_21  and  C15_22 
REMARK    9  A    between atoms: C20_32  and  O3_33 
ROOT
HETATM    1  C6  UNL     1       7.612  30.711  22.899  1.00  0.00     0.110 C 
HETATM    2  C7  UNL     1       6.545  29.671  22.994  1.00  0.00     0.026 C 
HETATM    3  C8  UNL     1       5.962  29.445  24.340  1.00  0.00     0.014 C 
HETATM    4  C9  UNL     1       5.159  30.743  24.109  1.00  0.00     0.012 C 
HETATM    5  C10 UNL     1       5.229  30.395  22.650  1.00  0.00     0.014 C 
HETATM    6  C11 UNL     1       6.093  31.864  24.518  1.00  0.00     0.128 C 
HETATM    7  C20 UNL     1       7.184  32.026  23.525  1.00  0.00     0.178 C 
ENDROOT
BRANCH   6   8
HETATM    8  N1  UNL     1       5.331  33.007  24.862  1.00  0.00    -0.319 N 
HETATM    9  C12 UNL     1       4.017  33.216  24.544  1.00  0.00     0.185 A 
HETATM   10  N2  UNL     1       3.643  34.382  25.024  1.00  0.00    -0.345 N 
HETATM   11  C13 UNL     1       4.658  34.984  25.666  1.00  0.00     0.136 A 
ATOM     12  H2  UNL     1       2.707  34.776  24.923  1.00  0.00     0.167 HD
HETATM   13  C14 UNL     1       4.793  36.188  26.332  1.00  0.00     0.206 A 
HETATM   14  C19 UNL     1       5.710  34.113  25.557  1.00  0.00     0.143 A 
HETATM   15  N4  UNL     1       6.027  36.451  26.868  1.00  0.00    -0.306 N 
HETATM   16  C18 UNL     1       7.043  35.611  26.764  1.00  0.00     0.182 A 
ATOM     17  H4  UNL     1       6.167  37.329  27.366  1.00  0.00     0.171 HD
HETATM   18 CL1  UNL     1       8.605  36.034  27.490  1.00  0.00    -0.045 Cl
HETATM   19  N5  UNL     1       6.872  34.455  26.111  1.00  0.00    -0.316 N 
ATOM     20  H5  UNL     1       7.660  33.812  26.034  1.00  0.00     0.170 HD
BRANCH  13  21
HETATM   21  N3  UNL     1       3.864  36.960  26.428  1.00  0.00    -0.423 NA
BRANCH  21  22
HETATM   22  C15 UNL     1       2.912  37.873  26.139  1.00  0.00     0.165 A 
HETATM   23  C16 UNL     1       2.771  38.524  24.785  1.00  0.00     0.042 A 
HETATM   24  C17 UNL     1       1.695  37.656  25.308  1.00  0.00     0.042 A 
ENDBRANCH  21  22
ENDBRANCH  13  21
ENDBRANCH   6   8
BRANCH   7  25
HETATM   25  O3  UNL     1       8.305  32.534  24.198  1.00  0.00    -0.390 OA
ATOM     26  H3  UNL     1       8.340  33.463  24.004  1.00  0.00     0.210 HD
ENDBRANCH   7  25
BRANCH   1  27
HETATM   27  C5  UNL     1       8.959  30.266  23.423  1.00  0.00     0.209 C 
BRANCH  27  28
HETATM   28  O1  UNL     1       9.878  30.034  22.425  1.00  0.00    -0.384 OA
BRANCH  28  29
HETATM   29  C4  UNL     1      11.157  30.113  22.948  1.00  0.00     0.200 C 
BRANCH  29  30
HETATM   30  C2  UNL     1      11.826  31.399  22.662  1.00  0.00    -0.070 C 
HETATM   31  C1  UNL     1      12.148  31.747  21.425  1.00  0.00     0.016 C 
HETATM   32  C3  UNL     1      12.133  32.298  23.795  1.00  0.00     0.044 C 
ENDBRANCH  29  30
ENDBRANCH  28  29
ENDBRANCH  27  28
ENDBRANCH   1  27
BRANCH   1  33
HETATM   33  O2  UNL     1       7.814  30.935  21.514  1.00  0.00    -0.385 OA
ATOM     34  H2  UNL     1       7.132  31.547  21.262  1.00  0.00     0.210 HD
ENDBRANCH   1  33
TORSDOF 9
ENDMDL
MODEL 4
REMARK VINA RESULT: -8.095598450      2.803      4.369
REMARK  9 active torsions:
REMARK  status: ('A' for Active; 'I' for Inactive)
REMARK    1  A    between atoms: C2_2  and  C4_4 
REMARK    2  A    between atoms: C4_4  and  O1_5 
REMARK    3  A    between atoms: O1_5  and  C5_6 
REMARK    4  A    between atoms: C5_6  and  C6_7 
REMARK    5  A    between atoms: C6_7  and  O2_8 
REMARK    6  A    between atoms: C11_14  and  N1_15 
REMARK    7  A    between atoms: C14_20  and  N3_21 
REMARK    8  A    between atoms: N3_21  and  C15_22 
REMARK    9  A    between atoms: C20_32  and  O3_33 
ROOT
HETATM    1  C6  UNL     1       5.100  36.515  25.545  1.00  0.00     0.110 C 
HETATM    2  C7  UNL     1       5.847  36.829  26.798  1.00  0.00     0.026 C 
HETATM    3  C8  UNL     1       6.133  35.685  27.700  1.00  0.00     0.014 C 
HETATM    4  C9  UNL     1       7.259  35.308  26.712  1.00  0.00     0.012 C 
HETATM    5  C10 UNL     1       7.338  36.778  26.416  1.00  0.00     0.014 C 
HETATM    6  C11 UNL     1       6.578  34.499  25.627  1.00  0.00     0.128 C 
HETATM    7  C20 UNL     1       5.734  35.372  24.774  1.00  0.00     0.178 C 
ENDROOT
BRANCH   6   8
HETATM    8  N1  UNL     1       7.534  33.671  24.990  1.00  0.00    -0.319 N 
HETATM    9  C12 UNL     1       8.854  33.976  24.798  1.00  0.00     0.185 A 
HETATM   10  N2  UNL     1       9.436  32.976  24.174  1.00  0.00    -0.345 N 
HETATM   11  C13 UNL     1       8.559  31.987  23.931  1.00  0.00     0.136 A 
ATOM     12  H2  UNL     1      10.421  32.953  23.910  1.00  0.00     0.167 HD
HETATM   13  C14 UNL     1       8.653  30.750  23.321  1.00  0.00     0.206 A 
HETATM   14  C19 UNL     1       7.372  32.434  24.447  1.00  0.00     0.143 A 
HETATM   15  N4  UNL     1       7.499  30.011  23.266  1.00  0.00    -0.306 N 
HETATM   16  C18 UNL     1       6.353  30.441  23.764  1.00  0.00     0.182 A 
ATOM     17  H4  UNL     1       7.528  29.093  22.823  1.00  0.00     0.171 HD
HETATM   18 CL1  UNL     1       4.910  29.417  23.648  1.00  0.00    -0.045 Cl
HETATM   19  N5  UNL     1       6.303  31.646  24.347  1.00  0.00    -0.316 N 
ATOM     20  H5  UNL     1       5.415  31.971  24.728  1.00  0.00     0.170 HD
BRANCH  13  21
HETATM   21  N3  UNL     1       9.702  30.353  22.864  1.00  0.00    -0.423 NA
BRANCH  21  22
HETATM   22  C15 UNL     1      11.020  30.137  22.662  1.00  0.00     0.165 A 
HETATM   23  C16 UNL     1      11.916  31.105  21.930  1.00  0.00     0.042 A 
HETATM   24  C17 UNL     1      12.149  30.813  23.360  1.00  0.00     0.042 A 
ENDBRANCH  21  22
ENDBRANCH  13  21
ENDBRANCH   6   8
BRANCH   7  25
HETATM   25  O3  UNL     1       4.681  34.594  24.272  1.00  0.00    -0.390 OA
ATOM     26  H3  UNL     1       4.853  33.699  24.538  1.00  0.00     0.210 HD
ENDBRANCH   7  25
BRANCH   1  27
HETATM   27  C5  UNL     1       3.618  36.286  25.748  1.00  0.00     0.209 C 
BRANCH  27  28
HETATM   28  O1  UNL     1       2.870  36.562  24.627  1.00  0.00    -0.384 OA
BRANCH  28  29
HETATM   29  C4  UNL     1       1.581  36.900  25.003  1.00  0.00     0.200 C 
BRANCH  29  30
HETATM   30  C2  UNL     1       0.557  36.472  24.028  1.00  0.00    -0.070 C 
HETATM   31  C1  UNL     1      -0.118  37.356  23.307  1.00  0.00     0.016 C 
HETATM   32  C3  UNL     1       0.298  35.025  23.870  1.00  0.00     0.044 C 
ENDBRANCH  29  30
ENDBRANCH  28  29
ENDBRANCH  27  28
ENDBRANCH   1  27
BRANCH   1  33
HETATM   33  O2  UNL     1       5.183  37.681  24.741  1.00  0.00    -0.385 OA
ATOM     34  H2  UNL     1       5.620  38.324  25.287  1.00  0.00     0.210 HD
ENDBRANCH   1  33
TORSDOF 9
ENDMDL
MODEL 5
REMARK VINA RESULT: -8.057747638      1.192      1.765
REMARK  9 active torsions:
REMARK  status: ('A' for Active; 'I' for Inactive)
REMARK    1  A    between atoms: C2_2  and  C4_4 
REMARK    2  A    between atoms: C4_4  and  O1_5 
REMARK    3  A    between atoms: O1_5  and  C5_6 
REMARK    4  A    between atoms: C5_6  and  C6_7 
REMARK    5  A    between atoms: C6_7  and  O2_8 
REMARK    6  A    between atoms: C11_14  and  N1_15 
REMARK    7  A    between atoms: C14_20  and  N3_21 
REMARK    8  A    between atoms: N3_21  and  C15_22 
REMARK    9  A    between atoms: C20_32  and  O3_33 
ROOT
HETATM    1  C6  UNL     1       1.969  32.373  25.426  1.00  0.00     0.110 C 
HETATM    2  C7  UNL     1       1.331  31.024  25.387  1.00  0.00     0.026 C 
HETATM    3  C8  UNL     1       1.518  30.241  24.139  1.00  0.00     0.014 C 
HETATM    4  C9  UNL     1       2.942  29.936  24.653  1.00  0.00     0.012 C 
HETATM    5  C10 UNL     1       2.352  30.064  26.029  1.00  0.00     0.014 C 
HETATM    6  C11 UNL     1       3.778  31.125  24.230  1.00  0.00     0.128 C 
HETATM    7  C20 UNL     1       3.436  32.321  25.040  1.00  0.00     0.178 C 
ENDROOT
BRANCH   6   8
HETATM    8  N1  UNL     1       5.139  30.740  24.157  1.00  0.00    -0.319 N 
HETATM    9  C12 UNL     1       5.598  29.481  23.881  1.00  0.00     0.185 A 
HETATM   10  N2  UNL     1       6.913  29.494  23.896  1.00  0.00    -0.345 N 
HETATM   11  C13 UNL     1       7.376  30.725  24.172  1.00  0.00     0.136 A 
ATOM     12  H2  UNL     1       7.502  28.680  23.722  1.00  0.00     0.167 HD
HETATM   13  C14 UNL     1       8.642  31.266  24.303  1.00  0.00     0.206 A 
HETATM   14  C19 UNL     1       6.256  31.496  24.333  1.00  0.00     0.143 A 
HETATM   15  N4  UNL     1       8.702  32.603  24.600  1.00  0.00    -0.306 N 
HETATM   16  C18 UNL     1       7.622  33.349  24.755  1.00  0.00     0.182 A 
ATOM     17  H4  UNL     1       9.618  33.040  24.705  1.00  0.00     0.171 HD
HETATM   18 CL1  UNL     1       7.795  35.072  25.138  1.00  0.00    -0.045 Cl
HETATM   19  N5  UNL     1       6.414  32.787  24.620  1.00  0.00    -0.316 N 
ATOM     20  H5  UNL     1       5.584  33.368  24.742  1.00  0.00     0.170 HD
BRANCH  13  21
HETATM   21  N3  UNL     1       9.634  30.586  24.161  1.00  0.00    -0.423 NA
BRANCH  21  22
HETATM   22  C15 UNL     1      10.858  30.155  23.790  1.00  0.00     0.165 A 
HETATM   23  C16 UNL     1      11.349  30.178  22.363  1.00  0.00     0.042 A 
HETATM   24  C17 UNL     1      12.017  31.003  23.392  1.00  0.00     0.042 A 
ENDBRANCH  21  22
ENDBRANCH  13  21
ENDBRANCH   6   8
BRANCH   7  25
HETATM   25  O3  UNL     1       3.684  33.457  24.255  1.00  0.00    -0.390 OA
ATOM     26  H3  UNL     1       4.459  33.267  23.740  1.00  0.00     0.210 HD
ENDBRANCH   7  25
BRANCH   1  27
HETATM   27  C5  UNL     1       1.230  33.430  24.635  1.00  0.00     0.209 C 
BRANCH  27  28
HETATM   28  O1  UNL     1       1.432  34.704  25.114  1.00  0.00    -0.384 OA
BRANCH  28  29
HETATM   29  C4  UNL     1       0.837  35.618  24.263  1.00  0.00     0.200 C 
BRANCH  29  30
HETATM   30  C2  UNL     1       1.497  36.939  24.270  1.00  0.00    -0.070 C 
HETATM   31  C1  UNL     1       2.516  37.203  23.466  1.00  0.00     0.016 C 
HETATM   32  C3  UNL     1       0.994  37.971  25.202  1.00  0.00     0.044 C 
ENDBRANCH  29  30
ENDBRANCH  28  29
ENDBRANCH  27  28
ENDBRANCH   1  27
BRANCH   1  33
HETATM   33  O2  UNL     1       1.889  32.801  26.775  1.00  0.00    -0.385 OA
ATOM     34  H2  UNL     1       1.587  32.041  27.256  1.00  0.00     0.210 HD
ENDBRANCH   1  33
TORSDOF 9
ENDMDL
