MODEL 1
REMARK VINA RESULT: -9.382249579      0.000      0.000
REMARK  7 active torsions:
REMARK  status: ('A' for Active; 'I' for Inactive)
REMARK    1  A    between atoms: C8_8  and  C9_9 
REMARK    2  A    between atoms: C9_9  and  O1_10 
REMARK    3  A    between atoms: O1_10  and  C10_11 
REMARK    4  A    between atoms: C11_14  and  N2_15 
REMARK    5  A    between atoms: N3_18  and  C14_19 
REMARK    6  A    between atoms: C14_19  and  C16_21 
REMARK    7  A    between atoms: C20_28  and  N5_29 
ROOT
HETATM    1  C10 UNL     1       7.493  35.350  24.955  1.00  0.00     0.226 A 
HETATM    2  N1  UNL     1       6.170  35.352  24.707  1.00  0.00    -0.307 N 
ATOM      3  H1  UNL     1       5.729  34.478  24.420  1.00  0.00     0.171 HD
HETATM    4  C11 UNL     1       5.401  36.454  24.819  1.00  0.00     0.132 A 
HETATM    5  C19 UNL     1       6.028  37.612  25.206  1.00  0.00     0.121 A 
HETATM    6 CL1  UNL     1       5.146  39.095  25.394  1.00  0.00    -0.076 Cl
HETATM    7  C20 UNL     1       7.393  37.635  25.468  1.00  0.00     0.127 A 
HETATM    8  N6  UNL     1       8.084  36.497  25.333  1.00  0.00    -0.307 N 
ATOM      9  H6  UNL     1       9.086  36.499  25.523  1.00  0.00     0.171 HD
ENDROOT
BRANCH   4  10
HETATM   10  N2  UNL     1       4.010  36.451  24.554  1.00  0.00    -0.362 N 
HETATM   11  C12 UNL     1       3.078  35.841  25.442  1.00  0.00     0.154 C 
HETATM   12  C13 UNL     1       1.946  35.099  24.772  1.00  0.00     0.293 C 
HETATM   13  N3  UNL     1       1.625  35.587  23.474  1.00  0.00     0.104 N 
HETATM   14  C17 UNL     1       1.961  37.021  23.465  1.00  0.00     0.293 C 
HETATM   15  C18 UNL     1       3.469  37.085  23.341  1.00  0.00     0.154 C 
BRANCH  13  16
HETATM   16  C14 UNL     1       0.273  35.373  23.045  1.00  0.00     0.307 C 
HETATM   17  C15 UNL     1      -0.467  34.384  23.915  1.00  0.00     0.053 C 
BRANCH  16  18
HETATM   18  C16 UNL     1       0.141  35.062  21.620  1.00  0.00     0.264 C 
HETATM   19  N4  UNL     1      -0.577  33.873  21.237  1.00  0.00    -0.060 NA
HETATM   20  O2  UNL     1       0.611  35.763  20.707  1.00  0.00    -0.274 OA
ENDBRANCH  16  18
ENDBRANCH  13  16
ENDBRANCH   4  10
BRANCH   1  21
HETATM   21  O1  UNL     1       8.254  34.169  24.824  1.00  0.00    -0.321 OA
BRANCH  21  22
HETATM   22  C9  UNL     1       7.650  32.967  25.228  1.00  0.00     0.188 C 
BRANCH  22  23
HETATM   23  C8  UNL     1       7.005  32.205  24.125  1.00  0.00     0.038 C 
HETATM   24  C2  UNL     1       7.445  30.822  23.950  1.00  0.00    -0.083 C 
HETATM   25  C1  UNL     1       8.520  30.428  24.617  1.00  0.00     0.015 C 
HETATM   26  C3  UNL     1       6.830  29.770  23.098  1.00  0.00     0.034 C 
HETATM   27  C4  UNL     1       5.718  29.043  23.824  1.00  0.00     0.004 C 
HETATM   28  C5  UNL     1       4.541  29.941  24.112  1.00  0.00     0.000 C 
HETATM   29  C6  UNL     1       4.945  31.099  24.995  1.00  0.00     0.001 C 
HETATM   30  C7  UNL     1       5.487  32.258  24.232  1.00  0.00     0.011 C 
ENDBRANCH  22  23
ENDBRANCH  21  22
ENDBRANCH   1  21
BRANCH   7  31
HETATM   31  N5  UNL     1       8.004  38.721  25.835  1.00  0.00    -0.384 N 
ATOM     32  H52 UNL     1       7.523  39.396  26.430  1.00  0.00     0.157 HD
ATOM     33  H51 UNL     1       8.960  38.927  25.547  1.00  0.00     0.157 HD
ENDBRANCH   7  31
TORSDOF 7
ENDMDL
MODEL 2
REMARK VINA RESULT: -9.139154345      0.744      1.522
REMARK  7 active torsions:
REMARK  status: ('A' for Active; 'I' for Inactive)
REMARK    1  A    between atoms: C8_8  and  C9_9 
REMARK    2  A    between atoms: C9_9  and  O1_10 
REMARK    3  A    between atoms: O1_10  and  C10_11 
REMARK    4  A    between atoms: C11_14  and  N2_15 
REMARK    5  A    between atoms: N3_18  and  C14_19 
REMARK    6  A    between atoms: C14_19  and  C16_21 
REMARK    7  A    between atoms: C20_28  and  N5_29 
ROOT
HETATM    1  C10 UNL     1       7.515  34.993  24.874  1.00  0.00     0.226 A 
HETATM    2  N1  UNL     1       6.182  35.021  24.692  1.00  0.00    -0.307 N 
ATOM      3  H1  UNL     1       5.686  34.135  24.596  1.00  0.00     0.171 HD
HETATM    4  C11 UNL     1       5.472  36.166  24.630  1.00  0.00     0.132 A 
HETATM    5  C19 UNL     1       6.171  37.339  24.762  1.00  0.00     0.121 A 
HETATM    6 CL1  UNL     1       5.369  38.878  24.708  1.00  0.00    -0.076 Cl
HETATM    7  C20 UNL     1       7.548  37.336  24.950  1.00  0.00     0.127 A 
HETATM    8  N6  UNL     1       8.178  36.155  25.001  1.00  0.00    -0.307 N 
ATOM      9  H6  UNL     1       9.189  36.138  25.140  1.00  0.00     0.171 HD
ENDROOT
BRANCH   4  10
HETATM   10  N2  UNL     1       4.069  36.191  24.435  1.00  0.00    -0.362 N 
HETATM   11  C12 UNL     1       3.171  35.589  25.364  1.00  0.00     0.154 C 
HETATM   12  C13 UNL     1       1.994  34.874  24.745  1.00  0.00     0.293 C 
HETATM   13  N3  UNL     1       1.618  35.380  23.469  1.00  0.00     0.104 N 
HETATM   14  C17 UNL     1       1.978  36.807  23.457  1.00  0.00     0.293 C 
HETATM   15  C18 UNL     1       3.479  36.847  23.257  1.00  0.00     0.154 C 
BRANCH  13  16
HETATM   16  C14 UNL     1       0.242  35.195  23.107  1.00  0.00     0.307 C 
HETATM   17  C15 UNL     1      -0.465  34.191  23.988  1.00  0.00     0.053 C 
BRANCH  16  18
HETATM   18  C16 UNL     1       0.031  34.926  21.683  1.00  0.00     0.264 C 
HETATM   19  N4  UNL     1      -0.673  33.726  21.305  1.00  0.00    -0.060 NA
HETATM   20  O2  UNL     1       0.421  35.670  20.767  1.00  0.00    -0.274 OA
ENDBRANCH  16  18
ENDBRANCH  13  16
ENDBRANCH   4  10
BRANCH   1  21
HETATM   21  O1  UNL     1       8.213  33.768  24.932  1.00  0.00    -0.321 OA
BRANCH  21  22
HETATM   22  C9  UNL     1       7.608  32.717  25.642  1.00  0.00     0.188 C 
BRANCH  22  23
HETATM   23  C8  UNL     1       7.740  31.385  24.993  1.00  0.00     0.038 C 
HETATM   24  C2  UNL     1       6.505  30.781  24.498  1.00  0.00    -0.083 C 
HETATM   25  C1  UNL     1       5.358  31.340  24.856  1.00  0.00     0.015 C 
HETATM   26  C3  UNL     1       6.359  29.588  23.621  1.00  0.00     0.034 C 
HETATM   27  C4  UNL     1       6.452  29.958  22.156  1.00  0.00     0.004 C 
HETATM   28  C5  UNL     1       7.823  30.459  21.778  1.00  0.00     0.000 C 
HETATM   29  C6  UNL     1       8.179  31.704  22.559  1.00  0.00     0.001 C 
HETATM   30  C7  UNL     1       8.786  31.410  23.887  1.00  0.00     0.011 C 
ENDBRANCH  22  23
ENDBRANCH  21  22
ENDBRANCH   1  21
BRANCH   7  31
HETATM   31  N5  UNL     1       8.227  38.435  25.077  1.00  0.00    -0.384 N 
ATOM     32  H52 UNL     1       9.234  38.393  25.235  1.00  0.00     0.157 HD
ATOM     33  H51 UNL     1       7.785  39.353  25.025  1.00  0.00     0.157 HD
ENDBRANCH   7  31
TORSDOF 7
ENDMDL
MODEL 3
REMARK VINA RESULT: -8.510846311      3.641      8.223
REMARK  7 active torsions:
REMARK  status: ('A' for Active; 'I' for Inactive)
REMARK    1  A    between atoms: C8_8  and  C9_9 
REMARK    2  A    between atoms: C9_9  and  O1_10 
REMARK    3  A    between atoms: O1_10  and  C10_11 
REMARK    4  A    between atoms: C11_14  and  N2_15 
REMARK    5  A    between atoms: N3_18  and  C14_19 
REMARK    6  A    between atoms: C14_19  and  C16_21 
REMARK    7  A    between atoms: C20_28  and  N5_29 
ROOT
HETATM    1  C10 UNL     1       3.171  32.932  25.200  1.00  0.00     0.226 A 
HETATM    2  N1  UNL     1       4.421  32.955  24.701  1.00  0.00    -0.307 N 
ATOM      3  H1  UNL     1       4.875  33.859  24.571  1.00  0.00     0.171 HD
HETATM    4  C11 UNL     1       5.100  31.840  24.366  1.00  0.00     0.132 A 
HETATM    5  C19 UNL     1       4.459  30.641  24.554  1.00  0.00     0.121 A 
HETATM    6 CL1  UNL     1       5.230  29.135  24.168  1.00  0.00    -0.076 Cl
HETATM    7  C20 UNL     1       3.168  30.591  25.068  1.00  0.00     0.127 A 
HETATM    8  N6  UNL     1       2.564  31.746  25.376  1.00  0.00    -0.307 N 
ATOM      9  H6  UNL     1       1.617  31.724  25.755  1.00  0.00     0.171 HD
ENDROOT
BRANCH   4  10
HETATM   10  N2  UNL     1       6.414  31.868  23.838  1.00  0.00    -0.362 N 
HETATM   11  C12 UNL     1       6.684  31.545  22.477  1.00  0.00     0.154 C 
HETATM   12  C13 UNL     1       7.943  30.745  22.245  1.00  0.00     0.293 C 
HETATM   13  N3  UNL     1       8.940  30.937  23.242  1.00  0.00     0.104 N 
HETATM   14  C17 UNL     1       8.762  32.303  23.761  1.00  0.00     0.293 C 
HETATM   15  C18 UNL     1       7.563  32.237  24.683  1.00  0.00     0.154 C 
BRANCH  13  16
HETATM   16  C14 UNL     1      10.293  30.719  22.819  1.00  0.00     0.307 C 
HETATM   17  C15 UNL     1      11.031  29.739  23.702  1.00  0.00     0.053 C 
BRANCH  16  18
HETATM   18  C16 UNL     1      11.056  31.949  22.603  1.00  0.00     0.264 C 
HETATM   19  N4  UNL     1      10.979  32.590  21.314  1.00  0.00    -0.060 NA
HETATM   20  O2  UNL     1      11.773  32.486  23.464  1.00  0.00    -0.274 OA
ENDBRANCH  16  18
ENDBRANCH  13  16
ENDBRANCH   4  10
BRANCH   1  21
HETATM   21  O1  UNL     1       2.502  34.128  25.537  1.00  0.00    -0.321 OA
BRANCH  21  22
HETATM   22  C9  UNL     1       2.620  35.204  24.641  1.00  0.00     0.188 C 
BRANCH  22  23
HETATM   23  C8  UNL     1       1.344  35.594  23.983  1.00  0.00     0.038 C 
HETATM   24  C2  UNL     1       1.422  35.918  22.560  1.00  0.00    -0.083 C 
HETATM   25  C1  UNL     1       2.626  36.060  22.025  1.00  0.00     0.015 C 
HETATM   26  C3  UNL     1       0.299  36.115  21.605  1.00  0.00     0.034 C 
HETATM   27  C4  UNL     1      -0.163  34.803  21.009  1.00  0.00     0.004 C 
HETATM   28  C5  UNL     1      -0.783  33.892  22.038  1.00  0.00     0.000 C 
HETATM   29  C6  UNL     1       0.211  33.545  23.123  1.00  0.00     0.001 C 
HETATM   30  C7  UNL     1       0.260  34.552  24.219  1.00  0.00     0.011 C 
ENDBRANCH  22  23
ENDBRANCH  21  22
ENDBRANCH   1  21
BRANCH   7  31
HETATM   31  N5  UNL     1       2.545  29.467  25.253  1.00  0.00    -0.384 N 
ATOM     32  H52 UNL     1       2.847  28.632  24.752  1.00  0.00     0.157 HD
ATOM     33  H51 UNL     1       1.752  29.388  25.889  1.00  0.00     0.157 HD
ENDBRANCH   7  31
TORSDOF 7
ENDMDL
MODEL 4
REMARK VINA RESULT: -8.508769749      3.151      5.869
REMARK  7 active torsions:
REMARK  status: ('A' for Active; 'I' for Inactive)
REMARK    1  A    between atoms: C8_8  and  C9_9 
REMARK    2  A    between atoms: C9_9  and  O1_10 
REMARK    3  A    between atoms: O1_10  and  C10_11 
REMARK    4  A    between atoms: C11_14  and  N2_15 
REMARK    5  A    between atoms: N3_18  and  C14_19 
REMARK    6  A    between atoms: C14_19  and  C16_21 
REMARK    7  A    between atoms: C20_28  and  N5_29 
ROOT
HETATM    1  C10 UNL     1       1.512  33.409  24.703  1.00  0.00     0.226 A 
HETATM    2  N1  UNL     1       1.913  34.655  25.015  1.00  0.00    -0.307 N 
ATOM      3  H1  UNL     1       2.525  34.781  25.821  1.00  0.00     0.171 HD
HETATM    4  C11 UNL     1       1.543  35.745  24.312  1.00  0.00     0.132 A 
HETATM    5  C19 UNL     1       0.719  35.538  23.235  1.00  0.00     0.121 A 
HETATM    6 CL1  UNL     1       0.179  36.860  22.246  1.00  0.00    -0.076 Cl
HETATM    7  C20 UNL     1       0.292  34.261  22.892  1.00  0.00     0.127 A 
HETATM    8  N6  UNL     1       0.706  33.232  23.643  1.00  0.00    -0.307 N 
ATOM      9  H6  UNL     1       0.401  32.289  23.402  1.00  0.00     0.171 HD
ENDROOT
BRANCH   4  10
HETATM   10  N2  UNL     1       1.964  37.055  24.646  1.00  0.00    -0.362 N 
HETATM   11  C12 UNL     1       3.191  37.595  24.163  1.00  0.00     0.154 C 
HETATM   12  C13 UNL     1       3.958  38.434  25.157  1.00  0.00     0.293 C 
HETATM   13  N3  UNL     1       3.140  39.047  26.146  1.00  0.00     0.104 N 
HETATM   14  C17 UNL     1       1.823  39.271  25.527  1.00  0.00     0.293 C 
HETATM   15  C18 UNL     1       1.144  37.918  25.512  1.00  0.00     0.154 C 
BRANCH  13  16
HETATM   16  C14 UNL     1       3.653  40.260  26.715  1.00  0.00     0.307 C 
HETATM   17  C15 UNL     1       5.031  40.609  26.202  1.00  0.00     0.053 C 
BRANCH  16  18
HETATM   18  C16 UNL     1       3.578  40.313  28.176  1.00  0.00     0.264 C 
HETATM   19  N4  UNL     1       3.301  41.578  28.807  1.00  0.00    -0.060 NA
HETATM   20  O2  UNL     1       3.739  39.329  28.919  1.00  0.00    -0.274 OA
ENDBRANCH  16  18
ENDBRANCH  13  16
ENDBRANCH   4  10
BRANCH   1  21
HETATM   21  O1  UNL     1       1.928  32.300  25.471  1.00  0.00    -0.321 OA
BRANCH  21  22
HETATM   22  C9  UNL     1       3.311  32.119  25.640  1.00  0.00     0.188 C 
BRANCH  22  23
HETATM   23  C8  UNL     1       4.037  31.743  24.397  1.00  0.00     0.038 C 
HETATM   24  C2  UNL     1       5.475  32.000  24.384  1.00  0.00    -0.083 C 
HETATM   25  C1  UNL     1       5.978  32.739  25.362  1.00  0.00     0.015 C 
HETATM   26  C3  UNL     1       6.477  31.530  23.390  1.00  0.00     0.034 C 
HETATM   27  C4  UNL     1       6.997  30.150  23.731  1.00  0.00     0.004 C 
HETATM   28  C5  UNL     1       5.927  29.093  23.622  1.00  0.00     0.000 C 
HETATM   29  C6  UNL     1       4.789  29.372  24.576  1.00  0.00     0.001 C 
HETATM   30  C7  UNL     1       3.764  30.295  24.014  1.00  0.00     0.011 C 
ENDBRANCH  22  23
ENDBRANCH  21  22
ENDBRANCH   1  21
BRANCH   7  31
HETATM   31  N5  UNL     1      -0.488  34.046  21.876  1.00  0.00    -0.384 N 
ATOM     32  H52 UNL     1      -0.214  33.371  21.162  1.00  0.00     0.157 HD
ATOM     33  H51 UNL     1      -1.377  34.533  21.765  1.00  0.00     0.157 HD
ENDBRANCH   7  31
TORSDOF 7
ENDMDL
MODEL 5
REMARK VINA RESULT: -8.471463952      2.838      5.841
REMARK  7 active torsions:
REMARK  status: ('A' for Active; 'I' for Inactive)
REMARK    1  A    between atoms: C8_8  and  C9_9 
REMARK    2  A    between atoms: C9_9  and  O1_10 
REMARK    3  A    between atoms: O1_10  and  C10_11 
REMARK    4  A    between atoms: C11_14  and  N2_15 
REMARK    5  A    between atoms: N3_18  and  C14_19 
REMARK    6  A    between atoms: C14_19  and  C16_21 
REMARK    7  A    between atoms: C20_28  and  N5_29 
ROOT
HETATM    1  C10 UNL     1       1.670  32.103  24.604  1.00  0.00     0.226 A 
HETATM    2  N1  UNL     1       2.254  33.314  24.672  1.00  0.00    -0.307 N 
ATOM      3  H1  UNL     1       3.190  33.380  25.071  1.00  0.00     0.171 HD
HETATM    4  C11 UNL     1       1.659  34.443  24.235  1.00  0.00     0.132 A 
HETATM    5  C19 UNL     1       0.400  34.316  23.704  1.00  0.00     0.121 A 
HETATM    6 CL1  UNL     1      -0.466  35.695  23.101  1.00  0.00    -0.076 Cl
HETATM    7  C20 UNL     1      -0.223  33.077  23.624  1.00  0.00     0.127 A 
HETATM    8  N6  UNL     1       0.437  32.005  24.079  1.00  0.00    -0.307 N 
ATOM      9  H6  UNL     1      -0.009  31.089  24.025  1.00  0.00     0.171 HD
ENDROOT
BRANCH   4  10
HETATM   10  N2  UNL     1       2.276  35.716  24.311  1.00  0.00    -0.362 N 
HETATM   11  C12 UNL     1       3.501  35.997  23.640  1.00  0.00     0.154 C 
HETATM   12  C13 UNL     1       4.471  36.860  24.412  1.00  0.00     0.293 C 
HETATM   13  N3  UNL     1       3.849  37.725  25.355  1.00  0.00     0.104 N 
HETATM   14  C17 UNL     1       2.511  38.037  24.825  1.00  0.00     0.293 C 
HETATM   15  C18 UNL     1       1.670  36.806  25.092  1.00  0.00     0.154 C 
BRANCH  13  16
HETATM   16  C14 UNL     1       4.570  38.925  25.670  1.00  0.00     0.307 C 
HETATM   17  C15 UNL     1       6.021  38.861  25.254  1.00  0.00     0.053 C 
BRANCH  16  18
HETATM   18  C16 UNL     1       4.411  39.371  27.055  1.00  0.00     0.264 C 
HETATM   19  N4  UNL     1       4.809  40.713  27.397  1.00  0.00    -0.060 NA
HETATM   20  O2  UNL     1       3.950  38.663  27.967  1.00  0.00    -0.274 OA
ENDBRANCH  16  18
ENDBRANCH  13  16
ENDBRANCH   4  10
BRANCH   1  21
HETATM   21  O1  UNL     1       2.335  30.950  25.074  1.00  0.00    -0.321 OA
BRANCH  21  22
HETATM   22  C9  UNL     1       3.293  30.371  24.225  1.00  0.00     0.188 C 
BRANCH  22  23
HETATM   23  C8  UNL     1       4.674  30.363  24.775  1.00  0.00     0.038 C 
HETATM   24  C2  UNL     1       5.704  29.760  23.932  1.00  0.00    -0.083 C 
HETATM   25  C1  UNL     1       5.308  29.077  22.868  1.00  0.00     0.015 C 
HETATM   26  C3  UNL     1       7.180  29.812  24.114  1.00  0.00     0.034 C 
HETATM   27  C4  UNL     1       7.775  31.057  23.492  1.00  0.00     0.004 C 
HETATM   28  C5  UNL     1       7.328  32.316  24.191  1.00  0.00     0.000 C 
HETATM   29  C6  UNL     1       5.826  32.474  24.116  1.00  0.00     0.001 C 
HETATM   30  C7  UNL     1       5.105  31.758  25.205  1.00  0.00     0.011 C 
ENDBRANCH  22  23
ENDBRANCH  21  22
ENDBRANCH   1  21
BRANCH   7  31
HETATM   31  N5  UNL     1      -1.414  32.937  23.124  1.00  0.00    -0.384 N 
ATOM     32  H52 UNL     1      -1.711  33.530  22.349  1.00  0.00     0.157 HD
ATOM     33  H51 UNL     1      -2.073  32.247  23.484  1.00  0.00     0.157 HD
ENDBRANCH   7  31
TORSDOF 7
ENDMDL
