MODEL 1
REMARK VINA RESULT: -7.751220332      0.000      0.000
REMARK  18 active torsions:
REMARK  status: ('A' for Active; 'I' for Inactive)
REMARK    1  A    between atoms: N1_1  and  C1_4 
REMARK    2  A    between atoms: C2_7  and  N3_8 
REMARK    3  A    between atoms: N3_8  and  C3_9 
REMARK    4  A    between atoms: C3_9  and  C4_10 
REMARK    5  A    between atoms: C4_10  and  C5_11 
REMARK    6  A    between atoms: C5_11  and  C6_12 
REMARK    7  A    between atoms: C6_12  and  N4_13 
REMARK    8  A    between atoms: C11_23  and  C12_24 
REMARK    9  A    between atoms: C12_24  and  N8_25 
REMARK   10  A    between atoms: C15_29  and  C16_30 
REMARK   11  A    between atoms: C16_30  and  C17_31 
REMARK   12  A    between atoms: C17_31  and  O1_32 
REMARK   13  A    between atoms: O1_32  and  C18_33 
REMARK   14  A    between atoms: C18_33  and  C19_34 
REMARK   15  A    between atoms: C19_34  and  O2_35 
REMARK   16  A    between atoms: O2_35  and  C20_36 
REMARK   17  A    between atoms: C20_36  and  C21_37 
REMARK   18  A    between atoms: C21_37  and  S1_38 
ROOT
HETATM    1  C1  UNL     1       3.765  10.579  90.278  1.00  0.00     0.132 A 
HETATM    2  N2  UNL     1       4.800  10.979  89.552  1.00  0.00    -0.301 N 
ATOM      3  H2  UNL     1       4.621  11.412  88.646  1.00  0.00     0.171 HD
HETATM    4  C2  UNL     1       6.118  10.834  89.967  1.00  0.00     0.260 A 
HETATM    5  N7  UNL     1       6.240  10.242  91.189  1.00  0.00    -0.314 N 
ATOM      6  H7  UNL     1       7.184  10.105  91.550  1.00  0.00     0.170 HD
HETATM    7  C8  UNL     1       5.236   9.829  91.948  1.00  0.00     0.066 A 
HETATM    8  C9  UNL     1       5.380   9.272  93.195  1.00  0.00     0.034 A 
HETATM    9  C10 UNL     1       4.268   8.898  93.955  1.00  0.00     0.033 A 
HETATM   10  C11 UNL     1       2.986   9.066  93.500  1.00  0.00     0.043 A 
HETATM   11  N10 UNL     1       2.896   9.617  92.264  1.00  0.00    -0.351 N 
ATOM     12  H10 UNL     1       1.962   9.761  91.879  1.00  0.00     0.166 HD
HETATM   13  C24 UNL     1       3.937   9.987  91.512  1.00  0.00     0.104 A 
ENDROOT
BRANCH  10  14
HETATM   14  C12 UNL     1       1.776   8.746  94.230  1.00  0.00     0.089 C 
BRANCH  14  15
HETATM   15  N8  UNL     1       0.950   7.683  93.832  1.00  0.00    -0.287 NA
HETATM   16  C13 UNL     1       1.550   6.431  94.354  1.00  0.00     0.114 C 
HETATM   17  C14 UNL     1       0.785   6.133  95.670  1.00  0.00     0.137 C 
HETATM   18  N9  UNL     1      -0.407   5.549  95.287  1.00  0.00    -0.391 N 
HETATM   19  C15 UNL     1      -1.111   4.516  95.812  1.00  0.00     0.060 C 
HETATM   20  C22 UNL     1      -1.014   6.301  94.204  1.00  0.00     0.137 C 
HETATM   21  C23 UNL     1      -0.443   7.743  94.146  1.00  0.00     0.114 C 
BRANCH  19  22
HETATM   22  C16 UNL     1      -0.559   3.136  95.680  1.00  0.00     0.070 C 
BRANCH  22  23
HETATM   23  C17 UNL     1      -1.150   2.167  96.645  1.00  0.00     0.172 C 
BRANCH  23  24
HETATM   24  O1  UNL     1      -2.558   2.118  96.550  1.00  0.00    -0.389 OA
BRANCH  24  25
HETATM   25  C18 UNL     1      -3.161   2.100  97.775  1.00  0.00     0.193 C 
BRANCH  25  26
HETATM   26  C19 UNL     1      -4.539   2.734  97.770  1.00  0.00     0.193 C 
BRANCH  26  27
HETATM   27  O2  UNL     1      -4.560   4.059  97.628  1.00  0.00    -0.388 OA
BRANCH  27  28
HETATM   28  C20 UNL     1      -3.870   4.925  98.378  1.00  0.00     0.183 C 
BRANCH  28  29
HETATM   29  C21 UNL     1      -3.604   6.294  97.774  1.00  0.00     0.183 C 
BRANCH  29  30
HETATM   30  S1  UNL     1      -4.918   7.348  98.384  1.00  0.00     0.252 S 
HETATM   31  O3  UNL     1      -5.708   6.600  99.641  1.00  0.00    -0.212 OA
HETATM   32  O4  UNL     1      -4.208   8.807  98.878  1.00  0.00    -0.212 OA
ENDBRANCH  29  30
ENDBRANCH  28  29
ENDBRANCH  27  28
ENDBRANCH  26  27
ENDBRANCH  25  26
ENDBRANCH  24  25
ENDBRANCH  23  24
ENDBRANCH  22  23
ENDBRANCH  19  22
ENDBRANCH  14  15
ENDBRANCH  10  14
BRANCH   1  33
HETATM   33  N1  UNL     1       2.538  10.741  89.855  1.00  0.00    -0.383 N 
ATOM     34  H12 UNL     1       2.352  10.545  88.871  1.00  0.00     0.157 HD
ATOM     35  H11 UNL     1       1.797  11.045  90.486  1.00  0.00     0.157 HD
ENDBRANCH   1  33
BRANCH   4  36
HETATM   36  N3  UNL     1       6.984  11.282  89.283  1.00  0.00    -0.388 NA
BRANCH  36  37
HETATM   37  C3  UNL     1       7.955  11.776  88.508  1.00  0.00     0.159 C 
BRANCH  37  38
HETATM   38  C4  UNL     1       7.613  12.980  87.678  1.00  0.00     0.061 C 
BRANCH  38  39
HETATM   39  C5  UNL     1       7.317  12.692  86.253  1.00  0.00     0.026 C 
BRANCH  39  40
HETATM   40  C6  UNL     1       8.570  12.864  85.408  1.00  0.00     0.122 C 
BRANCH  40  41
HETATM   41  N4  UNL     1       9.436  11.748  85.435  1.00  0.00    -0.367 N 
HETATM   42  C7  UNL     1      10.660  11.660  85.714  1.00  0.00     0.196 C 
HETATM   43  N5  UNL     1      11.306  10.370  85.660  1.00  0.00    -0.067 NA
HETATM   44  N6  UNL     1      11.446  12.787  86.102  1.00  0.00    -0.067 NA
ATOM     45  H4  UNL     1       8.994  10.863  85.187  1.00  0.00     0.161 HD
ENDBRANCH  40  41
ENDBRANCH  39  40
ENDBRANCH  38  39
ENDBRANCH  37  38
ENDBRANCH  36  37
ENDBRANCH   4  36
TORSDOF 18
ENDMDL
MODEL 2
REMARK VINA RESULT: -7.333379864      4.159      5.231
REMARK  18 active torsions:
REMARK  status: ('A' for Active; 'I' for Inactive)
REMARK    1  A    between atoms: N1_1  and  C1_4 
REMARK    2  A    between atoms: C2_7  and  N3_8 
REMARK    3  A    between atoms: N3_8  and  C3_9 
REMARK    4  A    between atoms: C3_9  and  C4_10 
REMARK    5  A    between atoms: C4_10  and  C5_11 
REMARK    6  A    between atoms: C5_11  and  C6_12 
REMARK    7  A    between atoms: C6_12  and  N4_13 
REMARK    8  A    between atoms: C11_23  and  C12_24 
REMARK    9  A    between atoms: C12_24  and  N8_25 
REMARK   10  A    between atoms: C15_29  and  C16_30 
REMARK   11  A    between atoms: C16_30  and  C17_31 
REMARK   12  A    between atoms: C17_31  and  O1_32 
REMARK   13  A    between atoms: O1_32  and  C18_33 
REMARK   14  A    between atoms: C18_33  and  C19_34 
REMARK   15  A    between atoms: C19_34  and  O2_35 
REMARK   16  A    between atoms: O2_35  and  C20_36 
REMARK   17  A    between atoms: C20_36  and  C21_37 
REMARK   18  A    between atoms: C21_37  and  S1_38 
ROOT
HETATM    1  C1  UNL     1       3.763  10.622  90.357  1.00  0.00     0.132 A 
HETATM    2  N2  UNL     1       4.800  10.975  89.611  1.00  0.00    -0.301 N 
ATOM      3  H2  UNL     1       4.623  11.408  88.705  1.00  0.00     0.171 HD
HETATM    4  C2  UNL     1       6.118  10.782  90.006  1.00  0.00     0.260 A 
HETATM    5  N7  UNL     1       6.237  10.194  91.230  1.00  0.00    -0.314 N 
ATOM      6  H7  UNL     1       7.181  10.023  91.576  1.00  0.00     0.170 HD
HETATM    7  C8  UNL     1       5.231   9.827  92.008  1.00  0.00     0.066 A 
HETATM    8  C9  UNL     1       5.374   9.274  93.258  1.00  0.00     0.034 A 
HETATM    9  C10 UNL     1       4.261   8.950  94.039  1.00  0.00     0.033 A 
HETATM   10  C11 UNL     1       2.979   9.165  93.604  1.00  0.00     0.043 A 
HETATM   11  N10 UNL     1       2.890   9.710  92.365  1.00  0.00    -0.351 N 
ATOM     12  H10 UNL     1       1.956   9.887  91.995  1.00  0.00     0.166 HD
HETATM   13  C24 UNL     1       3.932  10.033  91.593  1.00  0.00     0.104 A 
ENDROOT
BRANCH  10  14
HETATM   14  C12 UNL     1       1.770   8.898  94.357  1.00  0.00     0.089 C 
BRANCH  14  15
HETATM   15  N8  UNL     1       1.187   7.621  94.361  1.00  0.00    -0.287 NA
HETATM   16  C13 UNL     1      -0.265   7.794  94.606  1.00  0.00     0.114 C 
HETATM   17  C14 UNL     1      -0.921   7.756  93.201  1.00  0.00     0.137 C 
HETATM   18  N9  UNL     1      -1.010   6.419  92.864  1.00  0.00    -0.391 N 
HETATM   19  C15 UNL     1      -1.987   5.712  92.245  1.00  0.00     0.060 C 
HETATM   20  C22 UNL     1       0.244   5.743  93.141  1.00  0.00     0.137 C 
HETATM   21  C23 UNL     1       1.410   6.763  93.240  1.00  0.00     0.114 C 
BRANCH  19  22
HETATM   22  C16 UNL     1      -3.263   5.464  92.978  1.00  0.00     0.070 C 
BRANCH  22  23
HETATM   23  C17 UNL     1      -4.372   6.366  92.560  1.00  0.00     0.172 C 
BRANCH  23  24
HETATM   24  O1  UNL     1      -4.107   6.990  91.320  1.00  0.00    -0.389 OA
BRANCH  24  25
HETATM   25  C18 UNL     1      -4.527   8.289  91.292  1.00  0.00     0.193 C 
BRANCH  25  26
HETATM   26  C19 UNL     1      -3.812   9.123  90.247  1.00  0.00     0.193 C 
BRANCH  26  27
HETATM   27  O2  UNL     1      -2.654   8.628  89.812  1.00  0.00    -0.388 OA
BRANCH  27  28
HETATM   28  C20 UNL     1      -1.444   9.100  90.133  1.00  0.00     0.183 C 
BRANCH  28  29
HETATM   29  C21 UNL     1      -0.246   8.345  89.581  1.00  0.00     0.183 C 
BRANCH  29  30
HETATM   30  S1  UNL     1       0.060   9.056  87.964  1.00  0.00     0.252 S 
HETATM   31  O3  UNL     1      -0.999   8.417  86.853  1.00  0.00    -0.212 OA
HETATM   32  O4  UNL     1      -0.125  10.735  88.106  1.00  0.00    -0.212 OA
ENDBRANCH  29  30
ENDBRANCH  28  29
ENDBRANCH  27  28
ENDBRANCH  26  27
ENDBRANCH  25  26
ENDBRANCH  24  25
ENDBRANCH  23  24
ENDBRANCH  22  23
ENDBRANCH  19  22
ENDBRANCH  14  15
ENDBRANCH  10  14
BRANCH   1  33
HETATM   33  N1  UNL     1       2.536  10.829  89.953  1.00  0.00    -0.383 N 
ATOM     34  H12 UNL     1       2.349  11.693  89.445  1.00  0.00     0.157 HD
ATOM     35  H11 UNL     1       1.798  10.149  90.134  1.00  0.00     0.157 HD
ENDBRANCH   1  33
BRANCH   4  36
HETATM   36  N3  UNL     1       6.990  11.190  89.303  1.00  0.00    -0.388 NA
BRANCH  36  37
HETATM   37  C3  UNL     1       7.969  11.638  88.512  1.00  0.00     0.159 C 
BRANCH  37  38
HETATM   38  C4  UNL     1       7.696  12.898  87.741  1.00  0.00     0.061 C 
BRANCH  38  39
HETATM   39  C5  UNL     1       7.353  12.692  86.312  1.00  0.00     0.026 C 
BRANCH  39  40
HETATM   40  C6  UNL     1       8.590  12.859  85.443  1.00  0.00     0.122 C 
BRANCH  40  41
HETATM   41  N4  UNL     1       9.441  11.730  85.437  1.00  0.00    -0.367 N 
HETATM   42  C7  UNL     1      10.669  11.622  85.687  1.00  0.00     0.196 C 
HETATM   43  N5  UNL     1      11.296  10.324  85.602  1.00  0.00    -0.067 NA
HETATM   44  N6  UNL     1      11.479  12.732  86.071  1.00  0.00    -0.067 NA
ATOM     45  H4  UNL     1       8.981  10.855  85.187  1.00  0.00     0.161 HD
ENDBRANCH  40  41
ENDBRANCH  39  40
ENDBRANCH  38  39
ENDBRANCH  37  38
ENDBRANCH  36  37
ENDBRANCH   4  36
TORSDOF 18
ENDMDL
MODEL 3
REMARK VINA RESULT: -7.271687728      1.367      2.067
REMARK  18 active torsions:
REMARK  status: ('A' for Active; 'I' for Inactive)
REMARK    1  A    between atoms: N1_1  and  C1_4 
REMARK    2  A    between atoms: C2_7  and  N3_8 
REMARK    3  A    between atoms: N3_8  and  C3_9 
REMARK    4  A    between atoms: C3_9  and  C4_10 
REMARK    5  A    between atoms: C4_10  and  C5_11 
REMARK    6  A    between atoms: C5_11  and  C6_12 
REMARK    7  A    between atoms: C6_12  and  N4_13 
REMARK    8  A    between atoms: C11_23  and  C12_24 
REMARK    9  A    between atoms: C12_24  and  N8_25 
REMARK   10  A    between atoms: C15_29  and  C16_30 
REMARK   11  A    between atoms: C16_30  and  C17_31 
REMARK   12  A    between atoms: C17_31  and  O1_32 
REMARK   13  A    between atoms: O1_32  and  C18_33 
REMARK   14  A    between atoms: C18_33  and  C19_34 
REMARK   15  A    between atoms: C19_34  and  O2_35 
REMARK   16  A    between atoms: O2_35  and  C20_36 
REMARK   17  A    between atoms: C20_36  and  C21_37 
REMARK   18  A    between atoms: C21_37  and  S1_38 
ROOT
HETATM    1  C1  UNL     1       4.571  10.128  91.758  1.00  0.00     0.132 A 
HETATM    2  N2  UNL     1       5.624  10.591  91.100  1.00  0.00    -0.301 N 
ATOM      3  H2  UNL     1       6.527  10.604  91.574  1.00  0.00     0.171 HD
HETATM    4  C2  UNL     1       5.556  11.062  89.795  1.00  0.00     0.260 A 
HETATM    5  N7  UNL     1       4.303  11.002  89.262  1.00  0.00    -0.314 N 
ATOM      6  H7  UNL     1       4.185  11.336  88.305  1.00  0.00     0.170 HD
HETATM    7  C8  UNL     1       3.224  10.547  89.880  1.00  0.00     0.066 A 
HETATM    8  C9  UNL     1       1.978  10.457  89.309  1.00  0.00     0.034 A 
HETATM    9  C10 UNL     1       0.894   9.925  90.015  1.00  0.00     0.033 A 
HETATM   10  C11 UNL     1       1.016   9.470  91.301  1.00  0.00     0.043 A 
HETATM   11  N10 UNL     1       2.263   9.582  91.821  1.00  0.00    -0.351 N 
ATOM     12  H10 UNL     1       2.405   9.259  92.779  1.00  0.00     0.166 HD
HETATM   13  C24 UNL     1       3.321  10.083  91.176  1.00  0.00     0.104 A 
ENDROOT
BRANCH  10  14
HETATM   14  C12 UNL     1      -0.038   8.869  92.094  1.00  0.00     0.089 C 
BRANCH  14  15
HETATM   15  N8  UNL     1      -0.360   7.509  91.960  1.00  0.00    -0.287 NA
HETATM   16  C13 UNL     1       0.435   6.762  92.965  1.00  0.00     0.114 C 
HETATM   17  C14 UNL     1      -0.523   6.557  94.168  1.00  0.00     0.137 C 
HETATM   18  N9  UNL     1      -1.330   5.489  93.827  1.00  0.00    -0.391 N 
HETATM   19  C15 UNL     1      -1.795   4.445  94.557  1.00  0.00     0.060 C 
HETATM   20  C22 UNL     1      -1.827   5.641  92.472  1.00  0.00     0.137 C 
HETATM   21  C23 UNL     1      -1.734   7.122  92.015  1.00  0.00     0.114 C 
BRANCH  19  22
HETATM   22  C16 UNL     1      -0.831   3.392  94.993  1.00  0.00     0.070 C 
BRANCH  22  23
HETATM   23  C17 UNL     1      -1.052   2.928  96.390  1.00  0.00     0.172 C 
BRANCH  23  24
HETATM   24  O1  UNL     1      -1.654   1.650  96.434  1.00  0.00    -0.389 OA
BRANCH  24  25
HETATM   25  C18 UNL     1      -2.442   1.485  97.536  1.00  0.00     0.193 C 
BRANCH  25  26
HETATM   26  C19 UNL     1      -2.876   2.798  98.160  1.00  0.00     0.193 C 
BRANCH  26  27
HETATM   27  O2  UNL     1      -4.132   3.163  97.908  1.00  0.00    -0.388 OA
BRANCH  27  28
HETATM   28  C20 UNL     1      -4.546   4.421  97.714  1.00  0.00     0.183 C 
BRANCH  28  29
HETATM   29  C21 UNL     1      -3.477   5.501  97.714  1.00  0.00     0.183 C 
BRANCH  29  30
HETATM   30  S1  UNL     1      -4.224   6.911  98.530  1.00  0.00     0.252 S 
HETATM   31  O3  UNL     1      -3.092   8.111  98.741  1.00  0.00    -0.212 OA
HETATM   32  O4  UNL     1      -5.511   7.435  97.558  1.00  0.00    -0.212 OA
ENDBRANCH  29  30
ENDBRANCH  28  29
ENDBRANCH  27  28
ENDBRANCH  26  27
ENDBRANCH  25  26
ENDBRANCH  24  25
ENDBRANCH  23  24
ENDBRANCH  22  23
ENDBRANCH  19  22
ENDBRANCH  14  15
ENDBRANCH  10  14
BRANCH   1  33
HETATM   33  N1  UNL     1       4.678   9.686  92.985  1.00  0.00    -0.383 N 
ATOM     34  H12 UNL     1       5.543   9.894  93.483  1.00  0.00     0.157 HD
ATOM     35  H11 UNL     1       3.924   9.160  93.425  1.00  0.00     0.157 HD
ENDBRANCH   1  33
BRANCH   4  36
HETATM   36  N3  UNL     1       6.564  11.397  89.256  1.00  0.00    -0.388 NA
BRANCH  36  37
HETATM   37  C3  UNL     1       7.695  11.783  88.658  1.00  0.00     0.159 C 
BRANCH  37  38
HETATM   38  C4  UNL     1       7.617  12.996  87.776  1.00  0.00     0.061 C 
BRANCH  38  39
HETATM   39  C5  UNL     1       7.283  12.716  86.358  1.00  0.00     0.026 C 
BRANCH  39  40
HETATM   40  C6  UNL     1       8.512  12.897  85.481  1.00  0.00     0.122 C 
BRANCH  40  41
HETATM   41  N4  UNL     1       9.393  11.792  85.494  1.00  0.00    -0.367 N 
HETATM   42  C7  UNL     1      10.631  11.727  85.708  1.00  0.00     0.196 C 
HETATM   43  N5  UNL     1      11.290  10.444  85.658  1.00  0.00    -0.067 NA
HETATM   44  N6  UNL     1      11.422  12.874  86.019  1.00  0.00    -0.067 NA
ATOM     45  H4  UNL     1       8.949  10.896  85.296  1.00  0.00     0.161 HD
ENDBRANCH  40  41
ENDBRANCH  39  40
ENDBRANCH  38  39
ENDBRANCH  37  38
ENDBRANCH  36  37
ENDBRANCH   4  36
TORSDOF 18
ENDMDL
MODEL 4
REMARK VINA RESULT: -7.245082853      3.878      6.551
REMARK  18 active torsions:
REMARK  status: ('A' for Active; 'I' for Inactive)
REMARK    1  A    between atoms: N1_1  and  C1_4 
REMARK    2  A    between atoms: C2_7  and  N3_8 
REMARK    3  A    between atoms: N3_8  and  C3_9 
REMARK    4  A    between atoms: C3_9  and  C4_10 
REMARK    5  A    between atoms: C4_10  and  C5_11 
REMARK    6  A    between atoms: C5_11  and  C6_12 
REMARK    7  A    between atoms: C6_12  and  N4_13 
REMARK    8  A    between atoms: C11_23  and  C12_24 
REMARK    9  A    between atoms: C12_24  and  N8_25 
REMARK   10  A    between atoms: C15_29  and  C16_30 
REMARK   11  A    between atoms: C16_30  and  C17_31 
REMARK   12  A    between atoms: C17_31  and  O1_32 
REMARK   13  A    between atoms: O1_32  and  C18_33 
REMARK   14  A    between atoms: C18_33  and  C19_34 
REMARK   15  A    between atoms: C19_34  and  O2_35 
REMARK   16  A    between atoms: O2_35  and  C20_36 
REMARK   17  A    between atoms: C20_36  and  C21_37 
REMARK   18  A    between atoms: C21_37  and  S1_38 
ROOT
HETATM    1  C1  UNL     1       0.747   7.370  94.877  1.00  0.00     0.132 A 
HETATM    2  N2  UNL     1       1.113   8.428  94.166  1.00  0.00    -0.301 N 
ATOM      3  H2  UNL     1       1.416   9.266  94.661  1.00  0.00     0.171 HD
HETATM    4  C2  UNL     1       1.103   8.447  92.776  1.00  0.00     0.260 A 
HETATM    5  N7  UNL     1       0.679   7.277  92.220  1.00  0.00    -0.314 N 
ATOM      6  H7  UNL     1       0.646   7.229  91.202  1.00  0.00     0.170 HD
HETATM    7  C8  UNL     1       0.305   6.198  92.890  1.00  0.00     0.066 A 
HETATM    8  C9  UNL     1      -0.080   5.015  92.308  1.00  0.00     0.034 A 
HETATM    9  C10 UNL     1      -0.422   3.903  93.084  1.00  0.00     0.033 A 
HETATM   10  C11 UNL     1      -0.391   3.934  94.454  1.00  0.00     0.043 A 
HETATM   11  N10 UNL     1      -0.007   5.124  94.980  1.00  0.00    -0.351 N 
ATOM     12  H10 UNL     1       0.029   5.199  95.997  1.00  0.00     0.166 HD
HETATM   13  C24 UNL     1       0.327   6.205  94.269  1.00  0.00     0.104 A 
ENDROOT
BRANCH  10  14
HETATM   14  C12 UNL     1      -0.690   2.824  95.337  1.00  0.00     0.089 C 
BRANCH  14  15
HETATM   15  N8  UNL     1      -1.448   3.011  96.504  1.00  0.00    -0.287 NA
HETATM   16  C13 UNL     1      -2.691   3.722  96.119  1.00  0.00     0.114 C 
HETATM   17  C14 UNL     1      -3.762   2.612  95.965  1.00  0.00     0.137 C 
HETATM   18  N9  UNL     1      -4.181   2.313  97.247  1.00  0.00    -0.391 N 
HETATM   19  C15 UNL     1      -5.411   2.045  97.751  1.00  0.00     0.060 C 
HETATM   20  C22 UNL     1      -3.039   2.156  98.129  1.00  0.00     0.137 C 
HETATM   21  C23 UNL     1      -1.749   1.873  97.314  1.00  0.00     0.114 C 
BRANCH  19  22
HETATM   22  C16 UNL     1      -6.404   3.156  97.840  1.00  0.00     0.070 C 
BRANCH  22  23
HETATM   23  C17 UNL     1      -5.982   4.257  98.751  1.00  0.00     0.172 C 
BRANCH  23  24
HETATM   24  O1  UNL     1      -5.383   5.325  98.046  1.00  0.00    -0.389 OA
BRANCH  24  25
HETATM   25  C18 UNL     1      -4.742   6.199  98.877  1.00  0.00     0.193 C 
BRANCH  25  26
HETATM   26  C19 UNL     1      -5.238   7.626  98.737  1.00  0.00     0.193 C 
BRANCH  26  27
HETATM   27  O2  UNL     1      -4.306   8.570  98.857  1.00  0.00    -0.388 OA
BRANCH  27  28
HETATM   28  C20 UNL     1      -3.515   9.003  97.868  1.00  0.00     0.183 C 
BRANCH  28  29
HETATM   29  C21 UNL     1      -4.099   8.986  96.466  1.00  0.00     0.183 C 
BRANCH  29  30
HETATM   30  S1  UNL     1      -3.110   7.805  95.551  1.00  0.00     0.252 S 
HETATM   31  O3  UNL     1      -2.230   8.589  94.378  1.00  0.00    -0.212 OA
HETATM   32  O4  UNL     1      -2.100   7.021  96.665  1.00  0.00    -0.212 OA
ENDBRANCH  29  30
ENDBRANCH  28  29
ENDBRANCH  27  28
ENDBRANCH  26  27
ENDBRANCH  25  26
ENDBRANCH  24  25
ENDBRANCH  23  24
ENDBRANCH  22  23
ENDBRANCH  19  22
ENDBRANCH  14  15
ENDBRANCH  10  14
BRANCH   1  33
HETATM   33  N1  UNL     1       0.778   7.389  96.184  1.00  0.00    -0.383 N 
ATOM     34  H12 UNL     1       0.147   8.034  96.659  1.00  0.00     0.157 HD
ATOM     35  H11 UNL     1       1.404   6.776  96.707  1.00  0.00     0.157 HD
ENDBRANCH   1  33
BRANCH   4  36
HETATM   36  N3  UNL     1       1.513   9.416  92.217  1.00  0.00    -0.388 NA
BRANCH  36  37
HETATM   37  C3  UNL     1       1.973  10.497  91.580  1.00  0.00     0.159 C 
BRANCH  37  38
HETATM   38  C4  UNL     1       3.083  10.280  90.591  1.00  0.00     0.061 C 
BRANCH  38  39
HETATM   39  C5  UNL     1       4.406  10.798  91.016  1.00  0.00     0.026 C 
BRANCH  39  40
HETATM   40  C6  UNL     1       5.020   9.883  92.064  1.00  0.00     0.122 C 
BRANCH  40  41
HETATM   41  N4  UNL     1       5.463  10.558  93.224  1.00  0.00    -0.367 N 
HETATM   42  C7  UNL     1       4.952  10.649  94.370  1.00  0.00     0.196 C 
HETATM   43  N5  UNL     1       5.631  11.417  95.387  1.00  0.00    -0.067 NA
HETATM   44  N6  UNL     1       3.727  10.007  94.722  1.00  0.00    -0.067 NA
ATOM     45  H4  UNL     1       6.346  11.055  93.113  1.00  0.00     0.161 HD
ENDBRANCH  40  41
ENDBRANCH  39  40
ENDBRANCH  38  39
ENDBRANCH  37  38
ENDBRANCH  36  37
ENDBRANCH   4  36
TORSDOF 18
ENDMDL
MODEL 5
REMARK VINA RESULT: -7.244845287      1.711      2.512
REMARK  18 active torsions:
REMARK  status: ('A' for Active; 'I' for Inactive)
REMARK    1  A    between atoms: N1_1  and  C1_4 
REMARK    2  A    between atoms: C2_7  and  N3_8 
REMARK    3  A    between atoms: N3_8  and  C3_9 
REMARK    4  A    between atoms: C3_9  and  C4_10 
REMARK    5  A    between atoms: C4_10  and  C5_11 
REMARK    6  A    between atoms: C5_11  and  C6_12 
REMARK    7  A    between atoms: C6_12  and  N4_13 
REMARK    8  A    between atoms: C11_23  and  C12_24 
REMARK    9  A    between atoms: C12_24  and  N8_25 
REMARK   10  A    between atoms: C15_29  and  C16_30 
REMARK   11  A    between atoms: C16_30  and  C17_31 
REMARK   12  A    between atoms: C17_31  and  O1_32 
REMARK   13  A    between atoms: O1_32  and  C18_33 
REMARK   14  A    between atoms: C18_33  and  C19_34 
REMARK   15  A    between atoms: C19_34  and  O2_35 
REMARK   16  A    between atoms: O2_35  and  C20_36 
REMARK   17  A    between atoms: C20_36  and  C21_37 
REMARK   18  A    between atoms: C21_37  and  S1_38 
ROOT
HETATM    1  C1  UNL     1       3.653  10.598  90.302  1.00  0.00     0.132 A 
HETATM    2  N2  UNL     1       4.685  10.988  89.566  1.00  0.00    -0.301 N 
ATOM      3  H2  UNL     1       4.501  11.411  88.657  1.00  0.00     0.171 HD
HETATM    4  C2  UNL     1       6.005  10.846  89.975  1.00  0.00     0.260 A 
HETATM    5  N7  UNL     1       6.133  10.266  91.202  1.00  0.00    -0.314 N 
ATOM      6  H7  UNL     1       7.079  10.132  91.559  1.00  0.00     0.170 HD
HETATM    7  C8  UNL     1       5.133   9.862  91.971  1.00  0.00     0.066 A 
HETATM    8  C9  UNL     1       5.284   9.318  93.223  1.00  0.00     0.034 A 
HETATM    9  C10 UNL     1       4.176   8.954  93.993  1.00  0.00     0.033 A 
HETATM   10  C11 UNL     1       2.891   9.119  93.544  1.00  0.00     0.043 A 
HETATM   11  N10 UNL     1       2.795   9.657  92.303  1.00  0.00    -0.351 N 
ATOM     12  H10 UNL     1       1.859   9.798  91.923  1.00  0.00     0.166 HD
HETATM   13  C24 UNL     1       3.832  10.018  91.541  1.00  0.00     0.104 A 
ENDROOT
BRANCH  10  14
HETATM   14  C12 UNL     1       1.685   8.808  94.285  1.00  0.00     0.089 C 
BRANCH  14  15
HETATM   15  N8  UNL     1       1.322   7.478  94.550  1.00  0.00    -0.287 NA
HETATM   16  C13 UNL     1       0.028   7.506  95.277  1.00  0.00     0.114 C 
HETATM   17  C14 UNL     1      -1.052   7.265  94.191  1.00  0.00     0.137 C 
HETATM   18  N9  UNL     1      -1.063   5.902  93.968  1.00  0.00    -0.391 N 
HETATM   19  C15 UNL     1      -2.084   5.034  93.761  1.00  0.00     0.060 C 
HETATM   20  C22 UNL     1       0.291   5.401  93.822  1.00  0.00     0.137 C 
HETATM   21  C23 UNL     1       1.268   6.553  93.463  1.00  0.00     0.114 C 
BRANCH  19  22
HETATM   22  C16 UNL     1      -2.989   4.709  94.902  1.00  0.00     0.070 C 
BRANCH  22  23
HETATM   23  C17 UNL     1      -2.262   4.373  96.158  1.00  0.00     0.172 C 
BRANCH  23  24
HETATM   24  O1  UNL     1      -2.684   5.173  97.243  1.00  0.00    -0.389 OA
BRANCH  24  25
HETATM   25  C18 UNL     1      -3.569   6.140  96.861  1.00  0.00     0.193 C 
BRANCH  25  26
HETATM   26  C19 UNL     1      -3.135   7.537  97.263  1.00  0.00     0.193 C 
BRANCH  26  27
HETATM   27  O2  UNL     1      -3.716   8.024  98.359  1.00  0.00    -0.388 OA
BRANCH  27  28
HETATM   28  C20 UNL     1      -4.891   8.663  98.390  1.00  0.00     0.183 C 
BRANCH  28  29
HETATM   29  C21 UNL     1      -4.848  10.163  98.632  1.00  0.00     0.183 C 
BRANCH  29  30
HETATM   30  S1  UNL     1      -4.442  10.891  97.046  1.00  0.00     0.252 S 
HETATM   31  O3  UNL     1      -5.738  11.759  96.471  1.00  0.00    -0.212 OA
HETATM   32  O4  UNL     1      -3.084  11.880  97.277  1.00  0.00    -0.212 OA
ENDBRANCH  29  30
ENDBRANCH  28  29
ENDBRANCH  27  28
ENDBRANCH  26  27
ENDBRANCH  25  26
ENDBRANCH  24  25
ENDBRANCH  23  24
ENDBRANCH  22  23
ENDBRANCH  19  22
ENDBRANCH  14  15
ENDBRANCH  10  14
BRANCH   1  33
HETATM   33  N1  UNL     1       2.424  10.756  89.884  1.00  0.00    -0.383 N 
ATOM     34  H12 UNL     1       2.198  10.411  88.952  1.00  0.00     0.157 HD
ATOM     35  H11 UNL     1       1.720  11.202  90.472  1.00  0.00     0.157 HD
ENDBRANCH   1  33
BRANCH   4  36
HETATM   36  N3  UNL     1       6.868  11.286  89.281  1.00  0.00    -0.388 NA
BRANCH  36  37
HETATM   37  C3  UNL     1       7.828  11.780  88.494  1.00  0.00     0.159 C 
BRANCH  37  38
HETATM   38  C4  UNL     1       7.445  12.914  87.587  1.00  0.00     0.061 C 
BRANCH  38  39
HETATM   39  C5  UNL     1       7.291  12.545  86.158  1.00  0.00     0.026 C 
BRANCH  39  40
HETATM   40  C6  UNL     1       8.627  12.648  85.439  1.00  0.00     0.122 C 
BRANCH  40  41
HETATM   41  N4  UNL     1       9.305  13.868  85.664  1.00  0.00    -0.367 N 
HETATM   42  C7  UNL     1      10.531  14.116  85.805  1.00  0.00     0.196 C 
HETATM   43  N5  UNL     1      10.955  15.478  86.026  1.00  0.00    -0.067 NA
HETATM   44  N6  UNL     1      11.536  13.104  85.739  1.00  0.00    -0.067 NA
ATOM     45  H4  UNL     1       8.698  14.685  85.720  1.00  0.00     0.161 HD
ENDBRANCH  40  41
ENDBRANCH  39  40
ENDBRANCH  38  39
ENDBRANCH  37  38
ENDBRANCH  36  37
ENDBRANCH   4  36
TORSDOF 18
ENDMDL
