MODEL 1
REMARK VINA RESULT: -4.978836226      0.000      0.000
REMARK  5 active torsions:
REMARK  status: ('A' for Active; 'I' for Inactive)
REMARK    1  A    between atoms: C2_2  and  O1_5 
REMARK    2  A    between atoms: O1_5  and  C5_6 
REMARK    3  A    between atoms: C5_6  and  C6_8 
REMARK    4  A    between atoms: C6_8  and  S1_9 
REMARK    5  A    between atoms: S1_9  and  C7_10 
ROOT
HETATM    1  C7  UNL     1     -39.607   9.935  24.649  1.00  0.00     0.113 A 
HETATM    2  N1  UNL     1     -39.401  11.222  24.522  1.00  0.00    -0.339 N 
ATOM      3  H1  UNL     1     -38.768  11.569  23.802  1.00  0.00     0.167 HD
HETATM    4  C8  UNL     1     -40.008  12.063  25.322  1.00  0.00     0.084 A 
HETATM    5  C9  UNL     1     -40.837  11.593  26.264  1.00  0.00     0.019 A 
HETATM    6  S2  UNL     1     -40.714   9.898  25.962  1.00  0.00    -0.067 SA
HETATM    7  C10 UNL     1     -41.504  12.554  27.135  1.00  0.00     0.059 C 
HETATM    8  C11 UNL     1     -40.736  13.819  27.222  1.00  0.00     0.086 C 
HETATM    9  S3  UNL     1     -40.022  13.858  25.521  1.00  0.00    -0.111 SA
ENDROOT
BRANCH   1  10
HETATM   10  S1  UNL     1     -38.918   8.557  23.703  1.00  0.00    -0.095 SA
BRANCH  10  11
HETATM   11  C6  UNL     1     -39.219   8.856  21.960  1.00  0.00     0.192 C 
BRANCH  11  12
HETATM   12  C5  UNL     1     -38.235   9.763  21.347  1.00  0.00     0.269 C 
HETATM   13  O2  UNL     1     -38.325  11.003  21.533  1.00  0.00    -0.264 OA
BRANCH  12  14
HETATM   14  O1  UNL     1     -37.185   9.321  20.556  1.00  0.00    -0.311 OA
BRANCH  14  15
HETATM   15  C2  UNL     1     -36.026   8.776  21.158  1.00  0.00     0.060 C 
HETATM   16  C1  UNL     1     -34.889   8.907  20.166  1.00  0.00     0.045 C 
HETATM   17  C3  UNL     1     -36.213   7.300  21.420  1.00  0.00     0.045 C 
HETATM   18  C4  UNL     1     -35.641   9.467  22.421  1.00  0.00     0.045 C 
ENDBRANCH  14  15
ENDBRANCH  12  14
ENDBRANCH  11  12
ENDBRANCH  10  11
ENDBRANCH   1  10
TORSDOF 5
ENDMDL
MODEL 2
REMARK VINA RESULT: -4.863201900      1.181      1.414
REMARK  5 active torsions:
REMARK  status: ('A' for Active; 'I' for Inactive)
REMARK    1  A    between atoms: C2_2  and  O1_5 
REMARK    2  A    between atoms: O1_5  and  C5_6 
REMARK    3  A    between atoms: C5_6  and  C6_8 
REMARK    4  A    between atoms: C6_8  and  S1_9 
REMARK    5  A    between atoms: S1_9  and  C7_10 
ROOT
HETATM    1  C7  UNL     1     -39.592  10.190  24.356  1.00  0.00     0.113 A 
HETATM    2  N1  UNL     1     -39.449  11.491  24.349  1.00  0.00    -0.339 N 
ATOM      3  H1  UNL     1     -38.875  11.938  23.633  1.00  0.00     0.167 HD
HETATM    4  C8  UNL     1     -40.042  12.220  25.261  1.00  0.00     0.084 A 
HETATM    5  C9  UNL     1     -40.792  11.620  26.196  1.00  0.00     0.019 A 
HETATM    6  S2  UNL     1     -40.615   9.971  25.718  1.00  0.00    -0.067 SA
HETATM    7  C10 UNL     1     -41.446  12.458  27.194  1.00  0.00     0.059 C 
HETATM    8  C11 UNL     1     -40.729  13.743  27.366  1.00  0.00     0.086 C 
HETATM    9  S3  UNL     1     -40.121  13.984  25.641  1.00  0.00    -0.111 SA
ENDROOT
BRANCH   1  10
HETATM   10  S1  UNL     1     -38.903   8.947  23.239  1.00  0.00    -0.095 SA
BRANCH  10  11
HETATM   11  C6  UNL     1     -37.494   9.661  22.390  1.00  0.00     0.192 C 
BRANCH  11  12
HETATM   12  C5  UNL     1     -36.973   8.809  21.309  1.00  0.00     0.269 C 
HETATM   13  O2  UNL     1     -37.314   7.601  21.243  1.00  0.00    -0.264 OA
BRANCH  12  14
HETATM   14  O1  UNL     1     -36.106   9.271  20.330  1.00  0.00    -0.311 OA
BRANCH  14  15
HETATM   15  C2  UNL     1     -34.741   8.897  20.362  1.00  0.00     0.060 C 
HETATM   16  C1  UNL     1     -33.981   9.857  19.471  1.00  0.00     0.045 C 
HETATM   17  C3  UNL     1     -34.560   7.516  19.775  1.00  0.00     0.045 C 
HETATM   18  C4  UNL     1     -34.150   8.944  21.729  1.00  0.00     0.045 C 
ENDBRANCH  14  15
ENDBRANCH  12  14
ENDBRANCH  11  12
ENDBRANCH  10  11
ENDBRANCH   1  10
TORSDOF 5
ENDMDL
MODEL 3
REMARK VINA RESULT: -4.852642197      0.998      1.191
REMARK  5 active torsions:
REMARK  status: ('A' for Active; 'I' for Inactive)
REMARK    1  A    between atoms: C2_2  and  O1_5 
REMARK    2  A    between atoms: O1_5  and  C5_6 
REMARK    3  A    between atoms: C5_6  and  C6_8 
REMARK    4  A    between atoms: C6_8  and  S1_9 
REMARK    5  A    between atoms: S1_9  and  C7_10 
ROOT
HETATM    1  C7  UNL     1     -39.715  10.234  24.402  1.00  0.00     0.113 A 
HETATM    2  N1  UNL     1     -39.571  11.535  24.370  1.00  0.00    -0.339 N 
ATOM      3  H1  UNL     1     -39.034  11.971  23.620  1.00  0.00     0.167 HD
HETATM    4  C8  UNL     1     -40.115  12.277  25.302  1.00  0.00     0.084 A 
HETATM    5  C9  UNL     1     -40.817  11.693  26.282  1.00  0.00     0.019 A 
HETATM    6  S2  UNL     1     -40.668  10.036  25.818  1.00  0.00    -0.067 SA
HETATM    7  C10 UNL     1     -41.418  12.545  27.301  1.00  0.00     0.059 C 
HETATM    8  C11 UNL     1     -40.690  13.831  27.419  1.00  0.00     0.086 C 
HETATM    9  S3  UNL     1     -40.171  14.047  25.662  1.00  0.00    -0.111 SA
ENDROOT
BRANCH   1  10
HETATM   10  S1  UNL     1     -39.087   8.975  23.269  1.00  0.00    -0.095 SA
BRANCH  10  11
HETATM   11  C6  UNL     1     -37.734   9.680  22.327  1.00  0.00     0.192 C 
BRANCH  11  12
HETATM   12  C5  UNL     1     -37.644   9.153  20.955  1.00  0.00     0.269 C 
HETATM   13  O2  UNL     1     -38.006   9.865  19.985  1.00  0.00    -0.264 OA
BRANCH  12  14
HETATM   14  O1  UNL     1     -37.170   7.883  20.659  1.00  0.00    -0.311 OA
BRANCH  14  15
HETATM   15  C2  UNL     1     -35.778   7.628  20.672  1.00  0.00     0.060 C 
HETATM   16  C1  UNL     1     -35.484   6.632  19.568  1.00  0.00     0.045 C 
HETATM   17  C3  UNL     1     -35.374   6.974  21.973  1.00  0.00     0.045 C 
HETATM   18  C4  UNL     1     -34.954   8.849  20.445  1.00  0.00     0.045 C 
ENDBRANCH  14  15
ENDBRANCH  12  14
ENDBRANCH  11  12
ENDBRANCH  10  11
ENDBRANCH   1  10
TORSDOF 5
ENDMDL
MODEL 4
REMARK VINA RESULT: -4.831768654      3.689      5.028
REMARK  5 active torsions:
REMARK  status: ('A' for Active; 'I' for Inactive)
REMARK    1  A    between atoms: C2_2  and  O1_5 
REMARK    2  A    between atoms: O1_5  and  C5_6 
REMARK    3  A    between atoms: C5_6  and  C6_8 
REMARK    4  A    between atoms: C6_8  and  S1_9 
REMARK    5  A    between atoms: S1_9  and  C7_10 
ROOT
HETATM    1  C7  UNL     1     -39.887   9.793  23.973  1.00  0.00     0.113 A 
HETATM    2  N1  UNL     1     -40.492  10.002  25.115  1.00  0.00    -0.339 N 
ATOM      3  H1  UNL     1     -40.960   9.232  25.593  1.00  0.00     0.167 HD
HETATM    4  C8  UNL     1     -40.496  11.200  25.643  1.00  0.00     0.084 A 
HETATM    5  C9  UNL     1     -39.877  12.203  25.004  1.00  0.00     0.019 A 
HETATM    6  S2  UNL     1     -39.289  11.363  23.615  1.00  0.00    -0.067 SA
HETATM    7  C10 UNL     1     -39.892  13.524  25.620  1.00  0.00     0.059 C 
HETATM    8  C11 UNL     1     -41.050  13.676  26.533  1.00  0.00     0.086 C 
HETATM    9  S3  UNL     1     -41.185  11.939  27.141  1.00  0.00    -0.111 SA
ENDROOT
BRANCH   1  10
HETATM   10  S1  UNL     1     -39.720   8.267  23.018  1.00  0.00    -0.095 SA
BRANCH  10  11
HETATM   11  C6  UNL     1     -38.933   7.031  24.052  1.00  0.00     0.192 C 
BRANCH  11  12
HETATM   12  C5  UNL     1     -39.810   6.522  25.119  1.00  0.00     0.269 C 
HETATM   13  O2  UNL     1     -39.342   5.765  26.007  1.00  0.00    -0.264 OA
BRANCH  12  14
HETATM   14  O1  UNL     1     -41.159   6.835  25.207  1.00  0.00    -0.311 OA
BRANCH  14  15
HETATM   15  C2  UNL     1     -42.127   5.940  24.693  1.00  0.00     0.060 C 
HETATM   16  C1  UNL     1     -43.172   6.762  23.967  1.00  0.00     0.045 C 
HETATM   17  C3  UNL     1     -42.835   5.226  25.822  1.00  0.00     0.045 C 
HETATM   18  C4  UNL     1     -41.560   4.941  23.744  1.00  0.00     0.045 C 
ENDBRANCH  14  15
ENDBRANCH  12  14
ENDBRANCH  11  12
ENDBRANCH  10  11
ENDBRANCH   1  10
TORSDOF 5
ENDMDL
MODEL 5
REMARK VINA RESULT: -4.799216653      1.080      1.687
REMARK  5 active torsions:
REMARK  status: ('A' for Active; 'I' for Inactive)
REMARK    1  A    between atoms: C2_2  and  O1_5 
REMARK    2  A    between atoms: O1_5  and  C5_6 
REMARK    3  A    between atoms: C5_6  and  C6_8 
REMARK    4  A    between atoms: C6_8  and  S1_9 
REMARK    5  A    between atoms: S1_9  and  C7_10 
ROOT
HETATM    1  C7  UNL     1     -39.645  10.178  24.392  1.00  0.00     0.113 A 
HETATM    2  N1  UNL     1     -39.470  11.476  24.383  1.00  0.00    -0.339 N 
ATOM      3  H1  UNL     1     -38.874  11.905  23.674  1.00  0.00     0.167 HD
HETATM    4  C8  UNL     1     -40.059  12.222  25.283  1.00  0.00     0.084 A 
HETATM    5  C9  UNL     1     -40.838  11.644  26.208  1.00  0.00     0.019 A 
HETATM    6  S2  UNL     1     -40.695   9.989  25.738  1.00  0.00    -0.067 SA
HETATM    7  C10 UNL     1     -41.487  12.501  27.193  1.00  0.00     0.059 C 
HETATM    8  C11 UNL     1     -40.741  13.769  27.372  1.00  0.00     0.086 C 
HETATM    9  S3  UNL     1     -40.100  13.989  25.656  1.00  0.00    -0.111 SA
ENDROOT
BRANCH   1  10
HETATM   10  S1  UNL     1     -38.970   8.914  23.290  1.00  0.00    -0.095 SA
BRANCH  10  11
HETATM   11  C6  UNL     1     -38.014   9.727  22.009  1.00  0.00     0.192 C 
BRANCH  11  12
HETATM   12  C5  UNL     1     -37.013   8.848  21.384  1.00  0.00     0.269 C 
HETATM   13  O2  UNL     1     -37.116   8.544  20.168  1.00  0.00    -0.264 OA
BRANCH  12  14
HETATM   14  O1  UNL     1     -35.932   8.318  22.073  1.00  0.00    -0.311 OA
BRANCH  14  15
HETATM   15  C2  UNL     1     -34.703   9.019  22.107  1.00  0.00     0.060 C 
HETATM   16  C1  UNL     1     -33.655   8.083  22.672  1.00  0.00     0.045 C 
HETATM   17  C3  UNL     1     -34.795  10.197  23.050  1.00  0.00     0.045 C 
HETATM   18  C4  UNL     1     -34.254   9.484  20.764  1.00  0.00     0.045 C 
ENDBRANCH  14  15
ENDBRANCH  12  14
ENDBRANCH  11  12
ENDBRANCH  10  11
ENDBRANCH   1  10
TORSDOF 5
ENDMDL
