MODEL 1
REMARK VINA RESULT: -6.338040773      0.000      0.000
REMARK  3 active torsions:
REMARK  status: ('A' for Active; 'I' for Inactive)
REMARK    1  A    between atoms: O1_2  and  N1_3 
REMARK    2  A    between atoms: N1_3  and  S1_5 
REMARK    3  A    between atoms: C8_17  and  N4_18 
ROOT
HETATM    1  S1  UNL     1     -39.297   8.877  23.344  1.00  0.00    -0.017 SA
HETATM    2  C2  UNL     1     -39.442  10.635  22.903  1.00  0.00     0.056 A 
HETATM    3  C3  UNL     1     -39.093  11.052  21.522  1.00  0.00     0.077 C 
HETATM    4  N2  UNL     1     -39.836  11.405  23.812  1.00  0.00    -0.350 N 
ATOM      5  H2  UNL     1     -39.920  12.394  23.578  1.00  0.00     0.166 HD
HETATM    6  C4  UNL     1     -40.175  11.023  25.132  1.00  0.00     0.092 A 
HETATM    7  C5  UNL     1     -40.578  11.907  26.153  1.00  0.00     0.058 A 
HETATM    8  C6  UNL     1     -40.764  13.365  26.093  1.00  0.00     0.072 C 
HETATM    9  N3  UNL     1     -40.772  11.159  27.245  1.00  0.00    -0.263 N 
ATOM     10  H3  UNL     1     -41.069  11.504  28.158  1.00  0.00     0.194 HD
HETATM   11  O2  UNL     1     -40.521   9.928  26.950  1.00  0.00    -0.237 OA
HETATM   12  C7  UNL     1     -40.155   9.798  25.674  1.00  0.00     0.149 A 
HETATM   13  C8  UNL     1     -39.807   8.493  25.046  1.00  0.00     0.362 A 
ENDROOT
BRANCH  13  14
HETATM   14  N4  UNL     1     -40.951   7.616  25.186  1.00  0.00     0.110 N 
HETATM   15  C9  UNL     1     -40.638   6.233  25.105  1.00  0.00     0.274 C 
HETATM   16  C10 UNL     1     -41.855   5.349  25.298  1.00  0.00     0.030 C 
HETATM   17  C11 UNL     1     -42.771   5.666  24.138  1.00  0.00     0.003 C 
HETATM   18  C12 UNL     1     -43.117   7.101  24.132  1.00  0.00     0.030 C 
HETATM   19  C13 UNL     1     -41.977   8.055  24.293  1.00  0.00     0.274 C 
ENDBRANCH  13  14
BRANCH   1  20
HETATM   20  N1  UNL     1     -38.254   7.976  22.481  1.00  0.00    -0.243 N 
ATOM     21  H1  UNL     1     -38.632   7.109  22.100  1.00  0.00     0.202 HD
BRANCH  20  22
HETATM   22  O1  UNL     1     -36.961   8.216  22.200  1.00  0.00    -0.280 OA
HETATM   23  C1  UNL     1     -36.461   8.437  20.889  1.00  0.00     0.238 C 
ENDBRANCH  20  22
ENDBRANCH   1  20
TORSDOF 3
ENDMDL
MODEL 2
REMARK VINA RESULT: -6.071286729      1.215      1.381
REMARK  3 active torsions:
REMARK  status: ('A' for Active; 'I' for Inactive)
REMARK    1  A    between atoms: O1_2  and  N1_3 
REMARK    2  A    between atoms: N1_3  and  S1_5 
REMARK    3  A    between atoms: C8_17  and  N4_18 
ROOT
HETATM    1  S1  UNL     1     -39.273   8.083  23.256  1.00  0.00    -0.017 SA
HETATM    2  C2  UNL     1     -39.183   9.797  22.655  1.00  0.00     0.056 A 
HETATM    3  C3  UNL     1     -38.733  10.039  21.262  1.00  0.00     0.077 C 
HETATM    4  N2  UNL     1     -39.515  10.690  23.471  1.00  0.00    -0.350 N 
ATOM      5  H2  UNL     1     -39.467  11.656  23.147  1.00  0.00     0.166 HD
HETATM    6  C4  UNL     1     -39.949  10.477  24.802  1.00  0.00     0.092 A 
HETATM    7  C5  UNL     1     -40.279  11.494  25.719  1.00  0.00     0.058 A 
HETATM    8  C6  UNL     1     -40.282  12.952  25.521  1.00  0.00     0.072 C 
HETATM    9  N3  UNL     1     -40.606  10.880  26.862  1.00  0.00    -0.263 N 
ATOM     10  H3  UNL     1     -40.894  11.342  27.725  1.00  0.00     0.194 HD
HETATM   11  O2  UNL     1     -40.497   9.606  26.690  1.00  0.00    -0.237 OA
HETATM   12  C7  UNL     1     -40.100   9.314  25.450  1.00  0.00     0.149 A 
HETATM   13  C8  UNL     1     -39.891   7.924  24.958  1.00  0.00     0.362 A 
ENDROOT
BRANCH  13  14
HETATM   14  N4  UNL     1     -41.139   7.206  25.118  1.00  0.00     0.110 N 
HETATM   15  C9  UNL     1     -40.992   5.796  25.202  1.00  0.00     0.274 C 
HETATM   16  C10 UNL     1     -42.316   5.086  25.411  1.00  0.00     0.030 C 
HETATM   17  C11 UNL     1     -43.129   5.374  24.169  1.00  0.00     0.003 C 
HETATM   18  C12 UNL     1     -43.296   6.830  23.991  1.00  0.00     0.030 C 
HETATM   19  C13 UNL     1     -42.058   7.658  24.121  1.00  0.00     0.274 C 
ENDBRANCH  13  14
BRANCH   1  20
HETATM   20  N1  UNL     1     -38.315   6.988  22.529  1.00  0.00    -0.243 N 
ATOM     21  H1  UNL     1     -37.673   7.361  21.831  1.00  0.00     0.202 HD
BRANCH  20  22
HETATM   22  O1  UNL     1     -38.252   5.659  22.722  1.00  0.00    -0.280 OA
HETATM   23  C1  UNL     1     -37.560   5.044  23.799  1.00  0.00     0.238 C 
ENDBRANCH  20  22
ENDBRANCH   1  20
TORSDOF 3
ENDMDL
MODEL 3
REMARK VINA RESULT: -5.741849254      0.888      1.398
REMARK  3 active torsions:
REMARK  status: ('A' for Active; 'I' for Inactive)
REMARK    1  A    between atoms: O1_2  and  N1_3 
REMARK    2  A    between atoms: N1_3  and  S1_5 
REMARK    3  A    between atoms: C8_17  and  N4_18 
ROOT
HETATM    1  S1  UNL     1     -38.984   9.211  22.607  1.00  0.00    -0.017 SA
HETATM    2  C2  UNL     1     -39.352  10.992  22.568  1.00  0.00     0.056 A 
HETATM    3  C3  UNL     1     -39.081  11.746  21.319  1.00  0.00     0.077 C 
HETATM    4  N2  UNL     1     -39.824  11.484  23.620  1.00  0.00    -0.350 N 
ATOM      5  H2  UNL     1     -40.034  12.482  23.612  1.00  0.00     0.166 HD
HETATM    6  C4  UNL     1     -40.092  10.779  24.818  1.00  0.00     0.092 A 
HETATM    7  C5  UNL     1     -40.584  11.356  26.005  1.00  0.00     0.058 A 
HETATM    8  C6  UNL     1     -40.951  12.756  26.270  1.00  0.00     0.072 C 
HETATM    9  N3  UNL     1     -40.667  10.365  26.901  1.00  0.00    -0.263 N 
ATOM     10  H3  UNL     1     -40.990  10.459  27.864  1.00  0.00     0.194 HD
HETATM   11  O2  UNL     1     -40.270   9.272  26.342  1.00  0.00    -0.237 OA
HETATM   12  C7  UNL     1     -39.911   9.476  25.074  1.00  0.00     0.149 A 
HETATM   13  C8  UNL     1     -39.415   8.397  24.175  1.00  0.00     0.362 A 
ENDROOT
BRANCH  13  14
HETATM   14  N4  UNL     1     -40.438   7.375  24.102  1.00  0.00     0.110 N 
HETATM   15  C9  UNL     1     -41.764   7.868  24.236  1.00  0.00     0.274 C 
HETATM   16  C10 UNL     1     -42.805   6.773  24.113  1.00  0.00     0.030 C 
HETATM   17  C11 UNL     1     -42.556   5.845  25.280  1.00  0.00     0.003 C 
HETATM   18  C12 UNL     1     -41.179   5.316  25.231  1.00  0.00     0.030 C 
HETATM   19  C13 UNL     1     -40.094   6.318  25.000  1.00  0.00     0.274 C 
ENDBRANCH  13  14
BRANCH   1  20
HETATM   20  N1  UNL     1     -37.851   8.663  21.578  1.00  0.00    -0.243 N 
ATOM     21  H1  UNL     1     -38.075   7.788  21.103  1.00  0.00     0.202 HD
BRANCH  20  22
HETATM   22  O1  UNL     1     -36.659   9.202  21.265  1.00  0.00    -0.280 OA
HETATM   23  C1  UNL     1     -35.544   9.227  22.144  1.00  0.00     0.238 C 
ENDBRANCH  20  22
ENDBRANCH   1  20
TORSDOF 3
ENDMDL
MODEL 4
REMARK VINA RESULT: -5.591437673      2.050      4.774
REMARK  3 active torsions:
REMARK  status: ('A' for Active; 'I' for Inactive)
REMARK    1  A    between atoms: O1_2  and  N1_3 
REMARK    2  A    between atoms: N1_3  and  S1_5 
REMARK    3  A    between atoms: C8_17  and  N4_18 
ROOT
HETATM    1  S1  UNL     1     -38.669  10.554  22.925  1.00  0.00    -0.017 SA
HETATM    2  C2  UNL     1     -37.649   9.053  22.816  1.00  0.00     0.056 A 
HETATM    3  C3  UNL     1     -36.423   9.086  21.982  1.00  0.00     0.077 C 
HETATM    4  N2  UNL     1     -38.053   8.059  23.467  1.00  0.00    -0.350 N 
ATOM      5  H2  UNL     1     -37.491   7.210  23.413  1.00  0.00     0.166 HD
HETATM    6  C4  UNL     1     -39.219   8.011  24.269  1.00  0.00     0.092 A 
HETATM    7  C5  UNL     1     -39.680   6.874  24.961  1.00  0.00     0.058 A 
HETATM    8  C6  UNL     1     -39.079   5.533  25.041  1.00  0.00     0.072 C 
HETATM    9  N3  UNL     1     -40.817   7.235  25.565  1.00  0.00    -0.263 N 
ATOM     10  H3  UNL     1     -41.399   6.633  26.148  1.00  0.00     0.194 HD
HETATM   11  O2  UNL     1     -41.055   8.473  25.288  1.00  0.00    -0.237 OA
HETATM   12  C7  UNL     1     -40.107   8.986  24.502  1.00  0.00     0.149 A 
HETATM   13  C8  UNL     1     -40.111  10.396  24.021  1.00  0.00     0.362 A 
ENDROOT
BRANCH  13  14
HETATM   14  N4  UNL     1     -40.126  11.261  25.183  1.00  0.00     0.110 N 
HETATM   15  C9  UNL     1     -41.368  11.293  25.869  1.00  0.00     0.274 C 
HETATM   16  C10 UNL     1     -41.329  12.176  27.101  1.00  0.00     0.030 C 
HETATM   17  C11 UNL     1     -41.069  13.574  26.588  1.00  0.00     0.003 C 
HETATM   18  C12 UNL     1     -39.804  13.616  25.828  1.00  0.00     0.030 C 
HETATM   19  C13 UNL     1     -39.611  12.540  24.808  1.00  0.00     0.274 C 
ENDBRANCH  13  14
BRANCH   1  20
HETATM   20  N1  UNL     1     -38.576  11.609  21.690  1.00  0.00    -0.243 N 
ATOM     21  H1  UNL     1     -38.202  12.528  21.924  1.00  0.00     0.202 HD
BRANCH  20  22
HETATM   22  O1  UNL     1     -38.924  11.437  20.402  1.00  0.00    -0.280 OA
HETATM   23  C1  UNL     1     -39.143  10.168  19.801  1.00  0.00     0.238 C 
ENDBRANCH  20  22
ENDBRANCH   1  20
TORSDOF 3
ENDMDL
MODEL 5
REMARK VINA RESULT: -5.216941828      1.792      2.082
REMARK  3 active torsions:
REMARK  status: ('A' for Active; 'I' for Inactive)
REMARK    1  A    between atoms: O1_2  and  N1_3 
REMARK    2  A    between atoms: N1_3  and  S1_5 
REMARK    3  A    between atoms: C8_17  and  N4_18 
ROOT
HETATM    1  S1  UNL     1     -38.973   6.805  23.671  1.00  0.00    -0.017 SA
HETATM    2  C2  UNL     1     -38.416   8.281  22.766  1.00  0.00     0.056 A 
HETATM    3  C3  UNL     1     -37.655   8.096  21.505  1.00  0.00     0.077 C 
HETATM    4  N2  UNL     1     -38.716   9.389  23.272  1.00  0.00    -0.350 N 
ATOM      5  H2  UNL     1     -38.408  10.225  22.775  1.00  0.00     0.166 HD
HETATM    6  C4  UNL     1     -39.443   9.583  24.471  1.00  0.00     0.092 A 
HETATM    7  C5  UNL     1     -39.736  10.835  25.047  1.00  0.00     0.058 A 
HETATM    8  C6  UNL     1     -39.402  12.181  24.555  1.00  0.00     0.072 C 
HETATM    9  N3  UNL     1     -40.404  10.583  26.178  1.00  0.00    -0.263 N 
ATOM     10  H3  UNL     1     -40.759  11.284  26.829  1.00  0.00     0.194 HD
HETATM   11  O2  UNL     1     -40.525   9.304  26.308  1.00  0.00    -0.237 OA
HETATM   12  C7  UNL     1     -39.955   8.656  25.291  1.00  0.00     0.149 A 
HETATM   13  C8  UNL     1     -39.940   7.172  25.166  1.00  0.00     0.362 A 
ENDROOT
BRANCH  13  14
HETATM   14  N4  UNL     1     -41.314   6.714  25.165  1.00  0.00     0.110 N 
HETATM   15  C9  UNL     1     -41.460   5.309  25.317  1.00  0.00     0.274 C 
HETATM   16  C10 UNL     1     -42.913   4.877  25.352  1.00  0.00     0.030 C 
HETATM   17  C11 UNL     1     -43.473   5.236  23.994  1.00  0.00     0.003 C 
HETATM   18  C12 UNL     1     -43.326   6.683  23.744  1.00  0.00     0.030 C 
HETATM   19  C13 UNL     1     -41.980   7.269  24.028  1.00  0.00     0.274 C 
ENDBRANCH  13  14
BRANCH   1  20
HETATM   20  N1  UNL     1     -38.133   5.432  23.445  1.00  0.00    -0.243 N 
ATOM     21  H1  UNL     1     -38.346   4.674  24.092  1.00  0.00     0.202 HD
BRANCH  20  22
HETATM   22  O1  UNL     1     -37.195   5.156  22.521  1.00  0.00    -0.280 OA
HETATM   23  C1  UNL     1     -37.354   4.193  21.490  1.00  0.00     0.238 C 
ENDBRANCH  20  22
ENDBRANCH   1  20
TORSDOF 3
ENDMDL
