MODEL 1
REMARK VINA RESULT: -5.409563746      0.000      0.000
REMARK  7 active torsions:
REMARK  status: ('A' for Active; 'I' for Inactive)
REMARK    1  A    between atoms: C2_2  and  N1_5 
REMARK    2  A    between atoms: N1_5  and  C5_6 
REMARK    3  A    between atoms: C5_6  and  S1_7 
REMARK    4  A    between atoms: C5_6  and  C10_17 
REMARK    5  A    between atoms: S1_7  and  C6_8 
REMARK    6  A    between atoms: C6_8  and  C7_9 
REMARK    7  A    between atoms: C7_9  and  C8_11 
ROOT
HETATM    1  C5  UNL     1     -39.455   7.880  23.897  1.00  0.00     0.123 C 
ENDROOT
BRANCH   1   2
HETATM    2  N1  UNL     1     -38.788   8.348  23.042  1.00  0.00    -0.434 NA
BRANCH   2   3
HETATM    3  C2  UNL     1     -38.028   8.926  22.112  1.00  0.00     0.083 C 
HETATM    4  C1  UNL     1     -37.005   9.895  22.815  1.00  0.00     0.053 C 
HETATM    5  C3  UNL     1     -38.787   9.804  21.080  1.00  0.00     0.053 C 
HETATM    6  C4  UNL     1     -37.119   8.086  21.222  1.00  0.00     0.053 C 
ENDBRANCH   2   3
ENDBRANCH   1   2
BRANCH   1   7
HETATM    7  S1  UNL     1     -40.234   8.671  25.289  1.00  0.00    -0.094 SA
BRANCH   7   8
HETATM    8  C6  UNL     1     -41.235  10.063  25.068  1.00  0.00     0.166 C 
BRANCH   8   9
HETATM    9  C7  UNL     1     -40.528  11.371  24.819  1.00  0.00     0.178 C 
HETATM   10  O1  UNL     1     -39.833  11.618  23.814  1.00  0.00    -0.291 OA
BRANCH   9  11
HETATM   11  C8  UNL     1     -40.683  12.430  25.874  1.00  0.00     0.082 A 
HETATM   12  C9  UNL     1     -41.293  12.198  27.115  1.00  0.00     0.127 A 
HETATM   13  N2  UNL     1     -41.362  13.310  27.925  1.00  0.00    -0.303 N 
HETATM   14  N3  UNL     1     -40.851  14.435  27.442  1.00  0.00    -0.061 NA
ATOM     15  H2  UNL     1     -41.786  13.271  28.852  1.00  0.00     0.182 HD
HETATM   16  S2  UNL     1     -40.303  14.036  25.956  1.00  0.00     0.004 SA
ENDBRANCH   9  11
ENDBRANCH   8   9
ENDBRANCH   7   8
ENDBRANCH   1   7
BRANCH   1  17
HETATM   17  C10 UNL     1     -39.779   6.362  23.897  1.00  0.00     0.011 C 
HETATM   18  C11 UNL     1     -39.220   5.812  25.177  1.00  0.00     0.023 C 
HETATM   19  C12 UNL     1     -39.310   5.642  22.726  1.00  0.00     0.023 C 
HETATM   20  C13 UNL     1     -41.319   6.271  23.950  1.00  0.00     0.023 C 
ENDBRANCH   1  17
TORSDOF 7
ENDMDL
MODEL 2
REMARK VINA RESULT: -5.406204531      0.247      1.034
REMARK  7 active torsions:
REMARK  status: ('A' for Active; 'I' for Inactive)
REMARK    1  A    between atoms: C2_2  and  N1_5 
REMARK    2  A    between atoms: N1_5  and  C5_6 
REMARK    3  A    between atoms: C5_6  and  S1_7 
REMARK    4  A    between atoms: C5_6  and  C10_17 
REMARK    5  A    between atoms: S1_7  and  C6_8 
REMARK    6  A    between atoms: C6_8  and  C7_9 
REMARK    7  A    between atoms: C7_9  and  C8_11 
ROOT
HETATM    1  C5  UNL     1     -39.446   7.864  24.044  1.00  0.00     0.123 C 
ENDROOT
BRANCH   1   2
HETATM    2  N1  UNL     1     -38.666   8.304  23.274  1.00  0.00    -0.434 NA
BRANCH   2   3
HETATM    3  C2  UNL     1     -37.768   8.839  22.448  1.00  0.00     0.083 C 
HETATM    4  C1  UNL     1     -38.519   9.503  21.233  1.00  0.00     0.053 C 
HETATM    5  C3  UNL     1     -36.763   7.838  21.815  1.00  0.00     0.053 C 
HETATM    6  C4  UNL     1     -36.856   9.966  22.919  1.00  0.00     0.053 C 
ENDBRANCH   2   3
ENDBRANCH   1   2
BRANCH   1   7
HETATM    7  S1  UNL     1     -40.340   8.685  25.347  1.00  0.00    -0.094 SA
BRANCH   7   8
HETATM    8  C6  UNL     1     -41.286  10.095  25.017  1.00  0.00     0.166 C 
BRANCH   8   9
HETATM    9  C7  UNL     1     -40.530  11.379  24.791  1.00  0.00     0.178 C 
HETATM   10  O1  UNL     1     -39.805  11.607  23.803  1.00  0.00    -0.291 OA
BRANCH   9  11
HETATM   11  C8  UNL     1     -40.670  12.437  25.849  1.00  0.00     0.082 A 
HETATM   12  C9  UNL     1     -41.277  12.208  27.092  1.00  0.00     0.127 A 
HETATM   13  N2  UNL     1     -41.333  13.319  27.905  1.00  0.00    -0.303 N 
HETATM   14  N3  UNL     1     -40.813  14.440  27.423  1.00  0.00    -0.061 NA
ATOM     15  H2  UNL     1     -41.753  13.281  28.833  1.00  0.00     0.182 HD
HETATM   16  S2  UNL     1     -40.275  14.039  25.934  1.00  0.00     0.004 SA
ENDBRANCH   9  11
ENDBRANCH   8   9
ENDBRANCH   7   8
ENDBRANCH   1   7
BRANCH   1  17
HETATM   17  C10 UNL     1     -39.838   6.363  23.994  1.00  0.00     0.011 C 
HETATM   18  C11 UNL     1     -39.238   5.730  25.216  1.00  0.00     0.023 C 
HETATM   19  C12 UNL     1     -39.463   5.679  22.769  1.00  0.00     0.023 C 
HETATM   20  C13 UNL     1     -41.375   6.335  24.127  1.00  0.00     0.023 C 
ENDBRANCH   1  17
TORSDOF 7
ENDMDL
MODEL 3
REMARK VINA RESULT: -5.351316817      1.200      3.276
REMARK  7 active torsions:
REMARK  status: ('A' for Active; 'I' for Inactive)
REMARK    1  A    between atoms: C2_2  and  N1_5 
REMARK    2  A    between atoms: N1_5  and  C5_6 
REMARK    3  A    between atoms: C5_6  and  S1_7 
REMARK    4  A    between atoms: C5_6  and  C10_17 
REMARK    5  A    between atoms: S1_7  and  C6_8 
REMARK    6  A    between atoms: C6_8  and  C7_9 
REMARK    7  A    between atoms: C7_9  and  C8_11 
ROOT
HETATM    1  C5  UNL     1     -38.248   8.825  23.025  1.00  0.00     0.123 C 
ENDROOT
BRANCH   1   2
HETATM    2  N1  UNL     1     -39.026   7.974  23.283  1.00  0.00    -0.434 NA
BRANCH   2   3
HETATM    3  C2  UNL     1     -39.884   7.016  23.632  1.00  0.00     0.083 C 
HETATM    4  C1  UNL     1     -39.702   6.698  25.163  1.00  0.00     0.053 C 
HETATM    5  C3  UNL     1     -39.702   5.657  22.902  1.00  0.00     0.053 C 
HETATM    6  C4  UNL     1     -41.388   7.245  23.525  1.00  0.00     0.053 C 
ENDBRANCH   2   3
ENDBRANCH   1   2
BRANCH   1   7
HETATM    7  S1  UNL     1     -38.154  10.497  23.629  1.00  0.00    -0.094 SA
BRANCH   7   8
HETATM    8  C6  UNL     1     -39.572  11.481  23.730  1.00  0.00     0.166 C 
BRANCH   8   9
HETATM    9  C7  UNL     1     -40.497  11.219  24.891  1.00  0.00     0.178 C 
HETATM   10  O1  UNL     1     -41.133  10.161  25.061  1.00  0.00    -0.291 OA
BRANCH   9  11
HETATM   11  C8  UNL     1     -40.650  12.329  25.892  1.00  0.00     0.082 A 
HETATM   12  C9  UNL     1     -41.301  12.171  27.124  1.00  0.00     0.127 A 
HETATM   13  N2  UNL     1     -41.361  13.321  27.881  1.00  0.00    -0.303 N 
HETATM   14  N3  UNL     1     -40.804  14.408  27.363  1.00  0.00    -0.061 NA
ATOM     15  H2  UNL     1     -41.811  13.336  28.796  1.00  0.00     0.182 HD
HETATM   16  S2  UNL     1     -40.227  13.926  25.913  1.00  0.00     0.004 SA
ENDBRANCH   9  11
ENDBRANCH   8   9
ENDBRANCH   7   8
ENDBRANCH   1   7
BRANCH   1  17
HETATM   17  C10 UNL     1     -37.083   8.549  22.038  1.00  0.00     0.011 C 
HETATM   18  C11 UNL     1     -37.581   8.942  20.677  1.00  0.00     0.023 C 
HETATM   19  C12 UNL     1     -36.566   7.192  22.073  1.00  0.00     0.023 C 
HETATM   20  C13 UNL     1     -35.956   9.520  22.451  1.00  0.00     0.023 C 
ENDBRANCH   1  17
TORSDOF 7
ENDMDL
MODEL 4
REMARK VINA RESULT: -5.253008301      1.196      1.767
REMARK  7 active torsions:
REMARK  status: ('A' for Active; 'I' for Inactive)
REMARK    1  A    between atoms: C2_2  and  N1_5 
REMARK    2  A    between atoms: N1_5  and  C5_6 
REMARK    3  A    between atoms: C5_6  and  S1_7 
REMARK    4  A    between atoms: C5_6  and  C10_17 
REMARK    5  A    between atoms: S1_7  and  C6_8 
REMARK    6  A    between atoms: C6_8  and  C7_9 
REMARK    7  A    between atoms: C7_9  and  C8_11 
ROOT
HETATM    1  C5  UNL     1     -39.493   8.299  24.087  1.00  0.00     0.123 C 
ENDROOT
BRANCH   1   2
HETATM    2  N1  UNL     1     -38.900   9.071  23.417  1.00  0.00    -0.434 NA
BRANCH   2   3
HETATM    3  C2  UNL     1     -38.276   9.982  22.671  1.00  0.00     0.083 C 
HETATM    4  C1  UNL     1     -38.615   9.724  21.155  1.00  0.00     0.053 C 
HETATM    5  C3  UNL     1     -36.725   9.966  22.757  1.00  0.00     0.053 C 
HETATM    6  C4  UNL     1     -38.598  11.464  22.827  1.00  0.00     0.053 C 
ENDBRANCH   2   3
ENDBRANCH   1   2
BRANCH   1   7
HETATM    7  S1  UNL     1     -40.577   8.595  25.469  1.00  0.00    -0.094 SA
BRANCH   7   8
HETATM    8  C6  UNL     1     -40.529  10.098  26.323  1.00  0.00     0.166 C 
BRANCH   8   9
HETATM    9  C7  UNL     1     -41.154  11.285  25.637  1.00  0.00     0.178 C 
HETATM   10  O1  UNL     1     -41.886  11.215  24.632  1.00  0.00    -0.291 OA
BRANCH   9  11
HETATM   11  C8  UNL     1     -40.848  12.636  26.222  1.00  0.00     0.082 A 
HETATM   12  C9  UNL     1     -40.149  13.635  25.529  1.00  0.00     0.127 A 
HETATM   13  N2  UNL     1     -39.947  14.788  26.256  1.00  0.00    -0.303 N 
HETATM   14  N3  UNL     1     -40.430  14.809  27.492  1.00  0.00    -0.061 NA
ATOM     15  H2  UNL     1     -39.449  15.586  25.864  1.00  0.00     0.182 HD
HETATM   16  S2  UNL     1     -41.124  13.344  27.689  1.00  0.00     0.004 SA
ENDBRANCH   9  11
ENDBRANCH   8   9
ENDBRANCH   7   8
ENDBRANCH   1   7
BRANCH   1  17
HETATM   17  C10 UNL     1     -39.401   6.777  23.798  1.00  0.00     0.011 C 
HETATM   18  C11 UNL     1     -39.129   6.114  25.118  1.00  0.00     0.023 C 
HETATM   19  C12 UNL     1     -38.434   6.410  22.778  1.00  0.00     0.023 C 
HETATM   20  C13 UNL     1     -40.809   6.364  23.318  1.00  0.00     0.023 C 
ENDBRANCH   1  17
TORSDOF 7
ENDMDL
MODEL 5
REMARK VINA RESULT: -5.126031042      3.286      6.413
REMARK  7 active torsions:
REMARK  status: ('A' for Active; 'I' for Inactive)
REMARK    1  A    between atoms: C2_2  and  N1_5 
REMARK    2  A    between atoms: N1_5  and  C5_6 
REMARK    3  A    between atoms: C5_6  and  S1_7 
REMARK    4  A    between atoms: C5_6  and  C10_17 
REMARK    5  A    between atoms: S1_7  and  C6_8 
REMARK    6  A    between atoms: C6_8  and  C7_9 
REMARK    7  A    between atoms: C7_9  and  C8_11 
ROOT
HETATM    1  C5  UNL     1     -39.696  10.449  24.545  1.00  0.00     0.123 C 
ENDROOT
BRANCH   1   2
HETATM    2  N1  UNL     1     -40.057   9.328  24.449  1.00  0.00    -0.434 NA
BRANCH   2   3
HETATM    3  C2  UNL     1     -40.418   8.054  24.301  1.00  0.00     0.083 C 
HETATM    4  C1  UNL     1     -40.046   7.581  22.847  1.00  0.00     0.053 C 
HETATM    5  C3  UNL     1     -41.937   7.769  24.453  1.00  0.00     0.053 C 
HETATM    6  C4  UNL     1     -39.793   6.966  25.166  1.00  0.00     0.053 C 
ENDBRANCH   2   3
ENDBRANCH   1   2
BRANCH   1   7
HETATM    7  S1  UNL     1     -38.268  11.246  23.840  1.00  0.00    -0.094 SA
BRANCH   7   8
HETATM    8  C6  UNL     1     -37.000  10.313  23.123  1.00  0.00     0.166 C 
BRANCH   8   9
HETATM    9  C7  UNL     1     -35.617  10.911  23.159  1.00  0.00     0.178 C 
HETATM   10  O1  UNL     1     -35.377  12.131  23.237  1.00  0.00    -0.291 OA
BRANCH   9  11
HETATM   11  C8  UNL     1     -34.466   9.947  23.085  1.00  0.00     0.082 A 
HETATM   12  C9  UNL     1     -33.488   9.837  24.084  1.00  0.00     0.127 A 
HETATM   13  N2  UNL     1     -32.501   8.916  23.808  1.00  0.00    -0.303 N 
HETATM   14  N3  UNL     1     -32.600   8.261  22.659  1.00  0.00    -0.061 NA
ATOM     15  H2  UNL     1     -31.732   8.747  24.455  1.00  0.00     0.182 HD
HETATM   16  S2  UNL     1     -33.953   8.851  21.960  1.00  0.00     0.004 SA
ENDBRANCH   9  11
ENDBRANCH   8   9
ENDBRANCH   7   8
ENDBRANCH   1   7
BRANCH   1  17
HETATM   17  C10 UNL     1     -40.524  11.472  25.368  1.00  0.00     0.011 C 
HETATM   18  C11 UNL     1     -41.899  11.484  24.765  1.00  0.00     0.023 C 
HETATM   19  C12 UNL     1     -39.938  12.799  25.452  1.00  0.00     0.023 C 
HETATM   20  C13 UNL     1     -40.613  10.878  26.790  1.00  0.00     0.023 C 
ENDBRANCH   1  17
TORSDOF 7
ENDMDL
