MODEL 1
REMARK VINA RESULT: -7.129023902      0.000      0.000
REMARK  3 active torsions:
REMARK  status: ('A' for Active; 'I' for Inactive)
REMARK    1  A    between atoms: C8_10  and  S1_11 
REMARK    2  A    between atoms: S1_11  and  C9_12 
REMARK    3  A    between atoms: C11_17  and  N4_18 
ROOT
HETATM    1  C9  UNL     1       5.789   2.688  23.458  1.00  0.00     0.206 C 
HETATM    2  C10 UNL     1       6.168   3.071  24.817  1.00  0.00     0.069 C 
HETATM    3  N2  UNL     1       6.486   3.385  25.899  1.00  0.00    -0.197 NA
ENDROOT
BRANCH   1   4
HETATM    4  S1  UNL     1       5.651   4.203  22.475  1.00  0.00    -0.080 SA
BRANCH   4   5
HETATM    5  C8  UNL     1       4.003   4.875  22.563  1.00  0.00     0.148 A 
HETATM    6  N1  UNL     1       3.609   5.511  23.679  1.00  0.00    -0.323 N 
HETATM    7  C7  UNL     1       2.362   6.033  23.775  1.00  0.00     0.114 A 
ATOM      8  H1  UNL     1       4.255   5.601  24.463  1.00  0.00     0.169 HD
HETATM    9  C6  UNL     1       1.446   5.938  22.741  1.00  0.00     0.030 A 
HETATM   10  N5  UNL     1       2.152   6.631  25.038  1.00  0.00    -0.354 N 
HETATM   11  C5  UNL     1       0.070   6.431  22.599  1.00  0.00     0.051 C 
HETATM   12  C11 UNL     1       1.875   5.275  21.597  1.00  0.00     0.110 A 
HETATM   13  C4  UNL     1      -0.266   7.540  23.537  1.00  0.00     0.042 C 
HETATM   14  C3  UNL     1      -0.196   7.207  24.974  1.00  0.00    -0.047 C 
HETATM   15  C2  UNL     1      -1.334   7.289  25.624  1.00  0.00    -0.025 C 
HETATM   16  C12 UNL     1       0.950   6.796  25.827  1.00  0.00     0.209 C 
HETATM   17  C1  UNL     1      -1.543   7.011  27.069  1.00  0.00     0.036 C 
HETATM   18 CL1  UNL     1       1.209   7.960  27.116  1.00  0.00    -0.098 Cl
HETATM   19  N3  UNL     1       3.142   4.765  21.546  1.00  0.00    -0.323 N 
ATOM     20  H3  UNL     1       3.443   4.282  20.700  1.00  0.00     0.169 HD
ATOM     21  H5  UNL     1       2.995   7.013  25.468  1.00  0.00     0.163 HD
BRANCH  12  22
HETATM   22  N4  UNL     1       1.170   5.067  20.566  1.00  0.00    -0.385 N 
ATOM     23  H42 UNL     1       0.633   5.870  20.239  1.00  0.00     0.157 HD
ATOM     24  H41 UNL     1       1.126   4.187  20.052  1.00  0.00     0.157 HD
ENDBRANCH  12  22
ENDBRANCH   4   5
ENDBRANCH   1   4
TORSDOF 3
ENDMDL
MODEL 2
REMARK VINA RESULT: -6.892130875      4.028      5.989
REMARK  3 active torsions:
REMARK  status: ('A' for Active; 'I' for Inactive)
REMARK    1  A    between atoms: C8_10  and  S1_11 
REMARK    2  A    between atoms: S1_11  and  C9_12 
REMARK    3  A    between atoms: C11_17  and  N4_18 
ROOT
HETATM    1  C9  UNL     1       2.486   4.445  18.869  1.00  0.00     0.206 C 
HETATM    2  C10 UNL     1       2.877   5.624  18.097  1.00  0.00     0.069 C 
HETATM    3  N2  UNL     1       3.173   6.574  17.481  1.00  0.00    -0.197 NA
ENDROOT
BRANCH   1   4
HETATM    4  S1  UNL     1       1.991   5.005  20.520  1.00  0.00    -0.080 SA
BRANCH   4   5
HETATM    5  C8  UNL     1       3.075   4.344  21.771  1.00  0.00     0.148 A 
HETATM    6  N1  UNL     1       2.557   3.613  22.772  1.00  0.00    -0.323 N 
HETATM    7  C7  UNL     1       3.356   3.096  23.737  1.00  0.00     0.114 A 
ATOM      8  H1  UNL     1       1.552   3.445  22.806  1.00  0.00     0.169 HD
HETATM    9  C6  UNL     1       4.726   3.294  23.738  1.00  0.00     0.030 A 
HETATM   10  N5  UNL     1       2.604   2.387  24.700  1.00  0.00    -0.354 N 
HETATM   11  C5  UNL     1       5.785   2.829  24.642  1.00  0.00     0.051 C 
HETATM   12  C11 UNL     1       5.239   4.053  22.693  1.00  0.00     0.110 A 
HETATM   13  C4  UNL     1       5.396   1.642  25.456  1.00  0.00     0.042 C 
HETATM   14  C3  UNL     1       4.259   1.842  26.378  1.00  0.00    -0.047 C 
HETATM   15  C2  UNL     1       4.542   1.712  27.653  1.00  0.00    -0.025 C 
HETATM   16  C12 UNL     1       2.832   2.163  26.113  1.00  0.00     0.209 C 
HETATM   17  C1  UNL     1       3.589   1.860  28.784  1.00  0.00     0.036 C 
HETATM   18 CL1  UNL     1       1.790   0.884  26.714  1.00  0.00    -0.098 Cl
HETATM   19  N3  UNL     1       4.394   4.554  21.742  1.00  0.00    -0.323 N 
ATOM     20  H3  UNL     1       4.786   5.109  20.981  1.00  0.00     0.169 HD
ATOM     21  H5  UNL     1       1.752   1.960  24.338  1.00  0.00     0.163 HD
BRANCH  12  22
HETATM   22  N4  UNL     1       6.458   4.362  22.545  1.00  0.00    -0.385 N 
ATOM     23  H42 UNL     1       7.108   3.576  22.549  1.00  0.00     0.157 HD
ATOM     24  H41 UNL     1       6.813   5.309  22.406  1.00  0.00     0.157 HD
ENDBRANCH  12  22
ENDBRANCH   4   5
ENDBRANCH   1   4
TORSDOF 3
ENDMDL
MODEL 3
REMARK VINA RESULT: -6.811675006      3.001      6.030
REMARK  3 active torsions:
REMARK  status: ('A' for Active; 'I' for Inactive)
REMARK    1  A    between atoms: C8_10  and  S1_11 
REMARK    2  A    between atoms: S1_11  and  C9_12 
REMARK    3  A    between atoms: C11_17  and  N4_18 
ROOT
HETATM    1  C9  UNL     1       0.156   9.476  24.778  1.00  0.00     0.206 C 
HETATM    2  C10 UNL     1       0.727  10.380  23.781  1.00  0.00     0.069 C 
HETATM    3  N2  UNL     1       1.198  11.091  22.979  1.00  0.00    -0.197 NA
ENDROOT
BRANCH   1   4
HETATM    4  S1  UNL     1      -0.391   7.978  23.917  1.00  0.00    -0.080 SA
BRANCH   4   5
HETATM    5  C8  UNL     1       1.002   6.997  23.393  1.00  0.00     0.148 A 
HETATM    6  N1  UNL     1       1.401   5.963  24.151  1.00  0.00    -0.323 N 
HETATM    7  C7  UNL     1       2.456   5.198  23.778  1.00  0.00     0.114 A 
ATOM      8  H1  UNL     1       0.905   5.750  25.016  1.00  0.00     0.169 HD
HETATM    9  C6  UNL     1       3.163   5.443  22.613  1.00  0.00     0.030 A 
HETATM   10  N5  UNL     1       2.717   4.186  24.729  1.00  0.00    -0.354 N 
HETATM   11  C5  UNL     1       4.305   4.758  21.995  1.00  0.00     0.051 C 
HETATM   12  C11 UNL     1       2.733   6.519  21.846  1.00  0.00     0.110 A 
HETATM   13  C4  UNL     1       4.489   3.357  22.471  1.00  0.00     0.042 C 
HETATM   14  C3  UNL     1       4.771   3.202  23.913  1.00  0.00    -0.047 C 
HETATM   15  C2  UNL     1       5.941   2.682  24.203  1.00  0.00    -0.025 C 
HETATM   16  C12 UNL     1       3.951   3.530  25.108  1.00  0.00     0.209 C 
HETATM   17  C1  UNL     1       6.472   2.418  25.565  1.00  0.00     0.036 C 
HETATM   18 CL1  UNL     1       3.620   2.082  26.046  1.00  0.00    -0.098 Cl
HETATM   19  N3  UNL     1       1.663   7.262  22.263  1.00  0.00    -0.323 N 
ATOM     20  H3  UNL     1       1.359   8.048  21.689  1.00  0.00     0.169 HD
ATOM     21  H5  UNL     1       1.894   3.861  25.236  1.00  0.00     0.163 HD
BRANCH  12  22
HETATM   22  N4  UNL     1       3.272   6.910  20.769  1.00  0.00    -0.385 N 
ATOM     23  H42 UNL     1       3.519   6.168  20.114  1.00  0.00     0.157 HD
ATOM     24  H41 UNL     1       3.448   7.883  20.520  1.00  0.00     0.157 HD
ENDBRANCH  12  22
ENDBRANCH   4   5
ENDBRANCH   1   4
TORSDOF 3
ENDMDL
MODEL 4
REMARK VINA RESULT: -6.771135726      2.834      5.886
REMARK  3 active torsions:
REMARK  status: ('A' for Active; 'I' for Inactive)
REMARK    1  A    between atoms: C8_10  and  S1_11 
REMARK    2  A    between atoms: S1_11  and  C9_12 
REMARK    3  A    between atoms: C11_17  and  N4_18 
ROOT
HETATM    1  C9  UNL     1      -0.157   8.534  25.737  1.00  0.00     0.206 C 
HETATM    2  C10 UNL     1      -0.901   7.591  26.571  1.00  0.00     0.069 C 
HETATM    3  N2  UNL     1      -1.511   6.841  27.231  1.00  0.00    -0.197 NA
ENDROOT
BRANCH   1   4
HETATM    4  S1  UNL     1      -0.369   8.029  24.010  1.00  0.00    -0.080 SA
BRANCH   4   5
HETATM    5  C8  UNL     1       1.013   7.047  23.457  1.00  0.00     0.148 A 
HETATM    6  N1  UNL     1       1.412   5.997  24.193  1.00  0.00    -0.323 N 
HETATM    7  C7  UNL     1       2.458   5.232  23.798  1.00  0.00     0.114 A 
ATOM      8  H1  UNL     1       0.921   5.773  25.059  1.00  0.00     0.169 HD
HETATM    9  C6  UNL     1       3.157   5.492  22.632  1.00  0.00     0.030 A 
HETATM   10  N5  UNL     1       2.721   4.202  24.729  1.00  0.00    -0.354 N 
HETATM   11  C5  UNL     1       4.289   4.810  21.992  1.00  0.00     0.051 C 
HETATM   12  C11 UNL     1       2.727   6.584  21.887  1.00  0.00     0.110 A 
HETATM   13  C4  UNL     1       4.467   3.400  22.443  1.00  0.00     0.042 C 
HETATM   14  C3  UNL     1       4.760   3.219  23.879  1.00  0.00    -0.047 C 
HETATM   15  C2  UNL     1       5.929   2.685  24.150  1.00  0.00    -0.025 C 
HETATM   16  C12 UNL     1       3.953   3.532  25.087  1.00  0.00     0.209 C 
HETATM   17  C1  UNL     1       6.470   2.394  25.503  1.00  0.00     0.036 C 
HETATM   18 CL1  UNL     1       3.621   2.070  26.003  1.00  0.00    -0.098 Cl
HETATM   19  N3  UNL     1       1.667   7.326  22.326  1.00  0.00    -0.323 N 
ATOM     20  H3  UNL     1       1.363   8.125  21.768  1.00  0.00     0.169 HD
ATOM     21  H5  UNL     1       1.899   3.874  25.238  1.00  0.00     0.163 HD
BRANCH  12  22
HETATM   22  N4  UNL     1       3.260   6.990  20.813  1.00  0.00    -0.385 N 
ATOM     23  H42 UNL     1       3.710   6.266  20.252  1.00  0.00     0.157 HD
ATOM     24  H41 UNL     1       3.248   7.953  20.478  1.00  0.00     0.157 HD
ENDBRANCH  12  22
ENDBRANCH   4   5
ENDBRANCH   1   4
TORSDOF 3
ENDMDL
MODEL 5
REMARK VINA RESULT: -6.755503310      4.104      6.923
REMARK  3 active torsions:
REMARK  status: ('A' for Active; 'I' for Inactive)
REMARK    1  A    between atoms: C8_10  and  S1_11 
REMARK    2  A    between atoms: S1_11  and  C9_12 
REMARK    3  A    between atoms: C11_17  and  N4_18 
ROOT
HETATM    1  C9  UNL     1      -2.167  11.332  24.362  1.00  0.00     0.206 C 
HETATM    2  C10 UNL     1      -2.788  11.525  23.052  1.00  0.00     0.069 C 
HETATM    3  N2  UNL     1      -3.273  11.668  21.997  1.00  0.00    -0.197 NA
ENDROOT
BRANCH   1   4
HETATM    4  S1  UNL     1      -2.240   9.565  24.754  1.00  0.00    -0.080 SA
BRANCH   4   5
HETATM    5  C8  UNL     1      -0.805   8.711  24.129  1.00  0.00     0.148 A 
HETATM    6  N1  UNL     1      -0.826   7.371  24.033  1.00  0.00    -0.323 N 
HETATM    7  C7  UNL     1       0.250   6.694  23.562  1.00  0.00     0.114 A 
ATOM      8  H1  UNL     1      -1.659   6.858  24.318  1.00  0.00     0.169 HD
HETATM    9  C6  UNL     1       1.405   7.343  23.160  1.00  0.00     0.030 A 
HETATM   10  N5  UNL     1       0.022   5.300  23.570  1.00  0.00    -0.354 N 
HETATM   11  C5  UNL     1       2.670   6.843  22.606  1.00  0.00     0.051 C 
HETATM   12  C11 UNL     1       1.404   8.728  23.270  1.00  0.00     0.110 A 
HETATM   13  C4  UNL     1       2.562   5.482  22.008  1.00  0.00     0.042 C 
HETATM   14  C3  UNL     1       2.178   4.402  22.940  1.00  0.00    -0.047 C 
HETATM   15  C2  UNL     1       3.078   3.462  23.110  1.00  0.00    -0.025 C 
HETATM   16  C12 UNL     1       0.934   4.186  23.725  1.00  0.00     0.209 C 
HETATM   17  C1  UNL     1       2.947   2.268  23.986  1.00  0.00     0.036 C 
HETATM   18 CL1  UNL     1       0.160   2.681  23.253  1.00  0.00    -0.098 Cl
HETATM   19  N3  UNL     1       0.295   9.368  23.751  1.00  0.00    -0.323 N 
ATOM     20  H3  UNL     1       0.309  10.385  23.826  1.00  0.00     0.169 HD
ATOM     21  H5  UNL     1      -0.954   5.032  23.446  1.00  0.00     0.163 HD
BRANCH  12  22
HETATM   22  N4  UNL     1       2.377   9.485  22.980  1.00  0.00    -0.385 N 
ATOM     23  H42 UNL     1       3.242   9.003  22.736  1.00  0.00     0.157 HD
ATOM     24  H41 UNL     1       2.343  10.504  22.956  1.00  0.00     0.157 HD
ENDBRANCH  12  22
ENDBRANCH   4   5
ENDBRANCH   1   4
TORSDOF 3
ENDMDL
