MODEL 1
REMARK VINA RESULT: -6.279700603      0.000      0.000
REMARK  8 active torsions:
REMARK  status: ('A' for Active; 'I' for Inactive)
REMARK    1  A    between atoms: C2_2  and  C3_3 
REMARK    2  A    between atoms: C3_3  and  C5_5 
REMARK    3  A    between atoms: C11_16  and  C12_17 
REMARK    4  A    between atoms: C12_17  and  C13_18 
REMARK    5  A    between atoms: C17_25  and  C18_26 
REMARK    6  A    between atoms: C18_26  and  C20_28 
REMARK    7  A    between atoms: C23_33  and  C24_34 
REMARK    8  A    between atoms: C24_34  and  O6_35 
ROOT
HETATM    1  C5  UNL     1     -69.030  12.468  11.038  1.00  0.00     0.180 C 
HETATM    2  N1  UNL     1     -68.472  13.768  10.804  1.00  0.00    -0.346 N 
ATOM      3  H1  UNL     1     -67.999  14.192  11.603  1.00  0.00     0.163 HD
HETATM    4  C6  UNL     1     -68.485  14.533   9.642  1.00  0.00     0.241 C 
HETATM    5  O1  UNL     1     -68.017  15.703   9.683  1.00  0.00    -0.271 OA
HETATM    6  C7  UNL     1     -69.009  14.111   8.300  1.00  0.00     0.175 C 
HETATM    7  C8  UNL     1     -70.507  13.816   8.364  1.00  0.00     0.042 C 
HETATM    8  N2  UNL     1     -68.843  15.148   7.313  1.00  0.00    -0.338 N 
HETATM    9  C9  UNL     1     -69.803  16.263   7.499  1.00  0.00     0.154 C 
HETATM   10  C10 UNL     1     -67.951  15.258   6.260  1.00  0.00     0.266 C 
HETATM   11  O2  UNL     1     -67.604  16.472   5.965  1.00  0.00    -0.266 OA
HETATM   12  C11 UNL     1     -67.309  14.274   5.394  1.00  0.00     0.081 C 
HETATM   13  N3  UNL     1     -67.351  12.908   5.817  1.00  0.00    -0.320 N 
ATOM     14  H3  UNL     1     -68.276  12.480   5.836  1.00  0.00     0.169 HD
HETATM   15  C16 UNL     1     -66.286  12.076   6.212  1.00  0.00     0.276 C 
HETATM   16  O3  UNL     1     -66.320  10.887   5.803  1.00  0.00    -0.265 OA
HETATM   17  C17 UNL     1     -65.133  12.501   7.072  1.00  0.00     0.128 C 
HETATM   18  O4  UNL     1     -65.472  12.754   8.370  1.00  0.00    -0.276 OA
HETATM   19  C22 UNL     1     -65.100  12.635   9.623  1.00  0.00     0.289 C 
HETATM   20  O5  UNL     1     -64.118  13.157  10.270  1.00  0.00    -0.262 OA
HETATM   21  C23 UNL     1     -65.909  11.756  10.529  1.00  0.00     0.208 C 
HETATM   22  N4  UNL     1     -67.076  11.199   9.882  1.00  0.00    -0.343 N 
ATOM     23  H4  UNL     1     -66.903  10.600   9.075  1.00  0.00     0.163 HD
HETATM   24  C25 UNL     1     -68.425  11.388  10.239  1.00  0.00     0.241 C 
HETATM   25  O7  UNL     1     -69.249  10.529   9.833  1.00  0.00    -0.271 OA
ENDROOT
BRANCH   1  26
HETATM   26  C3  UNL     1     -69.081  12.161  12.521  1.00  0.00     0.013 C 
HETATM   27  C4  UNL     1     -68.092  13.031  13.233  1.00  0.00     0.012 C 
BRANCH  26  28
HETATM   28  C2  UNL     1     -70.496  12.363  13.049  1.00  0.00     0.002 C 
HETATM   29  C1  UNL     1     -70.755  13.782  13.435  1.00  0.00     0.005 C 
ENDBRANCH  26  28
ENDBRANCH   1  26
BRANCH  21  30
HETATM   30  C24 UNL     1     -65.066  10.699  11.208  1.00  0.00     0.199 C 
BRANCH  30  31
HETATM   31  O6  UNL     1     -65.803   9.672  11.732  1.00  0.00    -0.398 OA
ATOM     32  H6  UNL     1     -66.572   9.964  12.207  1.00  0.00     0.209 HD
ENDBRANCH  30  31
ENDBRANCH  21  30
BRANCH  12  33
HETATM   33  C12 UNL     1     -67.555  14.444   3.921  1.00  0.00     0.067 C 
BRANCH  33  34
HETATM   34  C13 UNL     1     -66.446  14.406   2.976  1.00  0.00    -0.017 C 
HETATM   35  C14 UNL     1     -65.093  14.779   3.517  1.00  0.00     0.010 C 
HETATM   36  C15 UNL     1     -66.362  13.193   2.073  1.00  0.00     0.010 C 
ENDBRANCH  33  34
ENDBRANCH  12  33
BRANCH  17  37
HETATM   37  C18 UNL     1     -63.867  11.766   6.804  1.00  0.00     0.044 C 
HETATM   38  C19 UNL     1     -63.794  10.456   7.606  1.00  0.00     0.017 C 
BRANCH  37  39
HETATM   39  C20 UNL     1     -62.591  12.502   6.863  1.00  0.00     0.006 C 
HETATM   40  C21 UNL     1     -61.740  11.807   7.947  1.00  0.00     0.006 C 
ENDBRANCH  37  39
ENDBRANCH  17  37
TORSDOF 8
ENDMDL
MODEL 2
REMARK VINA RESULT: -6.274040736      2.270      6.213
REMARK  8 active torsions:
REMARK  status: ('A' for Active; 'I' for Inactive)
REMARK    1  A    between atoms: C2_2  and  C3_3 
REMARK    2  A    between atoms: C3_3  and  C5_5 
REMARK    3  A    between atoms: C11_16  and  C12_17 
REMARK    4  A    between atoms: C12_17  and  C13_18 
REMARK    5  A    between atoms: C17_25  and  C18_26 
REMARK    6  A    between atoms: C18_26  and  C20_28 
REMARK    7  A    between atoms: C23_33  and  C24_34 
REMARK    8  A    between atoms: C24_34  and  O6_35 
ROOT
HETATM    1  C5  UNL     1     -68.798  11.859   5.727  1.00  0.00     0.180 C 
HETATM    2  N1  UNL     1     -68.488  13.211   6.089  1.00  0.00    -0.346 N 
ATOM      3  H1  UNL     1     -69.271  13.864   6.057  1.00  0.00     0.163 HD
HETATM    4  C6  UNL     1     -67.269  13.758   6.477  1.00  0.00     0.241 C 
HETATM    5  O1  UNL     1     -67.196  15.005   6.656  1.00  0.00    -0.271 OA
HETATM    6  C7  UNL     1     -65.989  13.011   6.715  1.00  0.00     0.175 C 
HETATM    7  C8  UNL     1     -65.506  12.330   5.434  1.00  0.00     0.042 C 
HETATM    8  N2  UNL     1     -64.927  13.893   7.128  1.00  0.00    -0.338 N 
HETATM    9  C9  UNL     1     -64.408  14.716   6.009  1.00  0.00     0.154 C 
HETATM   10  C10 UNL     1     -64.343  14.083   8.369  1.00  0.00     0.266 C 
HETATM   11  O2  UNL     1     -63.914  15.287   8.590  1.00  0.00    -0.266 OA
HETATM   12  C11 UNL     1     -64.102  13.195   9.501  1.00  0.00     0.081 C 
HETATM   13  N3  UNL     1     -64.808  11.949   9.513  1.00  0.00    -0.320 N 
ATOM     14  H3  UNL     1     -64.555  11.292   8.776  1.00  0.00     0.169 HD
HETATM   15  C16 UNL     1     -65.804  11.511  10.406  1.00  0.00     0.276 C 
HETATM   16  O3  UNL     1     -65.739  10.312  10.777  1.00  0.00    -0.265 OA
HETATM   17  C17 UNL     1     -66.921  12.361  10.937  1.00  0.00     0.128 C 
HETATM   18  O4  UNL     1     -67.852  12.704   9.999  1.00  0.00    -0.276 OA
HETATM   19  C22 UNL     1     -69.131  12.883   9.767  1.00  0.00     0.289 C 
HETATM   20  O5  UNL     1     -69.965  13.746  10.231  1.00  0.00    -0.262 OA
HETATM   21  C23 UNL     1     -69.818  11.962   8.803  1.00  0.00     0.208 C 
HETATM   22  N4  UNL     1     -68.916  11.015   8.185  1.00  0.00    -0.343 N 
ATOM     23  H4  UNL     1     -68.435  10.372   8.814  1.00  0.00     0.163 HD
HETATM   24  C25 UNL     1     -68.626  10.878   6.814  1.00  0.00     0.241 C 
HETATM   25  O7  UNL     1     -68.154   9.776   6.438  1.00  0.00    -0.271 OA
ENDROOT
BRANCH   1  26
HETATM   26  C3  UNL     1     -70.154  11.777   5.055  1.00  0.00     0.013 C 
HETATM   27  C4  UNL     1     -70.772  13.141   5.035  1.00  0.00     0.012 C 
BRANCH  26  28
HETATM   28  C2  UNL     1     -70.008  11.201   3.652  1.00  0.00     0.002 C 
HETATM   29  C1  UNL     1     -68.594  11.235   3.175  1.00  0.00     0.005 C 
ENDBRANCH  26  28
ENDBRANCH   1  26
BRANCH  21  30
HETATM   30  C24 UNL     1     -71.030  11.292   9.411  1.00  0.00     0.199 C 
BRANCH  30  31
HETATM   31  O6  UNL     1     -72.167  12.049   9.326  1.00  0.00    -0.398 OA
ATOM     32  H6  UNL     1     -72.962  11.552   9.479  1.00  0.00     0.209 HD
ENDBRANCH  30  31
ENDBRANCH  21  30
BRANCH  12  33
HETATM   33  C12 UNL     1     -62.669  13.066   9.935  1.00  0.00     0.067 C 
BRANCH  33  34
HETATM   34  C13 UNL     1     -61.895  11.880   9.588  1.00  0.00    -0.017 C 
HETATM   35  C14 UNL     1     -61.285  11.857   8.213  1.00  0.00     0.010 C 
HETATM   36  C15 UNL     1     -60.920  11.375  10.631  1.00  0.00     0.010 C 
ENDBRANCH  33  34
ENDBRANCH  12  33
BRANCH  17  37
HETATM   37  C18 UNL     1     -67.395  11.970  12.292  1.00  0.00     0.044 C 
HETATM   38  C19 UNL     1     -68.471  10.874  12.219  1.00  0.00     0.017 C 
BRANCH  37  39
HETATM   39  C20 UNL     1     -67.771  13.029  13.247  1.00  0.00     0.006 C 
HETATM   40  C21 UNL     1     -69.277  12.840  13.531  1.00  0.00     0.006 C 
ENDBRANCH  37  39
ENDBRANCH  17  37
TORSDOF 8
ENDMDL
MODEL 3
REMARK VINA RESULT: -6.137015372      2.878      5.658
REMARK  8 active torsions:
REMARK  status: ('A' for Active; 'I' for Inactive)
REMARK    1  A    between atoms: C2_2  and  C3_3 
REMARK    2  A    between atoms: C3_3  and  C5_5 
REMARK    3  A    between atoms: C11_16  and  C12_17 
REMARK    4  A    between atoms: C12_17  and  C13_18 
REMARK    5  A    between atoms: C17_25  and  C18_26 
REMARK    6  A    between atoms: C18_26  and  C20_28 
REMARK    7  A    between atoms: C23_33  and  C24_34 
REMARK    8  A    between atoms: C24_34  and  O6_35 
ROOT
HETATM    1  C5  UNL     1     -71.329   9.995   8.376  1.00  0.00     0.180 C 
HETATM    2  N1  UNL     1     -70.822  10.954   7.438  1.00  0.00    -0.346 N 
ATOM      3  H1  UNL     1     -71.462  11.710   7.195  1.00  0.00     0.163 HD
HETATM    4  C6  UNL     1     -69.579  10.998   6.813  1.00  0.00     0.241 C 
HETATM    5  O1  UNL     1     -69.374  11.883   5.938  1.00  0.00    -0.271 OA
HETATM    6  C7  UNL     1     -68.416  10.084   7.070  1.00  0.00     0.175 C 
HETATM    7  C8  UNL     1     -68.768   8.639   6.718  1.00  0.00     0.042 C 
HETATM    8  N2  UNL     1     -67.277  10.432   6.258  1.00  0.00    -0.338 N 
HETATM    9  C9  UNL     1     -67.456  10.044   4.838  1.00  0.00     0.154 C 
HETATM   10  C10 UNL     1     -66.087  11.054   6.593  1.00  0.00     0.266 C 
HETATM   11  O2  UNL     1     -65.567  11.778   5.650  1.00  0.00    -0.266 OA
HETATM   12  C11 UNL     1     -65.278  11.066   7.807  1.00  0.00     0.081 C 
HETATM   13  N3  UNL     1     -65.895  10.584   9.005  1.00  0.00    -0.320 N 
ATOM     14  H3  UNL     1     -66.127   9.591   9.014  1.00  0.00     0.169 HD
HETATM   15  C16 UNL     1     -66.225  11.297  10.174  1.00  0.00     0.276 C 
HETATM   16  O3  UNL     1     -66.002  10.718  11.267  1.00  0.00    -0.265 OA
HETATM   17  C17 UNL     1     -66.814  12.676  10.205  1.00  0.00     0.128 C 
HETATM   18  O4  UNL     1     -68.100  12.741   9.751  1.00  0.00    -0.276 OA
HETATM   19  C22 UNL     1     -69.278  13.290   9.930  1.00  0.00     0.289 C 
HETATM   20  O5  UNL     1     -69.673  14.510   9.817  1.00  0.00    -0.262 OA
HETATM   21  C23 UNL     1     -70.422  12.411  10.339  1.00  0.00     0.208 C 
HETATM   22  N4  UNL     1     -70.062  11.011  10.408  1.00  0.00    -0.343 N 
ATOM     23  H4  UNL     1     -69.332  10.765  11.076  1.00  0.00     0.163 HD
HETATM   24  C25 UNL     1     -70.605   9.950   9.660  1.00  0.00     0.241 C 
HETATM   25  O7  UNL     1     -70.468   8.792  10.129  1.00  0.00    -0.271 OA
ENDROOT
BRANCH   1  26
HETATM   26  C3  UNL     1     -72.828  10.139   8.538  1.00  0.00     0.013 C 
HETATM   27  C4  UNL     1     -73.224  11.542   8.195  1.00  0.00     0.012 C 
BRANCH  26  28
HETATM   28  C2  UNL     1     -73.549   9.118   7.666  1.00  0.00     0.002 C 
HETATM   29  C1  UNL     1     -72.862   7.793   7.667  1.00  0.00     0.005 C 
ENDBRANCH  26  28
ENDBRANCH   1  26
BRANCH  21  30
HETATM   30  C24 UNL     1     -71.098  12.896  11.602  1.00  0.00     0.199 C 
BRANCH  30  31
HETATM   31  O6  UNL     1     -72.078  13.822  11.370  1.00  0.00    -0.398 OA
ATOM     32  H6  UNL     1     -71.829  14.483  10.734  1.00  0.00     0.209 HD
ENDBRANCH  30  31
ENDBRANCH  21  30
BRANCH  12  33
HETATM   33  C12 UNL     1     -63.857  10.604   7.648  1.00  0.00     0.067 C 
BRANCH  33  34
HETATM   34  C13 UNL     1     -62.961  10.556   8.797  1.00  0.00    -0.017 C 
HETATM   35  C14 UNL     1     -61.779   9.633   8.686  1.00  0.00     0.010 C 
HETATM   36  C15 UNL     1     -62.566  11.885   9.408  1.00  0.00     0.010 C 
ENDBRANCH  33  34
ENDBRANCH  12  33
BRANCH  17  37
HETATM   37  C18 UNL     1     -66.450  13.469  11.411  1.00  0.00     0.044 C 
HETATM   38  C19 UNL     1     -67.514  13.340  12.513  1.00  0.00     0.017 C 
BRANCH  37  39
HETATM   39  C20 UNL     1     -66.023  14.870  11.238  1.00  0.00     0.006 C 
HETATM   40  C21 UNL     1     -64.656  14.820  10.520  1.00  0.00     0.006 C 
ENDBRANCH  37  39
ENDBRANCH  17  37
TORSDOF 8
ENDMDL
MODEL 4
REMARK VINA RESULT: -6.007450699      3.158      5.027
REMARK  8 active torsions:
REMARK  status: ('A' for Active; 'I' for Inactive)
REMARK    1  A    between atoms: C2_2  and  C3_3 
REMARK    2  A    between atoms: C3_3  and  C5_5 
REMARK    3  A    between atoms: C11_16  and  C12_17 
REMARK    4  A    between atoms: C12_17  and  C13_18 
REMARK    5  A    between atoms: C17_25  and  C18_26 
REMARK    6  A    between atoms: C18_26  and  C20_28 
REMARK    7  A    between atoms: C23_33  and  C24_34 
REMARK    8  A    between atoms: C24_34  and  O6_35 
ROOT
HETATM    1  C5  UNL     1     -71.033   9.375  12.535  1.00  0.00     0.180 C 
HETATM    2  N1  UNL     1     -71.761  10.009  11.474  1.00  0.00    -0.346 N 
ATOM      3  H1  UNL     1     -72.490  10.658  11.769  1.00  0.00     0.163 HD
HETATM    4  C6  UNL     1     -71.611   9.863  10.098  1.00  0.00     0.241 C 
HETATM    5  O1  UNL     1     -72.430  10.445   9.336  1.00  0.00    -0.271 OA
HETATM    6  C7  UNL     1     -70.551   9.067   9.394  1.00  0.00     0.175 C 
HETATM    7  C8  UNL     1     -70.657   7.583   9.744  1.00  0.00     0.042 C 
HETATM    8  N2  UNL     1     -70.683   9.154   7.962  1.00  0.00    -0.338 N 
HETATM    9  C9  UNL     1     -71.825   8.359   7.450  1.00  0.00     0.154 C 
HETATM   10  C10 UNL     1     -69.933   9.848   7.027  1.00  0.00     0.266 C 
HETATM   11  O2  UNL     1     -70.598  10.255   5.990  1.00  0.00    -0.266 OA
HETATM   12  C11 UNL     1     -68.524  10.222   6.961  1.00  0.00     0.081 C 
HETATM   13  N3  UNL     1     -67.767  10.122   8.172  1.00  0.00    -0.320 N 
ATOM     14  H3  UNL     1     -67.634   9.177   8.532  1.00  0.00     0.169 HD
HETATM   15  C16 UNL     1     -67.182  11.152   8.932  1.00  0.00     0.276 C 
HETATM   16  O3  UNL     1     -66.035  10.927   9.395  1.00  0.00    -0.265 OA
HETATM   17  C17 UNL     1     -67.821  12.478   9.223  1.00  0.00     0.128 C 
HETATM   18  O4  UNL     1     -68.891  12.405  10.068  1.00  0.00    -0.276 OA
HETATM   19  C22 UNL     1     -69.516  12.983  11.066  1.00  0.00     0.289 C 
HETATM   20  O5  UNL     1     -70.127  14.113  11.145  1.00  0.00    -0.262 OA
HETATM   21  C23 UNL     1     -69.577  12.267  12.382  1.00  0.00     0.208 C 
HETATM   22  N4  UNL     1     -68.975  10.953  12.339  1.00  0.00    -0.343 N 
ATOM     23  H4  UNL     1     -67.983  10.918  12.103  1.00  0.00     0.163 HD
HETATM   24  C25 UNL     1     -69.601   9.716  12.587  1.00  0.00     0.241 C 
HETATM   25  O7  UNL     1     -68.856   8.752  12.896  1.00  0.00    -0.271 OA
ENDROOT
BRANCH   1  26
HETATM   26  C3  UNL     1     -71.742   9.563  13.861  1.00  0.00     0.013 C 
HETATM   27  C4  UNL     1     -72.662  10.740  13.762  1.00  0.00     0.012 C 
BRANCH  26  28
HETATM   28  C2  UNL     1     -72.491   8.290  14.238  1.00  0.00     0.002 C 
HETATM   29  C1  UNL     1     -71.969   7.095  13.512  1.00  0.00     0.005 C 
ENDBRANCH  26  28
ENDBRANCH   1  26
BRANCH  21  30
HETATM   30  C24 UNL     1     -69.043  13.109  13.520  1.00  0.00     0.199 C 
BRANCH  30  31
HETATM   31  O6  UNL     1     -67.755  12.803  13.864  1.00  0.00    -0.398 OA
ATOM     32  H6  UNL     1     -67.681  12.009  14.379  1.00  0.00     0.209 HD
ENDBRANCH  30  31
ENDBRANCH  21  30
BRANCH  12  33
HETATM   33  C12 UNL     1     -67.776   9.733   5.754  1.00  0.00     0.067 C 
BRANCH  33  34
HETATM   34  C13 UNL     1     -66.748  10.561   5.134  1.00  0.00    -0.017 C 
HETATM   35  C14 UNL     1     -67.114  11.997   4.873  1.00  0.00     0.010 C 
HETATM   36  C15 UNL     1     -65.348  10.443   5.697  1.00  0.00     0.010 C 
ENDBRANCH  33  34
ENDBRANCH  12  33
BRANCH  17  37
HETATM   37  C18 UNL     1     -66.854  13.595   9.404  1.00  0.00     0.044 C 
HETATM   38  C19 UNL     1     -65.997  13.808   8.145  1.00  0.00     0.017 C 
BRANCH  37  39
HETATM   39  C20 UNL     1     -66.032  13.633  10.626  1.00  0.00     0.006 C 
HETATM   40  C21 UNL     1     -66.314  14.996  11.296  1.00  0.00     0.006 C 
ENDBRANCH  37  39
ENDBRANCH  17  37
TORSDOF 8
ENDMDL
MODEL 5
REMARK VINA RESULT: -5.997688023      3.175      5.655
REMARK  8 active torsions:
REMARK  status: ('A' for Active; 'I' for Inactive)
REMARK    1  A    between atoms: C2_2  and  C3_3 
REMARK    2  A    between atoms: C3_3  and  C5_5 
REMARK    3  A    between atoms: C11_16  and  C12_17 
REMARK    4  A    between atoms: C12_17  and  C13_18 
REMARK    5  A    between atoms: C17_25  and  C18_26 
REMARK    6  A    between atoms: C18_26  and  C20_28 
REMARK    7  A    between atoms: C23_33  and  C24_34 
REMARK    8  A    between atoms: C24_34  and  O6_35 
ROOT
HETATM    1  C5  UNL     1     -71.419   8.649  11.075  1.00  0.00     0.180 C 
HETATM    2  N1  UNL     1     -71.524   9.528   9.947  1.00  0.00    -0.346 N 
ATOM      3  H1  UNL     1     -72.370  10.098   9.913  1.00  0.00     0.163 HD
HETATM    4  C6  UNL     1     -70.635   9.713   8.892  1.00  0.00     0.241 C 
HETATM    5  O1  UNL     1     -70.973  10.472   7.943  1.00  0.00    -0.271 OA
HETATM    6  C7  UNL     1     -69.275   9.093   8.750  1.00  0.00     0.175 C 
HETATM    7  C8  UNL     1     -69.374   7.570   8.667  1.00  0.00     0.042 C 
HETATM    8  N2  UNL     1     -68.619   9.522   7.541  1.00  0.00    -0.338 N 
HETATM    9  C9  UNL     1     -69.194   8.888   6.330  1.00  0.00     0.154 C 
HETATM   10  C10 UNL     1     -67.572  10.408   7.348  1.00  0.00     0.266 C 
HETATM   11  O2  UNL     1     -67.612  11.061   6.228  1.00  0.00    -0.266 OA
HETATM   12  C11 UNL     1     -66.412  10.768   8.156  1.00  0.00     0.081 C 
HETATM   13  N3  UNL     1     -66.427  10.370   9.531  1.00  0.00    -0.320 N 
ATOM     14  H3  UNL     1     -66.397   9.365   9.700  1.00  0.00     0.169 HD
HETATM   15  C16 UNL     1     -66.478  11.181  10.681  1.00  0.00     0.276 C 
HETATM   16  O3  UNL     1     -65.749  10.835  11.645  1.00  0.00    -0.265 OA
HETATM   17  C17 UNL     1     -67.328  12.407  10.834  1.00  0.00     0.128 C 
HETATM   18  O4  UNL     1     -68.667  12.150  10.903  1.00  0.00    -0.276 OA
HETATM   19  C22 UNL     1     -69.798  12.482  11.479  1.00  0.00     0.289 C 
HETATM   20  O5  UNL     1     -70.486  13.569  11.436  1.00  0.00    -0.262 OA
HETATM   21  C23 UNL     1     -70.476  11.473  12.358  1.00  0.00     0.208 C 
HETATM   22  N4  UNL     1     -69.793  10.199  12.387  1.00  0.00    -0.343 N 
ATOM     23  H4  UNL     1     -68.836  10.207  12.741  1.00  0.00     0.163 HD
HETATM   24  C25 UNL     1     -70.297   8.948  11.983  1.00  0.00     0.241 C 
HETATM   25  O7  UNL     1     -69.730   7.927  12.447  1.00  0.00    -0.271 OA
ENDROOT
BRANCH   1  26
HETATM   26  C3  UNL     1     -72.750   8.525  11.788  1.00  0.00     0.013 C 
HETATM   27  C4  UNL     1     -73.596   9.714  11.454  1.00  0.00     0.012 C 
BRANCH  26  28
HETATM   28  C2  UNL     1     -73.431   7.218  11.398  1.00  0.00     0.002 C 
HETATM   29  C1  UNL     1     -72.454   6.194  10.924  1.00  0.00     0.005 C 
ENDBRANCH  26  28
ENDBRANCH   1  26
BRANCH  21  30
HETATM   30  C24 UNL     1     -70.752  12.011  13.744  1.00  0.00     0.199 C 
BRANCH  30  31
HETATM   31  O6  UNL     1     -71.934  12.694  13.835  1.00  0.00    -0.398 OA
ATOM     32  H6  UNL     1     -71.949  13.329  14.542  1.00  0.00     0.209 HD
ENDBRANCH  30  31
ENDBRANCH  21  30
BRANCH  12  33
HETATM   33  C12 UNL     1     -65.075  10.570   7.499  1.00  0.00     0.067 C 
BRANCH  33  34
HETATM   34  C13 UNL     1     -64.097  11.651   7.471  1.00  0.00    -0.017 C 
HETATM   35  C14 UNL     1     -64.589  12.986   6.983  1.00  0.00     0.010 C 
HETATM   36  C15 UNL     1     -63.215  11.802   8.693  1.00  0.00     0.010 C 
ENDBRANCH  33  34
ENDBRANCH  12  33
BRANCH  17  37
HETATM   37  C18 UNL     1     -66.758  13.436  11.747  1.00  0.00     0.044 C 
HETATM   38  C19 UNL     1     -67.510  13.478  13.087  1.00  0.00     0.017 C 
BRANCH  37  39
HETATM   39  C20 UNL     1     -66.514  14.793  11.224  1.00  0.00     0.006 C 
HETATM   40  C21 UNL     1     -65.121  14.755  10.558  1.00  0.00     0.006 C 
ENDBRANCH  37  39
ENDBRANCH  17  37
TORSDOF 8
ENDMDL
