MODEL 1
REMARK VINA RESULT: -9.468866950      0.000      0.000
REMARK  7 active torsions:
REMARK  status: ('A' for Active; 'I' for Inactive)
REMARK    1  A    between atoms: N1_1  and  C1_5 
REMARK    2  A    between atoms: N2_7  and  C3_8 
REMARK    3  A    between atoms: C11_16  and  N3_17 
REMARK       I    between atoms: N3_17  and  C12_19 
REMARK    4  A    between atoms: C12_19  and  C13_21 
REMARK    5  A    between atoms: C13_21  and  C14_23 
REMARK    6  A    between atoms: N4_24  and  N5_26 
REMARK    7  A    between atoms: N5_26  and  C15_28 
ROOT
HETATM    1  N3  UNL     1     -34.821  -9.408  25.099  1.00  0.00    -0.347 N 
ATOM      2  H3  UNL     1     -34.810  -9.861  26.013  1.00  0.00     0.163 HD
HETATM    3  C12 UNL     1     -34.135  -8.180  24.951  1.00  0.00     0.293 C 
HETATM    4  O1  UNL     1     -34.137  -7.614  23.827  1.00  0.00    -0.264 OA
ENDROOT
BRANCH   1   5
HETATM    5  C11 UNL     1     -35.537 -10.057  24.019  1.00  0.00     0.118 C 
HETATM    6  C1  UNL     1     -34.984 -11.478  23.910  1.00  0.00     0.223 C 
HETATM    7  C2  UNL     1     -35.873 -12.462  24.632  1.00  0.00     0.152 C 
HETATM    8  N2  UNL     1     -37.198 -12.483  24.068  1.00  0.00    -0.406 N 
HETATM    9  C9  UNL     1     -37.668 -11.224  23.636  1.00  0.00     0.119 C 
HETATM   10  C10 UNL     1     -36.972 -10.099  24.365  1.00  0.00     0.047 C 
BRANCH   6  11
HETATM   11  N1  UNL     1     -33.657 -11.579  24.486  1.00  0.00    -0.071 N 
ATOM     12  H13 UNL     1     -33.429 -12.524  24.792  1.00  0.00     0.274 HD
ATOM     13  H12 UNL     1     -32.916 -11.479  23.792  1.00  0.00     0.274 HD
ATOM     14  H11 UNL     1     -33.592 -10.892  25.237  1.00  0.00     0.274 HD
ENDBRANCH   6  11
BRANCH   8  15
HETATM   15  C3  UNL     1     -38.078 -13.402  24.672  1.00  0.00     0.079 C 
HETATM   16  C4  UNL     1     -39.508 -13.343  24.275  1.00  0.00     0.025 C 
HETATM   17  C5  UNL     1     -40.180 -14.612  24.770  1.00  0.00     0.002 C 
HETATM   18  C6  UNL     1     -39.588 -15.099  26.060  1.00  0.00     0.000 C 
HETATM   19  C7  UNL     1     -38.149 -15.518  25.919  1.00  0.00     0.002 C 
HETATM   20  C8  UNL     1     -37.609 -14.834  24.656  1.00  0.00     0.025 C 
ENDBRANCH   8  15
ENDBRANCH   1   5
BRANCH   3  21
HETATM   21  C13 UNL     1     -33.439  -7.580  26.080  1.00  0.00     0.255 C 
HETATM   22  O2  UNL     1     -32.681  -6.564  25.872  1.00  0.00    -0.281 OA
BRANCH  21  23
HETATM   23  C14 UNL     1     -33.587  -8.101  27.413  1.00  0.00     0.167 C 
HETATM   24  N4  UNL     1     -33.615  -7.336  28.430  1.00  0.00    -0.307 N 
ATOM     25  H4  UNL     1     -33.531  -6.330  28.284  1.00  0.00     0.186 HD
BRANCH  24  26
HETATM   26  N5  UNL     1     -33.758  -7.810  29.744  1.00  0.00    -0.301 N 
ATOM     27  H5  UNL     1     -33.511  -8.772  29.977  1.00  0.00     0.187 HD
BRANCH  26  28
HETATM   28  C15 UNL     1     -34.249  -6.932  30.740  1.00  0.00     0.048 A 
HETATM   29  C16 UNL     1     -33.580  -6.609  31.891  1.00  0.00     0.032 A 
HETATM   30  C17 UNL     1     -34.104  -5.753  32.822  1.00  0.00     0.026 A 
HETATM   31  C18 UNL     1     -35.361  -5.160  32.643  1.00  0.00     0.034 A 
HETATM   32 CL1  UNL     1     -36.021  -4.063  33.848  1.00  0.00    -0.084 Cl
HETATM   33  C19 UNL     1     -36.030  -5.488  31.485  1.00  0.00     0.026 A 
HETATM   34  C20 UNL     1     -35.503  -6.344  30.555  1.00  0.00     0.032 A 
ENDBRANCH  26  28
ENDBRANCH  24  26
ENDBRANCH  21  23
ENDBRANCH   3  21
TORSDOF 7
ENDMDL
MODEL 2
REMARK VINA RESULT: -9.230782074      1.637      2.001
REMARK  7 active torsions:
REMARK  status: ('A' for Active; 'I' for Inactive)
REMARK    1  A    between atoms: N1_1  and  C1_5 
REMARK    2  A    between atoms: N2_7  and  C3_8 
REMARK    3  A    between atoms: C11_16  and  N3_17 
REMARK       I    between atoms: N3_17  and  C12_19 
REMARK    4  A    between atoms: C12_19  and  C13_21 
REMARK    5  A    between atoms: C13_21  and  C14_23 
REMARK    6  A    between atoms: N4_24  and  N5_26 
REMARK    7  A    between atoms: N5_26  and  C15_28 
ROOT
HETATM    1  N3  UNL     1     -34.495  -9.493  26.167  1.00  0.00    -0.347 N 
ATOM      2  H3  UNL     1     -33.982 -10.312  26.494  1.00  0.00     0.163 HD
HETATM    3  C12 UNL     1     -34.316  -8.270  26.855  1.00  0.00     0.293 C 
HETATM    4  O1  UNL     1     -34.940  -7.253  26.457  1.00  0.00    -0.264 OA
ENDROOT
BRANCH   1   5
HETATM    5  C11 UNL     1     -35.368  -9.643  25.020  1.00  0.00     0.118 C 
HETATM    6  C1  UNL     1     -34.837 -10.825  24.208  1.00  0.00     0.223 C 
HETATM    7  C2  UNL     1     -35.603 -12.087  24.525  1.00  0.00     0.152 C 
HETATM    8  N2  UNL     1     -36.999 -11.949  24.200  1.00  0.00    -0.406 N 
HETATM    9  C9  UNL     1     -37.531 -10.666  24.450  1.00  0.00     0.119 C 
HETATM   10  C10 UNL     1     -36.733  -9.936  25.504  1.00  0.00     0.047 C 
BRANCH   6  11
HETATM   11  N1  UNL     1     -33.437 -11.076  24.488  1.00  0.00    -0.071 N 
ATOM     12  H13 UNL     1     -33.130 -10.669  25.371  1.00  0.00     0.274 HD
ATOM     13  H12 UNL     1     -33.248 -12.052  24.717  1.00  0.00     0.274 HD
ATOM     14  H11 UNL     1     -32.896 -10.744  23.689  1.00  0.00     0.274 HD
ENDBRANCH   6  11
BRANCH   8  15
HETATM   15  C3  UNL     1     -37.773 -13.101  24.441  1.00  0.00     0.079 C 
HETATM   16  C4  UNL     1     -37.049 -14.377  24.668  1.00  0.00     0.025 C 
HETATM   17  C5  UNL     1     -38.039 -15.377  25.238  1.00  0.00     0.002 C 
HETATM   18  C6  UNL     1     -39.424 -15.173  24.698  1.00  0.00     0.000 C 
HETATM   19  C7  UNL     1     -40.018 -13.850  25.104  1.00  0.00     0.002 C 
HETATM   20  C8  UNL     1     -38.845 -12.936  25.487  1.00  0.00     0.025 C 
ENDBRANCH   8  15
ENDBRANCH   1   5
BRANCH   3  21
HETATM   21  C13 UNL     1     -33.425  -8.190  28.003  1.00  0.00     0.255 C 
HETATM   22  O2  UNL     1     -32.316  -8.837  27.974  1.00  0.00    -0.281 OA
BRANCH  21  23
HETATM   23  C14 UNL     1     -33.764  -7.402  29.159  1.00  0.00     0.167 C 
HETATM   24  N4  UNL     1     -34.128  -7.943  30.253  1.00  0.00    -0.307 N 
ATOM     25  H4  UNL     1     -34.177  -8.961  30.299  1.00  0.00     0.186 HD
BRANCH  24  26
HETATM   26  N5  UNL     1     -34.466  -7.205  31.398  1.00  0.00    -0.301 N 
ATOM     27  H5  UNL     1     -34.749  -7.680  32.256  1.00  0.00     0.187 HD
BRANCH  26  28
HETATM   28  C15 UNL     1     -34.408  -5.791  31.344  1.00  0.00     0.048 A 
HETATM   29  C16 UNL     1     -33.324  -5.042  31.720  1.00  0.00     0.032 A 
HETATM   30  C17 UNL     1     -33.322  -3.675  31.647  1.00  0.00     0.026 A 
HETATM   31  C18 UNL     1     -34.438  -2.968  31.182  1.00  0.00     0.034 A 
HETATM   32 CL1  UNL     1     -34.422  -1.212  31.094  1.00  0.00    -0.084 Cl
HETATM   33  C19 UNL     1     -35.525  -3.725  30.805  1.00  0.00     0.026 A 
HETATM   34  C20 UNL     1     -35.524  -5.092  30.878  1.00  0.00     0.032 A 
ENDBRANCH  26  28
ENDBRANCH  24  26
ENDBRANCH  21  23
ENDBRANCH   3  21
TORSDOF 7
ENDMDL
MODEL 3
REMARK VINA RESULT: -9.101770326      2.026      2.491
REMARK  7 active torsions:
REMARK  status: ('A' for Active; 'I' for Inactive)
REMARK    1  A    between atoms: N1_1  and  C1_5 
REMARK    2  A    between atoms: N2_7  and  C3_8 
REMARK    3  A    between atoms: C11_16  and  N3_17 
REMARK       I    between atoms: N3_17  and  C12_19 
REMARK    4  A    between atoms: C12_19  and  C13_21 
REMARK    5  A    between atoms: C13_21  and  C14_23 
REMARK    6  A    between atoms: N4_24  and  N5_26 
REMARK    7  A    between atoms: N5_26  and  C15_28 
ROOT
HETATM    1  N3  UNL     1     -34.478  -9.689  26.058  1.00  0.00    -0.347 N 
ATOM      2  H3  UNL     1     -34.013 -10.484  26.497  1.00  0.00     0.163 HD
HETATM    3  C12 UNL     1     -34.365  -8.421  26.676  1.00  0.00     0.293 C 
HETATM    4  O1  UNL     1     -34.931  -7.433  26.142  1.00  0.00    -0.264 OA
ENDROOT
BRANCH   1   5
HETATM    5  C11 UNL     1     -35.220  -9.916  24.835  1.00  0.00     0.118 C 
HETATM    6  C1  UNL     1     -34.690 -11.215  24.228  1.00  0.00     0.223 C 
HETATM    7  C2  UNL     1     -35.581 -12.382  24.581  1.00  0.00     0.152 C 
HETATM    8  N2  UNL     1     -36.915 -12.195  24.071  1.00  0.00    -0.406 N 
HETATM    9  C9  UNL     1     -37.373 -10.861  24.113  1.00  0.00     0.119 C 
HETATM   10  C10 UNL     1     -36.651 -10.065  25.173  1.00  0.00     0.047 C 
BRANCH   6  11
HETATM   11  N1  UNL     1     -33.356 -11.520  24.707  1.00  0.00    -0.071 N 
ATOM     12  H13 UNL     1     -33.007 -10.831  25.372  1.00  0.00     0.274 HD
ATOM     13  H12 UNL     1     -33.332 -12.330  25.326  1.00  0.00     0.274 HD
ATOM     14  H11 UNL     1     -32.751 -11.627  23.892  1.00  0.00     0.274 HD
ENDBRANCH   6  11
BRANCH   8  15
HETATM   15  C3  UNL     1     -37.799 -13.260  24.337  1.00  0.00     0.079 C 
HETATM   16  C4  UNL     1     -37.201 -14.584  24.645  1.00  0.00     0.025 C 
HETATM   17  C5  UNL     1     -38.295 -15.463  25.225  1.00  0.00     0.002 C 
HETATM   18  C6  UNL     1     -39.639 -15.160  24.630  1.00  0.00     0.000 C 
HETATM   19  C7  UNL     1     -40.121 -13.772  24.956  1.00  0.00     0.002 C 
HETATM   20  C8  UNL     1     -38.882 -12.951  25.338  1.00  0.00     0.025 C 
ENDBRANCH   8  15
ENDBRANCH   1   5
BRANCH   3  21
HETATM   21  C13 UNL     1     -33.607  -8.263  27.908  1.00  0.00     0.255 C 
HETATM   22  O2  UNL     1     -32.483  -8.873  28.027  1.00  0.00    -0.281 OA
BRANCH  21  23
HETATM   23  C14 UNL     1     -34.092  -7.440  28.985  1.00  0.00     0.167 C 
HETATM   24  N4  UNL     1     -35.326  -7.402  29.293  1.00  0.00    -0.307 N 
ATOM     25  H4  UNL     1     -35.979  -7.974  28.757  1.00  0.00     0.186 HD
BRANCH  24  26
HETATM   26  N5  UNL     1     -35.833  -6.610  30.336  1.00  0.00    -0.301 N 
ATOM     27  H5  UNL     1     -35.988  -7.010  31.262  1.00  0.00     0.187 HD
BRANCH  26  28
HETATM   28  C15 UNL     1     -36.125  -5.248  30.082  1.00  0.00     0.048 A 
HETATM   29  C16 UNL     1     -35.621  -4.197  30.802  1.00  0.00     0.032 A 
HETATM   30  C17 UNL     1     -35.938  -2.897  30.512  1.00  0.00     0.026 A 
HETATM   31  C18 UNL     1     -36.801  -2.574  29.457  1.00  0.00     0.034 A 
HETATM   32 CL1  UNL     1     -37.199  -0.900  29.097  1.00  0.00    -0.084 Cl
HETATM   33  C19 UNL     1     -37.305  -3.634  28.737  1.00  0.00     0.026 A 
HETATM   34  C20 UNL     1     -36.986  -4.933  29.028  1.00  0.00     0.032 A 
ENDBRANCH  26  28
ENDBRANCH  24  26
ENDBRANCH  21  23
ENDBRANCH   3  21
TORSDOF 7
ENDMDL
MODEL 4
REMARK VINA RESULT: -9.061353912      4.089      8.264
REMARK  7 active torsions:
REMARK  status: ('A' for Active; 'I' for Inactive)
REMARK    1  A    between atoms: N1_1  and  C1_5 
REMARK    2  A    between atoms: N2_7  and  C3_8 
REMARK    3  A    between atoms: C11_16  and  N3_17 
REMARK       I    between atoms: N3_17  and  C12_19 
REMARK    4  A    between atoms: C12_19  and  C13_21 
REMARK    5  A    between atoms: C13_21  and  C14_23 
REMARK    6  A    between atoms: N4_24  and  N5_26 
REMARK    7  A    between atoms: N5_26  and  C15_28 
ROOT
HETATM    1  N3  UNL     1     -33.742  -9.782  25.110  1.00  0.00    -0.347 N 
ATOM      2  H3  UNL     1     -34.158  -9.551  24.208  1.00  0.00     0.163 HD
HETATM    3  C12 UNL     1     -32.873 -10.896  25.183  1.00  0.00     0.293 C 
HETATM    4  O1  UNL     1     -32.350 -11.187  26.289  1.00  0.00    -0.264 OA
ENDROOT
BRANCH   1   5
HETATM    5  C11 UNL     1     -34.071  -8.952  26.252  1.00  0.00     0.118 C 
HETATM    6  C1  UNL     1     -33.759  -7.508  25.855  1.00  0.00     0.223 C 
HETATM    7  C2  UNL     1     -35.008  -6.788  25.406  1.00  0.00     0.152 C 
HETATM    8  N2  UNL     1     -35.988  -6.732  26.459  1.00  0.00    -0.406 N 
HETATM    9  C9  UNL     1     -36.038  -7.885  27.271  1.00  0.00     0.119 C 
HETATM   10  C10 UNL     1     -35.513  -9.096  26.538  1.00  0.00     0.047 C 
BRANCH   6  11
HETATM   11  N1  UNL     1     -32.801  -7.450  24.769  1.00  0.00    -0.071 N 
ATOM     12  H13 UNL     1     -33.231  -7.215  23.874  1.00  0.00     0.274 HD
ATOM     13  H12 UNL     1     -32.177  -6.645  24.834  1.00  0.00     0.274 HD
ATOM     14  H11 UNL     1     -32.302  -8.338  24.747  1.00  0.00     0.274 HD
ENDBRANCH   6  11
BRANCH   8  15
HETATM   15  C3  UNL     1     -37.172  -6.047  26.122  1.00  0.00     0.079 C 
HETATM   16  C4  UNL     1     -37.940  -5.421  27.229  1.00  0.00     0.025 C 
HETATM   17  C5  UNL     1     -38.951  -4.471  26.613  1.00  0.00     0.002 C 
HETATM   18  C6  UNL     1     -39.455  -4.962  25.288  1.00  0.00     0.000 C 
HETATM   19  C7  UNL     1     -38.376  -5.022  24.240  1.00  0.00     0.002 C 
HETATM   20  C8  UNL     1     -37.035  -5.065  24.987  1.00  0.00     0.025 C 
ENDBRANCH   8  15
ENDBRANCH   1   5
BRANCH   3  21
HETATM   21  C13 UNL     1     -32.588 -11.691  23.997  1.00  0.00     0.255 C 
HETATM   22  O2  UNL     1     -31.583 -11.373  23.264  1.00  0.00    -0.281 OA
BRANCH  21  23
HETATM   23  C14 UNL     1     -33.407 -12.820  23.639  1.00  0.00     0.167 C 
HETATM   24  N4  UNL     1     -34.245 -13.323  24.455  1.00  0.00    -0.307 N 
ATOM     25  H4  UNL     1     -34.330 -12.907  25.382  1.00  0.00     0.186 HD
BRANCH  24  26
HETATM   26  N5  UNL     1     -35.058 -14.423  24.138  1.00  0.00    -0.301 N 
ATOM     27  H5  UNL     1     -34.660 -15.251  23.694  1.00  0.00     0.187 HD
BRANCH  26  28
HETATM   28  C15 UNL     1     -36.439 -14.365  24.446  1.00  0.00     0.048 A 
HETATM   29  C16 UNL     1     -37.156 -15.392  25.001  1.00  0.00     0.032 A 
HETATM   30  C17 UNL     1     -38.492 -15.282  25.278  1.00  0.00     0.026 A 
HETATM   31  C18 UNL     1     -39.198 -14.103  25.005  1.00  0.00     0.034 A 
HETATM   32 CL1  UNL     1     -40.915 -13.976  25.366  1.00  0.00    -0.084 Cl
HETATM   33  C19 UNL     1     -38.474 -13.074  24.447  1.00  0.00     0.026 A 
HETATM   34  C20 UNL     1     -37.138 -13.187  24.172  1.00  0.00     0.032 A 
ENDBRANCH  26  28
ENDBRANCH  24  26
ENDBRANCH  21  23
ENDBRANCH   3  21
TORSDOF 7
ENDMDL
MODEL 5
REMARK VINA RESULT: -9.018929877      5.248      9.911
REMARK  7 active torsions:
REMARK  status: ('A' for Active; 'I' for Inactive)
REMARK    1  A    between atoms: N1_1  and  C1_5 
REMARK    2  A    between atoms: N2_7  and  C3_8 
REMARK    3  A    between atoms: C11_16  and  N3_17 
REMARK       I    between atoms: N3_17  and  C12_19 
REMARK    4  A    between atoms: C12_19  and  C13_21 
REMARK    5  A    between atoms: C13_21  and  C14_23 
REMARK    6  A    between atoms: N4_24  and  N5_26 
REMARK    7  A    between atoms: N5_26  and  C15_28 
ROOT
HETATM    1  N3  UNL     1     -39.306  -7.150  23.492  1.00  0.00    -0.347 N 
ATOM      2  H3  UNL     1     -40.123  -6.933  24.062  1.00  0.00     0.163 HD
HETATM    3  C12 UNL     1     -39.206  -8.443  22.927  1.00  0.00     0.293 C 
HETATM    4  O1  UNL     1     -38.204  -8.721  22.218  1.00  0.00    -0.264 OA
ENDROOT
BRANCH   1   5
HETATM    5  C11 UNL     1     -38.307  -6.117  23.301  1.00  0.00     0.118 C 
HETATM    6  C1  UNL     1     -39.056  -4.789  23.194  1.00  0.00     0.223 C 
HETATM    7  C2  UNL     1     -39.060  -4.061  24.518  1.00  0.00     0.152 C 
HETATM    8  N2  UNL     1     -37.721  -3.754  24.951  1.00  0.00    -0.406 N 
HETATM    9  C9  UNL     1     -36.767  -4.747  24.643  1.00  0.00     0.119 C 
HETATM   10  C10 UNL     1     -37.417  -6.101  24.480  1.00  0.00     0.047 C 
BRANCH   6  11
HETATM   11  N1  UNL     1     -40.436  -4.986  22.796  1.00  0.00    -0.071 N 
ATOM     12  H13 UNL     1     -41.062  -5.118  23.590  1.00  0.00     0.274 HD
ATOM     13  H12 UNL     1     -40.867  -4.139  22.425  1.00  0.00     0.274 HD
ATOM     14  H11 UNL     1     -40.461  -5.765  22.138  1.00  0.00     0.274 HD
ENDBRANCH   6  11
BRANCH   8  15
HETATM   15  C3  UNL     1     -37.646  -3.047  26.167  1.00  0.00     0.079 C 
HETATM   16  C4  UNL     1     -38.103  -1.634  26.165  1.00  0.00     0.025 C 
HETATM   17  C5  UNL     1     -38.258  -1.195  27.611  1.00  0.00     0.002 C 
HETATM   18  C6  UNL     1     -37.254  -1.852  28.513  1.00  0.00     0.000 C 
HETATM   19  C7  UNL     1     -37.436  -3.344  28.597  1.00  0.00     0.002 C 
HETATM   20  C8  UNL     1     -38.233  -3.765  27.355  1.00  0.00     0.025 C 
ENDBRANCH   8  15
ENDBRANCH   1   5
BRANCH   3  21
HETATM   21  C13 UNL     1     -40.244  -9.436  23.162  1.00  0.00     0.255 C 
HETATM   22  O2  UNL     1     -41.441  -9.186  22.769  1.00  0.00    -0.281 OA
BRANCH  21  23
HETATM   23  C14 UNL     1     -39.952 -10.682  23.820  1.00  0.00     0.167 C 
HETATM   24  N4  UNL     1     -40.755 -11.669  23.768  1.00  0.00    -0.307 N 
ATOM     25  H4  UNL     1     -41.624 -11.562  23.244  1.00  0.00     0.186 HD
BRANCH  24  26
HETATM   26  N5  UNL     1     -40.503 -12.897  24.399  1.00  0.00    -0.301 N 
ATOM     27  H5  UNL     1     -41.265 -13.435  24.811  1.00  0.00     0.187 HD
BRANCH  26  28
HETATM   28  C15 UNL     1     -39.172 -13.379  24.452  1.00  0.00     0.048 A 
HETATM   29  C16 UNL     1     -38.814 -14.633  24.874  1.00  0.00     0.032 A 
HETATM   30  C17 UNL     1     -37.510 -15.046  24.906  1.00  0.00     0.026 A 
HETATM   31  C18 UNL     1     -36.467 -14.200  24.507  1.00  0.00     0.034 A 
HETATM   32 CL1  UNL     1     -34.795 -14.745  24.554  1.00  0.00    -0.084 Cl
HETATM   33  C19 UNL     1     -36.830 -12.941  24.085  1.00  0.00     0.026 A 
HETATM   34  C20 UNL     1     -38.136 -12.531  24.053  1.00  0.00     0.032 A 
ENDBRANCH  26  28
ENDBRANCH  24  26
ENDBRANCH  21  23
ENDBRANCH   3  21
TORSDOF 7
ENDMDL
