MODEL 1
REMARK VINA RESULT: -8.605158157      0.000      0.000
REMARK  8 active torsions:
REMARK  status: ('A' for Active; 'I' for Inactive)
REMARK    1  A    between atoms: N1_1  and  C1_5 
REMARK    2  A    between atoms: N2_8  and  C4_9 
REMARK    3  A    between atoms: C6_13  and  C7_14 
REMARK    4  A    between atoms: C7_14  and  C8_15 
REMARK    5  A    between atoms: C10_19  and  N5_20 
REMARK    6  A    between atoms: N5_20  and  C11_22 
REMARK    7  A    between atoms: C11_22  and  C12_23 
REMARK    8  A    between atoms: C12_23  and  C13_24 
ROOT
HETATM    1  C4  UNL     1       4.063  36.988  23.523  1.00  0.00     0.160 A 
HETATM    2  N3  UNL     1       2.903  37.439  24.100  1.00  0.00    -0.347 N 
ATOM      3  H3  UNL     1       2.973  38.012  24.941  1.00  0.00     0.167 HD
HETATM    4  C5  UNL     1       1.687  37.167  23.619  1.00  0.00     0.115 A 
HETATM    5  C6  UNL     1       1.521  36.401  22.489  1.00  0.00     0.032 A 
HETATM    6  N7  UNL     1       2.638  35.948  21.906  1.00  0.00    -0.332 N 
ATOM      7  H7  UNL     1       2.556  35.376  21.065  1.00  0.00     0.168 HD
HETATM    8  C18 UNL     1       3.888  36.224  22.399  1.00  0.00     0.233 A 
HETATM    9  F1  UNL     1       4.950  35.705  21.745  1.00  0.00    -0.182 F 
ENDROOT
BRANCH   5  10
HETATM   10  C7  UNL     1       0.222  36.061  21.902  1.00  0.00     0.106 C 
BRANCH  10  11
HETATM   11  C8  UNL     1      -0.508  35.008  22.691  1.00  0.00     0.007 A 
HETATM   12  C9  UNL     1      -1.346  34.029  22.226  1.00  0.00     0.105 A 
HETATM   13  N4  UNL     1      -1.876  33.215  23.087  1.00  0.00    -0.346 N 
HETATM   14  C10 UNL     1      -1.583  33.370  24.377  1.00  0.00     0.144 A 
ATOM     15  H4  UNL     1      -2.505  32.472  22.782  1.00  0.00     0.167 HD
HETATM   16  S1  UNL     1      -0.522  34.709  24.374  1.00  0.00    -0.057 SA
BRANCH  14  17
HETATM   17  N5  UNL     1      -2.018  32.650  25.390  1.00  0.00    -0.370 N 
ATOM     18  H5  UNL     1      -3.006  32.405  25.467  1.00  0.00     0.161 HD
BRANCH  17  19
HETATM   19  C11 UNL     1      -1.055  32.206  26.412  1.00  0.00     0.122 C 
BRANCH  19  20
HETATM   20  C12 UNL     1      -0.282  31.098  25.805  1.00  0.00     0.024 C 
BRANCH  20  21
HETATM   21  C13 UNL     1       1.025  30.749  26.453  1.00  0.00    -0.010 C 
HETATM   22  C14 UNL     1       1.867  29.788  25.665  1.00  0.00     0.032 C 
HETATM   23  C15 UNL     1       2.909  30.398  24.802  1.00  0.00     0.232 C 
HETATM   24  N6  UNL     1       3.696  31.353  25.537  1.00  0.00    -0.075 N 
HETATM   25  C16 UNL     1       2.898  32.416  26.100  1.00  0.00     0.232 C 
ATOM     26  H62 UNL     1       4.252  30.892  26.256  1.00  0.00     0.277 HD
ATOM     27  H61 UNL     1       4.449  31.727  24.960  1.00  0.00     0.277 HD
HETATM   28  C17 UNL     1       1.793  31.896  26.980  1.00  0.00     0.032 C 
ENDBRANCH  20  21
ENDBRANCH  19  20
ENDBRANCH  17  19
ENDBRANCH  14  17
ENDBRANCH  10  11
ENDBRANCH   5  10
BRANCH   1  29
HETATM   29  N2  UNL     1       5.312  37.335  24.079  1.00  0.00    -0.363 N 
HETATM   30  C3  UNL     1       5.908  36.324  24.984  1.00  0.00     0.126 C 
HETATM   31  C2  UNL     1       7.415  36.457  24.930  1.00  0.00     0.052 C 
HETATM   32  C1  UNL     1       7.926  36.887  23.569  1.00  0.00     0.186 C 
HETATM   33  C20 UNL     1       7.382  38.248  23.171  1.00  0.00     0.052 C 
HETATM   34  C19 UNL     1       6.074  38.522  23.902  1.00  0.00     0.126 C 
BRANCH  32  35
HETATM   35  N1  UNL     1       9.374  36.922  23.663  1.00  0.00    -0.075 N 
ATOM     36  H13 UNL     1       9.827  36.135  23.199  1.00  0.00     0.274 HD
ATOM     37  H12 UNL     1       9.797  37.661  23.101  1.00  0.00     0.274 HD
ATOM     38  H11 UNL     1       9.600  36.990  24.656  1.00  0.00     0.274 HD
ENDBRANCH  32  35
ENDBRANCH   1  29
TORSDOF 8
ENDMDL
MODEL 2
REMARK VINA RESULT: -8.484146070      1.040      1.250
REMARK  8 active torsions:
REMARK  status: ('A' for Active; 'I' for Inactive)
REMARK    1  A    between atoms: N1_1  and  C1_5 
REMARK    2  A    between atoms: N2_8  and  C4_9 
REMARK    3  A    between atoms: C6_13  and  C7_14 
REMARK    4  A    between atoms: C7_14  and  C8_15 
REMARK    5  A    between atoms: C10_19  and  N5_20 
REMARK    6  A    between atoms: N5_20  and  C11_22 
REMARK    7  A    between atoms: C11_22  and  C12_23 
REMARK    8  A    between atoms: C12_23  and  C13_24 
ROOT
HETATM    1  C4  UNL     1       3.964  37.099  23.603  1.00  0.00     0.160 A 
HETATM    2  N3  UNL     1       3.867  36.324  22.475  1.00  0.00    -0.347 N 
ATOM      3  H3  UNL     1       4.728  35.984  22.048  1.00  0.00     0.167 HD
HETATM    4  C5  UNL     1       2.704  35.993  21.906  1.00  0.00     0.115 A 
HETATM    5  C6  UNL     1       1.507  36.418  22.431  1.00  0.00     0.032 A 
HETATM    6  N7  UNL     1       1.573  37.176  23.533  1.00  0.00    -0.332 N 
ATOM      7  H7  UNL     1       0.706  37.510  23.952  1.00  0.00     0.168 HD
HETATM    8  C18 UNL     1       2.766  37.519  24.118  1.00  0.00     0.233 A 
HETATM    9  F1  UNL     1       2.723  38.302  25.218  1.00  0.00    -0.182 F 
ENDROOT
BRANCH   5  10
HETATM   10  C7  UNL     1       0.194  36.096  21.866  1.00  0.00     0.106 C 
BRANCH  10  11
HETATM   11  C8  UNL     1      -0.519  35.020  22.641  1.00  0.00     0.007 A 
HETATM   12  C9  UNL     1      -1.361  34.050  22.166  1.00  0.00     0.105 A 
HETATM   13  N4  UNL     1      -1.873  33.212  23.016  1.00  0.00    -0.346 N 
HETATM   14  C10 UNL     1      -1.558  33.336  24.304  1.00  0.00     0.144 A 
ATOM     15  H4  UNL     1      -2.504  32.475  22.704  1.00  0.00     0.167 HD
HETATM   16  S1  UNL     1      -0.502  34.680  24.316  1.00  0.00    -0.057 SA
BRANCH  14  17
HETATM   17  N5  UNL     1      -1.972  32.590  25.306  1.00  0.00    -0.370 N 
ATOM     18  H5  UNL     1      -2.950  32.307  25.374  1.00  0.00     0.161 HD
BRANCH  17  19
HETATM   19  C11 UNL     1      -1.000  32.171  26.330  1.00  0.00     0.122 C 
BRANCH  19  20
HETATM   20  C12 UNL     1      -0.216  31.064  25.737  1.00  0.00     0.024 C 
BRANCH  20  21
HETATM   21  C13 UNL     1       1.082  30.718  26.405  1.00  0.00    -0.010 C 
HETATM   22  C14 UNL     1       1.962  29.804  25.603  1.00  0.00     0.032 C 
HETATM   23  C15 UNL     1       3.012  30.467  24.790  1.00  0.00     0.232 C 
HETATM   24  N6  UNL     1       3.760  31.409  25.578  1.00  0.00    -0.075 N 
HETATM   25  C16 UNL     1       2.927  32.434  26.160  1.00  0.00     0.232 C 
ATOM     26  H62 UNL     1       4.308  30.934  26.294  1.00  0.00     0.277 HD
ATOM     27  H61 UNL     1       4.519  31.820  25.035  1.00  0.00     0.277 HD
HETATM   28  C17 UNL     1       1.812  31.860  26.993  1.00  0.00     0.032 C 
ENDBRANCH  20  21
ENDBRANCH  19  20
ENDBRANCH  17  19
ENDBRANCH  14  17
ENDBRANCH  10  11
ENDBRANCH   5  10
BRANCH   1  29
HETATM   29  N2  UNL     1       5.228  37.389  24.156  1.00  0.00    -0.363 N 
HETATM   30  C3  UNL     1       5.805  36.329  25.017  1.00  0.00     0.126 C 
HETATM   31  C2  UNL     1       7.314  36.420  24.950  1.00  0.00     0.052 C 
HETATM   32  C1  UNL     1       7.823  36.885  23.601  1.00  0.00     0.186 C 
HETATM   33  C20 UNL     1       7.314  38.275  23.259  1.00  0.00     0.052 C 
HETATM   34  C19 UNL     1       6.023  38.559  24.015  1.00  0.00     0.126 C 
BRANCH  32  35
HETATM   35  N1  UNL     1       9.272  36.875  23.679  1.00  0.00    -0.075 N 
ATOM     36  H13 UNL     1       9.687  37.802  23.586  1.00  0.00     0.274 HD
ATOM     37  H12 UNL     1       9.624  36.671  24.614  1.00  0.00     0.274 HD
ATOM     38  H11 UNL     1       9.597  36.215  22.972  1.00  0.00     0.274 HD
ENDBRANCH  32  35
ENDBRANCH   1  29
TORSDOF 8
ENDMDL
MODEL 3
REMARK VINA RESULT: -8.410882036      0.880      1.297
REMARK  8 active torsions:
REMARK  status: ('A' for Active; 'I' for Inactive)
REMARK    1  A    between atoms: N1_1  and  C1_5 
REMARK    2  A    between atoms: N2_8  and  C4_9 
REMARK    3  A    between atoms: C6_13  and  C7_14 
REMARK    4  A    between atoms: C7_14  and  C8_15 
REMARK    5  A    between atoms: C10_19  and  N5_20 
REMARK    6  A    between atoms: N5_20  and  C11_22 
REMARK    7  A    between atoms: C11_22  and  C12_23 
REMARK    8  A    between atoms: C12_23  and  C13_24 
ROOT
HETATM    1  C4  UNL     1       4.227  36.843  22.886  1.00  0.00     0.160 A 
HETATM    2  N3  UNL     1       3.196  37.235  23.702  1.00  0.00    -0.347 N 
ATOM      3  H3  UNL     1       3.426  37.681  24.589  1.00  0.00     0.167 HD
HETATM    4  C5  UNL     1       1.907  37.064  23.394  1.00  0.00     0.115 A 
HETATM    5  C6  UNL     1       1.528  36.470  22.214  1.00  0.00     0.032 A 
HETATM    6  N7  UNL     1       2.516  36.077  21.398  1.00  0.00    -0.332 N 
ATOM      7  H7  UNL     1       2.275  35.633  20.513  1.00  0.00     0.168 HD
HETATM    8  C18 UNL     1       3.840  36.251  21.713  1.00  0.00     0.233 A 
HETATM    9  F1  UNL     1       4.758  35.804  20.829  1.00  0.00    -0.182 F 
ENDROOT
BRANCH   5  10
HETATM   10  C7  UNL     1       0.138  36.248  21.807  1.00  0.00     0.106 C 
BRANCH  10  11
HETATM   11  C8  UNL     1      -0.513  35.125  22.570  1.00  0.00     0.007 A 
HETATM   12  C9  UNL     1      -1.295  34.112  22.083  1.00  0.00     0.105 A 
HETATM   13  N4  UNL     1      -1.760  33.238  22.923  1.00  0.00    -0.346 N 
HETATM   14  C10 UNL     1      -1.457  33.368  24.214  1.00  0.00     0.144 A 
ATOM     15  H4  UNL     1      -2.345  32.467  22.602  1.00  0.00     0.167 HD
HETATM   16  S1  UNL     1      -0.481  34.771  24.241  1.00  0.00    -0.057 SA
BRANCH  14  17
HETATM   17  N5  UNL     1      -1.830  32.590  25.208  1.00  0.00    -0.370 N 
ATOM     18  H5  UNL     1      -2.791  32.254  25.271  1.00  0.00     0.161 HD
BRANCH  17  19
HETATM   19  C11 UNL     1      -0.837  32.215  26.228  1.00  0.00     0.122 C 
BRANCH  19  20
HETATM   20  C12 UNL     1      -0.109  31.041  25.694  1.00  0.00     0.024 C 
BRANCH  20  21
HETATM   21  C13 UNL     1       1.201  30.702  26.341  1.00  0.00    -0.010 C 
HETATM   22  C14 UNL     1       2.098  29.839  25.502  1.00  0.00     0.032 C 
HETATM   23  C15 UNL     1       3.126  30.556  24.707  1.00  0.00     0.232 C 
HETATM   24  N6  UNL     1       3.856  31.487  25.524  1.00  0.00    -0.075 N 
HETATM   25  C16 UNL     1       3.003  32.470  26.148  1.00  0.00     0.232 C 
ATOM     26  H62 UNL     1       4.420  31.000  26.220  1.00  0.00     0.277 HD
ATOM     27  H61 UNL     1       4.602  31.936  24.992  1.00  0.00     0.277 HD
HETATM   28  C17 UNL     1       1.908  31.840  26.965  1.00  0.00     0.032 C 
ENDBRANCH  20  21
ENDBRANCH  19  20
ENDBRANCH  17  19
ENDBRANCH  14  17
ENDBRANCH  10  11
ENDBRANCH   5  10
BRANCH   1  29
HETATM   29  N2  UNL     1       5.563  37.077  23.271  1.00  0.00    -0.363 N 
HETATM   30  C3  UNL     1       6.053  38.460  23.060  1.00  0.00     0.126 C 
HETATM   31  C2  UNL     1       7.125  38.755  24.087  1.00  0.00     0.052 C 
HETATM   32  C1  UNL     1       6.890  38.055  25.411  1.00  0.00     0.186 C 
HETATM   33  C20 UNL     1       6.880  36.545  25.253  1.00  0.00     0.052 C 
HETATM   34  C19 UNL     1       6.510  36.172  23.823  1.00  0.00     0.126 C 
BRANCH  32  35
HETATM   35  N1  UNL     1       7.964  38.470  26.295  1.00  0.00    -0.075 N 
ATOM     36  H13 UNL     1       8.382  39.362  26.031  1.00  0.00     0.274 HD
ATOM     37  H12 UNL     1       7.639  38.751  27.220  1.00  0.00     0.274 HD
ATOM     38  H11 UNL     1       8.634  37.701  26.318  1.00  0.00     0.274 HD
ENDBRANCH  32  35
ENDBRANCH   1  29
TORSDOF 8
ENDMDL
MODEL 4
REMARK VINA RESULT: -8.008433091      2.227      3.248
REMARK  8 active torsions:
REMARK  status: ('A' for Active; 'I' for Inactive)
REMARK    1  A    between atoms: N1_1  and  C1_5 
REMARK    2  A    between atoms: N2_8  and  C4_9 
REMARK    3  A    between atoms: C6_13  and  C7_14 
REMARK    4  A    between atoms: C7_14  and  C8_15 
REMARK    5  A    between atoms: C10_19  and  N5_20 
REMARK    6  A    between atoms: N5_20  and  C11_22 
REMARK    7  A    between atoms: C11_22  and  C12_23 
REMARK    8  A    between atoms: C12_23  and  C13_24 
ROOT
HETATM    1  C4  UNL     1       6.138  38.001  22.601  1.00  0.00     0.160 A 
HETATM    2  N3  UNL     1       5.295  39.035  22.282  1.00  0.00    -0.347 N 
ATOM      3  H3  UNL     1       5.452  39.940  22.723  1.00  0.00     0.167 HD
HETATM    4  C5  UNL     1       4.278  38.918  21.422  1.00  0.00     0.115 A 
HETATM    5  C6  UNL     1       4.012  37.726  20.791  1.00  0.00     0.032 A 
HETATM    6  N7  UNL     1       4.821  36.699  21.086  1.00  0.00    -0.332 N 
ATOM      7  H7  UNL     1       4.655  35.799  20.637  1.00  0.00     0.168 HD
HETATM    8  C18 UNL     1       5.864  36.817  21.969  1.00  0.00     0.233 A 
HETATM    9  F1  UNL     1       6.610  35.717  22.209  1.00  0.00    -0.182 F 
ENDROOT
BRANCH   5  10
HETATM   10  C7  UNL     1       2.918  37.519  19.838  1.00  0.00     0.106 C 
BRANCH  10  11
HETATM   11  C8  UNL     1       1.715  36.875  20.473  1.00  0.00     0.007 A 
HETATM   12  C9  UNL     1       0.449  36.755  19.962  1.00  0.00     0.105 A 
HETATM   13  N4  UNL     1      -0.449  36.155  20.683  1.00  0.00    -0.346 N 
HETATM   14  C10 UNL     1      -0.100  35.689  21.881  1.00  0.00     0.144 A 
ATOM     15  H4  UNL     1      -1.403  36.044  20.340  1.00  0.00     0.167 HD
HETATM   16  S1  UNL     1       1.553  36.109  21.992  1.00  0.00    -0.057 SA
BRANCH  14  17
HETATM   17  N5  UNL     1      -0.862  35.059  22.750  1.00  0.00    -0.370 N 
ATOM     18  H5  UNL     1      -1.856  34.919  22.564  1.00  0.00     0.161 HD
BRANCH  17  19
HETATM   19  C11 UNL     1      -0.257  34.559  23.996  1.00  0.00     0.122 C 
BRANCH  19  20
HETATM   20  C12 UNL     1      -1.340  33.885  24.747  1.00  0.00     0.024 C 
BRANCH  20  21
HETATM   21  C13 UNL     1      -1.137  32.435  25.075  1.00  0.00    -0.010 C 
HETATM   22  C14 UNL     1       0.301  32.035  25.235  1.00  0.00     0.032 C 
HETATM   23  C15 UNL     1       0.815  32.014  26.627  1.00  0.00     0.232 C 
HETATM   24  N6  UNL     1      -0.067  31.278  27.494  1.00  0.00    -0.075 N 
HETATM   25  C16 UNL     1      -1.405  31.819  27.516  1.00  0.00     0.232 C 
ATOM     26  H62 UNL     1      -0.076  30.288  27.251  1.00  0.00     0.277 HD
ATOM     27  H61 UNL     1       0.316  31.213  28.436  1.00  0.00     0.277 HD
HETATM   28  C17 UNL     1      -2.010  31.901  26.140  1.00  0.00     0.032 C 
ENDBRANCH  20  21
ENDBRANCH  19  20
ENDBRANCH  17  19
ENDBRANCH  14  17
ENDBRANCH  10  11
ENDBRANCH   5  10
BRANCH   1  29
HETATM   29  N2  UNL     1       7.203  38.209  23.503  1.00  0.00    -0.363 N 
HETATM   30  C3  UNL     1       6.862  38.976  24.724  1.00  0.00     0.126 C 
HETATM   31  C2  UNL     1       7.783  38.538  25.842  1.00  0.00     0.052 C 
HETATM   32  C1  UNL     1       8.172  37.076  25.755  1.00  0.00     0.186 C 
HETATM   33  C20 UNL     1       8.918  36.770  24.468  1.00  0.00     0.052 C 
HETATM   34  C19 UNL     1       8.559  37.796  23.400  1.00  0.00     0.126 C 
BRANCH  32  35
HETATM   35  N1  UNL     1       9.007  36.799  26.908  1.00  0.00    -0.075 N 
ATOM     36  H13 UNL     1       9.472  37.629  27.277  1.00  0.00     0.274 HD
ATOM     37  H12 UNL     1       8.474  36.569  27.747  1.00  0.00     0.274 HD
ATOM     38  H11 UNL     1       9.657  36.064  26.628  1.00  0.00     0.274 HD
ENDBRANCH  32  35
ENDBRANCH   1  29
TORSDOF 8
ENDMDL
MODEL 5
REMARK VINA RESULT: -7.949145400      1.316      1.813
REMARK  8 active torsions:
REMARK  status: ('A' for Active; 'I' for Inactive)
REMARK    1  A    between atoms: N1_1  and  C1_5 
REMARK    2  A    between atoms: N2_8  and  C4_9 
REMARK    3  A    between atoms: C6_13  and  C7_14 
REMARK    4  A    between atoms: C7_14  and  C8_15 
REMARK    5  A    between atoms: C10_19  and  N5_20 
REMARK    6  A    between atoms: N5_20  and  C11_22 
REMARK    7  A    between atoms: C11_22  and  C12_23 
REMARK    8  A    between atoms: C12_23  and  C13_24 
ROOT
HETATM    1  C4  UNL     1       3.838  37.079  24.269  1.00  0.00     0.160 A 
HETATM    2  N3  UNL     1       2.640  37.739  24.371  1.00  0.00    -0.347 N 
ATOM      3  H3  UNL     1       2.594  38.566  24.964  1.00  0.00     0.167 HD
HETATM    4  C5  UNL     1       1.531  37.355  23.732  1.00  0.00     0.115 A 
HETATM    5  C6  UNL     1       1.524  36.249  22.916  1.00  0.00     0.032 A 
HETATM    6  N7  UNL     1       2.682  35.585  22.800  1.00  0.00    -0.332 N 
ATOM      7  H7  UNL     1       2.717  34.760  22.202  1.00  0.00     0.168 HD
HETATM    8  C18 UNL     1       3.822  35.976  23.455  1.00  0.00     0.233 A 
HETATM    9  F1  UNL     1       4.933  35.228  23.283  1.00  0.00    -0.182 F 
ENDROOT
BRANCH   5  10
HETATM   10  C7  UNL     1       0.350  35.767  22.184  1.00  0.00     0.106 C 
BRANCH  10  11
HETATM   11  C8  UNL     1      -0.461  34.781  22.982  1.00  0.00     0.007 A 
HETATM   12  C9  UNL     1      -1.371  33.865  22.525  1.00  0.00     0.105 A 
HETATM   13  N4  UNL     1      -1.964  33.103  23.393  1.00  0.00    -0.346 N 
HETATM   14  C10 UNL     1      -1.662  33.248  24.682  1.00  0.00     0.144 A 
ATOM     15  H4  UNL     1      -2.647  32.407  23.094  1.00  0.00     0.167 HD
HETATM   16  S1  UNL     1      -0.501  34.502  24.668  1.00  0.00    -0.057 SA
BRANCH  14  17
HETATM   17  N5  UNL     1      -2.153  32.575  25.701  1.00  0.00    -0.370 N 
ATOM     18  H5  UNL     1      -3.161  32.502  25.838  1.00  0.00     0.161 HD
BRANCH  17  19
HETATM   19  C11 UNL     1      -1.222  31.930  26.642  1.00  0.00     0.122 C 
BRANCH  19  20
HETATM   20  C12 UNL     1      -0.256  31.167  25.819  1.00  0.00     0.024 C 
BRANCH  20  21
HETATM   21  C13 UNL     1       1.048  30.803  26.467  1.00  0.00    -0.010 C 
HETATM   22  C14 UNL     1       1.847  29.782  25.710  1.00  0.00     0.032 C 
HETATM   23  C15 UNL     1       2.897  30.321  24.810  1.00  0.00     0.232 C 
HETATM   24  N6  UNL     1       3.724  31.279  25.495  1.00  0.00    -0.075 N 
HETATM   25  C16 UNL     1       2.969  32.390  26.022  1.00  0.00     0.232 C 
ATOM     26  H62 UNL     1       4.274  30.831  26.227  1.00  0.00     0.277 HD
ATOM     27  H61 UNL     1       4.481  31.604  24.894  1.00  0.00     0.277 HD
HETATM   28  C17 UNL     1       1.859  31.944  26.936  1.00  0.00     0.032 C 
ENDBRANCH  20  21
ENDBRANCH  19  20
ENDBRANCH  17  19
ENDBRANCH  14  17
ENDBRANCH  10  11
ENDBRANCH   5  10
BRANCH   1  29
HETATM   29  N2  UNL     1       4.972  37.558  24.958  1.00  0.00    -0.363 N 
HETATM   30  C3  UNL     1       6.049  38.111  24.104  1.00  0.00     0.126 C 
HETATM   31  C2  UNL     1       6.799  39.162  24.893  1.00  0.00     0.052 C 
HETATM   32  C1  UNL     1       5.916  39.921  25.864  1.00  0.00     0.186 C 
HETATM   33  C20 UNL     1       5.299  38.996  26.899  1.00  0.00     0.052 C 
HETATM   34  C19 UNL     1       5.232  37.575  26.356  1.00  0.00     0.126 C 
BRANCH  32  35
HETATM   35  N1  UNL     1       6.760  40.913  26.502  1.00  0.00    -0.075 N 
ATOM     36  H13 UNL     1       6.968  41.712  25.903  1.00  0.00     0.274 HD
ATOM     37  H12 UNL     1       6.285  41.431  27.243  1.00  0.00     0.274 HD
ATOM     38  H11 UNL     1       7.594  40.422  26.824  1.00  0.00     0.274 HD
ENDBRANCH  32  35
ENDBRANCH   1  29
TORSDOF 8
ENDMDL
