MODEL 1
REMARK VINA RESULT: -6.703841501      0.000      0.000
REMARK  11 active torsions:
REMARK  status: ('A' for Active; 'I' for Inactive)
REMARK    1  A    between atoms: C2_2  and  C3_3 
REMARK    2  A    between atoms: C3_3  and  O1_4 
REMARK    3  A    between atoms: O1_4  and  C4_5 
REMARK    4  A    between atoms: C5_7  and  C7_9 
REMARK    5  A    between atoms: C7_9  and  O3_10 
REMARK    6  A    between atoms: O3_10  and  C8_11 
REMARK    7  A    between atoms: C8_11  and  C9_13 
REMARK    8  A    between atoms: C13_17  and  N1_18 
REMARK       I    between atoms: N1_18  and  C14_20 
REMARK    9  A    between atoms: C14_20  and  C15_22 
REMARK   10  A    between atoms: C18_26  and  O6_27 
REMARK   11  A    between atoms: C19_29  and  O7_30 
ROOT
HETATM    1  C4  UNL     1       6.062  37.259  22.687  1.00  0.00     0.292 C 
HETATM    2  O2  UNL     1       5.629  37.272  23.988  1.00  0.00    -0.344 OA
HETATM    3  C5  UNL     1       4.378  36.844  24.256  1.00  0.00     0.105 C 
HETATM    4  C6  UNL     1       4.500  36.111  25.627  1.00  0.00     0.051 C 
HETATM    5  C13 UNL     1       3.770  35.833  23.328  1.00  0.00     0.152 C 
HETATM    6  C18 UNL     1       4.414  35.668  22.004  1.00  0.00     0.177 C 
HETATM    7  C19 UNL     1       5.922  35.820  22.195  1.00  0.00     0.204 C 
ENDROOT
BRANCH   3   8
HETATM    8  C7  UNL     1       3.431  37.982  24.547  1.00  0.00     0.218 C 
BRANCH   8   9
HETATM    9  O3  UNL     1       3.350  39.001  23.644  1.00  0.00    -0.318 OA
BRANCH   9  10
HETATM   10  C8  UNL     1       3.742  40.289  23.625  1.00  0.00     0.266 C 
HETATM   11  O4  UNL     1       3.477  41.010  24.613  1.00  0.00    -0.264 OA
BRANCH  10  12
HETATM   12  C9  UNL     1       4.487  40.911  22.471  1.00  0.00     0.037 C 
HETATM   13  C10 UNL     1       4.229  40.096  21.249  1.00  0.00     0.025 C 
HETATM   14  C11 UNL     1       5.968  40.970  22.763  1.00  0.00     0.025 C 
HETATM   15  C12 UNL     1       4.030  42.346  22.258  1.00  0.00     0.025 C 
ENDBRANCH  10  12
ENDBRANCH   9  10
ENDBRANCH   8   9
ENDBRANCH   3   8
BRANCH   5  16
HETATM   16  N1  UNL     1       2.370  36.157  23.089  1.00  0.00    -0.349 N 
HETATM   17  C14 UNL     1       1.293  35.371  23.597  1.00  0.00     0.241 C 
HETATM   18  O5  UNL     1       1.615  34.366  24.277  1.00  0.00    -0.271 OA
ATOM     19  H1  UNL     1       2.150  36.983  22.533  1.00  0.00     0.163 HD
BRANCH  17  20
HETATM   20  C15 UNL     1      -0.114  35.677  23.369  1.00  0.00     0.110 C 
HETATM   21  C16 UNL     1      -0.559  36.999  23.951  1.00  0.00     0.042 C 
HETATM   22  C17 UNL     1      -0.466  35.725  21.885  1.00  0.00     0.042 C 
HETATM   23 CL1  UNL     1      -1.121  34.414  24.093  1.00  0.00    -0.110 Cl
ENDBRANCH  17  20
ENDBRANCH   5  16
BRANCH   1  24
HETATM   24  O1  UNL     1       7.354  37.713  22.608  1.00  0.00    -0.359 OA
BRANCH  24  25
HETATM   25  C3  UNL     1       7.910  37.923  23.869  1.00  0.00     0.170 C 
BRANCH  25  26
HETATM   26  C2  UNL     1       8.990  36.909  24.177  1.00  0.00     0.022 C 
HETATM   27  C1  UNL     1       8.497  36.132  25.404  1.00  0.00     0.007 C 
ENDBRANCH  25  26
ENDBRANCH  24  25
ENDBRANCH   1  24
BRANCH   6  28
HETATM   28  O6  UNL     1       3.980  36.517  21.019  1.00  0.00    -0.391 OA
ATOM     29  H6  UNL     1       4.080  36.203  20.128  1.00  0.00     0.210 HD
ENDBRANCH   6  28
BRANCH   7  30
HETATM   30  O7  UNL     1       6.562  35.618  20.988  1.00  0.00    -0.388 OA
ATOM     31  H7  UNL     1       7.038  36.388  20.702  1.00  0.00     0.210 HD
ENDBRANCH   7  30
TORSDOF 11
ENDMDL
MODEL 2
REMARK VINA RESULT: -6.677126606      2.787      5.841
REMARK  11 active torsions:
REMARK  status: ('A' for Active; 'I' for Inactive)
REMARK    1  A    between atoms: C2_2  and  C3_3 
REMARK    2  A    between atoms: C3_3  and  O1_4 
REMARK    3  A    between atoms: O1_4  and  C4_5 
REMARK    4  A    between atoms: C5_7  and  C7_9 
REMARK    5  A    between atoms: C7_9  and  O3_10 
REMARK    6  A    between atoms: O3_10  and  C8_11 
REMARK    7  A    between atoms: C8_11  and  C9_13 
REMARK    8  A    between atoms: C13_17  and  N1_18 
REMARK       I    between atoms: N1_18  and  C14_20 
REMARK    9  A    between atoms: C14_20  and  C15_22 
REMARK   10  A    between atoms: C18_26  and  O6_27 
REMARK   11  A    between atoms: C19_29  and  O7_30 
ROOT
HETATM    1  C4  UNL     1       2.690  35.132  25.677  1.00  0.00     0.292 C 
HETATM    2  O2  UNL     1       2.890  36.121  26.606  1.00  0.00    -0.344 OA
HETATM    3  C5  UNL     1       3.260  37.345  26.177  1.00  0.00     0.105 C 
HETATM    4  C6  UNL     1       2.527  38.335  27.134  1.00  0.00     0.051 C 
HETATM    5  C13 UNL     1       2.841  37.759  24.796  1.00  0.00     0.152 C 
HETATM    6  C18 UNL     1       2.396  36.682  23.881  1.00  0.00     0.177 C 
HETATM    7  C19 UNL     1       1.629  35.652  24.708  1.00  0.00     0.204 C 
ENDROOT
BRANCH   3   8
HETATM    8  C7  UNL     1       4.721  37.625  26.430  1.00  0.00     0.218 C 
BRANCH   8   9
HETATM    9  O3  UNL     1       5.631  36.673  26.075  1.00  0.00    -0.318 OA
BRANCH   9  10
HETATM   10  C8  UNL     1       6.579  36.571  25.125  1.00  0.00     0.266 C 
HETATM   11  O4  UNL     1       6.224  36.331  23.949  1.00  0.00    -0.264 OA
BRANCH  10  12
HETATM   12  C9  UNL     1       8.053  36.729  25.404  1.00  0.00     0.037 C 
HETATM   13  C10 UNL     1       8.472  35.654  26.347  1.00  0.00     0.025 C 
HETATM   14  C11 UNL     1       8.339  38.090  25.994  1.00  0.00     0.025 C 
HETATM   15  C12 UNL     1       8.848  36.642  24.110  1.00  0.00     0.025 C 
ENDBRANCH  10  12
ENDBRANCH   9  10
ENDBRANCH   8   9
ENDBRANCH   3   8
BRANCH   5  16
HETATM   16  N1  UNL     1       3.932  38.462  24.136  1.00  0.00    -0.349 N 
HETATM   17  C14 UNL     1       3.870  39.844  23.791  1.00  0.00     0.241 C 
HETATM   18  O5  UNL     1       2.808  40.442  24.092  1.00  0.00    -0.271 OA
ATOM     19  H1  UNL     1       4.780  37.942  23.909  1.00  0.00     0.163 HD
BRANCH  17  20
HETATM   20  C15 UNL     1       4.950  40.567  23.129  1.00  0.00     0.110 C 
HETATM   21  C16 UNL     1       5.340  41.856  23.816  1.00  0.00     0.042 C 
HETATM   22  C17 UNL     1       6.227  39.737  23.024  1.00  0.00     0.042 C 
HETATM   23 CL1  UNL     1       4.467  40.974  21.476  1.00  0.00    -0.110 Cl
ENDBRANCH  17  20
ENDBRANCH   5  16
BRANCH   1  24
HETATM   24  O1  UNL     1       2.308  33.968  26.293  1.00  0.00    -0.359 OA
BRANCH  24  25
HETATM   25  C3  UNL     1       3.271  32.968  26.161  1.00  0.00     0.170 C 
BRANCH  25  26
HETATM   26  C2  UNL     1       2.639  31.614  25.923  1.00  0.00     0.022 C 
HETATM   27  C1  UNL     1       3.724  30.755  25.262  1.00  0.00     0.007 C 
ENDBRANCH  25  26
ENDBRANCH  24  25
ENDBRANCH   1  24
BRANCH   6  28
HETATM   28  O6  UNL     1       3.386  36.060  23.163  1.00  0.00    -0.391 OA
ATOM     29  H6  UNL     1       3.447  36.302  22.247  1.00  0.00     0.210 HD
ENDBRANCH   6  28
BRANCH   7  30
HETATM   30  O7  UNL     1       1.152  34.657  23.879  1.00  0.00    -0.388 OA
ATOM     31  H7  UNL     1       1.467  34.752  22.988  1.00  0.00     0.210 HD
ENDBRANCH   7  30
TORSDOF 11
ENDMDL
MODEL 3
REMARK VINA RESULT: -6.666576554      0.621      1.192
REMARK  11 active torsions:
REMARK  status: ('A' for Active; 'I' for Inactive)
REMARK    1  A    between atoms: C2_2  and  C3_3 
REMARK    2  A    between atoms: C3_3  and  O1_4 
REMARK    3  A    between atoms: O1_4  and  C4_5 
REMARK    4  A    between atoms: C5_7  and  C7_9 
REMARK    5  A    between atoms: C7_9  and  O3_10 
REMARK    6  A    between atoms: O3_10  and  C8_11 
REMARK    7  A    between atoms: C8_11  and  C9_13 
REMARK    8  A    between atoms: C13_17  and  N1_18 
REMARK       I    between atoms: N1_18  and  C14_20 
REMARK    9  A    between atoms: C14_20  and  C15_22 
REMARK   10  A    between atoms: C18_26  and  O6_27 
REMARK   11  A    between atoms: C19_29  and  O7_30 
ROOT
HETATM    1  C4  UNL     1       6.002  37.271  22.699  1.00  0.00     0.292 C 
HETATM    2  O2  UNL     1       5.580  37.304  24.003  1.00  0.00    -0.344 OA
HETATM    3  C5  UNL     1       4.341  36.853  24.292  1.00  0.00     0.105 C 
HETATM    4  C6  UNL     1       4.491  36.154  25.678  1.00  0.00     0.051 C 
HETATM    5  C13 UNL     1       3.749  35.807  23.392  1.00  0.00     0.152 C 
HETATM    6  C18 UNL     1       4.385  35.628  22.067  1.00  0.00     0.177 C 
HETATM    7  C19 UNL     1       5.891  35.818  22.240  1.00  0.00     0.204 C 
ENDROOT
BRANCH   3   8
HETATM    8  C7  UNL     1       3.371  37.975  24.566  1.00  0.00     0.218 C 
BRANCH   8   9
HETATM    9  O3  UNL     1       3.289  38.994  23.662  1.00  0.00    -0.318 OA
BRANCH   9  10
HETATM   10  C8  UNL     1       3.726  40.266  23.621  1.00  0.00     0.266 C 
HETATM   11  O4  UNL     1       3.553  40.990  24.627  1.00  0.00    -0.264 OA
BRANCH  10  12
HETATM   12  C9  UNL     1       4.414  40.868  22.422  1.00  0.00     0.037 C 
HETATM   13  C10 UNL     1       5.867  41.001  22.730  1.00  0.00     0.025 C 
HETATM   14  C11 UNL     1       3.820  42.216  22.090  1.00  0.00     0.025 C 
HETATM   15  C12 UNL     1       4.209  39.990  21.198  1.00  0.00     0.025 C 
ENDBRANCH  10  12
ENDBRANCH   9  10
ENDBRANCH   8   9
ENDBRANCH   3   8
BRANCH   5  16
HETATM   16  N1  UNL     1       2.340  36.093  23.159  1.00  0.00    -0.349 N 
HETATM   17  C14 UNL     1       1.287  35.274  23.663  1.00  0.00     0.241 C 
HETATM   18  O5  UNL     1       1.638  34.274  24.334  1.00  0.00    -0.271 OA
ATOM     19  H1  UNL     1       2.095  36.917  22.609  1.00  0.00     0.163 HD
BRANCH  17  20
HETATM   20  C15 UNL     1      -0.129  35.541  23.440  1.00  0.00     0.110 C 
HETATM   21  C16 UNL     1      -0.535  35.533  21.983  1.00  0.00     0.042 C 
HETATM   22  C17 UNL     1      -1.030  34.528  24.138  1.00  0.00     0.042 C 
HETATM   23 CL1  UNL     1      -0.544  37.132  24.095  1.00  0.00    -0.110 Cl
ENDBRANCH  17  20
ENDBRANCH   5  16
BRANCH   1  24
HETATM   24  O1  UNL     1       7.282  37.754  22.599  1.00  0.00    -0.359 OA
BRANCH  24  25
HETATM   25  C3  UNL     1       7.857  37.969  23.850  1.00  0.00     0.170 C 
BRANCH  25  26
HETATM   26  C2  UNL     1       8.965  36.978  24.132  1.00  0.00     0.022 C 
HETATM   27  C1  UNL     1       8.496  36.156  25.338  1.00  0.00     0.007 C 
ENDBRANCH  25  26
ENDBRANCH  24  25
ENDBRANCH   1  24
BRANCH   6  28
HETATM   28  O6  UNL     1       3.924  36.444  21.066  1.00  0.00    -0.391 OA
ATOM     29  H6  UNL     1       4.228  37.344  21.093  1.00  0.00     0.210 HD
ENDBRANCH   6  28
BRANCH   7  30
HETATM   30  O7  UNL     1       6.525  35.605  21.033  1.00  0.00    -0.388 OA
ATOM     31  H7  UNL     1       6.555  34.684  20.802  1.00  0.00     0.210 HD
ENDBRANCH   7  30
TORSDOF 11
ENDMDL
MODEL 4
REMARK VINA RESULT: -6.642132484      2.568      6.079
REMARK  11 active torsions:
REMARK  status: ('A' for Active; 'I' for Inactive)
REMARK    1  A    between atoms: C2_2  and  C3_3 
REMARK    2  A    between atoms: C3_3  and  O1_4 
REMARK    3  A    between atoms: O1_4  and  C4_5 
REMARK    4  A    between atoms: C5_7  and  C7_9 
REMARK    5  A    between atoms: C7_9  and  O3_10 
REMARK    6  A    between atoms: O3_10  and  C8_11 
REMARK    7  A    between atoms: C8_11  and  C9_13 
REMARK    8  A    between atoms: C13_17  and  N1_18 
REMARK       I    between atoms: N1_18  and  C14_20 
REMARK    9  A    between atoms: C14_20  and  C15_22 
REMARK   10  A    between atoms: C18_26  and  O6_27 
REMARK   11  A    between atoms: C19_29  and  O7_30 
ROOT
HETATM    1  C4  UNL     1       1.214  34.953  25.141  1.00  0.00     0.292 C 
HETATM    2  O2  UNL     1       2.369  35.158  25.849  1.00  0.00    -0.344 OA
HETATM    3  C5  UNL     1       3.159  36.197  25.509  1.00  0.00     0.105 C 
HETATM    4  C6  UNL     1       3.724  36.722  26.865  1.00  0.00     0.051 C 
HETATM    5  C13 UNL     1       2.510  37.391  24.871  1.00  0.00     0.152 C 
HETATM    6  C18 UNL     1       1.148  37.198  24.321  1.00  0.00     0.177 C 
HETATM    7  C19 UNL     1       0.400  36.241  25.249  1.00  0.00     0.204 C 
ENDROOT
BRANCH   3   8
HETATM    8  C7  UNL     1       4.393  35.759  24.758  1.00  0.00     0.218 C 
BRANCH   8   9
HETATM    9  O3  UNL     1       5.569  36.398  25.022  1.00  0.00    -0.318 OA
BRANCH   9  10
HETATM   10  C8  UNL     1       6.737  36.548  24.370  1.00  0.00     0.266 C 
HETATM   11  O4  UNL     1       6.752  36.397  23.128  1.00  0.00    -0.264 OA
BRANCH  10  12
HETATM   12  C9  UNL     1       8.034  36.888  25.059  1.00  0.00     0.037 C 
HETATM   13  C10 UNL     1       9.108  36.972  24.029  1.00  0.00     0.025 C 
HETATM   14  C11 UNL     1       8.377  35.841  26.094  1.00  0.00     0.025 C 
HETATM   15  C12 UNL     1       7.908  38.208  25.804  1.00  0.00     0.025 C 
ENDBRANCH  10  12
ENDBRANCH   9  10
ENDBRANCH   8   9
ENDBRANCH   3   8
BRANCH   5  16
HETATM   16  N1  UNL     1       3.345  37.891  23.787  1.00  0.00    -0.349 N 
HETATM   17  C14 UNL     1       3.775  39.248  23.700  1.00  0.00     0.241 C 
HETATM   18  O5  UNL     1       3.394  40.009  24.623  1.00  0.00    -0.271 OA
ATOM     19  H1  UNL     1       3.635  37.241  23.058  1.00  0.00     0.163 HD
BRANCH  17  20
HETATM   20  C15 UNL     1       4.609  39.769  22.624  1.00  0.00     0.110 C 
HETATM   21  C16 UNL     1       4.206  41.144  22.142  1.00  0.00     0.042 C 
HETATM   22  C17 UNL     1       6.078  39.873  23.024  1.00  0.00     0.042 C 
HETATM   23 CL1  UNL     1       4.534  38.678  21.232  1.00  0.00    -0.110 Cl
ENDBRANCH  17  20
ENDBRANCH   5  16
BRANCH   1  24
HETATM   24  O1  UNL     1       0.537  33.867  25.634  1.00  0.00    -0.359 OA
BRANCH  24  25
HETATM   25  C3  UNL     1       1.246  32.681  25.446  1.00  0.00     0.170 C 
BRANCH  25  26
HETATM   26  C2  UNL     1       1.238  31.823  26.692  1.00  0.00     0.022 C 
HETATM   27  C1  UNL     1       1.314  30.372  26.202  1.00  0.00     0.007 C 
ENDBRANCH  25  26
ENDBRANCH  24  25
ENDBRANCH   1  24
BRANCH   6  28
HETATM   28  O6  UNL     1       1.084  36.740  23.030  1.00  0.00    -0.391 OA
ATOM     29  H6  UNL     1       0.516  37.228  22.446  1.00  0.00     0.210 HD
ENDBRANCH   6  28
BRANCH   7  30
HETATM   30  O7  UNL     1      -0.894  36.079  24.798  1.00  0.00    -0.388 OA
ATOM     31  H7  UNL     1      -1.441  36.829  25.000  1.00  0.00     0.210 HD
ENDBRANCH   7  30
TORSDOF 11
ENDMDL
MODEL 5
REMARK VINA RESULT: -6.627892550      2.725      6.096
REMARK  11 active torsions:
REMARK  status: ('A' for Active; 'I' for Inactive)
REMARK    1  A    between atoms: C2_2  and  C3_3 
REMARK    2  A    between atoms: C3_3  and  O1_4 
REMARK    3  A    between atoms: O1_4  and  C4_5 
REMARK    4  A    between atoms: C5_7  and  C7_9 
REMARK    5  A    between atoms: C7_9  and  O3_10 
REMARK    6  A    between atoms: O3_10  and  C8_11 
REMARK    7  A    between atoms: C8_11  and  C9_13 
REMARK    8  A    between atoms: C13_17  and  N1_18 
REMARK       I    between atoms: N1_18  and  C14_20 
REMARK    9  A    between atoms: C14_20  and  C15_22 
REMARK   10  A    between atoms: C18_26  and  O6_27 
REMARK   11  A    between atoms: C19_29  and  O7_30 
ROOT
HETATM    1  C4  UNL     1       1.247  34.885  25.042  1.00  0.00     0.292 C 
HETATM    2  O2  UNL     1       2.411  35.132  25.722  1.00  0.00    -0.344 OA
HETATM    3  C5  UNL     1       3.150  36.204  25.369  1.00  0.00     0.105 C 
HETATM    4  C6  UNL     1       3.729  36.742  26.713  1.00  0.00     0.051 C 
HETATM    5  C13 UNL     1       2.438  37.375  24.756  1.00  0.00     0.152 C 
HETATM    6  C18 UNL     1       1.071  37.130  24.240  1.00  0.00     0.177 C 
HETATM    7  C19 UNL     1       0.386  36.139  25.180  1.00  0.00     0.204 C 
ENDROOT
BRANCH   3   8
HETATM    8  C7  UNL     1       4.381  35.820  24.584  1.00  0.00     0.218 C 
BRANCH   8   9
HETATM    9  O3  UNL     1       5.558  36.440  24.884  1.00  0.00    -0.318 OA
BRANCH   9  10
HETATM   10  C8  UNL     1       6.743  36.586  24.262  1.00  0.00     0.266 C 
HETATM   11  O4  UNL     1       6.790  36.423  23.022  1.00  0.00    -0.264 OA
BRANCH  10  12
HETATM   12  C9  UNL     1       8.020  36.935  24.982  1.00  0.00     0.037 C 
HETATM   13  C10 UNL     1       8.350  35.825  25.922  1.00  0.00     0.025 C 
HETATM   14  C11 UNL     1       7.868  38.236  25.735  1.00  0.00     0.025 C 
HETATM   15  C12 UNL     1       9.151  37.140  23.985  1.00  0.00     0.025 C 
ENDBRANCH  10  12
ENDBRANCH   9  10
ENDBRANCH   8   9
ENDBRANCH   3   8
BRANCH   5  16
HETATM   16  N1  UNL     1       3.224  37.914  23.655  1.00  0.00    -0.349 N 
HETATM   17  C14 UNL     1       3.746  39.241  23.649  1.00  0.00     0.241 C 
HETATM   18  O5  UNL     1       3.492  39.939  24.661  1.00  0.00    -0.271 OA
ATOM     19  H1  UNL     1       3.410  37.314  22.851  1.00  0.00     0.163 HD
BRANCH  17  20
HETATM   20  C15 UNL     1       4.534  39.801  22.557  1.00  0.00     0.110 C 
HETATM   21  C16 UNL     1       4.471  38.996  21.278  1.00  0.00     0.042 C 
HETATM   22  C17 UNL     1       4.098  41.216  22.191  1.00  0.00     0.042 C 
HETATM   23 CL1  UNL     1       6.234  39.897  23.040  1.00  0.00    -0.110 Cl
ENDBRANCH  17  20
ENDBRANCH   5  16
BRANCH   1  24
HETATM   24  O1  UNL     1       0.627  33.770  25.544  1.00  0.00    -0.359 OA
BRANCH  24  25
HETATM   25  C3  UNL     1       1.342  32.606  25.266  1.00  0.00     0.170 C 
BRANCH  25  26
HETATM   26  C2  UNL     1       1.365  31.668  26.453  1.00  0.00     0.022 C 
HETATM   27  C1  UNL     1       1.313  30.251  25.871  1.00  0.00     0.007 C 
ENDBRANCH  25  26
ENDBRANCH  24  25
ENDBRANCH   1  24
BRANCH   6  28
HETATM   28  O6  UNL     1       0.992  36.678  22.948  1.00  0.00    -0.391 OA
ATOM     29  H6  UNL     1       0.115  36.558  22.604  1.00  0.00     0.210 HD
ENDBRANCH   6  28
BRANCH   7  30
HETATM   30  O7  UNL     1      -0.912  35.928  24.761  1.00  0.00    -0.388 OA
ATOM     31  H7  UNL     1      -1.238  36.646  24.231  1.00  0.00     0.210 HD
ENDBRANCH   7  30
TORSDOF 11
ENDMDL
