MODEL 1
REMARK VINA RESULT: -7.871894741      0.000      0.000
REMARK  16 active torsions:
REMARK  status: ('A' for Active; 'I' for Inactive)
REMARK    1  A    between atoms: C2_2  and  C3_3 
REMARK    2  A    between atoms: C3_3  and  C4_4 
REMARK    3  A    between atoms: C4_4  and  C5_5 
REMARK    4  A    between atoms: C5_5  and  C6_6 
REMARK    5  A    between atoms: C7_7  and  C8_8 
REMARK    6  A    between atoms: C8_8  and  O1_9 
REMARK    7  A    between atoms: O1_9  and  C9_10 
REMARK    8  A    between atoms: C11_13  and  O3_14 
REMARK    9  A    between atoms: C12_16  and  O4_17 
REMARK   10  A    between atoms: C13_19  and  O5_20 
REMARK   11  A    between atoms: O5_20  and  C14_21 
REMARK   12  A    between atoms: C15_23  and  C16_24 
REMARK   13  A    between atoms: C17_25  and  C18_26 
REMARK   14  A    between atoms: C20_31  and  O7_32 
REMARK   15  A    between atoms: C21_34  and  O8_35 
REMARK   16  A    between atoms: C22_37  and  O9_38 
ROOT
HETATM    1  O5  UNL     1     -12.833  20.625  26.133  1.00  0.00    -0.348 OA
ENDROOT
BRANCH   1   2
HETATM    2  C13 UNL     1     -13.456  21.547  25.331  1.00  0.00     0.189 C 
HETATM    3  C9  UNL     1     -14.957  21.581  25.521  1.00  0.00     0.178 C 
HETATM    4  C10 UNL     1     -15.439  22.876  26.132  1.00  0.00     0.205 C 
HETATM    5  O2  UNL     1     -14.613  23.268  27.188  1.00  0.00    -0.356 OA
HETATM    6  C11 UNL     1     -13.372  23.641  26.736  1.00  0.00     0.288 C 
HETATM    7  C12 UNL     1     -12.913  22.946  25.498  1.00  0.00     0.204 C 
BRANCH   3   8
HETATM    8  O1  UNL     1     -15.618  21.421  24.307  1.00  0.00    -0.369 OA
BRANCH   8   9
HETATM    9  C8  UNL     1     -16.968  21.170  24.468  1.00  0.00     0.261 C 
BRANCH   9  10
HETATM   10  C7  UNL     1     -17.405  19.918  23.860  1.00  0.00    -0.081 C 
HETATM   11  C6  UNL     1     -17.747  18.876  23.364  1.00  0.00    -0.104 C 
BRANCH  11  12
HETATM   12  C5  UNL     1     -18.179  17.623  22.748  1.00  0.00     0.094 C 
BRANCH  12  13
HETATM   13  C4  UNL     1     -19.496  17.234  23.354  1.00  0.00     0.012 C 
BRANCH  13  14
HETATM   14  C3  UNL     1     -19.376  16.933  24.832  1.00  0.00     0.000 C 
BRANCH  14  15
HETATM   15  C2  UNL     1     -20.504  17.555  25.621  1.00  0.00    -0.005 C 
HETATM   16  C1  UNL     1     -19.944  18.742  26.378  1.00  0.00     0.005 C 
ENDBRANCH  14  15
ENDBRANCH  13  14
ENDBRANCH  12  13
ENDBRANCH  11  12
ENDBRANCH   9  10
ENDBRANCH   8   9
ENDBRANCH   3   8
BRANCH   6  17
HETATM   17  O3  UNL     1     -12.414  23.393  27.743  1.00  0.00    -0.369 OA
ATOM     18  H3  UNL     1     -11.719  24.038  27.682  1.00  0.00     0.212 HD
ENDBRANCH   6  17
BRANCH   7  19
HETATM   19  O4  UNL     1     -13.288  23.677  24.362  1.00  0.00    -0.388 OA
ATOM     20  H4  UNL     1     -13.175  24.608  24.517  1.00  0.00     0.210 HD
ENDBRANCH   7  19
ENDBRANCH   1   2
BRANCH   1  21
HETATM   21  C14 UNL     1     -13.662  20.070  27.121  1.00  0.00     0.292 C 
HETATM   22  O6  UNL     1     -13.297  20.370  28.390  1.00  0.00    -0.347 OA
HETATM   23  C15 UNL     1     -12.393  19.527  29.022  1.00  0.00     0.179 C 
HETATM   24  C20 UNL     1     -11.949  18.370  28.155  1.00  0.00     0.182 C 
HETATM   25  C21 UNL     1     -13.088  17.649  27.518  1.00  0.00     0.183 C 
HETATM   26  C22 UNL     1     -13.987  18.624  26.844  1.00  0.00     0.204 C 
BRANCH  23  27
HETATM   27  C16 UNL     1     -13.088  18.933  30.178  1.00  0.00     0.009 C 
HETATM   28  C17 UNL     1     -12.755  18.058  31.042  1.00  0.00     0.022 C 
BRANCH  28  29
HETATM   29  C18 UNL     1     -11.569  17.303  31.236  1.00  0.00    -0.002 C 
HETATM   30  C19 UNL     1     -10.409  17.706  32.034  1.00  0.00     0.067 C 
HETATM   31  N1  UNL     1     -11.486  16.116  30.641  1.00  0.00    -0.403 N 
ATOM     32  H12 UNL     1     -12.294  15.835  30.086  1.00  0.00     0.156 HD
ATOM     33  H11 UNL     1     -10.633  15.573  30.781  1.00  0.00     0.156 HD
ENDBRANCH  28  29
ENDBRANCH  23  27
BRANCH  24  34
HETATM   34  O7  UNL     1     -10.999  18.701  27.215  1.00  0.00    -0.390 OA
ATOM     35  H7  UNL     1     -11.236  19.438  26.664  1.00  0.00     0.210 HD
ENDBRANCH  24  34
BRANCH  25  36
HETATM   36  O8  UNL     1     -13.759  16.819  28.416  1.00  0.00    -0.390 OA
ATOM     37  H8  UNL     1     -13.954  17.257  29.237  1.00  0.00     0.210 HD
ENDBRANCH  25  36
BRANCH  26  38
HETATM   38  O9  UNL     1     -15.304  18.318  27.259  1.00  0.00    -0.388 OA
ATOM     39  H9  UNL     1     -15.480  17.389  27.163  1.00  0.00     0.210 HD
ENDBRANCH  26  38
ENDBRANCH   1  21
TORSDOF 16
ENDMDL
MODEL 2
REMARK VINA RESULT: -7.627280296      1.103      1.422
REMARK  16 active torsions:
REMARK  status: ('A' for Active; 'I' for Inactive)
REMARK    1  A    between atoms: C2_2  and  C3_3 
REMARK    2  A    between atoms: C3_3  and  C4_4 
REMARK    3  A    between atoms: C4_4  and  C5_5 
REMARK    4  A    between atoms: C5_5  and  C6_6 
REMARK    5  A    between atoms: C7_7  and  C8_8 
REMARK    6  A    between atoms: C8_8  and  O1_9 
REMARK    7  A    between atoms: O1_9  and  C9_10 
REMARK    8  A    between atoms: C11_13  and  O3_14 
REMARK    9  A    between atoms: C12_16  and  O4_17 
REMARK   10  A    between atoms: C13_19  and  O5_20 
REMARK   11  A    between atoms: O5_20  and  C14_21 
REMARK   12  A    between atoms: C15_23  and  C16_24 
REMARK   13  A    between atoms: C17_25  and  C18_26 
REMARK   14  A    between atoms: C20_31  and  O7_32 
REMARK   15  A    between atoms: C21_34  and  O8_35 
REMARK   16  A    between atoms: C22_37  and  O9_38 
ROOT
HETATM    1  O5  UNL     1     -13.804  20.846  27.790  1.00  0.00    -0.348 OA
ENDROOT
BRANCH   1   2
HETATM    2  C13 UNL     1     -14.410  20.685  26.570  1.00  0.00     0.189 C 
HETATM    3  C9  UNL     1     -15.672  21.507  26.422  1.00  0.00     0.178 C 
HETATM    4  C10 UNL     1     -15.538  22.601  25.389  1.00  0.00     0.205 C 
HETATM    5  O2  UNL     1     -14.313  23.258  25.513  1.00  0.00    -0.356 OA
HETATM    6  C11 UNL     1     -13.271  22.438  25.158  1.00  0.00     0.288 C 
HETATM    7  C12 UNL     1     -13.496  20.984  25.407  1.00  0.00     0.204 C 
BRANCH   3   8
HETATM    8  O1  UNL     1     -16.747  20.708  26.047  1.00  0.00    -0.369 OA
BRANCH   8   9
HETATM    9  C8  UNL     1     -17.196  20.988  24.769  1.00  0.00     0.261 C 
BRANCH   9  10
HETATM   10  C7  UNL     1     -17.594  19.803  24.018  1.00  0.00    -0.081 C 
HETATM   11  C6  UNL     1     -17.935  18.818  23.415  1.00  0.00    -0.104 C 
BRANCH  11  12
HETATM   12  C5  UNL     1     -18.329  17.626  22.667  1.00  0.00     0.094 C 
BRANCH  12  13
HETATM   13  C4  UNL     1     -19.581  17.077  23.287  1.00  0.00     0.012 C 
BRANCH  13  14
HETATM   14  C3  UNL     1     -19.434  16.872  24.780  1.00  0.00     0.000 C 
BRANCH  14  15
HETATM   15  C2  UNL     1     -20.639  17.384  25.534  1.00  0.00    -0.005 C 
HETATM   16  C1  UNL     1     -20.189  18.542  26.401  1.00  0.00     0.005 C 
ENDBRANCH  14  15
ENDBRANCH  13  14
ENDBRANCH  12  13
ENDBRANCH  11  12
ENDBRANCH   9  10
ENDBRANCH   8   9
ENDBRANCH   3   8
BRANCH   6  17
HETATM   17  O3  UNL     1     -12.113  22.818  25.871  1.00  0.00    -0.369 OA
ATOM     18  H3  UNL     1     -12.053  22.305  26.668  1.00  0.00     0.212 HD
ENDBRANCH   6  17
BRANCH   7  19
HETATM   19  O4  UNL     1     -14.053  20.377  24.272  1.00  0.00    -0.388 OA
ATOM     20  H4  UNL     1     -14.995  20.300  24.368  1.00  0.00     0.210 HD
ENDBRANCH   7  19
ENDBRANCH   1   2
BRANCH   1  21
HETATM   21  C14 UNL     1     -14.196  19.904  28.755  1.00  0.00     0.292 C 
HETATM   22  O6  UNL     1     -13.448  19.915  29.883  1.00  0.00    -0.347 OA
HETATM   23  C15 UNL     1     -12.314  19.116  29.919  1.00  0.00     0.179 C 
HETATM   24  C20 UNL     1     -12.093  18.335  28.642  1.00  0.00     0.182 C 
HETATM   25  C21 UNL     1     -13.314  17.613  28.184  1.00  0.00     0.183 C 
HETATM   26  C22 UNL     1     -14.469  18.550  28.150  1.00  0.00     0.204 C 
BRANCH  23  27
HETATM   27  C16 UNL     1     -12.520  18.116  30.983  1.00  0.00     0.009 C 
HETATM   28  C17 UNL     1     -11.723  17.457  31.727  1.00  0.00     0.022 C 
BRANCH  28  29
HETATM   29  C18 UNL     1     -10.308  17.424  31.828  1.00  0.00    -0.002 C 
HETATM   30  C19 UNL     1      -9.507  17.974  32.924  1.00  0.00     0.067 C 
HETATM   31  N1  UNL     1      -9.630  16.845  30.840  1.00  0.00    -0.403 N 
ATOM     32  H12 UNL     1     -10.187  16.462  30.078  1.00  0.00     0.156 HD
ATOM     33  H11 UNL     1      -8.612  16.822  30.913  1.00  0.00     0.156 HD
ENDBRANCH  28  29
ENDBRANCH  23  27
BRANCH  24  34
HETATM   34  O7  UNL     1     -11.552  19.074  27.615  1.00  0.00    -0.390 OA
ATOM     35  H7  UNL     1     -11.078  19.847  27.899  1.00  0.00     0.210 HD
ENDBRANCH  24  34
BRANCH  25  36
HETATM   36  O8  UNL     1     -13.564  16.465  28.934  1.00  0.00    -0.390 OA
ATOM     37  H8  UNL     1     -13.092  15.708  28.606  1.00  0.00     0.210 HD
ENDBRANCH  25  36
BRANCH  26  38
HETATM   38  O9  UNL     1     -15.534  17.907  28.822  1.00  0.00    -0.388 OA
ATOM     39  H9  UNL     1     -15.513  18.104  29.751  1.00  0.00     0.210 HD
ENDBRANCH  26  38
ENDBRANCH   1  21
TORSDOF 16
ENDMDL
MODEL 3
REMARK VINA RESULT: -7.537159302      2.525      5.903
REMARK  16 active torsions:
REMARK  status: ('A' for Active; 'I' for Inactive)
REMARK    1  A    between atoms: C2_2  and  C3_3 
REMARK    2  A    between atoms: C3_3  and  C4_4 
REMARK    3  A    between atoms: C4_4  and  C5_5 
REMARK    4  A    between atoms: C5_5  and  C6_6 
REMARK    5  A    between atoms: C7_7  and  C8_8 
REMARK    6  A    between atoms: C8_8  and  O1_9 
REMARK    7  A    between atoms: O1_9  and  C9_10 
REMARK    8  A    between atoms: C11_13  and  O3_14 
REMARK    9  A    between atoms: C12_16  and  O4_17 
REMARK   10  A    between atoms: C13_19  and  O5_20 
REMARK   11  A    between atoms: O5_20  and  C14_21 
REMARK   12  A    between atoms: C15_23  and  C16_24 
REMARK   13  A    between atoms: C17_25  and  C18_26 
REMARK   14  A    between atoms: C20_31  and  O7_32 
REMARK   15  A    between atoms: C21_34  and  O8_35 
REMARK   16  A    between atoms: C22_37  and  O9_38 
ROOT
HETATM    1  O5  UNL     1     -12.672  19.609  29.943  1.00  0.00    -0.348 OA
ENDROOT
BRANCH   1   2
HETATM    2  C13 UNL     1     -13.507  18.522  29.921  1.00  0.00     0.189 C 
HETATM    3  C9  UNL     1     -13.209  17.567  28.786  1.00  0.00     0.178 C 
HETATM    4  C10 UNL     1     -12.686  16.233  29.267  1.00  0.00     0.205 C 
HETATM    5  O2  UNL     1     -11.737  16.403  30.277  1.00  0.00    -0.356 OA
HETATM    6  C11 UNL     1     -12.315  16.884  31.425  1.00  0.00     0.288 C 
HETATM    7  C12 UNL     1     -13.513  17.749  31.217  1.00  0.00     0.204 C 
BRANCH   3   8
HETATM    8  O1  UNL     1     -14.349  17.319  28.028  1.00  0.00    -0.369 OA
BRANCH   8   9
HETATM    9  C8  UNL     1     -14.211  17.728  26.714  1.00  0.00     0.261 C 
BRANCH   9  10
HETATM   10  C7  UNL     1     -15.361  18.471  26.210  1.00  0.00    -0.081 C 
HETATM   11  C6  UNL     1     -16.301  19.102  25.803  1.00  0.00    -0.104 C 
BRANCH  11  12
HETATM   12  C5  UNL     1     -17.457  19.847  25.306  1.00  0.00     0.094 C 
BRANCH  12  13
HETATM   13  C4  UNL     1     -17.433  19.801  23.806  1.00  0.00     0.012 C 
BRANCH  13  14
HETATM   14  C3  UNL     1     -17.601  18.393  23.277  1.00  0.00     0.000 C 
BRANCH  14  15
HETATM   15  C2  UNL     1     -19.058  18.010  23.163  1.00  0.00    -0.005 C 
HETATM   16  C1  UNL     1     -19.334  16.920  24.179  1.00  0.00     0.005 C 
ENDBRANCH  14  15
ENDBRANCH  13  14
ENDBRANCH  12  13
ENDBRANCH  11  12
ENDBRANCH   9  10
ENDBRANCH   8   9
ENDBRANCH   3   8
BRANCH   6  17
HETATM   17  O3  UNL     1     -11.364  17.641  32.145  1.00  0.00    -0.369 OA
ATOM     18  H3  UNL     1     -10.590  17.766  31.608  1.00  0.00     0.212 HD
ENDBRANCH   6  17
BRANCH   7  19
HETATM   19  O4  UNL     1     -14.681  16.973  31.236  1.00  0.00    -0.388 OA
ATOM     20  H4  UNL     1     -14.956  16.771  30.349  1.00  0.00     0.210 HD
ENDBRANCH   7  19
ENDBRANCH   1   2
BRANCH   1  21
HETATM   21  C14 UNL     1     -13.318  20.834  29.713  1.00  0.00     0.292 C 
HETATM   22  O6  UNL     1     -14.271  20.793  28.752  1.00  0.00    -0.347 OA
HETATM   23  C15 UNL     1     -13.882  21.032  27.441  1.00  0.00     0.179 C 
HETATM   24  C20 UNL     1     -12.402  21.310  27.298  1.00  0.00     0.182 C 
HETATM   25  C21 UNL     1     -11.908  22.335  28.261  1.00  0.00     0.183 C 
HETATM   26  C22 UNL     1     -12.346  21.984  29.638  1.00  0.00     0.204 C 
BRANCH  23  27
HETATM   27  C16 UNL     1     -14.576  22.255  26.998  1.00  0.00     0.009 C 
HETATM   28  C17 UNL     1     -14.640  22.867  25.883  1.00  0.00     0.022 C 
BRANCH  28  29
HETATM   29  C18 UNL     1     -14.064  22.610  24.612  1.00  0.00    -0.002 C 
HETATM   30  C19 UNL     1     -14.053  21.324  23.912  1.00  0.00     0.067 C 
HETATM   31  N1  UNL     1     -13.470  23.622  23.985  1.00  0.00    -0.403 N 
ATOM     32  H12 UNL     1     -13.478  24.518  24.472  1.00  0.00     0.156 HD
ATOM     33  H11 UNL     1     -13.056  23.438  23.071  1.00  0.00     0.156 HD
ENDBRANCH  28  29
ENDBRANCH  23  27
BRANCH  24  34
HETATM   34  O7  UNL     1     -11.610  20.185  27.339  1.00  0.00    -0.390 OA
ATOM     35  H7  UNL     1     -10.867  20.252  27.927  1.00  0.00     0.210 HD
ENDBRANCH  24  34
BRANCH  25  36
HETATM   36  O8  UNL     1     -12.266  23.630  27.887  1.00  0.00    -0.390 OA
ATOM     37  H8  UNL     1     -12.666  24.114  28.600  1.00  0.00     0.210 HD
ENDBRANCH  25  36
BRANCH  26  38
HETATM   38  O9  UNL     1     -12.912  23.155  30.196  1.00  0.00    -0.388 OA
ATOM     39  H9  UNL     1     -12.443  23.414  30.981  1.00  0.00     0.210 HD
ENDBRANCH  26  38
ENDBRANCH   1  21
TORSDOF 16
ENDMDL
MODEL 4
REMARK VINA RESULT: -7.518480765      2.587      7.077
REMARK  16 active torsions:
REMARK  status: ('A' for Active; 'I' for Inactive)
REMARK    1  A    between atoms: C2_2  and  C3_3 
REMARK    2  A    between atoms: C3_3  and  C4_4 
REMARK    3  A    between atoms: C4_4  and  C5_5 
REMARK    4  A    between atoms: C5_5  and  C6_6 
REMARK    5  A    between atoms: C7_7  and  C8_8 
REMARK    6  A    between atoms: C8_8  and  O1_9 
REMARK    7  A    between atoms: O1_9  and  C9_10 
REMARK    8  A    between atoms: C11_13  and  O3_14 
REMARK    9  A    between atoms: C12_16  and  O4_17 
REMARK   10  A    between atoms: C13_19  and  O5_20 
REMARK   11  A    between atoms: O5_20  and  C14_21 
REMARK   12  A    between atoms: C15_23  and  C16_24 
REMARK   13  A    between atoms: C17_25  and  C18_26 
REMARK   14  A    between atoms: C20_31  and  O7_32 
REMARK   15  A    between atoms: C21_34  and  O8_35 
REMARK   16  A    between atoms: C22_37  and  O9_38 
ROOT
HETATM    1  O5  UNL     1     -14.126  20.021  25.781  1.00  0.00    -0.348 OA
ENDROOT
BRANCH   1   2
HETATM    2  C13 UNL     1     -13.288  20.426  26.788  1.00  0.00     0.189 C 
HETATM    3  C9  UNL     1     -11.897  20.771  26.300  1.00  0.00     0.178 C 
HETATM    4  C10 UNL     1     -11.578  22.241  26.440  1.00  0.00     0.205 C 
HETATM    5  O2  UNL     1     -12.655  23.028  26.028  1.00  0.00    -0.356 OA
HETATM    6  C11 UNL     1     -13.715  22.910  26.892  1.00  0.00     0.288 C 
HETATM    7  C12 UNL     1     -13.827  21.591  27.581  1.00  0.00     0.204 C 
BRANCH   3   8
HETATM    8  O1  UNL     1     -10.930  20.064  27.007  1.00  0.00    -0.369 OA
BRANCH   8   9
HETATM    9  C8  UNL     1     -11.122  18.696  26.946  1.00  0.00     0.261 C 
BRANCH   9  10
HETATM   10  C7  UNL     1     -10.907  18.019  28.220  1.00  0.00    -0.081 C 
HETATM   11  C6  UNL     1     -10.723  17.443  29.261  1.00  0.00    -0.104 C 
BRANCH  11  12
HETATM   12  C5  UNL     1     -10.514  16.760  30.536  1.00  0.00     0.094 C 
BRANCH  12  13
HETATM   13  C4  UNL     1     -11.309  17.479  31.587  1.00  0.00     0.012 C 
BRANCH  13  14
HETATM   14  C3  UNL     1     -12.785  17.521  31.256  1.00  0.00     0.000 C 
BRANCH  14  15
HETATM   15  C2  UNL     1     -13.431  16.165  31.414  1.00  0.00    -0.005 C 
HETATM   16  C1  UNL     1     -14.039  15.779  30.080  1.00  0.00     0.005 C 
ENDBRANCH  14  15
ENDBRANCH  13  14
ENDBRANCH  12  13
ENDBRANCH  11  12
ENDBRANCH   9  10
ENDBRANCH   8   9
ENDBRANCH   3   8
BRANCH   6  17
HETATM   17  O3  UNL     1     -14.919  23.126  26.187  1.00  0.00    -0.369 OA
ATOM     18  H3  UNL     1     -15.482  22.367  26.285  1.00  0.00     0.212 HD
ENDBRANCH   6  17
BRANCH   7  19
HETATM   19  O4  UNL     1     -13.139  21.620  28.802  1.00  0.00    -0.388 OA
ATOM     20  H4  UNL     1     -13.270  20.805  29.273  1.00  0.00     0.210 HD
ENDBRANCH   7  19
ENDBRANCH   1   2
BRANCH   1  21
HETATM   21  C14 UNL     1     -15.168  19.180  26.203  1.00  0.00     0.292 C 
HETATM   22  O6  UNL     1     -15.571  18.280  25.276  1.00  0.00    -0.347 OA
HETATM   23  C15 UNL     1     -16.568  18.662  24.389  1.00  0.00     0.179 C 
HETATM   24  C20 UNL     1     -17.058  20.075  24.614  1.00  0.00     0.182 C 
HETATM   25  C21 UNL     1     -17.392  20.354  26.039  1.00  0.00     0.183 C 
HETATM   26  C22 UNL     1     -16.260  19.940  26.912  1.00  0.00     0.204 C 
BRANCH  23  27
HETATM   27  C16 UNL     1     -17.725  17.781  24.630  1.00  0.00     0.009 C 
HETATM   28  C17 UNL     1     -18.640  17.315  23.875  1.00  0.00     0.022 C 
BRANCH  28  29
HETATM   29  C18 UNL     1     -18.908  17.460  22.490  1.00  0.00    -0.002 C 
HETATM   30  C19 UNL     1     -20.166  17.920  21.897  1.00  0.00     0.067 C 
HETATM   31  N1  UNL     1     -17.938  17.148  21.634  1.00  0.00    -0.403 N 
ATOM     32  H12 UNL     1     -17.062  16.828  22.047  1.00  0.00     0.156 HD
ATOM     33  H11 UNL     1     -18.131  17.252  20.638  1.00  0.00     0.156 HD
ENDBRANCH  28  29
ENDBRANCH  23  27
BRANCH  24  34
HETATM   34  O7  UNL     1     -16.223  21.048  24.112  1.00  0.00    -0.390 OA
ATOM     35  H7  UNL     1     -15.952  20.902  23.213  1.00  0.00     0.210 HD
ENDBRANCH  24  34
BRANCH  25  36
HETATM   36  O8  UNL     1     -18.609  19.790  26.419  1.00  0.00    -0.390 OA
ATOM     37  H8  UNL     1     -18.772  19.877  27.352  1.00  0.00     0.210 HD
ENDBRANCH  25  36
BRANCH  26  38
HETATM   38  O9  UNL     1     -16.814  19.164  27.956  1.00  0.00    -0.388 OA
ATOM     39  H9  UNL     1     -16.187  19.052  28.661  1.00  0.00     0.210 HD
ENDBRANCH  26  38
ENDBRANCH   1  21
TORSDOF 16
ENDMDL
MODEL 5
REMARK VINA RESULT: -7.513627189      2.650      6.965
REMARK  16 active torsions:
REMARK  status: ('A' for Active; 'I' for Inactive)
REMARK    1  A    between atoms: C2_2  and  C3_3 
REMARK    2  A    between atoms: C3_3  and  C4_4 
REMARK    3  A    between atoms: C4_4  and  C5_5 
REMARK    4  A    between atoms: C5_5  and  C6_6 
REMARK    5  A    between atoms: C7_7  and  C8_8 
REMARK    6  A    between atoms: C8_8  and  O1_9 
REMARK    7  A    between atoms: O1_9  and  C9_10 
REMARK    8  A    between atoms: C11_13  and  O3_14 
REMARK    9  A    between atoms: C12_16  and  O4_17 
REMARK   10  A    between atoms: C13_19  and  O5_20 
REMARK   11  A    between atoms: O5_20  and  C14_21 
REMARK   12  A    between atoms: C15_23  and  C16_24 
REMARK   13  A    between atoms: C17_25  and  C18_26 
REMARK   14  A    between atoms: C20_31  and  O7_32 
REMARK   15  A    between atoms: C21_34  and  O8_35 
REMARK   16  A    between atoms: C22_37  and  O9_38 
ROOT
HETATM    1  O5  UNL     1     -14.416  20.094  26.030  1.00  0.00    -0.348 OA
ENDROOT
BRANCH   1   2
HETATM    2  C13 UNL     1     -14.232  21.165  26.868  1.00  0.00     0.189 C 
HETATM    3  C9  UNL     1     -12.889  21.150  27.564  1.00  0.00     0.178 C 
HETATM    4  C10 UNL     1     -11.990  22.281  27.120  1.00  0.00     0.205 C 
HETATM    5  O2  UNL     1     -12.033  22.440  25.733  1.00  0.00    -0.356 OA
HETATM    6  C11 UNL     1     -13.257  22.907  25.325  1.00  0.00     0.288 C 
HETATM    7  C12 UNL     1     -14.409  22.496  26.180  1.00  0.00     0.204 C 
BRANCH   3   8
HETATM    8  O1  UNL     1     -13.039  21.253  28.943  1.00  0.00    -0.369 OA
BRANCH   8   9
HETATM    9  C8  UNL     1     -14.229  20.709  29.388  1.00  0.00     0.261 C 
BRANCH   9  10
HETATM   10  C7  UNL     1     -14.172  19.266  29.591  1.00  0.00    -0.081 C 
HETATM   11  C6  UNL     1     -14.112  18.078  29.774  1.00  0.00    -0.104 C 
BRANCH  11  12
HETATM   12  C5  UNL     1     -14.046  16.631  29.974  1.00  0.00     0.094 C 
BRANCH  12  13
HETATM   13  C4  UNL     1     -12.608  16.211  29.878  1.00  0.00     0.012 C 
BRANCH  13  14
HETATM   14  C3  UNL     1     -11.783  16.737  31.033  1.00  0.00     0.000 C 
BRANCH  14  15
HETATM   15  C2  UNL     1     -10.315  16.804  30.683  1.00  0.00    -0.005 C 
HETATM   16  C1  UNL     1     -10.200  17.234  29.234  1.00  0.00     0.005 C 
ENDBRANCH  14  15
ENDBRANCH  13  14
ENDBRANCH  12  13
ENDBRANCH  11  12
ENDBRANCH   9  10
ENDBRANCH   8   9
ENDBRANCH   3   8
BRANCH   6  17
HETATM   17  O3  UNL     1     -13.517  22.451  24.013  1.00  0.00    -0.369 OA
ATOM     18  H3  UNL     1     -14.375  22.044  23.986  1.00  0.00     0.212 HD
ENDBRANCH   6  17
BRANCH   7  19
HETATM   19  O4  UNL     1     -14.639  23.454  27.178  1.00  0.00    -0.388 OA
ATOM     20  H4  UNL     1     -13.965  23.404  27.845  1.00  0.00     0.210 HD
ENDBRANCH   7  19
ENDBRANCH   1   2
BRANCH   1  21
HETATM   21  C14 UNL     1     -15.486  19.260  26.390  1.00  0.00     0.292 C 
HETATM   22  O6  UNL     1     -15.735  18.259  25.512  1.00  0.00    -0.347 OA
HETATM   23  C15 UNL     1     -16.607  18.516  24.464  1.00  0.00     0.179 C 
HETATM   24  C20 UNL     1     -17.157  19.925  24.476  1.00  0.00     0.182 C 
HETATM   25  C21 UNL     1     -17.692  20.329  25.807  1.00  0.00     0.183 C 
HETATM   26  C22 UNL     1     -16.684  20.044  26.862  1.00  0.00     0.204 C 
BRANCH  23  27
HETATM   27  C16 UNL     1     -17.765  17.620  24.633  1.00  0.00     0.009 C 
HETATM   28  C17 UNL     1     -18.674  17.208  23.840  1.00  0.00     0.022 C 
BRANCH  28  29
HETATM   29  C18 UNL     1     -18.931  17.450  22.466  1.00  0.00    -0.002 C 
HETATM   30  C19 UNL     1     -20.180  17.961  21.898  1.00  0.00     0.067 C 
HETATM   31  N1  UNL     1     -17.957  17.188  21.597  1.00  0.00    -0.403 N 
ATOM     32  H12 UNL     1     -17.087  16.833  21.993  1.00  0.00     0.156 HD
ATOM     33  H11 UNL     1     -18.142  17.362  20.609  1.00  0.00     0.156 HD
ENDBRANCH  28  29
ENDBRANCH  23  27
BRANCH  24  34
HETATM   34  O7  UNL     1     -16.284  20.876  23.996  1.00  0.00    -0.390 OA
ATOM     35  H7  UNL     1     -16.707  21.623  23.589  1.00  0.00     0.210 HD
ENDBRANCH  24  34
BRANCH  25  36
HETATM   36  O8  UNL     1     -18.937  19.759  26.072  1.00  0.00    -0.390 OA
ATOM     37  H8  UNL     1     -19.152  19.775  26.998  1.00  0.00     0.210 HD
ENDBRANCH  25  36
BRANCH  26  38
HETATM   38  O9  UNL     1     -17.360  19.352  27.895  1.00  0.00    -0.388 OA
ATOM     39  H9  UNL     1     -17.825  19.960  28.458  1.00  0.00     0.210 HD
ENDBRANCH  26  38
ENDBRANCH   1  21
TORSDOF 16
ENDMDL
