MODEL 1
REMARK VINA RESULT: -7.212227090      0.000      0.000
REMARK  15 active torsions:
REMARK  status: ('A' for Active; 'I' for Inactive)
REMARK    1  A    between atoms: C3_3  and  C4_4 
REMARK    2  A    between atoms: C4_4  and  O1_5 
REMARK    3  A    between atoms: C5_7  and  O2_8 
REMARK    4  A    between atoms: C6_10  and  O3_11 
REMARK    5  A    between atoms: C7_13  and  O4_14 
REMARK    6  A    between atoms: C8_16  and  O5_17 
REMARK    7  A    between atoms: O5_17  and  C9_18 
REMARK    8  A    between atoms: C10_19  and  O6_20 
REMARK    9  A    between atoms: C13_23  and  C14_24 
REMARK   10  A    between atoms: C14_24  and  C15_25 
REMARK   11  A    between atoms: C15_25  and  C16_26 
REMARK   12  A    between atoms: C16_26  and  O7_27 
REMARK   13  A    between atoms: C17_29  and  O8_30 
REMARK   14  A    between atoms: C19_32  and  O9_33 
REMARK   15  A    between atoms: C21_35  and  O10_36 
ROOT
HETATM    1  C4  UNL     1     -12.405  20.484  26.526  1.00  0.00     0.132 C 
HETATM    2  C5  UNL     1     -12.348  21.916  26.942  1.00  0.00     0.190 C 
HETATM    3  C6  UNL     1     -12.908  22.843  25.894  1.00  0.00     0.181 C 
HETATM    4  C7  UNL     1     -13.981  22.217  25.061  1.00  0.00     0.181 C 
HETATM    5  C8  UNL     1     -14.754  21.122  25.825  1.00  0.00     0.192 C 
HETATM    6  C21 UNL     1     -13.846  20.067  26.334  1.00  0.00     0.193 C 
ENDROOT
BRANCH   5   7
HETATM    7  O5  UNL     1     -15.867  20.666  25.120  1.00  0.00    -0.335 OA
BRANCH   7   8
HETATM    8  C9  UNL     1     -17.040  20.142  25.562  1.00  0.00     0.139 A 
HETATM    9  C10 UNL     1     -17.326  20.175  26.911  1.00  0.00     0.105 A 
HETATM   10  C12 UNL     1     -18.474  19.670  27.435  1.00  0.00     0.054 A 
HETATM   11  C13 UNL     1     -19.457  19.075  26.638  1.00  0.00     0.003 A 
HETATM   12  C17 UNL     1     -19.197  19.025  25.290  1.00  0.00     0.114 A 
HETATM   13  C19 UNL     1     -17.998  19.560  24.775  1.00  0.00     0.138 A 
BRANCH   9  14
HETATM   14  O6  UNL     1     -16.416  20.746  27.761  1.00  0.00    -0.353 OA
HETATM   15  C11 UNL     1     -16.633  22.042  28.266  1.00  0.00     0.210 C 
ENDBRANCH   9  14
BRANCH  11  16
HETATM   16  C14 UNL     1     -20.578  18.481  27.309  1.00  0.00     0.016 C 
BRANCH  16  17
HETATM   17  C15 UNL     1     -21.778  18.753  27.553  1.00  0.00     0.025 C 
BRANCH  17  18
HETATM   18  C16 UNL     1     -23.137  18.510  27.133  1.00  0.00     0.131 C 
BRANCH  18  19
HETATM   19  O7  UNL     1     -24.198  18.830  27.886  1.00  0.00    -0.373 OA
ATOM     20  H7  UNL     1     -24.709  19.619  27.747  1.00  0.00     0.216 HD
ENDBRANCH  18  19
ENDBRANCH  17  18
ENDBRANCH  16  17
ENDBRANCH  11  16
BRANCH  12  21
HETATM   21  O8  UNL     1     -20.071  18.449  24.381  1.00  0.00    -0.352 OA
HETATM   22  C18 UNL     1     -20.167  17.022  24.376  1.00  0.00     0.210 C 
ENDBRANCH  12  21
BRANCH  13  23
HETATM   23  O9  UNL     1     -17.845  19.461  23.406  1.00  0.00    -0.351 OA
HETATM   24  C20 UNL     1     -17.206  18.259  22.937  1.00  0.00     0.210 C 
ENDBRANCH  13  23
ENDBRANCH   7   8
ENDBRANCH   5   7
BRANCH   4  25
HETATM   25  O4  UNL     1     -13.439  21.781  23.885  1.00  0.00    -0.390 OA
ATOM     26  H4  UNL     1     -13.977  22.083  23.163  1.00  0.00     0.210 HD
ENDBRANCH   4  25
BRANCH   6  27
HETATM   27  O10 UNL     1     -13.812  18.901  25.605  1.00  0.00    -0.385 OA
HETATM   28  C22 UNL     1     -14.389  17.806  26.182  1.00  0.00     0.202 C 
ENDBRANCH   6  27
BRANCH   3  29
HETATM   29  O3  UNL     1     -13.301  24.069  26.475  1.00  0.00    -0.390 OA
ATOM     30  H3  UNL     1     -12.540  24.562  26.761  1.00  0.00     0.210 HD
ENDBRANCH   3  29
BRANCH   1  31
HETATM   31  C3  UNL     1     -11.861  19.679  27.655  1.00  0.00     0.011 C 
HETATM   32  C2  UNL     1     -10.963  18.747  27.473  1.00  0.00    -0.032 C 
HETATM   33  C1  UNL     1     -10.426  17.949  28.600  1.00  0.00     0.036 C 
ENDBRANCH   1  31
BRANCH   1  34
HETATM   34  O1  UNL     1     -11.600  20.197  25.435  1.00  0.00    -0.380 OA
ATOM     35  H1  UNL     1     -12.167  19.782  24.796  1.00  0.00     0.211 HD
ENDBRANCH   1  34
BRANCH   2  36
HETATM   36  O2  UNL     1     -13.101  22.094  28.102  1.00  0.00    -0.389 OA
ATOM     37  H2  UNL     1     -13.277  23.019  28.227  1.00  0.00     0.210 HD
ENDBRANCH   2  36
TORSDOF 15
ENDMDL
MODEL 2
REMARK VINA RESULT: -7.056034521      3.131      7.854
REMARK  15 active torsions:
REMARK  status: ('A' for Active; 'I' for Inactive)
REMARK    1  A    between atoms: C3_3  and  C4_4 
REMARK    2  A    between atoms: C4_4  and  O1_5 
REMARK    3  A    between atoms: C5_7  and  O2_8 
REMARK    4  A    between atoms: C6_10  and  O3_11 
REMARK    5  A    between atoms: C7_13  and  O4_14 
REMARK    6  A    between atoms: C8_16  and  O5_17 
REMARK    7  A    between atoms: O5_17  and  C9_18 
REMARK    8  A    between atoms: C10_19  and  O6_20 
REMARK    9  A    between atoms: C13_23  and  C14_24 
REMARK   10  A    between atoms: C14_24  and  C15_25 
REMARK   11  A    between atoms: C15_25  and  C16_26 
REMARK   12  A    between atoms: C16_26  and  O7_27 
REMARK   13  A    between atoms: C17_29  and  O8_30 
REMARK   14  A    between atoms: C19_32  and  O9_33 
REMARK   15  A    between atoms: C21_35  and  O10_36 
ROOT
HETATM    1  C4  UNL     1     -15.104  20.746  25.833  1.00  0.00     0.132 C 
HETATM    2  C5  UNL     1     -14.090  21.810  25.578  1.00  0.00     0.190 C 
HETATM    3  C6  UNL     1     -13.104  21.949  26.709  1.00  0.00     0.181 C 
HETATM    4  C7  UNL     1     -12.862  20.670  27.445  1.00  0.00     0.181 C 
HETATM    5  C8  UNL     1     -13.062  19.430  26.549  1.00  0.00     0.192 C 
HETATM    6  C21 UNL     1     -14.416  19.404  25.947  1.00  0.00     0.193 C 
ENDROOT
BRANCH   5   7
HETATM    7  O5  UNL     1     -12.662  18.251  27.175  1.00  0.00    -0.335 OA
BRANCH   7   8
HETATM    8  C9  UNL     1     -12.099  18.044  28.394  1.00  0.00     0.139 A 
HETATM    9  C10 UNL     1     -10.727  17.927  28.491  1.00  0.00     0.105 A 
HETATM   10  C12 UNL     1     -10.086  17.715  29.671  1.00  0.00     0.054 A 
HETATM   11  C13 UNL     1     -10.775  17.600  30.882  1.00  0.00     0.003 A 
HETATM   12  C17 UNL     1     -12.143  17.709  30.815  1.00  0.00     0.114 A 
HETATM   13  C19 UNL     1     -12.780  17.930  29.577  1.00  0.00     0.138 A 
BRANCH   9  14
HETATM   14  O6  UNL     1      -9.977  18.033  27.350  1.00  0.00    -0.353 OA
HETATM   15  C11 UNL     1      -9.741  19.295  26.771  1.00  0.00     0.210 C 
ENDBRANCH   9  14
BRANCH  11  16
HETATM   16  C14 UNL     1     -10.006  17.271  32.049  1.00  0.00     0.016 C 
BRANCH  16  17
HETATM   17  C15 UNL     1      -9.315  17.860  32.914  1.00  0.00     0.025 C 
BRANCH  17  18
HETATM   18  C16 UNL     1      -8.942  17.856  34.308  1.00  0.00     0.131 C 
BRANCH  18  19
HETATM   19  O7  UNL     1      -8.902  16.739  35.046  1.00  0.00    -0.373 OA
ATOM     20  H7  UNL     1      -8.089  16.316  35.299  1.00  0.00     0.216 HD
ENDBRANCH  18  19
ENDBRANCH  17  18
ENDBRANCH  16  17
ENDBRANCH  11  16
BRANCH  12  21
HETATM   21  O8  UNL     1     -12.957  17.597  31.931  1.00  0.00    -0.352 OA
HETATM   22  C18 UNL     1     -13.409  16.287  32.287  1.00  0.00     0.210 C 
ENDBRANCH  12  21
BRANCH  13  23
HETATM   23  O9  UNL     1     -14.157  18.030  29.629  1.00  0.00    -0.351 OA
HETATM   24  C20 UNL     1     -14.877  16.801  29.421  1.00  0.00     0.210 C 
ENDBRANCH  13  23
ENDBRANCH   7   8
ENDBRANCH   5   7
BRANCH   4  25
HETATM   25  O4  UNL     1     -13.626  20.652  28.577  1.00  0.00    -0.390 OA
ATOM     26  H4  UNL     1     -14.024  19.794  28.672  1.00  0.00     0.210 HD
ENDBRANCH   4  25
BRANCH   6  27
HETATM   27  O10 UNL     1     -15.322  18.559  26.544  1.00  0.00    -0.385 OA
HETATM   28  C22 UNL     1     -15.564  17.377  25.905  1.00  0.00     0.202 C 
ENDBRANCH   6  27
BRANCH   3  29
HETATM   29  O3  UNL     1     -11.914  22.563  26.258  1.00  0.00    -0.390 OA
ATOM     30  H3  UNL     1     -12.045  23.497  26.140  1.00  0.00     0.210 HD
ENDBRANCH   3  29
BRANCH   1  31
HETATM   31  C3  UNL     1     -15.987  20.686  24.634  1.00  0.00     0.011 C 
HETATM   32  C2  UNL     1     -17.224  20.270  24.704  1.00  0.00    -0.032 C 
HETATM   33  C1  UNL     1     -18.096  20.213  23.507  1.00  0.00     0.036 C 
ENDBRANCH   1  31
BRANCH   1  34
HETATM   34  O1  UNL     1     -15.939  21.028  26.903  1.00  0.00    -0.380 OA
ATOM     35  H1  UNL     1     -15.827  20.310  27.515  1.00  0.00     0.211 HD
ENDBRANCH   1  34
BRANCH   2  36
HETATM   36  O2  UNL     1     -13.365  21.497  24.428  1.00  0.00    -0.389 OA
ATOM     37  H2  UNL     1     -12.512  21.160  24.673  1.00  0.00     0.210 HD
ENDBRANCH   2  36
TORSDOF 15
ENDMDL
MODEL 3
REMARK VINA RESULT: -7.043422788      3.214      6.364
REMARK  15 active torsions:
REMARK  status: ('A' for Active; 'I' for Inactive)
REMARK    1  A    between atoms: C3_3  and  C4_4 
REMARK    2  A    between atoms: C4_4  and  O1_5 
REMARK    3  A    between atoms: C5_7  and  O2_8 
REMARK    4  A    between atoms: C6_10  and  O3_11 
REMARK    5  A    between atoms: C7_13  and  O4_14 
REMARK    6  A    between atoms: C8_16  and  O5_17 
REMARK    7  A    between atoms: O5_17  and  C9_18 
REMARK    8  A    between atoms: C10_19  and  O6_20 
REMARK    9  A    between atoms: C13_23  and  C14_24 
REMARK   10  A    between atoms: C14_24  and  C15_25 
REMARK   11  A    between atoms: C15_25  and  C16_26 
REMARK   12  A    between atoms: C16_26  and  O7_27 
REMARK   13  A    between atoms: C17_29  and  O8_30 
REMARK   14  A    between atoms: C19_32  and  O9_33 
REMARK   15  A    between atoms: C21_35  and  O10_36 
ROOT
HETATM    1  C4  UNL     1     -15.096  21.617  24.953  1.00  0.00     0.132 C 
HETATM    2  C5  UNL     1     -14.438  22.514  23.957  1.00  0.00     0.190 C 
HETATM    3  C6  UNL     1     -13.657  23.625  24.610  1.00  0.00     0.181 C 
HETATM    4  C7  UNL     1     -13.106  23.254  25.950  1.00  0.00     0.181 C 
HETATM    5  C8  UNL     1     -12.827  21.742  26.072  1.00  0.00     0.192 C 
HETATM    6  C21 UNL     1     -14.042  20.939  25.799  1.00  0.00     0.193 C 
ENDROOT
BRANCH   5   7
HETATM    7  O5  UNL     1     -12.146  21.420  27.245  1.00  0.00    -0.335 OA
BRANCH   7   8
HETATM    8  C9  UNL     1     -12.405  20.476  28.187  1.00  0.00     0.139 A 
HETATM    9  C10 UNL     1     -13.055  20.844  29.347  1.00  0.00     0.105 A 
HETATM   10  C12 UNL     1     -13.348  19.963  30.340  1.00  0.00     0.054 A 
HETATM   11  C13 UNL     1     -13.009  18.610  30.258  1.00  0.00     0.003 A 
HETATM   12  C17 UNL     1     -12.357  18.215  29.115  1.00  0.00     0.114 A 
HETATM   13  C19 UNL     1     -12.068  19.151  28.101  1.00  0.00     0.138 A 
BRANCH   9  14
HETATM   14  O6  UNL     1     -13.427  22.153  29.504  1.00  0.00    -0.353 OA
HETATM   15  C11 UNL     1     -12.645  23.023  30.288  1.00  0.00     0.210 C 
ENDBRANCH   9  14
BRANCH  11  16
HETATM   16  C14 UNL     1     -13.272  17.794  31.410  1.00  0.00     0.016 C 
BRANCH  16  17
HETATM   17  C15 UNL     1     -13.652  16.627  31.666  1.00  0.00     0.025 C 
BRANCH  17  18
HETATM   18  C16 UNL     1     -13.945  15.341  31.081  1.00  0.00     0.131 C 
BRANCH  18  19
HETATM   19  O7  UNL     1     -14.073  15.156  29.760  1.00  0.00    -0.373 OA
ATOM     20  H7  UNL     1     -14.301  14.317  29.377  1.00  0.00     0.216 HD
ENDBRANCH  18  19
ENDBRANCH  17  18
ENDBRANCH  16  17
ENDBRANCH  11  16
BRANCH  12  21
HETATM   21  O8  UNL     1     -11.943  16.909  28.903  1.00  0.00    -0.352 OA
HETATM   22  C18 UNL     1     -10.750  16.483  29.566  1.00  0.00     0.210 C 
ENDBRANCH  12  21
BRANCH  13  23
HETATM   23  O9  UNL     1     -11.416  18.643  26.994  1.00  0.00    -0.351 OA
HETATM   24  C20 UNL     1     -10.005  18.919  26.923  1.00  0.00     0.210 C 
ENDBRANCH  13  23
ENDBRANCH   7   8
ENDBRANCH   5   7
BRANCH   4  25
HETATM   25  O4  UNL     1     -13.933  23.736  26.924  1.00  0.00    -0.390 OA
ATOM     26  H4  UNL     1     -13.539  23.578  27.774  1.00  0.00     0.210 HD
ENDBRANCH   4  25
BRANCH   6  27
HETATM   27  O10 UNL     1     -14.698  20.449  26.905  1.00  0.00    -0.385 OA
HETATM   28  C22 UNL     1     -15.147  19.162  26.825  1.00  0.00     0.202 C 
ENDBRANCH   6  27
BRANCH   3  29
HETATM   29  O3  UNL     1     -12.676  24.128  23.726  1.00  0.00    -0.390 OA
ATOM     30  H3  UNL     1     -12.377  24.984  24.011  1.00  0.00     0.210 HD
ENDBRANCH   3  29
BRANCH   1  31
HETATM   31  C3  UNL     1     -15.796  20.550  24.185  1.00  0.00     0.011 C 
HETATM   32  C2  UNL     1     -17.097  20.420  24.207  1.00  0.00    -0.032 C 
HETATM   33  C1  UNL     1     -17.788  19.356  23.442  1.00  0.00     0.036 C 
ENDBRANCH   1  31
BRANCH   1  34
HETATM   34  O1  UNL     1     -16.076  22.252  25.699  1.00  0.00    -0.380 OA
ATOM     35  H1  UNL     1     -15.630  22.623  26.451  1.00  0.00     0.211 HD
ENDBRANCH   1  34
BRANCH   2  36
HETATM   36  O2  UNL     1     -13.545  21.774  23.183  1.00  0.00    -0.389 OA
ATOM     37  H2  UNL     1     -13.045  22.360  22.627  1.00  0.00     0.210 HD
ENDBRANCH   2  36
TORSDOF 15
ENDMDL
MODEL 4
REMARK VINA RESULT: -7.012873686      2.943      7.256
REMARK  15 active torsions:
REMARK  status: ('A' for Active; 'I' for Inactive)
REMARK    1  A    between atoms: C3_3  and  C4_4 
REMARK    2  A    between atoms: C4_4  and  O1_5 
REMARK    3  A    between atoms: C5_7  and  O2_8 
REMARK    4  A    between atoms: C6_10  and  O3_11 
REMARK    5  A    between atoms: C7_13  and  O4_14 
REMARK    6  A    between atoms: C8_16  and  O5_17 
REMARK    7  A    between atoms: O5_17  and  C9_18 
REMARK    8  A    between atoms: C10_19  and  O6_20 
REMARK    9  A    between atoms: C13_23  and  C14_24 
REMARK   10  A    between atoms: C14_24  and  C15_25 
REMARK   11  A    between atoms: C15_25  and  C16_26 
REMARK   12  A    between atoms: C16_26  and  O7_27 
REMARK   13  A    between atoms: C17_29  and  O8_30 
REMARK   14  A    between atoms: C19_32  and  O9_33 
REMARK   15  A    between atoms: C21_35  and  O10_36 
ROOT
HETATM    1  C4  UNL     1     -15.977  20.732  24.761  1.00  0.00     0.132 C 
HETATM    2  C5  UNL     1     -15.084  21.540  23.878  1.00  0.00     0.190 C 
HETATM    3  C6  UNL     1     -14.565  22.778  24.564  1.00  0.00     0.181 C 
HETATM    4  C7  UNL     1     -14.421  22.620  26.044  1.00  0.00     0.181 C 
HETATM    5  C8  UNL     1     -14.143  21.159  26.454  1.00  0.00     0.192 C 
HETATM    6  C21 UNL     1     -15.198  20.243  25.961  1.00  0.00     0.193 C 
ENDROOT
BRANCH   5   7
HETATM    7  O5  UNL     1     -13.827  21.038  27.807  1.00  0.00    -0.335 OA
BRANCH   7   8
HETATM    8  C9  UNL     1     -13.237  20.022  28.489  1.00  0.00     0.139 A 
HETATM    9  C10 UNL     1     -13.629  19.766  29.787  1.00  0.00     0.105 A 
HETATM   10  C12 UNL     1     -13.087  18.773  30.540  1.00  0.00     0.054 A 
HETATM   11  C13 UNL     1     -12.085  17.930  30.050  1.00  0.00     0.003 A 
HETATM   12  C17 UNL     1     -11.672  18.164  28.760  1.00  0.00     0.114 A 
HETATM   13  C19 UNL     1     -12.254  19.201  28.003  1.00  0.00     0.138 A 
BRANCH   9  14
HETATM   14  O6  UNL     1     -14.611  20.545  30.342  1.00  0.00    -0.353 OA
HETATM   15  C11 UNL     1     -14.350  21.890  30.667  1.00  0.00     0.210 C 
ENDBRANCH   9  14
BRANCH  11  16
HETATM   16  C14 UNL     1     -11.512  16.986  30.967  1.00  0.00     0.016 C 
BRANCH  16  17
HETATM   17  C15 UNL     1     -10.665  16.970  31.891  1.00  0.00     0.025 C 
BRANCH  17  18
HETATM   18  C16 UNL     1      -9.781  17.797  32.676  1.00  0.00     0.131 C 
BRANCH  18  19
HETATM   19  O7  UNL     1      -8.562  17.396  33.061  1.00  0.00    -0.373 OA
ATOM     20  H7  UNL     1      -7.861  18.004  33.268  1.00  0.00     0.216 HD
ENDBRANCH  18  19
ENDBRANCH  17  18
ENDBRANCH  16  17
ENDBRANCH  11  16
BRANCH  12  21
HETATM   21  O8  UNL     1     -10.675  17.421  28.148  1.00  0.00    -0.352 OA
HETATM   22  C18 UNL     1      -9.343  17.570  28.648  1.00  0.00     0.210 C 
ENDBRANCH  12  21
BRANCH  13  23
HETATM   23  O9  UNL     1     -11.768  19.340  26.717  1.00  0.00    -0.351 OA
HETATM   24  C20 UNL     1     -10.725  20.319  26.551  1.00  0.00     0.210 C 
ENDBRANCH  13  23
ENDBRANCH   7   8
ENDBRANCH   5   7
BRANCH   4  25
HETATM   25  O4  UNL     1     -15.513  23.161  26.661  1.00  0.00    -0.390 OA
ATOM     26  H4  UNL     1     -15.229  23.853  27.247  1.00  0.00     0.210 HD
ENDBRANCH   4  25
BRANCH   6  27
HETATM   27  O10 UNL     1     -16.134  19.852  26.890  1.00  0.00    -0.385 OA
HETATM   28  C22 UNL     1     -16.023  18.576  27.364  1.00  0.00     0.202 C 
ENDBRANCH   6  27
BRANCH   3  29
HETATM   29  O3  UNL     1     -13.384  23.234  23.936  1.00  0.00    -0.390 OA
ATOM     30  H3  UNL     1     -13.182  24.121  24.211  1.00  0.00     0.210 HD
ENDBRANCH   3  29
BRANCH   1  31
HETATM   31  C3  UNL     1     -16.387  19.529  23.984  1.00  0.00     0.011 C 
HETATM   32  C2  UNL     1     -17.637  19.289  23.686  1.00  0.00    -0.032 C 
HETATM   33  C1  UNL     1     -18.038  18.090  22.913  1.00  0.00     0.036 C 
ENDBRANCH   1  31
BRANCH   1  34
HETATM   34  O1  UNL     1     -17.153  21.384  25.097  1.00  0.00    -0.380 OA
ATOM     35  H1  UNL     1     -16.916  22.294  25.229  1.00  0.00     0.211 HD
ENDBRANCH   1  34
BRANCH   2  36
HETATM   36  O2  UNL     1     -13.980  20.775  23.507  1.00  0.00    -0.389 OA
ATOM     37  H2  UNL     1     -13.818  20.111  24.166  1.00  0.00     0.210 HD
ENDBRANCH   2  36
TORSDOF 15
ENDMDL
MODEL 5
REMARK VINA RESULT: -6.973468897      2.069      2.921
REMARK  15 active torsions:
REMARK  status: ('A' for Active; 'I' for Inactive)
REMARK    1  A    between atoms: C3_3  and  C4_4 
REMARK    2  A    between atoms: C4_4  and  O1_5 
REMARK    3  A    between atoms: C5_7  and  O2_8 
REMARK    4  A    between atoms: C6_10  and  O3_11 
REMARK    5  A    between atoms: C7_13  and  O4_14 
REMARK    6  A    between atoms: C8_16  and  O5_17 
REMARK    7  A    between atoms: O5_17  and  C9_18 
REMARK    8  A    between atoms: C10_19  and  O6_20 
REMARK    9  A    between atoms: C13_23  and  C14_24 
REMARK   10  A    between atoms: C14_24  and  C15_25 
REMARK   11  A    between atoms: C15_25  and  C16_26 
REMARK   12  A    between atoms: C16_26  and  O7_27 
REMARK   13  A    between atoms: C17_29  and  O8_30 
REMARK   14  A    between atoms: C19_32  and  O9_33 
REMARK   15  A    between atoms: C21_35  and  O10_36 
ROOT
HETATM    1  C4  UNL     1     -14.722  21.182  26.628  1.00  0.00     0.132 C 
HETATM    2  C5  UNL     1     -15.135  22.365  25.817  1.00  0.00     0.190 C 
HETATM    3  C6  UNL     1     -15.611  21.981  24.439  1.00  0.00     0.181 C 
HETATM    4  C7  UNL     1     -16.236  20.623  24.385  1.00  0.00     0.181 C 
HETATM    5  C8  UNL     1     -16.886  20.221  25.725  1.00  0.00     0.192 C 
HETATM    6  C21 UNL     1     -15.911  20.272  26.841  1.00  0.00     0.193 C 
ENDROOT
BRANCH   5   7
HETATM    7  O5  UNL     1     -17.624  19.043  25.627  1.00  0.00    -0.335 OA
BRANCH   7   8
HETATM    8  C9  UNL     1     -18.941  18.845  25.362  1.00  0.00     0.139 A 
HETATM    9  C10 UNL     1     -19.839  18.800  26.409  1.00  0.00     0.105 A 
HETATM   10  C12 UNL     1     -21.172  18.601  26.231  1.00  0.00     0.054 A 
HETATM   11  C13 UNL     1     -21.735  18.427  24.964  1.00  0.00     0.003 A 
HETATM   12  C17 UNL     1     -20.864  18.465  23.902  1.00  0.00     0.114 A 
HETATM   13  C19 UNL     1     -19.487  18.674  24.117  1.00  0.00     0.138 A 
BRANCH   9  14
HETATM   14  O6  UNL     1     -19.368  18.966  27.685  1.00  0.00    -0.353 OA
HETATM   15  C11 UNL     1     -20.252  18.911  28.780  1.00  0.00     0.210 C 
ENDBRANCH   9  14
BRANCH  11  16
HETATM   16  C14 UNL     1     -23.136  18.120  24.902  1.00  0.00     0.016 C 
BRANCH  16  17
HETATM   17  C15 UNL     1     -24.207  18.510  25.425  1.00  0.00     0.025 C 
BRANCH  17  18
HETATM   18  C16 UNL     1     -24.905  18.660  26.679  1.00  0.00     0.131 C 
BRANCH  18  19
HETATM   19  O7  UNL     1     -24.272  18.828  27.848  1.00  0.00    -0.373 OA
ATOM     20  H7  UNL     1     -24.653  19.304  28.577  1.00  0.00     0.216 HD
ENDBRANCH  18  19
ENDBRANCH  17  18
ENDBRANCH  16  17
ENDBRANCH  11  16
BRANCH  12  21
HETATM   21  O8  UNL     1     -21.277  18.290  22.590  1.00  0.00    -0.352 OA
HETATM   22  C18 UNL     1     -21.497  16.949  22.144  1.00  0.00     0.210 C 
ENDBRANCH  12  21
BRANCH  13  23
HETATM   23  O9  UNL     1     -18.706  18.700  22.978  1.00  0.00    -0.351 OA
HETATM   24  C20 UNL     1     -17.954  17.502  22.713  1.00  0.00     0.210 C 
ENDBRANCH  13  23
ENDBRANCH   7   8
ENDBRANCH   5   7
BRANCH   4  25
HETATM   25  O4  UNL     1     -15.313  19.722  23.936  1.00  0.00    -0.390 OA
ATOM     26  H4  UNL     1     -14.702  19.525  24.636  1.00  0.00     0.210 HD
ENDBRANCH   4  25
BRANCH   6  27
HETATM   27  O10 UNL     1     -15.398  19.061  27.244  1.00  0.00    -0.385 OA
HETATM   28  C22 UNL     1     -15.353  18.838  28.591  1.00  0.00     0.202 C 
ENDBRANCH   6  27
BRANCH   3  29
HETATM   29  O3  UNL     1     -16.435  22.994  23.899  1.00  0.00    -0.390 OA
ATOM     30  H3  UNL     1     -16.688  22.778  23.009  1.00  0.00     0.210 HD
ENDBRANCH   3  29
BRANCH   1  31
HETATM   31  C3  UNL     1     -14.313  21.690  27.967  1.00  0.00     0.011 C 
HETATM   32  C2  UNL     1     -13.064  21.940  28.262  1.00  0.00    -0.032 C 
HETATM   33  C1  UNL     1     -12.664  22.446  29.596  1.00  0.00     0.036 C 
ENDBRANCH   1  31
BRANCH   1  34
HETATM   34  O1  UNL     1     -13.613  20.526  26.117  1.00  0.00    -0.380 OA
ATOM     35  H1  UNL     1     -13.402  20.969  25.304  1.00  0.00     0.211 HD
ENDBRANCH   1  34
BRANCH   2  36
HETATM   36  O2  UNL     1     -16.187  23.022  26.454  1.00  0.00    -0.389 OA
ATOM     37  H2  UNL     1     -16.940  23.049  25.877  1.00  0.00     0.210 HD
ENDBRANCH   2  36
TORSDOF 15
ENDMDL
