MODEL 1
REMARK VINA RESULT: -7.631902627      0.000      0.000
REMARK  3 active torsions:
REMARK  status: ('A' for Active; 'I' for Inactive)
REMARK    1  A    between atoms: C2_2  and  C4_4 
REMARK    2  A    between atoms: C5_9  and  C6_10 
REMARK    3  A    between atoms: C7_14  and  N4_15 
REMARK       I    between atoms: N4_15  and  C8_17 
ROOT
HETATM    1  C6  UNL     1      42.610  -0.274  -8.543  1.00  0.00     0.116 A 
HETATM    2  N3  UNL     1      42.353  -1.140  -7.570  1.00  0.00    -0.255 N 
ATOM      3  H3  UNL     1      42.921  -1.297  -6.738  1.00  0.00     0.195 HD
HETATM    4  O1  UNL     1      41.244  -1.749  -7.872  1.00  0.00    -0.217 OA
HETATM    5  C7  UNL     1      40.741  -1.338  -9.000  1.00  0.00     0.197 A 
HETATM    6  C9  UNL     1      41.609  -0.365  -9.477  1.00  0.00     0.118 A 
HETATM    7 CL1  UNL     1      41.383   0.504 -10.966  1.00  0.00    -0.077 Cl
ENDROOT
BRANCH   1   8
HETATM    8  C5  UNL     1      43.753   0.625  -8.623  1.00  0.00     0.121 A 
HETATM    9  N2  UNL     1      45.039   0.396  -8.375  1.00  0.00    -0.291 N 
HETATM   10  N1  UNL     1      45.888   1.318  -8.503  1.00  0.00    -0.297 N 
ATOM     11  H2  UNL     1      45.340  -0.532  -8.078  1.00  0.00     0.187 HD
HETATM   12  C4  UNL     1      45.502   2.529  -8.888  1.00  0.00     0.071 A 
ATOM     13  H1  UNL     1      46.873   1.135  -8.310  1.00  0.00     0.187 HD
HETATM   14  S1  UNL     1      43.820   2.296  -9.068  1.00  0.00    -0.054 SA
BRANCH  12  15
HETATM   15  C2  UNL     1      46.378   3.704  -9.082  1.00  0.00     0.036 C 
HETATM   16  C1  UNL     1      47.812   3.363  -8.782  1.00  0.00     0.016 C 
HETATM   17  C3  UNL     1      46.197   4.163 -10.523  1.00  0.00     0.016 C 
ENDBRANCH  12  15
ENDBRANCH   1   8
BRANCH   5  18
HETATM   18  N4  UNL     1      39.665  -1.764  -9.530  1.00  0.00    -0.308 N 
HETATM   19  C8  UNL     1      38.422  -1.162  -9.224  1.00  0.00     0.188 C 
HETATM   20  N5  UNL     1      37.330  -1.515  -9.832  1.00  0.00    -0.373 N 
HETATM   21  N6  UNL     1      38.326  -0.140  -8.232  1.00  0.00    -0.064 NA
ATOM     22  H52 UNL     1      37.398  -2.245 -10.542  1.00  0.00     0.158 HD
ATOM     23  H51 UNL     1      36.434  -1.081  -9.611  1.00  0.00     0.158 HD
ATOM     24  H4  UNL     1      39.699  -2.547 -10.183  1.00  0.00     0.170 HD
ENDBRANCH   5  18
TORSDOF 3
ENDMDL
MODEL 2
REMARK VINA RESULT: -7.244717536      7.121      7.695
REMARK  3 active torsions:
REMARK  status: ('A' for Active; 'I' for Inactive)
REMARK    1  A    between atoms: C2_2  and  C4_4 
REMARK    2  A    between atoms: C5_9  and  C6_10 
REMARK    3  A    between atoms: C7_14  and  N4_15 
REMARK       I    between atoms: N4_15  and  C8_17 
ROOT
HETATM    1  C6  UNL     1      40.950   4.806 -14.702  1.00  0.00     0.116 A 
HETATM    2  N3  UNL     1      39.775   4.982 -14.110  1.00  0.00    -0.255 N 
ATOM      3  H3  UNL     1      39.624   5.260 -13.140  1.00  0.00     0.195 HD
HETATM    4  O1  UNL     1      38.852   4.737 -14.993  1.00  0.00    -0.217 OA
HETATM    5  C7  UNL     1      39.346   4.405 -16.151  1.00  0.00     0.197 A 
HETATM    6  C9  UNL     1      40.726   4.437 -16.004  1.00  0.00     0.118 A 
HETATM    7 CL1  UNL     1      41.855   4.069 -17.274  1.00  0.00    -0.077 Cl
ENDROOT
BRANCH   1   8
HETATM    8  C5  UNL     1      42.261   4.971 -14.090  1.00  0.00     0.121 A 
HETATM    9  N2  UNL     1      42.763   4.426 -12.986  1.00  0.00    -0.291 N 
HETATM   10  N1  UNL     1      43.937   4.698 -12.616  1.00  0.00    -0.297 N 
ATOM     11  H2  UNL     1      42.194   3.784 -12.434  1.00  0.00     0.187 HD
HETATM   12  C4  UNL     1      44.682   5.533 -13.329  1.00  0.00     0.071 A 
ATOM     13  H1  UNL     1      44.315   4.275 -11.767  1.00  0.00     0.187 HD
HETATM   14  S1  UNL     1      43.608   5.932 -14.596  1.00  0.00    -0.054 SA
BRANCH  12  15
HETATM   15  C2  UNL     1      46.069   5.945 -13.024  1.00  0.00     0.036 C 
HETATM   16  C1  UNL     1      46.749   4.934 -12.143  1.00  0.00     0.016 C 
HETATM   17  C3  UNL     1      46.790   6.110 -14.355  1.00  0.00     0.016 C 
ENDBRANCH  12  15
ENDBRANCH   1   8
BRANCH   5  18
HETATM   18  N4  UNL     1      38.670   4.114 -17.189  1.00  0.00    -0.308 N 
HETATM   19  C8  UNL     1      38.571   2.775 -17.635  1.00  0.00     0.188 C 
HETATM   20  N5  UNL     1      37.804   2.447 -18.630  1.00  0.00    -0.373 N 
HETATM   21  N6  UNL     1      39.315   1.735 -17.002  1.00  0.00    -0.064 NA
ATOM     22  H52 UNL     1      37.272   3.190 -19.083  1.00  0.00     0.158 HD
ATOM     23  H51 UNL     1      37.734   1.482 -18.952  1.00  0.00     0.158 HD
ATOM     24  H4  UNL     1      38.195   4.854 -17.706  1.00  0.00     0.170 HD
ENDBRANCH   5  18
TORSDOF 3
ENDMDL
MODEL 3
REMARK VINA RESULT: -7.112873564      4.337      4.916
REMARK  3 active torsions:
REMARK  status: ('A' for Active; 'I' for Inactive)
REMARK    1  A    between atoms: C2_2  and  C4_4 
REMARK    2  A    between atoms: C5_9  and  C6_10 
REMARK    3  A    between atoms: C7_14  and  N4_15 
REMARK       I    between atoms: N4_15  and  C8_17 
ROOT
HETATM    1  C6  UNL     1      41.970   3.011 -11.178  1.00  0.00     0.116 A 
HETATM    2  N3  UNL     1      41.732   3.171  -9.883  1.00  0.00    -0.255 N 
ATOM      3  H3  UNL     1      41.751   4.052  -9.370  1.00  0.00     0.195 HD
HETATM    4  O1  UNL     1      41.470   1.998  -9.385  1.00  0.00    -0.217 OA
HETATM    5  C7  UNL     1      41.519   1.055 -10.281  1.00  0.00     0.197 A 
HETATM    6  C9  UNL     1      41.845   1.678 -11.479  1.00  0.00     0.118 A 
HETATM    7 CL1  UNL     1      42.033   0.848 -12.995  1.00  0.00    -0.077 Cl
ENDROOT
BRANCH   1   8
HETATM    8  C5  UNL     1      42.307   4.057 -12.133  1.00  0.00     0.121 A 
HETATM    9  N2  UNL     1      41.730   5.236 -12.347  1.00  0.00    -0.291 N 
HETATM   10  N1  UNL     1      42.175   6.015 -13.233  1.00  0.00    -0.297 N 
ATOM     11  H2  UNL     1      40.921   5.512 -11.790  1.00  0.00     0.187 HD
HETATM   12  C4  UNL     1      43.227   5.660 -13.961  1.00  0.00     0.071 A 
ATOM     13  H1  UNL     1      41.726   6.917 -13.391  1.00  0.00     0.187 HD
HETATM   14  S1  UNL     1      43.572   4.119 -13.312  1.00  0.00    -0.054 SA
BRANCH  12  15
HETATM   15  C2  UNL     1      43.860   6.463 -15.029  1.00  0.00     0.036 C 
HETATM   16  C1  UNL     1      45.126   7.109 -14.539  1.00  0.00     0.016 C 
HETATM   17  C3  UNL     1      44.122   5.522 -16.198  1.00  0.00     0.016 C 
ENDBRANCH  12  15
ENDBRANCH   1   8
BRANCH   5  18
HETATM   18  N4  UNL     1      41.304  -0.182 -10.069  1.00  0.00    -0.308 N 
HETATM   19  C8  UNL     1      40.068  -0.619  -9.538  1.00  0.00     0.188 C 
HETATM   20  N5  UNL     1      39.794  -1.882  -9.411  1.00  0.00    -0.373 N 
HETATM   21  N6  UNL     1      39.075   0.318  -9.124  1.00  0.00    -0.064 NA
ATOM     22  H52 UNL     1      40.503  -2.553  -9.708  1.00  0.00     0.158 HD
ATOM     23  H51 UNL     1      38.903  -2.197  -9.028  1.00  0.00     0.158 HD
ATOM     24  H4  UNL     1      42.031  -0.864 -10.283  1.00  0.00     0.170 HD
ENDBRANCH   5  18
TORSDOF 3
ENDMDL
MODEL 4
REMARK VINA RESULT: -7.078560845      3.608      4.426
REMARK  3 active torsions:
REMARK  status: ('A' for Active; 'I' for Inactive)
REMARK    1  A    between atoms: C2_2  and  C4_4 
REMARK    2  A    between atoms: C5_9  and  C6_10 
REMARK    3  A    between atoms: C7_14  and  N4_15 
REMARK       I    between atoms: N4_15  and  C8_17 
ROOT
HETATM    1  C6  UNL     1      41.921   2.453 -11.245  1.00  0.00     0.116 A 
HETATM    2  N3  UNL     1      40.847   2.878 -10.591  1.00  0.00    -0.255 N 
ATOM      3  H3  UNL     1      40.540   3.847 -10.501  1.00  0.00     0.195 HD
HETATM    4  O1  UNL     1      40.258   1.834 -10.086  1.00  0.00    -0.217 OA
HETATM    5  C7  UNL     1      40.880   0.726 -10.367  1.00  0.00     0.197 A 
HETATM    6  C9  UNL     1      41.983   1.087 -11.130  1.00  0.00     0.118 A 
HETATM    7 CL1  UNL     1      43.146  -0.039 -11.764  1.00  0.00    -0.077 Cl
ENDROOT
BRANCH   1   8
HETATM    8  C5  UNL     1      42.879   3.279 -11.966  1.00  0.00     0.121 A 
HETATM    9  N2  UNL     1      44.146   3.564 -11.680  1.00  0.00    -0.291 N 
HETATM   10  N1  UNL     1      44.821   4.309 -12.440  1.00  0.00    -0.297 N 
ATOM     11  H2  UNL     1      44.575   3.177 -10.839  1.00  0.00     0.187 HD
HETATM   12  C4  UNL     1      44.267   4.816 -13.536  1.00  0.00     0.071 A 
ATOM     13  H1  UNL     1      45.792   4.524 -12.214  1.00  0.00     0.187 HD
HETATM   14  S1  UNL     1      42.691   4.167 -13.439  1.00  0.00    -0.054 SA
BRANCH  12  15
HETATM   15  C2  UNL     1      44.928   5.701 -14.518  1.00  0.00     0.036 C 
HETATM   16  C1  UNL     1      43.915   6.375 -15.403  1.00  0.00     0.016 C 
HETATM   17  C3  UNL     1      45.748   6.713 -13.728  1.00  0.00     0.016 C 
ENDBRANCH  12  15
ENDBRANCH   1   8
BRANCH   5  18
HETATM   18  N4  UNL     1      40.523  -0.439 -10.001  1.00  0.00    -0.308 N 
HETATM   19  C8  UNL     1      41.026  -1.007  -8.806  1.00  0.00     0.188 C 
HETATM   20  N5  UNL     1      40.595  -2.149  -8.365  1.00  0.00    -0.373 N 
HETATM   21  N6  UNL     1      42.030  -0.338  -8.043  1.00  0.00    -0.064 NA
ATOM     22  H52 UNL     1      39.877  -2.627  -8.910  1.00  0.00     0.158 HD
ATOM     23  H51 UNL     1      40.958  -2.558  -7.504  1.00  0.00     0.158 HD
ATOM     24  H4  UNL     1      39.867  -0.969 -10.574  1.00  0.00     0.170 HD
ENDBRANCH   5  18
TORSDOF 3
ENDMDL
MODEL 5
REMARK VINA RESULT: -7.077794277      4.196      4.976
REMARK  3 active torsions:
REMARK  status: ('A' for Active; 'I' for Inactive)
REMARK    1  A    between atoms: C2_2  and  C4_4 
REMARK    2  A    between atoms: C5_9  and  C6_10 
REMARK    3  A    between atoms: C7_14  and  N4_15 
REMARK       I    between atoms: N4_15  and  C8_17 
ROOT
HETATM    1  C6  UNL     1      42.505   2.249 -12.039  1.00  0.00     0.116 A 
HETATM    2  N3  UNL     1      43.061   1.123 -12.468  1.00  0.00    -0.255 N 
ATOM      3  H3  UNL     1      43.764   1.039 -13.203  1.00  0.00     0.195 HD
HETATM    4  O1  UNL     1      42.547   0.146 -11.779  1.00  0.00    -0.217 OA
HETATM    5  C7  UNL     1      41.673   0.558 -10.907  1.00  0.00     0.197 A 
HETATM    6  C9  UNL     1      41.614   1.938 -11.043  1.00  0.00     0.118 A 
HETATM    7 CL1  UNL     1      40.586   2.973 -10.097  1.00  0.00    -0.077 Cl
ENDROOT
BRANCH   1   8
HETATM    8  C5  UNL     1      42.782   3.593 -12.527  1.00  0.00     0.121 A 
HETATM    9  N2  UNL     1      42.009   4.675 -12.535  1.00  0.00    -0.291 N 
HETATM   10  N1  UNL     1      42.436   5.762 -13.009  1.00  0.00    -0.297 N 
ATOM     11  H2  UNL     1      41.063   4.624 -12.156  1.00  0.00     0.187 HD
HETATM   12  C4  UNL     1      43.665   5.833 -13.505  1.00  0.00     0.071 A 
ATOM     13  H1  UNL     1      41.836   6.587 -13.012  1.00  0.00     0.187 HD
HETATM   14  S1  UNL     1      44.211   4.233 -13.262  1.00  0.00    -0.054 SA
BRANCH  12  15
HETATM   15  C2  UNL     1      44.302   7.032 -14.092  1.00  0.00     0.036 C 
HETATM   16  C1  UNL     1      45.792   7.003 -13.889  1.00  0.00     0.016 C 
HETATM   17  C3  UNL     1      43.934   7.055 -15.570  1.00  0.00     0.016 C 
ENDBRANCH  12  15
ENDBRANCH   1   8
BRANCH   5  18
HETATM   18  N4  UNL     1      41.020  -0.184 -10.105  1.00  0.00    -0.308 N 
HETATM   19  C8  UNL     1      41.556  -0.527  -8.841  1.00  0.00     0.188 C 
HETATM   20  N5  UNL     1      40.863  -1.197  -7.971  1.00  0.00    -0.373 N 
HETATM   21  N6  UNL     1      42.883  -0.146  -8.480  1.00  0.00    -0.064 NA
ATOM     22  H52 UNL     1      39.915  -1.469  -8.229  1.00  0.00     0.158 HD
ATOM     23  H51 UNL     1      41.250  -1.444  -7.060  1.00  0.00     0.158 HD
ATOM     24  H4  UNL     1      40.102  -0.535 -10.376  1.00  0.00     0.170 HD
ENDBRANCH   5  18
TORSDOF 3
ENDMDL
