MODEL 1
REMARK VINA RESULT: -6.711191215      0.000      0.000
REMARK  4 active torsions:
REMARK  status: ('A' for Active; 'I' for Inactive)
REMARK    1  A    between atoms: N1_1  and  C1_5 
REMARK    2  A    between atoms: C6_15  and  N4_16 
REMARK    3  A    between atoms: N4_16  and  N5_18 
REMARK    4  A    between atoms: C7_20  and  C8_21 
ROOT
HETATM    1  C1  UNL     1      43.448   5.843 -14.390  1.00  0.00     0.448 C 
HETATM    2  N2  UNL     1      44.665   5.937 -15.170  1.00  0.00    -0.039 N 
ATOM      3  H21 UNL     1      44.454   6.165 -16.142  1.00  0.00     0.280 HD
ATOM      4  H22 UNL     1      45.083   5.016 -15.298  1.00  0.00     0.280 HD
HETATM    5  C2  UNL     1      45.620   6.856 -14.629  1.00  0.00     0.235 C 
HETATM    6  C3  UNL     1      46.902   6.132 -14.246  1.00  0.00     0.029 C 
HETATM    7  C4  UNL     1      46.748   5.399 -12.929  1.00  0.00     0.021 C 
HETATM    8  C5  UNL     1      46.009   4.086 -13.159  1.00  0.00     0.121 C 
HETATM    9  N3  UNL     1      44.610   4.221 -12.799  1.00  0.00    -0.376 N 
ATOM     10  H3  UNL     1      44.358   3.651 -11.991  1.00  0.00     0.160 HD
HETATM   11  C6  UNL     1      43.602   4.895 -13.263  1.00  0.00     0.150 C 
ENDROOT
BRANCH  11  12
HETATM   12  N4  UNL     1      42.377   4.715 -12.575  1.00  0.00    -0.286 N 
ATOM     13  H4  UNL     1      41.582   5.304 -12.823  1.00  0.00     0.188 HD
BRANCH  12  14
HETATM   14  N5  UNL     1      42.220   3.759 -11.569  1.00  0.00    -0.309 N 
HETATM   15  C7  UNL     1      41.436   2.769 -11.789  1.00  0.00     0.127 C 
ATOM     16  H5  UNL     1      42.716   3.847 -10.682  1.00  0.00     0.186 HD
BRANCH  15  17
HETATM   17  C8  UNL     1      41.228   1.724 -10.762  1.00  0.00     0.043 A 
HETATM   18  S1  UNL     1      40.121   1.740  -9.440  1.00  0.00    -0.099 SA
HETATM   19  C9  UNL     1      40.492   0.224  -8.761  1.00  0.00     0.052 A 
HETATM   20  C10 UNL     1      41.472  -0.252  -9.588  1.00  0.00     0.032 A 
HETATM   21  C11 UNL     1      41.848   0.516 -10.612  1.00  0.00     0.053 A 
HETATM   22 CL1  UNL     1      43.113   0.031 -11.776  1.00  0.00    -0.083 Cl
ENDBRANCH  15  17
ENDBRANCH  12  14
ENDBRANCH  11  12
BRANCH   1  23
HETATM   23  N1  UNL     1      43.052   7.164 -13.882  1.00  0.00    -0.043 N 
ATOM     24  H13 UNL     1      43.562   7.411 -13.034  1.00  0.00     0.277 HD
ATOM     25  H12 UNL     1      43.386   7.916 -14.485  1.00  0.00     0.277 HD
ATOM     26  H11 UNL     1      42.043   7.210 -13.744  1.00  0.00     0.277 HD
ENDBRANCH   1  23
TORSDOF 4
ENDMDL
MODEL 2
REMARK VINA RESULT: -6.621483036      2.563      3.430
REMARK  4 active torsions:
REMARK  status: ('A' for Active; 'I' for Inactive)
REMARK    1  A    between atoms: N1_1  and  C1_5 
REMARK    2  A    between atoms: C6_15  and  N4_16 
REMARK    3  A    between atoms: N4_16  and  N5_18 
REMARK    4  A    between atoms: C7_20  and  C8_21 
ROOT
HETATM    1  C1  UNL     1      42.782   5.727 -13.335  1.00  0.00     0.448 C 
HETATM    2  N2  UNL     1      42.846   6.194 -14.705  1.00  0.00    -0.039 N 
ATOM      3  H21 UNL     1      43.324   7.094 -14.758  1.00  0.00     0.280 HD
ATOM      4  H22 UNL     1      41.922   6.473 -15.034  1.00  0.00     0.280 HD
HETATM    5  C2  UNL     1      43.440   5.251 -15.603  1.00  0.00     0.235 C 
HETATM    6  C3  UNL     1      42.441   4.822 -16.667  1.00  0.00     0.029 C 
HETATM    7  C4  UNL     1      41.461   3.803 -16.124  1.00  0.00     0.021 C 
HETATM    8  C5  UNL     1      40.381   4.513 -15.316  1.00  0.00     0.121 C 
HETATM    9  N3  UNL     1      40.664   4.418 -13.896  1.00  0.00    -0.376 N 
ATOM     10  H3  UNL     1      39.974   3.856 -13.398  1.00  0.00     0.160 HD
HETATM   11  C6  UNL     1      41.588   4.881 -13.110  1.00  0.00     0.150 C 
ENDROOT
BRANCH  11  12
HETATM   12  N4  UNL     1      41.464   4.525 -11.745  1.00  0.00    -0.286 N 
ATOM     13  H4  UNL     1      41.735   5.202 -11.033  1.00  0.00     0.188 HD
BRANCH  12  14
HETATM   14  N5  UNL     1      40.985   3.277 -11.340  1.00  0.00    -0.309 N 
HETATM   15  C7  UNL     1      41.245   2.884 -10.147  1.00  0.00     0.127 C 
ATOM     16  H5  UNL     1      40.443   2.692 -11.977  1.00  0.00     0.186 HD
BRANCH  15  17
HETATM   17  C8  UNL     1      40.766   1.572  -9.659  1.00  0.00     0.043 A 
HETATM   18  S1  UNL     1      41.415   0.011  -9.999  1.00  0.00    -0.099 SA
HETATM   19  C9  UNL     1      40.330  -0.935  -9.090  1.00  0.00     0.052 A 
HETATM   20  C10 UNL     1      39.490  -0.001  -8.547  1.00  0.00     0.032 A 
HETATM   21  C11 UNL     1      39.714   1.281  -8.839  1.00  0.00     0.053 A 
HETATM   22 CL1  UNL     1      38.703   2.611  -8.205  1.00  0.00    -0.083 Cl
ENDBRANCH  15  17
ENDBRANCH  12  14
ENDBRANCH  11  12
BRANCH   1  23
HETATM   23  N1  UNL     1      43.998   4.979 -12.984  1.00  0.00    -0.043 N 
ATOM     24  H13 UNL     1      44.011   4.055 -13.413  1.00  0.00     0.277 HD
ATOM     25  H12 UNL     1      44.825   5.369 -13.435  1.00  0.00     0.277 HD
ATOM     26  H11 UNL     1      44.109   4.928 -11.971  1.00  0.00     0.277 HD
ENDBRANCH   1  23
TORSDOF 4
ENDMDL
MODEL 3
REMARK VINA RESULT: -6.616254206      2.277      2.902
REMARK  4 active torsions:
REMARK  status: ('A' for Active; 'I' for Inactive)
REMARK    1  A    between atoms: N1_1  and  C1_5 
REMARK    2  A    between atoms: C6_15  and  N4_16 
REMARK    3  A    between atoms: N4_16  and  N5_18 
REMARK    4  A    between atoms: C7_20  and  C8_21 
ROOT
HETATM    1  C1  UNL     1      41.675   3.743 -14.126  1.00  0.00     0.448 C 
HETATM    2  N2  UNL     1      42.521   3.715 -15.302  1.00  0.00    -0.039 N 
ATOM      3  H21 UNL     1      42.364   2.863 -15.840  1.00  0.00     0.280 HD
ATOM      4  H22 UNL     1      43.497   3.574 -15.041  1.00  0.00     0.280 HD
HETATM    5  C2  UNL     1      42.382   4.872 -16.134  1.00  0.00     0.235 C 
HETATM    6  C3  UNL     1      43.698   5.631 -16.220  1.00  0.00     0.029 C 
HETATM    7  C4  UNL     1      43.938   6.460 -14.976  1.00  0.00     0.021 C 
HETATM    8  C5  UNL     1      44.463   5.566 -13.859  1.00  0.00     0.121 C 
HETATM    9  N3  UNL     1      43.393   5.215 -12.944  1.00  0.00    -0.376 N 
ATOM     10  H3  UNL     1      43.526   5.616 -12.016  1.00  0.00     0.160 HD
HETATM   11  C6  UNL     1      42.306   4.511 -13.028  1.00  0.00     0.150 C 
ENDROOT
BRANCH  11  12
HETATM   12  N4  UNL     1      41.533   4.436 -11.844  1.00  0.00    -0.286 N 
ATOM     13  H4  UNL     1      41.360   5.290 -11.313  1.00  0.00     0.188 HD
BRANCH  12  14
HETATM   14  N5  UNL     1      40.999   3.233 -11.376  1.00  0.00    -0.309 N 
HETATM   15  C7  UNL     1      41.360   2.818 -10.218  1.00  0.00     0.127 C 
ATOM     16  H5  UNL     1      40.339   2.699 -11.941  1.00  0.00     0.186 HD
BRANCH  15  17
HETATM   17  C8  UNL     1      40.829   1.551  -9.667  1.00  0.00     0.043 A 
HETATM   18  S1  UNL     1      41.436  -0.045  -9.902  1.00  0.00    -0.099 SA
HETATM   19  C9  UNL     1      40.303  -0.904  -8.966  1.00  0.00     0.052 A 
HETATM   20  C10 UNL     1      39.482   0.084  -8.495  1.00  0.00     0.032 A 
HETATM   21  C11 UNL     1      39.752   1.339  -8.854  1.00  0.00     0.053 A 
HETATM   22 CL1  UNL     1      38.771   2.734  -8.320  1.00  0.00    -0.083 Cl
ENDBRANCH  15  17
ENDBRANCH  12  14
ENDBRANCH  11  12
BRANCH   1  23
HETATM   23  N1  UNL     1      40.360   4.316 -14.446  1.00  0.00    -0.043 N 
ATOM     24  H13 UNL     1      40.151   4.251 -15.442  1.00  0.00     0.277 HD
ATOM     25  H12 UNL     1      39.600   3.736 -14.092  1.00  0.00     0.277 HD
ATOM     26  H11 UNL     1      40.293   5.275 -14.107  1.00  0.00     0.277 HD
ENDBRANCH   1  23
TORSDOF 4
ENDMDL
MODEL 4
REMARK VINA RESULT: -6.579567108      2.015      2.961
REMARK  4 active torsions:
REMARK  status: ('A' for Active; 'I' for Inactive)
REMARK    1  A    between atoms: N1_1  and  C1_5 
REMARK    2  A    between atoms: C6_15  and  N4_16 
REMARK    3  A    between atoms: N4_16  and  N5_18 
REMARK    4  A    between atoms: C7_20  and  C8_21 
ROOT
HETATM    1  C1  UNL     1      42.762   5.699 -13.315  1.00  0.00     0.448 C 
HETATM    2  N2  UNL     1      42.845   6.203 -14.671  1.00  0.00    -0.039 N 
ATOM      3  H21 UNL     1      43.300   7.115 -14.690  1.00  0.00     0.280 HD
ATOM      4  H22 UNL     1      41.922   6.467 -15.015  1.00  0.00     0.280 HD
HETATM    5  C2  UNL     1      43.483   5.298 -15.578  1.00  0.00     0.235 C 
HETATM    6  C3  UNL     1      42.520   4.872 -16.676  1.00  0.00     0.029 C 
HETATM    7  C4  UNL     1      41.554   3.815 -16.181  1.00  0.00     0.021 C 
HETATM    8  C5  UNL     1      40.438   4.476 -15.381  1.00  0.00     0.121 C 
HETATM    9  N3  UNL     1      40.691   4.353 -13.957  1.00  0.00    -0.376 N 
ATOM     10  H3  UNL     1      40.005   3.760 -13.489  1.00  0.00     0.160 HD
HETATM   11  C6  UNL     1      41.585   4.818 -13.139  1.00  0.00     0.150 C 
ENDROOT
BRANCH  11  12
HETATM   12  N4  UNL     1      41.439   4.424 -11.786  1.00  0.00    -0.286 N 
ATOM     13  H4  UNL     1      41.680   5.089 -11.051  1.00  0.00     0.188 HD
BRANCH  12  14
HETATM   14  N5  UNL     1      40.978   3.157 -11.424  1.00  0.00    -0.309 N 
HETATM   15  C7  UNL     1      41.067   2.807 -10.193  1.00  0.00     0.127 C 
ATOM     16  H5  UNL     1      40.581   2.525 -12.120  1.00  0.00     0.186 HD
BRANCH  15  17
HETATM   17  C8  UNL     1      40.595   1.477  -9.747  1.00  0.00     0.043 A 
HETATM   18  S1  UNL     1      39.207   1.109  -8.793  1.00  0.00    -0.099 SA
HETATM   19  C9  UNL     1      39.368  -0.585  -8.727  1.00  0.00     0.052 A 
HETATM   20  C10 UNL     1      40.505  -0.813  -9.454  1.00  0.00     0.032 A 
HETATM   21  C11 UNL     1      41.131   0.242  -9.975  1.00  0.00     0.053 A 
HETATM   22 CL1  UNL     1      42.625   0.102 -10.946  1.00  0.00    -0.083 Cl
ENDBRANCH  15  17
ENDBRANCH  12  14
ENDBRANCH  11  12
BRANCH   1  23
HETATM   23  N1  UNL     1      43.988   4.974 -12.954  1.00  0.00    -0.043 N 
ATOM     24  H13 UNL     1      44.368   4.457 -13.746  1.00  0.00     0.277 HD
ATOM     25  H12 UNL     1      44.770   5.609 -12.796  1.00  0.00     0.277 HD
ATOM     26  H11 UNL     1      43.825   4.368 -12.150  1.00  0.00     0.277 HD
ENDBRANCH   1  23
TORSDOF 4
ENDMDL
MODEL 5
REMARK VINA RESULT: -6.567148784      1.535      2.102
REMARK  4 active torsions:
REMARK  status: ('A' for Active; 'I' for Inactive)
REMARK    1  A    between atoms: N1_1  and  C1_5 
REMARK    2  A    between atoms: C6_15  and  N4_16 
REMARK    3  A    between atoms: N4_16  and  N5_18 
REMARK    4  A    between atoms: C7_20  and  C8_21 
ROOT
HETATM    1  C1  UNL     1      44.675   7.101 -13.884  1.00  0.00     0.448 C 
HETATM    2  N2  UNL     1      45.912   7.143 -14.637  1.00  0.00    -0.039 N 
ATOM      3  H21 UNL     1      46.320   8.078 -14.609  1.00  0.00     0.280 HD
ATOM      4  H22 UNL     1      45.729   7.067 -15.637  1.00  0.00     0.280 HD
HETATM    5  C2  UNL     1      46.867   6.161 -14.222  1.00  0.00     0.235 C 
HETATM    6  C3  UNL     1      47.173   5.197 -15.359  1.00  0.00     0.029 C 
HETATM    7  C4  UNL     1      46.072   4.170 -15.522  1.00  0.00     0.021 C 
HETATM    8  C5  UNL     1      44.905   4.787 -16.283  1.00  0.00     0.121 C 
HETATM    9  N3  UNL     1      43.856   5.191 -15.366  1.00  0.00    -0.376 N 
ATOM     10  H3  UNL     1      43.003   4.644 -15.484  1.00  0.00     0.160 HD
HETATM   11  C6  UNL     1      43.747   6.084 -14.430  1.00  0.00     0.150 C 
ENDROOT
BRANCH  11  12
HETATM   12  N4  UNL     1      42.496   6.128 -13.769  1.00  0.00    -0.286 N 
ATOM     13  H4  UNL     1      41.789   6.788 -14.094  1.00  0.00     0.188 HD
BRANCH  12  14
HETATM   14  N5  UNL     1      42.194   5.298 -12.686  1.00  0.00    -0.309 N 
HETATM   15  C7  UNL     1      41.720   4.132 -12.928  1.00  0.00     0.127 C 
ATOM     16  H5  UNL     1      42.347   5.612 -11.728  1.00  0.00     0.186 HD
BRANCH  15  17
HETATM   17  C8  UNL     1      41.382   3.206 -11.824  1.00  0.00     0.043 A 
HETATM   18  S1  UNL     1      40.627   3.581 -10.320  1.00  0.00    -0.099 SA
HETATM   19  C9  UNL     1      40.596   2.021  -9.639  1.00  0.00     0.052 A 
HETATM   20  C10 UNL     1      41.179   1.251 -10.609  1.00  0.00     0.032 A 
HETATM   21  C11 UNL     1      41.579   1.859 -11.727  1.00  0.00     0.053 A 
HETATM   22 CL1  UNL     1      42.355   0.987 -13.080  1.00  0.00    -0.083 Cl
ENDBRANCH  15  17
ENDBRANCH  12  14
ENDBRANCH  11  12
BRANCH   1  23
HETATM   23  N1  UNL     1      44.940   6.826 -12.465  1.00  0.00    -0.043 N 
ATOM     24  H13 UNL     1      45.199   5.852 -12.310  1.00  0.00     0.277 HD
ATOM     25  H12 UNL     1      45.803   7.266 -12.150  1.00  0.00     0.277 HD
ATOM     26  H11 UNL     1      44.143   7.101 -11.890  1.00  0.00     0.277 HD
ENDBRANCH   1  23
TORSDOF 4
ENDMDL
