MODEL 1
REMARK VINA RESULT: -8.304361346      0.000      0.000
REMARK  9 active torsions:
REMARK  status: ('A' for Active; 'I' for Inactive)
REMARK    1  A    between atoms: N1_2  and  C3_4 
REMARK    2  A    between atoms: C3_4  and  C4_5 
REMARK    3  A    between atoms: N2_6  and  C5_8 
REMARK    4  A    between atoms: C7_10  and  N3_11 
REMARK    5  A    between atoms: N3_11  and  C8_13 
REMARK    6  A    between atoms: C9_16  and  N5_17 
REMARK    7  A    between atoms: N5_17  and  C10_19 
REMARK    8  A    between atoms: C19_31  and  N7_32 
REMARK    9  A    between atoms: C25_39  and  O2_40 
ROOT
HETATM    1  C5  UNL     1       0.879   4.629  11.157  1.00  0.00     0.067 A 
HETATM    2  C6  UNL     1      -0.266   3.877  11.006  1.00  0.00     0.064 A 
HETATM    3  C7  UNL     1      -1.487   4.318  11.471  1.00  0.00     0.062 A 
HETATM    4  C19 UNL     1      -1.497   5.566  12.103  1.00  0.00     0.060 A 
HETATM    5  C24 UNL     1      -0.343   6.326  12.256  1.00  0.00     0.070 A 
HETATM    6  C25 UNL     1       0.847   5.848  11.777  1.00  0.00     0.094 A 
ENDROOT
BRANCH   3   7
HETATM    7  N3  UNL     1      -2.683   3.615  11.352  1.00  0.00    -0.339 N 
ATOM      8  H3  UNL     1      -3.291   3.915  10.590  1.00  0.00     0.167 HD
BRANCH   7   9
HETATM    9  C8  UNL     1      -3.129   2.652  12.057  1.00  0.00     0.144 A 
HETATM   10  N4  UNL     1      -3.713   2.731  13.243  1.00  0.00    -0.175 N 
HETATM   11  C9  UNL     1      -4.163   1.675  13.946  1.00  0.00     0.679 A 
ATOM     12  H4  UNL     1      -3.830   3.657  13.654  1.00  0.00     0.186 HD
HETATM   13  N6  UNL     1      -4.021   0.452  13.435  1.00  0.00    -0.200 N 
HETATM   14  C17 UNL     1      -3.442   0.286  12.243  1.00  0.00     0.133 A 
ATOM     15  H6  UNL     1      -4.356  -0.358  13.956  1.00  0.00     0.183 HD
HETATM   16  C18 UNL     1      -2.985   1.365  11.527  1.00  0.00     0.094 A 
HETATM   17 CL1  UNL     1      -2.218   1.182   9.957  1.00  0.00    -0.079 Cl
BRANCH  11  18
HETATM   18  N5  UNL     1      -4.701   1.940  15.063  1.00  0.00    -0.221 N 
ATOM     19  H5  UNL     1      -4.038   2.210  15.791  1.00  0.00     0.178 HD
BRANCH  18  20
HETATM   20  C10 UNL     1      -6.044   1.930  15.482  1.00  0.00     0.103 C 
HETATM   21  C11 UNL     1      -6.506   3.154  16.249  1.00  0.00     0.030 C 
HETATM   22  C12 UNL     1      -7.207   2.665  17.495  1.00  0.00    -0.012 C 
HETATM   23  C13 UNL     1      -6.146   2.245  18.466  1.00  0.00     0.005 C 
HETATM   24  C16 UNL     1      -7.690   1.292  16.996  1.00  0.00     0.011 C 
HETATM   25  C14 UNL     1      -5.490   1.069  17.735  1.00  0.00     0.007 C 
HETATM   26  C15 UNL     1      -6.330   0.829  16.499  1.00  0.00     0.009 C 
ENDBRANCH  18  20
ENDBRANCH  11  18
ENDBRANCH   7   9
ENDBRANCH   3   7
BRANCH   4  27
HETATM   27  N7  UNL     1      -2.695   6.115  12.625  1.00  0.00    -0.375 N 
HETATM   28  C20 UNL     1      -2.984   5.991  14.033  1.00  0.00     0.149 C 
HETATM   29  C21 UNL     1      -4.454   5.743  14.254  1.00  0.00     0.187 C 
HETATM   30  O1  UNL     1      -5.104   5.397  13.080  1.00  0.00    -0.388 OA
HETATM   31  C22 UNL     1      -5.072   6.432  12.139  1.00  0.00     0.187 C 
HETATM   32  C23 UNL     1      -3.647   6.798  11.783  1.00  0.00     0.149 C 
ENDBRANCH   4  27
BRANCH   1  33
HETATM   33  N2  UNL     1       2.137   4.144  10.655  1.00  0.00    -0.366 N 
HETATM   34  C4  UNL     1       2.323   4.189   9.366  1.00  0.00     0.091 C 
ATOM     35  H2  UNL     1       2.854   3.780  11.282  1.00  0.00     0.165 HD
BRANCH  34  36
HETATM   36  C3  UNL     1       3.599   3.701   8.835  1.00  0.00     0.315 C 
BRANCH  36  37
HETATM   37  N1  UNL     1       3.716   3.887   7.400  1.00  0.00     0.084 N 
HETATM   38  C1  UNL     1       4.639   2.979   6.792  1.00  0.00     0.309 C 
HETATM   39  C2  UNL     1       2.401   3.663   6.828  1.00  0.00     0.309 C 
ENDBRANCH  36  37
ENDBRANCH  34  36
ENDBRANCH   1  33
BRANCH   6  40
HETATM   40  O2  UNL     1       2.012   6.596  11.922  1.00  0.00    -0.358 OA
ATOM     41  H2  UNL     1       1.991   7.542  11.837  1.00  0.00     0.217 HD
ENDBRANCH   6  40
TORSDOF 9
ENDMDL
MODEL 2
REMARK VINA RESULT: -7.697689832      2.955      6.028
REMARK  9 active torsions:
REMARK  status: ('A' for Active; 'I' for Inactive)
REMARK    1  A    between atoms: N1_2  and  C3_4 
REMARK    2  A    between atoms: C3_4  and  C4_5 
REMARK    3  A    between atoms: N2_6  and  C5_8 
REMARK    4  A    between atoms: C7_10  and  N3_11 
REMARK    5  A    between atoms: N3_11  and  C8_13 
REMARK    6  A    between atoms: C9_16  and  N5_17 
REMARK    7  A    between atoms: N5_17  and  C10_19 
REMARK    8  A    between atoms: C19_31  and  N7_32 
REMARK    9  A    between atoms: C25_39  and  O2_40 
ROOT
HETATM    1  C5  UNL     1       0.260   4.468  10.998  1.00  0.00     0.067 A 
HETATM    2  C6  UNL     1      -0.551   4.373  12.108  1.00  0.00     0.064 A 
HETATM    3  C7  UNL     1      -1.606   3.487  12.159  1.00  0.00     0.062 A 
HETATM    4  C19 UNL     1      -1.806   2.693  11.024  1.00  0.00     0.060 A 
HETATM    5  C24 UNL     1      -0.989   2.787   9.903  1.00  0.00     0.070 A 
HETATM    6  C25 UNL     1       0.047   3.682   9.898  1.00  0.00     0.094 A 
ENDROOT
BRANCH   3   7
HETATM    7  N3  UNL     1      -2.464   3.335  13.245  1.00  0.00    -0.339 N 
ATOM      8  H3  UNL     1      -2.205   2.603  13.906  1.00  0.00     0.167 HD
BRANCH   7   9
HETATM    9  C8  UNL     1      -3.526   3.977  13.534  1.00  0.00     0.144 A 
HETATM   10  N4  UNL     1      -4.046   5.003  12.876  1.00  0.00    -0.175 N 
HETATM   11  C9  UNL     1      -5.173   5.646  13.231  1.00  0.00     0.679 A 
ATOM     12  H4  UNL     1      -3.557   5.328  12.041  1.00  0.00     0.186 HD
HETATM   13  N6  UNL     1      -5.830   5.245  14.318  1.00  0.00    -0.200 N 
HETATM   14  C17 UNL     1      -5.372   4.218  15.038  1.00  0.00     0.133 A 
ATOM     15  H6  UNL     1      -6.686   5.723  14.600  1.00  0.00     0.183 HD
HETATM   16  C18 UNL     1      -4.223   3.561  14.674  1.00  0.00     0.094 A 
HETATM   17 CL1  UNL     1      -3.592   2.207  15.598  1.00  0.00    -0.079 Cl
BRANCH  11  18
HETATM   18  N5  UNL     1      -5.524   6.604  12.479  1.00  0.00    -0.221 N 
ATOM     19  H5  UNL     1      -6.181   7.255  12.912  1.00  0.00     0.178 HD
BRANCH  18  20
HETATM   20  C10 UNL     1      -5.175   6.934  11.156  1.00  0.00     0.103 C 
HETATM   21  C11 UNL     1      -4.404   8.228  10.979  1.00  0.00     0.030 C 
HETATM   22  C12 UNL     1      -5.088   9.012   9.884  1.00  0.00    -0.012 C 
HETATM   23  C13 UNL     1      -6.318   9.628  10.480  1.00  0.00     0.005 C 
HETATM   24  C16 UNL     1      -5.712   7.853   9.087  1.00  0.00     0.011 C 
HETATM   25  C14 UNL     1      -7.150   8.393  10.841  1.00  0.00     0.007 C 
HETATM   26  C15 UNL     1      -6.396   7.206  10.280  1.00  0.00     0.009 C 
ENDBRANCH  18  20
ENDBRANCH  11  18
ENDBRANCH   7   9
ENDBRANCH   3   7
BRANCH   4  27
HETATM   27  N7  UNL     1      -2.864   1.752  10.964  1.00  0.00    -0.375 N 
HETATM   28  C20 UNL     1      -4.179   2.180  10.551  1.00  0.00     0.149 C 
HETATM   29  C21 UNL     1      -5.243   1.476  11.352  1.00  0.00     0.187 C 
HETATM   30  O1  UNL     1      -4.717   0.840  12.467  1.00  0.00    -0.388 OA
HETATM   31  C22 UNL     1      -3.827  -0.181  12.115  1.00  0.00     0.187 C 
HETATM   32  C23 UNL     1      -2.667   0.365  11.309  1.00  0.00     0.149 C 
ENDBRANCH   4  27
BRANCH   1  33
HETATM   33  N2  UNL     1       1.357   5.398  10.978  1.00  0.00    -0.366 N 
HETATM   34  C4  UNL     1       1.299   6.408  11.798  1.00  0.00     0.091 C 
ATOM     35  H2  UNL     1       2.148   5.272  10.347  1.00  0.00     0.165 HD
BRANCH  34  36
HETATM   36  C3  UNL     1       2.407   7.367  11.793  1.00  0.00     0.315 C 
BRANCH  36  37
HETATM   37  N1  UNL     1       2.062   8.626  12.430  1.00  0.00     0.084 N 
HETATM   38  C1  UNL     1       0.749   8.622  12.999  1.00  0.00     0.309 C 
HETATM   39  C2  UNL     1       3.026   8.850  13.490  1.00  0.00     0.309 C 
ENDBRANCH  36  37
ENDBRANCH  34  36
ENDBRANCH   1  33
BRANCH   6  40
HETATM   40  O2  UNL     1       0.875   3.789   8.784  1.00  0.00    -0.358 OA
ATOM     41  H2  UNL     1       1.625   3.214   8.683  1.00  0.00     0.217 HD
ENDBRANCH   6  40
TORSDOF 9
ENDMDL
MODEL 3
REMARK VINA RESULT: -7.543418486      2.521      3.820
REMARK  9 active torsions:
REMARK  status: ('A' for Active; 'I' for Inactive)
REMARK    1  A    between atoms: N1_2  and  C3_4 
REMARK    2  A    between atoms: C3_4  and  C4_5 
REMARK    3  A    between atoms: N2_6  and  C5_8 
REMARK    4  A    between atoms: C7_10  and  N3_11 
REMARK    5  A    between atoms: N3_11  and  C8_13 
REMARK    6  A    between atoms: C9_16  and  N5_17 
REMARK    7  A    between atoms: N5_17  and  C10_19 
REMARK    8  A    between atoms: C19_31  and  N7_32 
REMARK    9  A    between atoms: C25_39  and  O2_40 
ROOT
HETATM    1  C5  UNL     1       0.304   4.663   9.306  1.00  0.00     0.067 A 
HETATM    2  C6  UNL     1       0.144   4.650  10.674  1.00  0.00     0.064 A 
HETATM    3  C7  UNL     1      -0.763   3.811  11.287  1.00  0.00     0.062 A 
HETATM    4  C19 UNL     1      -1.508   2.979  10.445  1.00  0.00     0.060 A 
HETATM    5  C24 UNL     1      -1.348   2.992   9.063  1.00  0.00     0.070 A 
HETATM    6  C25 UNL     1      -0.434   3.841   8.499  1.00  0.00     0.094 A 
ENDROOT
BRANCH   3   7
HETATM    7  N3  UNL     1      -0.978   3.741  12.662  1.00  0.00    -0.339 N 
ATOM      8  H3  UNL     1      -0.223   3.314  13.199  1.00  0.00     0.167 HD
BRANCH   7   9
HETATM    9  C8  UNL     1      -1.978   4.133  13.345  1.00  0.00     0.144 A 
HETATM   10  N4  UNL     1      -2.923   3.379  13.887  1.00  0.00    -0.175 N 
HETATM   11  C9  UNL     1      -3.963   3.850  14.599  1.00  0.00     0.679 A 
ATOM     12  H4  UNL     1      -2.858   2.369  13.755  1.00  0.00     0.186 HD
HETATM   13  N6  UNL     1      -4.074   5.164  14.786  1.00  0.00    -0.200 N 
HETATM   14  C17 UNL     1      -3.163   5.995  14.271  1.00  0.00     0.133 A 
ATOM     15  H6  UNL     1      -4.858   5.537  15.322  1.00  0.00     0.183 HD
HETATM   16  C18 UNL     1      -2.102   5.512  13.546  1.00  0.00     0.094 A 
HETATM   17 CL1  UNL     1      -0.886   6.576  12.856  1.00  0.00    -0.079 Cl
BRANCH  11  18
HETATM   18  N5  UNL     1      -4.768   2.980  15.047  1.00  0.00    -0.221 N 
ATOM     19  H5  UNL     1      -5.542   2.764  14.417  1.00  0.00     0.178 HD
BRANCH  18  20
HETATM   20  C10 UNL     1      -4.791   2.256  16.254  1.00  0.00     0.103 C 
HETATM   21  C11 UNL     1      -5.194   0.799  16.143  1.00  0.00     0.030 C 
HETATM   22  C12 UNL     1      -6.255   0.545  17.188  1.00  0.00    -0.012 C 
HETATM   23  C13 UNL     1      -7.538   1.117  16.667  1.00  0.00     0.005 C 
HETATM   24  C16 UNL     1      -5.866   1.622  18.217  1.00  0.00     0.011 C 
HETATM   25  C14 UNL     1      -7.216   2.614  16.596  1.00  0.00     0.007 C 
HETATM   26  C15 UNL     1      -5.849   2.774  17.225  1.00  0.00     0.009 C 
ENDBRANCH  18  20
ENDBRANCH  11  18
ENDBRANCH   7   9
ENDBRANCH   3   7
BRANCH   4  27
HETATM   27  N7  UNL     1      -2.473   2.081  10.965  1.00  0.00    -0.375 N 
HETATM   28  C20 UNL     1      -2.068   0.765  11.394  1.00  0.00     0.149 C 
HETATM   29  C21 UNL     1      -3.113  -0.258  11.033  1.00  0.00     0.187 C 
HETATM   30  O1  UNL     1      -4.040   0.243  10.132  1.00  0.00    -0.388 OA
HETATM   31  C22 UNL     1      -4.775   1.304  10.674  1.00  0.00     0.187 C 
HETATM   32  C23 UNL     1      -3.865   2.444  11.078  1.00  0.00     0.149 C 
ENDBRANCH   4  27
BRANCH   1  33
HETATM   33  N2  UNL     1       1.263   5.545   8.696  1.00  0.00    -0.366 N 
HETATM   34  C4  UNL     1       2.482   5.103   8.564  1.00  0.00     0.091 C 
ATOM     35  H2  UNL     1       1.001   6.479   8.380  1.00  0.00     0.165 HD
BRANCH  34  36
HETATM   36  C3  UNL     1       3.474   5.987   7.945  1.00  0.00     0.315 C 
BRANCH  36  37
HETATM   37  N1  UNL     1       3.037   6.505   6.660  1.00  0.00     0.084 N 
HETATM   38  C1  UNL     1       3.159   7.927   6.560  1.00  0.00     0.309 C 
HETATM   39  C2  UNL     1       3.874   5.895   5.644  1.00  0.00     0.309 C 
ENDBRANCH  36  37
ENDBRANCH  34  36
ENDBRANCH   1  33
BRANCH   6  40
HETATM   40  O2  UNL     1      -0.261   3.866   7.118  1.00  0.00    -0.358 OA
ATOM     41  H2  UNL     1      -0.854   3.389   6.549  1.00  0.00     0.217 HD
ENDBRANCH   6  40
TORSDOF 9
ENDMDL
MODEL 4
REMARK VINA RESULT: -7.539333184      2.479      5.722
REMARK  9 active torsions:
REMARK  status: ('A' for Active; 'I' for Inactive)
REMARK    1  A    between atoms: N1_2  and  C3_4 
REMARK    2  A    between atoms: C3_4  and  C4_5 
REMARK    3  A    between atoms: N2_6  and  C5_8 
REMARK    4  A    between atoms: C7_10  and  N3_11 
REMARK    5  A    between atoms: N3_11  and  C8_13 
REMARK    6  A    between atoms: C9_16  and  N5_17 
REMARK    7  A    between atoms: N5_17  and  C10_19 
REMARK    8  A    between atoms: C19_31  and  N7_32 
REMARK    9  A    between atoms: C25_39  and  O2_40 
ROOT
HETATM    1  C5  UNL     1      -3.569   6.008   9.094  1.00  0.00     0.067 A 
HETATM    2  C6  UNL     1      -3.469   5.132  10.152  1.00  0.00     0.064 A 
HETATM    3  C7  UNL     1      -2.246   4.720  10.637  1.00  0.00     0.062 A 
HETATM    4  C19 UNL     1      -1.116   5.239   9.996  1.00  0.00     0.060 A 
HETATM    5  C24 UNL     1      -1.215   6.123   8.927  1.00  0.00     0.070 A 
HETATM    6  C25 UNL     1      -2.451   6.505   8.480  1.00  0.00     0.094 A 
ENDROOT
BRANCH   3   7
HETATM    7  N3  UNL     1      -2.069   3.841  11.703  1.00  0.00    -0.339 N 
ATOM      8  H3  UNL     1      -1.156   3.882  12.155  1.00  0.00     0.167 HD
BRANCH   7   9
HETATM    9  C8  UNL     1      -2.882   2.994  12.196  1.00  0.00     0.144 A 
HETATM   10  N4  UNL     1      -3.744   3.190  13.183  1.00  0.00    -0.175 N 
HETATM   11  C9  UNL     1      -4.580   2.253  13.666  1.00  0.00     0.679 A 
ATOM     12  H4  UNL     1      -3.778   4.118  13.606  1.00  0.00     0.186 HD
HETATM   13  N6  UNL     1      -4.557   1.032  13.134  1.00  0.00    -0.200 N 
HETATM   14  C17 UNL     1      -3.715   0.751  12.136  1.00  0.00     0.133 A 
ATOM     15  H6  UNL     1      -5.183   0.310  13.490  1.00  0.00     0.183 HD
HETATM   16  C18 UNL     1      -2.864   1.709  11.642  1.00  0.00     0.094 A 
HETATM   17 CL1  UNL     1      -1.745   1.373  10.331  1.00  0.00    -0.079 Cl
BRANCH  11  18
HETATM   18  N5  UNL     1      -5.341   2.622  14.610  1.00  0.00    -0.221 N 
ATOM     19  H5  UNL     1      -6.209   3.059  14.299  1.00  0.00     0.178 HD
BRANCH  18  20
HETATM   20  C10 UNL     1      -5.208   2.539  16.009  1.00  0.00     0.103 C 
HETATM   21  C11 UNL     1      -4.972   1.150  16.569  1.00  0.00     0.030 C 
HETATM   22  C12 UNL     1      -5.953   0.949  17.700  1.00  0.00    -0.012 C 
HETATM   23  C13 UNL     1      -7.288   0.661  17.086  1.00  0.00     0.005 C 
HETATM   24  C16 UNL     1      -6.153   2.413  18.130  1.00  0.00     0.011 C 
HETATM   25  C14 UNL     1      -7.593   1.971  16.351  1.00  0.00     0.007 C 
HETATM   26  C15 UNL     1      -6.489   2.930  16.741  1.00  0.00     0.009 C 
ENDBRANCH  18  20
ENDBRANCH  11  18
ENDBRANCH   7   9
ENDBRANCH   3   7
BRANCH   4  27
HETATM   27  N7  UNL     1       0.192   4.879  10.406  1.00  0.00    -0.375 N 
HETATM   28  C20 UNL     1       0.838   5.620  11.463  1.00  0.00     0.149 C 
HETATM   29  C21 UNL     1       2.306   5.790  11.172  1.00  0.00     0.187 C 
HETATM   30  O1  UNL     1       2.614   5.476   9.857  1.00  0.00    -0.388 OA
HETATM   31  C22 UNL     1       2.365   4.130   9.569  1.00  0.00     0.187 C 
HETATM   32  C23 UNL     1       0.907   3.788   9.792  1.00  0.00     0.149 C 
ENDBRANCH   4  27
BRANCH   1  33
HETATM   33  N2  UNL     1      -4.860   6.424   8.615  1.00  0.00    -0.366 N 
HETATM   34  C4  UNL     1      -5.817   6.528   9.492  1.00  0.00     0.091 C 
ATOM     35  H2  UNL     1      -5.019   6.630   7.628  1.00  0.00     0.165 HD
BRANCH  34  36
HETATM   36  C3  UNL     1      -7.140   6.952   9.023  1.00  0.00     0.315 C 
BRANCH  36  37
HETATM   37  N1  UNL     1      -7.671   8.070   9.782  1.00  0.00     0.084 N 
HETATM   38  C1  UNL     1      -7.271   8.053  11.156  1.00  0.00     0.309 C 
HETATM   39  C2  UNL     1      -7.169   9.284   9.168  1.00  0.00     0.309 C 
ENDBRANCH  36  37
ENDBRANCH  34  36
ENDBRANCH   1  33
BRANCH   6  40
HETATM   40  O2  UNL     1      -2.567   7.389   7.411  1.00  0.00    -0.358 OA
ATOM     41  H2  UNL     1      -1.828   7.549   6.835  1.00  0.00     0.217 HD
ENDBRANCH   6  40
TORSDOF 9
ENDMDL
MODEL 5
REMARK VINA RESULT: -7.440957091      2.701      4.228
REMARK  9 active torsions:
REMARK  status: ('A' for Active; 'I' for Inactive)
REMARK    1  A    between atoms: N1_2  and  C3_4 
REMARK    2  A    between atoms: C3_4  and  C4_5 
REMARK    3  A    between atoms: N2_6  and  C5_8 
REMARK    4  A    between atoms: C7_10  and  N3_11 
REMARK    5  A    between atoms: N3_11  and  C8_13 
REMARK    6  A    between atoms: C9_16  and  N5_17 
REMARK    7  A    between atoms: N5_17  and  C10_19 
REMARK    8  A    between atoms: C19_31  and  N7_32 
REMARK    9  A    between atoms: C25_39  and  O2_40 
ROOT
HETATM    1  C5  UNL     1       0.263   4.777   9.393  1.00  0.00     0.067 A 
HETATM    2  C6  UNL     1       0.082   4.741  10.758  1.00  0.00     0.064 A 
HETATM    3  C7  UNL     1      -0.805   3.864  11.346  1.00  0.00     0.062 A 
HETATM    4  C19 UNL     1      -1.508   3.018  10.482  1.00  0.00     0.060 A 
HETATM    5  C24 UNL     1      -1.327   3.053   9.104  1.00  0.00     0.070 A 
HETATM    6  C25 UNL     1      -0.434   3.940   8.564  1.00  0.00     0.094 A 
ENDROOT
BRANCH   3   7
HETATM    7  N3  UNL     1      -1.038   3.770  12.716  1.00  0.00    -0.339 N 
ATOM      8  H3  UNL     1      -0.298   3.317  13.253  1.00  0.00     0.167 HD
BRANCH   7   9
HETATM    9  C8  UNL     1      -2.040   4.165  13.396  1.00  0.00     0.144 A 
HETATM   10  N4  UNL     1      -2.983   3.414  13.944  1.00  0.00    -0.175 N 
HETATM   11  C9  UNL     1      -4.024   3.889  14.651  1.00  0.00     0.679 A 
ATOM     12  H4  UNL     1      -2.916   2.403  13.821  1.00  0.00     0.186 HD
HETATM   13  N6  UNL     1      -4.139   5.205  14.825  1.00  0.00    -0.200 N 
HETATM   14  C17 UNL     1      -3.230   6.033  14.303  1.00  0.00     0.133 A 
ATOM     15  H6  UNL     1      -4.924   5.581  15.358  1.00  0.00     0.183 HD
HETATM   16  C18 UNL     1      -2.167   5.546  13.583  1.00  0.00     0.094 A 
HETATM   17 CL1  UNL     1      -0.953   6.606  12.884  1.00  0.00    -0.079 Cl
BRANCH  11  18
HETATM   18  N5  UNL     1      -4.828   3.022  15.107  1.00  0.00    -0.221 N 
ATOM     19  H5  UNL     1      -5.620   2.824  14.494  1.00  0.00     0.178 HD
BRANCH  18  20
HETATM   20  C10 UNL     1      -4.828   2.280  16.303  1.00  0.00     0.103 C 
HETATM   21  C11 UNL     1      -5.215   0.820  16.176  1.00  0.00     0.030 C 
HETATM   22  C12 UNL     1      -6.260   0.539  17.230  1.00  0.00    -0.012 C 
HETATM   23  C13 UNL     1      -7.556   1.103  16.733  1.00  0.00     0.005 C 
HETATM   24  C16 UNL     1      -5.871   1.605  18.269  1.00  0.00     0.011 C 
HETATM   25  C14 UNL     1      -7.252   2.605  16.680  1.00  0.00     0.007 C 
HETATM   26  C15 UNL     1      -5.880   2.771  17.295  1.00  0.00     0.009 C 
ENDBRANCH  18  20
ENDBRANCH  11  18
ENDBRANCH   7   9
ENDBRANCH   3   7
BRANCH   4  27
HETATM   27  N7  UNL     1      -2.449   2.081  10.976  1.00  0.00    -0.375 N 
HETATM   28  C20 UNL     1      -2.009   0.765  11.371  1.00  0.00     0.149 C 
HETATM   29  C21 UNL     1      -3.026  -0.276  10.981  1.00  0.00     0.187 C 
HETATM   30  O1  UNL     1      -3.964   0.225  10.091  1.00  0.00    -0.388 OA
HETATM   31  C22 UNL     1      -4.728   1.250  10.659  1.00  0.00     0.187 C 
HETATM   32  C23 UNL     1      -3.850   2.403  11.095  1.00  0.00     0.149 C 
ENDBRANCH   4  27
BRANCH   1  33
HETATM   33  N2  UNL     1       1.201   5.699   8.809  1.00  0.00    -0.366 N 
HETATM   34  C4  UNL     1       1.248   6.901   9.310  1.00  0.00     0.091 C 
ATOM     35  H2  UNL     1       1.804   5.424   8.035  1.00  0.00     0.165 HD
BRANCH  34  36
HETATM   36  C3  UNL     1       2.197   7.855   8.730  1.00  0.00     0.315 C 
BRANCH  36  37
HETATM   37  N1  UNL     1       2.548   8.924   9.647  1.00  0.00     0.084 N 
HETATM   38  C1  UNL     1       1.464   9.824   9.897  1.00  0.00     0.309 C 
HETATM   39  C2  UNL     1       2.935   8.306  10.901  1.00  0.00     0.309 C 
ENDBRANCH  36  37
ENDBRANCH  34  36
ENDBRANCH   1  33
BRANCH   6  40
HETATM   40  O2  UNL     1      -0.240   3.989   7.186  1.00  0.00    -0.358 OA
ATOM     41  H2  UNL     1      -0.599   4.704   6.675  1.00  0.00     0.217 HD
ENDBRANCH   6  40
TORSDOF 9
ENDMDL
