MODEL 1
REMARK VINA RESULT: -8.307919203      0.000      0.000
REMARK  8 active torsions:
REMARK  status: ('A' for Active; 'I' for Inactive)
REMARK    1  A    between atoms: C2_2  and  O1_3 
REMARK    2  A    between atoms: O1_3  and  C3_4 
REMARK    3  A    between atoms: C5_6  and  O2_7 
REMARK    4  A    between atoms: C9_12  and  C10_13 
REMARK       I    between atoms: C10_13  and  N1_15 
REMARK    5  A    between atoms: C16_21  and  O4_22 
REMARK    6  A    between atoms: C16_21  and  O5_24 
REMARK    7  A    between atoms: C20_30  and  N2_31 
REMARK    8  A    between atoms: N2_31  and  C21_33 
ROOT
HETATM    1  C10 UNL     1      -3.332   3.739  11.250  1.00  0.00     0.259 C 
HETATM    2  O3  UNL     1      -3.872   3.307  10.202  1.00  0.00    -0.267 OA
HETATM    3  N1  UNL     1      -2.156   4.504  11.213  1.00  0.00    -0.314 N 
HETATM    4  C11 UNL     1      -1.526   4.821   9.960  1.00  0.00     0.227 C 
HETATM    5  C12 UNL     1      -1.299   6.298   9.890  1.00  0.00     0.061 C 
HETATM    6  C13 UNL     1      -0.713   6.888  11.178  1.00  0.00     0.019 C 
HETATM    7  C14 UNL     1       0.537   6.133  11.581  1.00  0.00     0.006 C 
HETATM    8  C15 UNL     1       1.482   5.824  10.483  1.00  0.00     0.076 C 
HETATM    9  C16 UNL     1       1.760   4.333  10.722  1.00  0.00     0.186 C 
HETATM   10  C17 UNL     1       0.319   3.887  11.041  1.00  0.00     0.192 C 
HETATM   11  O6  UNL     1      -0.370   4.072   9.860  1.00  0.00    -0.355 OA
HETATM   12  C18 UNL     1      -0.010   4.864  12.133  1.00  0.00     0.050 C 
HETATM   13  C19 UNL     1      -1.465   5.041  12.395  1.00  0.00     0.120 C 
HETATM   14  C20 UNL     1      -1.602   6.577  12.342  1.00  0.00     0.105 C 
ENDROOT
BRANCH   1  15
HETATM   15  C9  UNL     1      -3.984   3.411  12.519  1.00  0.00     0.067 A 
HETATM   16  C3  UNL     1      -3.835   2.126  13.015  1.00  0.00     0.087 A 
HETATM   17  C4  UNL     1      -4.456   1.857  14.213  1.00  0.00     0.076 A 
HETATM   18  C5  UNL     1      -5.195   2.837  14.885  1.00  0.00     0.092 A 
HETATM   19  C7  UNL     1      -5.310   4.100  14.345  1.00  0.00     0.068 A 
HETATM   20 CL1  UNL     1      -6.245   5.338  15.194  1.00  0.00    -0.081 Cl
HETATM   21  C8  UNL     1      -4.699   4.382  13.155  1.00  0.00     0.046 A 
BRANCH  16  22
HETATM   22  O1  UNL     1      -3.094   1.181  12.317  1.00  0.00    -0.350 OA
BRANCH  22  23
HETATM   23  C2  UNL     1      -3.559  -0.049  11.841  1.00  0.00     0.171 C 
HETATM   24  C1  UNL     1      -4.683   0.027  10.857  1.00  0.00     0.034 C 
ENDBRANCH  22  23
ENDBRANCH  16  22
BRANCH  18  25
HETATM   25  O2  UNL     1      -5.822   2.586  16.082  1.00  0.00    -0.354 OA
HETATM   26  C6  UNL     1      -5.438   1.541  16.927  1.00  0.00     0.210 C 
ENDBRANCH  18  25
ENDBRANCH   1  15
BRANCH  14  27
HETATM   27  N2  UNL     1      -1.250   7.142  13.529  1.00  0.00    -0.407 N 
ATOM     28  H2  UNL     1      -0.955   6.485  14.250  1.00  0.00     0.154 HD
BRANCH  27  29
HETATM   29  C21 UNL     1      -1.232   8.465  13.902  1.00  0.00     0.015 C 
HETATM   30  C22 UNL     1      -2.102   9.386  13.113  1.00  0.00     0.037 C 
HETATM   31  C23 UNL     1       0.179   9.084  13.826  1.00  0.00     0.037 C 
HETATM   32  C24 UNL     1      -1.655   8.682  15.370  1.00  0.00     0.037 C 
ENDBRANCH  27  29
ENDBRANCH  14  27
BRANCH   9  33
HETATM   33  O4  UNL     1       2.211   3.771   9.544  1.00  0.00    -0.363 OA
ATOM     34  H4  UNL     1       1.480   3.352   9.106  1.00  0.00     0.213 HD
ENDBRANCH   9  33
BRANCH   9  35
HETATM   35  O5  UNL     1       2.623   4.119  11.758  1.00  0.00    -0.363 OA
ATOM     36  H5  UNL     1       2.619   3.218  12.057  1.00  0.00     0.213 HD
ENDBRANCH   9  35
TORSDOF 8
ENDMDL
MODEL 2
REMARK VINA RESULT: -8.301071822      1.406      1.629
REMARK  8 active torsions:
REMARK  status: ('A' for Active; 'I' for Inactive)
REMARK    1  A    between atoms: C2_2  and  O1_3 
REMARK    2  A    between atoms: O1_3  and  C3_4 
REMARK    3  A    between atoms: C5_6  and  O2_7 
REMARK    4  A    between atoms: C9_12  and  C10_13 
REMARK       I    between atoms: C10_13  and  N1_15 
REMARK    5  A    between atoms: C16_21  and  O4_22 
REMARK    6  A    between atoms: C16_21  and  O5_24 
REMARK    7  A    between atoms: C20_30  and  N2_31 
REMARK    8  A    between atoms: N2_31  and  C21_33 
ROOT
HETATM    1  C10 UNL     1      -4.637   3.047  11.713  1.00  0.00     0.259 C 
HETATM    2  O3  UNL     1      -5.521   2.624  10.928  1.00  0.00    -0.267 OA
HETATM    3  N1  UNL     1      -3.594   3.876  11.273  1.00  0.00    -0.314 N 
HETATM    4  C11 UNL     1      -3.504   4.274   9.894  1.00  0.00     0.227 C 
HETATM    5  C12 UNL     1      -3.377   5.762   9.824  1.00  0.00     0.061 C 
HETATM    6  C13 UNL     1      -2.364   6.336  10.822  1.00  0.00     0.019 C 
HETATM    7  C14 UNL     1      -1.028   5.638  10.676  1.00  0.00     0.006 C 
HETATM    8  C15 UNL     1      -0.565   5.422   9.286  1.00  0.00     0.076 C 
HETATM    9  C16 UNL     1      -0.162   3.941   9.318  1.00  0.00     0.186 C 
HETATM   10  C17 UNL     1      -1.353   3.405  10.137  1.00  0.00     0.192 C 
HETATM   11  O6  UNL     1      -2.448   3.594   9.319  1.00  0.00    -0.355 OA
HETATM   12  C18 UNL     1      -1.273   4.321  11.324  1.00  0.00     0.050 C 
HETATM   13  C19 UNL     1      -2.522   4.407  12.130  1.00  0.00     0.120 C 
HETATM   14  C20 UNL     1      -2.727   5.934  12.217  1.00  0.00     0.105 C 
ENDROOT
BRANCH   1  15
HETATM   15  C9  UNL     1      -4.739   2.636  13.114  1.00  0.00     0.067 A 
HETATM   16  C3  UNL     1      -4.024   1.523  13.521  1.00  0.00     0.087 A 
HETATM   17  C4  UNL     1      -4.140   1.172  14.847  1.00  0.00     0.076 A 
HETATM   18  C5  UNL     1      -4.941   1.908  15.726  1.00  0.00     0.092 A 
HETATM   19  C7  UNL     1      -5.632   3.009  15.267  1.00  0.00     0.068 A 
HETATM   20 CL1  UNL     1      -6.645   3.939  16.378  1.00  0.00    -0.081 Cl
HETATM   21  C8  UNL     1      -5.526   3.369  13.953  1.00  0.00     0.046 A 
BRANCH  16  22
HETATM   22  O1  UNL     1      -3.241   0.817  12.617  1.00  0.00    -0.350 OA
BRANCH  22  23
HETATM   23  C2  UNL     1      -3.630  -0.312  11.888  1.00  0.00     0.171 C 
HETATM   24  C1  UNL     1      -3.463  -0.207  10.407  1.00  0.00     0.034 C 
ENDBRANCH  22  23
ENDBRANCH  16  22
BRANCH  18  25
HETATM   25  O2  UNL     1      -5.069   1.572  17.053  1.00  0.00    -0.354 OA
HETATM   26  C6  UNL     1      -5.929   0.562  17.493  1.00  0.00     0.210 C 
ENDBRANCH  18  25
ENDBRANCH   1  15
BRANCH  14  27
HETATM   27  N2  UNL     1      -1.968   6.473  13.210  1.00  0.00    -0.407 N 
ATOM     28  H2  UNL     1      -1.470   5.798  13.789  1.00  0.00     0.154 HD
BRANCH  27  29
HETATM   29  C21 UNL     1      -1.771   7.792  13.550  1.00  0.00     0.015 C 
HETATM   30  C22 UNL     1      -2.525   8.799  12.748  1.00  0.00     0.037 C 
HETATM   31  C23 UNL     1      -0.292   8.218  13.441  1.00  0.00     0.037 C 
HETATM   32  C24 UNL     1      -2.139   8.096  15.016  1.00  0.00     0.037 C 
ENDBRANCH  27  29
ENDBRANCH  14  27
BRANCH   9  33
HETATM   33  O4  UNL     1      -0.176   3.449   8.027  1.00  0.00    -0.363 OA
ATOM     34  H4  UNL     1      -0.039   4.169   7.424  1.00  0.00     0.213 HD
ENDBRANCH   9  33
BRANCH   9  35
HETATM   35  O5  UNL     1       1.039   3.737   9.933  1.00  0.00    -0.363 OA
ATOM     36  H5  UNL     1       1.318   2.830   9.900  1.00  0.00     0.213 HD
ENDBRANCH   9  35
TORSDOF 8
ENDMDL
MODEL 3
REMARK VINA RESULT: -7.907726349      2.598      5.052
REMARK  8 active torsions:
REMARK  status: ('A' for Active; 'I' for Inactive)
REMARK    1  A    between atoms: C2_2  and  O1_3 
REMARK    2  A    between atoms: O1_3  and  C3_4 
REMARK    3  A    between atoms: C5_6  and  O2_7 
REMARK    4  A    between atoms: C9_12  and  C10_13 
REMARK       I    between atoms: C10_13  and  N1_15 
REMARK    5  A    between atoms: C16_21  and  O4_22 
REMARK    6  A    between atoms: C16_21  and  O5_24 
REMARK    7  A    between atoms: C20_30  and  N2_31 
REMARK    8  A    between atoms: N2_31  and  C21_33 
ROOT
HETATM    1  C10 UNL     1      -2.194   4.859  13.449  1.00  0.00     0.259 C 
HETATM    2  O3  UNL     1      -1.478   5.689  14.063  1.00  0.00    -0.267 OA
HETATM    3  N1  UNL     1      -1.819   4.344  12.199  1.00  0.00    -0.314 N 
HETATM    4  C11 UNL     1      -0.589   4.753  11.575  1.00  0.00     0.227 C 
HETATM    5  C12 UNL     1       0.190   3.534  11.192  1.00  0.00     0.061 C 
HETATM    6  C13 UNL     1      -0.658   2.457  10.508  1.00  0.00     0.019 C 
HETATM    7  C14 UNL     1      -1.414   3.047   9.336  1.00  0.00     0.006 C 
HETATM    8  C15 UNL     1      -0.635   3.955   8.463  1.00  0.00     0.076 C 
HETATM    9  C16 UNL     1      -1.582   5.158   8.340  1.00  0.00     0.186 C 
HETATM   10  C17 UNL     1      -2.039   5.230   9.811  1.00  0.00     0.192 C 
HETATM   11  O6  UNL     1      -0.901   5.575  10.510  1.00  0.00    -0.355 OA
HETATM   12  C18 UNL     1      -2.503   3.815   9.999  1.00  0.00     0.050 C 
HETATM   13  C19 UNL     1      -2.604   3.376  11.419  1.00  0.00     0.120 C 
HETATM   14  C20 UNL     1      -1.800   2.058  11.391  1.00  0.00     0.105 C 
ENDROOT
BRANCH   1  15
HETATM   15  C9  UNL     1      -3.443   4.451  14.094  1.00  0.00     0.067 A 
HETATM   16  C3  UNL     1      -4.586   5.183  13.824  1.00  0.00     0.087 A 
HETATM   17  C4  UNL     1      -5.742   4.764  14.443  1.00  0.00     0.076 A 
HETATM   18  C5  UNL     1      -5.748   3.657  15.298  1.00  0.00     0.092 A 
HETATM   19  C7  UNL     1      -4.579   2.964  15.532  1.00  0.00     0.068 A 
HETATM   20 CL1  UNL     1      -4.587   1.565  16.613  1.00  0.00    -0.081 Cl
HETATM   21  C8  UNL     1      -3.424   3.368  14.924  1.00  0.00     0.046 A 
BRANCH  16  22
HETATM   22  O1  UNL     1      -4.539   6.277  12.970  1.00  0.00    -0.350 OA
BRANCH  22  23
HETATM   23  C2  UNL     1      -5.062   6.341  11.675  1.00  0.00     0.171 C 
HETATM   24  C1  UNL     1      -6.122   7.373  11.461  1.00  0.00     0.034 C 
ENDBRANCH  22  23
ENDBRANCH  16  22
BRANCH  18  25
HETATM   25  O2  UNL     1      -6.892   3.225  15.925  1.00  0.00    -0.354 OA
HETATM   26  C6  UNL     1      -7.258   3.658  17.203  1.00  0.00     0.210 C 
ENDBRANCH  18  25
ENDBRANCH   1  15
BRANCH  14  27
HETATM   27  N2  UNL     1      -2.567   1.026  10.945  1.00  0.00    -0.407 N 
ATOM     28  H2  UNL     1      -2.302   0.652  10.034  1.00  0.00     0.154 HD
BRANCH  27  29
HETATM   29  C21 UNL     1      -3.645   0.411  11.537  1.00  0.00     0.015 C 
HETATM   30  C22 UNL     1      -3.826   0.657  12.997  1.00  0.00     0.037 C 
HETATM   31  C23 UNL     1      -3.604  -1.125  11.392  1.00  0.00     0.037 C 
HETATM   32  C24 UNL     1      -4.991   0.809  10.898  1.00  0.00     0.037 C 
ENDBRANCH  27  29
ENDBRANCH  14  27
BRANCH   9  33
HETATM   33  O4  UNL     1      -0.844   6.271   7.988  1.00  0.00    -0.363 OA
ATOM     34  H4  UNL     1      -0.962   6.939   8.652  1.00  0.00     0.213 HD
ENDBRANCH   9  33
BRANCH   9  35
HETATM   35  O5  UNL     1      -2.613   4.929   7.475  1.00  0.00    -0.363 OA
ATOM     36  H5  UNL     1      -2.950   5.728   7.088  1.00  0.00     0.213 HD
ENDBRANCH   9  35
TORSDOF 8
ENDMDL
MODEL 4
REMARK VINA RESULT: -7.436357560      1.401      2.475
REMARK  8 active torsions:
REMARK  status: ('A' for Active; 'I' for Inactive)
REMARK    1  A    between atoms: C2_2  and  O1_3 
REMARK    2  A    between atoms: O1_3  and  C3_4 
REMARK    3  A    between atoms: C5_6  and  O2_7 
REMARK    4  A    between atoms: C9_12  and  C10_13 
REMARK       I    between atoms: C10_13  and  N1_15 
REMARK    5  A    between atoms: C16_21  and  O4_22 
REMARK    6  A    between atoms: C16_21  and  O5_24 
REMARK    7  A    between atoms: C20_30  and  N2_31 
REMARK    8  A    between atoms: N2_31  and  C21_33 
ROOT
HETATM    1  C10 UNL     1      -3.544   3.659  11.417  1.00  0.00     0.259 C 
HETATM    2  O3  UNL     1      -4.134   3.177  10.419  1.00  0.00    -0.267 OA
HETATM    3  N1  UNL     1      -2.358   4.398  11.288  1.00  0.00    -0.314 N 
HETATM    4  C11 UNL     1      -1.775   4.629   9.994  1.00  0.00     0.227 C 
HETATM    5  C12 UNL     1      -1.527   6.095   9.828  1.00  0.00     0.061 C 
HETATM    6  C13 UNL     1      -0.878   6.748  11.053  1.00  0.00     0.019 C 
HETATM    7  C14 UNL     1       0.375   5.994  11.449  1.00  0.00     0.006 C 
HETATM    8  C15 UNL     1       1.268   5.604  10.335  1.00  0.00     0.076 C 
HETATM    9  C16 UNL     1       1.531   4.125  10.649  1.00  0.00     0.186 C 
HETATM   10  C17 UNL     1       0.097   3.725  11.052  1.00  0.00     0.192 C 
HETATM   11  O6  UNL     1      -0.636   3.854   9.891  1.00  0.00    -0.355 OA
HETATM   12  C18 UNL     1      -0.169   4.770  12.097  1.00  0.00     0.050 C 
HETATM   13  C19 UNL     1      -1.609   4.989  12.407  1.00  0.00     0.120 C 
HETATM   14  C20 UNL     1      -1.723   6.522  12.269  1.00  0.00     0.105 C 
ENDROOT
BRANCH   1  15
HETATM   15  C9  UNL     1      -4.147   3.417  12.728  1.00  0.00     0.067 A 
HETATM   16  C3  UNL     1      -5.099   4.314  13.183  1.00  0.00     0.087 A 
HETATM   17  C4  UNL     1      -5.649   4.049  14.417  1.00  0.00     0.076 A 
HETATM   18  C5  UNL     1      -5.259   2.932  15.162  1.00  0.00     0.092 A 
HETATM   19  C7  UNL     1      -4.306   2.071  14.660  1.00  0.00     0.068 A 
HETATM   20 CL1  UNL     1      -3.812   0.659  15.602  1.00  0.00    -0.081 Cl
HETATM   21  C8  UNL     1      -3.751   2.321  13.436  1.00  0.00     0.046 A 
BRANCH  16  22
HETATM   22  O1  UNL     1      -5.459   5.413  12.414  1.00  0.00    -0.350 OA
BRANCH  22  23
HETATM   23  C2  UNL     1      -4.936   6.705  12.520  1.00  0.00     0.171 C 
HETATM   24  C1  UNL     1      -5.087   7.561  11.304  1.00  0.00     0.034 C 
ENDBRANCH  22  23
ENDBRANCH  16  22
BRANCH  18  25
HETATM   25  O2  UNL     1      -5.797   2.652  16.395  1.00  0.00    -0.354 OA
HETATM   26  C6  UNL     1      -6.990   1.941  16.551  1.00  0.00     0.210 C 
ENDBRANCH  18  25
ENDBRANCH   1  15
BRANCH  14  27
HETATM   27  N2  UNL     1      -1.313   7.148  13.405  1.00  0.00    -0.407 N 
ATOM     28  H2  UNL     1      -1.019   6.528  14.159  1.00  0.00     0.154 HD
BRANCH  27  29
HETATM   29  C21 UNL     1      -1.235   8.491  13.691  1.00  0.00     0.015 C 
HETATM   30  C22 UNL     1       0.120   9.108  13.594  1.00  0.00     0.037 C 
HETATM   31  C23 UNL     1      -1.726   8.824  15.115  1.00  0.00     0.037 C 
HETATM   32  C24 UNL     1      -2.129   9.354  12.777  1.00  0.00     0.037 C 
ENDBRANCH  27  29
ENDBRANCH  14  27
BRANCH   9  33
HETATM   33  O4  UNL     1       1.924   3.487   9.489  1.00  0.00    -0.363 OA
ATOM     34  H4  UNL     1       2.591   2.846   9.703  1.00  0.00     0.213 HD
ENDBRANCH   9  33
BRANCH   9  35
HETATM   35  O5  UNL     1       2.433   3.955  11.660  1.00  0.00    -0.363 OA
ATOM     36  H5  UNL     1       3.120   3.338  11.437  1.00  0.00     0.213 HD
ENDBRANCH   9  35
TORSDOF 8
ENDMDL
MODEL 5
REMARK VINA RESULT: -7.243434181      3.056      6.386
REMARK  8 active torsions:
REMARK  status: ('A' for Active; 'I' for Inactive)
REMARK    1  A    between atoms: C2_2  and  O1_3 
REMARK    2  A    between atoms: O1_3  and  C3_4 
REMARK    3  A    between atoms: C5_6  and  O2_7 
REMARK    4  A    between atoms: C9_12  and  C10_13 
REMARK       I    between atoms: C10_13  and  N1_15 
REMARK    5  A    between atoms: C16_21  and  O4_22 
REMARK    6  A    between atoms: C16_21  and  O5_24 
REMARK    7  A    between atoms: C20_30  and  N2_31 
REMARK    8  A    between atoms: N2_31  and  C21_33 
ROOT
HETATM    1  C10 UNL     1      -0.944   5.295  11.570  1.00  0.00     0.259 C 
HETATM    2  O3  UNL     1       0.210   5.403  12.056  1.00  0.00    -0.267 OA
HETATM    3  N1  UNL     1      -2.075   5.135  12.385  1.00  0.00    -0.314 N 
HETATM    4  C11 UNL     1      -1.949   5.091  13.816  1.00  0.00     0.227 C 
HETATM    5  C12 UNL     1      -2.892   6.084  14.418  1.00  0.00     0.061 C 
HETATM    6  C13 UNL     1      -4.295   6.046  13.803  1.00  0.00     0.019 C 
HETATM    7  C14 UNL     1      -4.847   4.635  13.838  1.00  0.00     0.006 C 
HETATM    8  C15 UNL     1      -4.640   3.897  15.105  1.00  0.00     0.076 C 
HETATM    9  C16 UNL     1      -4.089   2.557  14.598  1.00  0.00     0.186 C 
HETATM   10  C17 UNL     1      -3.134   3.103  13.519  1.00  0.00     0.192 C 
HETATM   11  O6  UNL     1      -2.169   3.790  14.226  1.00  0.00    -0.355 OA
HETATM   12  C18 UNL     1      -4.094   3.961  12.746  1.00  0.00     0.050 C 
HETATM   13  C19 UNL     1      -3.454   4.998  11.891  1.00  0.00     0.120 C 
HETATM   14  C20 UNL     1      -4.218   6.267  12.324  1.00  0.00     0.105 C 
ENDROOT
BRANCH   1  15
HETATM   15  C9  UNL     1      -1.059   5.342  10.112  1.00  0.00     0.067 A 
HETATM   16  C3  UNL     1      -1.053   4.144   9.418  1.00  0.00     0.087 A 
HETATM   17  C4  UNL     1      -1.170   4.229   8.049  1.00  0.00     0.076 A 
HETATM   18  C5  UNL     1      -1.289   5.465   7.406  1.00  0.00     0.092 A 
HETATM   19  C7  UNL     1      -1.290   6.628   8.146  1.00  0.00     0.068 A 
HETATM   20 CL1  UNL     1      -1.440   8.190   7.332  1.00  0.00    -0.081 Cl
HETATM   21  C8  UNL     1      -1.174   6.559   9.506  1.00  0.00     0.046 A 
BRANCH  16  22
HETATM   22  O1  UNL     1      -0.931   2.937  10.094  1.00  0.00    -0.350 OA
BRANCH  22  23
HETATM   23  C2  UNL     1      -1.928   1.968  10.246  1.00  0.00     0.171 C 
HETATM   24  C1  UNL     1      -1.559   0.796  11.097  1.00  0.00     0.034 C 
ENDBRANCH  22  23
ENDBRANCH  16  22
BRANCH  18  25
HETATM   25  O2  UNL     1      -1.407   5.569   6.040  1.00  0.00    -0.354 OA
HETATM   26  C6  UNL     1      -0.349   5.289   5.171  1.00  0.00     0.210 C 
ENDBRANCH  18  25
ENDBRANCH   1  15
BRANCH  14  27
HETATM   27  N2  UNL     1      -5.409   6.368  11.674  1.00  0.00    -0.407 N 
ATOM     28  H2  UNL     1      -6.044   5.582  11.810  1.00  0.00     0.154 HD
BRANCH  27  29
HETATM   29  C21 UNL     1      -5.886   7.370  10.860  1.00  0.00     0.015 C 
HETATM   30  C22 UNL     1      -5.003   8.561  10.693  1.00  0.00     0.037 C 
HETATM   31  C23 UNL     1      -7.236   7.937  11.347  1.00  0.00     0.037 C 
HETATM   32  C24 UNL     1      -6.180   6.890   9.424  1.00  0.00     0.037 C 
ENDBRANCH  27  29
ENDBRANCH  14  27
BRANCH   9  33
HETATM   33  O4  UNL     1      -3.393   1.946  15.623  1.00  0.00    -0.363 OA
ATOM     34  H4  UNL     1      -3.090   2.614  16.227  1.00  0.00     0.213 HD
ENDBRANCH   9  33
BRANCH   9  35
HETATM   35  O5  UNL     1      -5.063   1.749  14.085  1.00  0.00    -0.363 OA
ATOM     36  H5  UNL     1      -5.621   2.200  13.462  1.00  0.00     0.213 HD
ENDBRANCH   9  35
TORSDOF 8
ENDMDL
