MODEL 1
REMARK VINA RESULT: -7.708402704      0.000      0.000
REMARK  12 active torsions:
REMARK  status: ('A' for Active; 'I' for Inactive)
REMARK    1  A    between atoms: N1_1  and  N2_4 
REMARK    2  A    between atoms: N2_4  and  C1_6 
REMARK    3  A    between atoms: C4_10  and  N3_11 
REMARK    4  A    between atoms: N3_11  and  C5_13 
REMARK    5  A    between atoms: C5_13  and  C6_14 
REMARK    6  A    between atoms: C6_14  and  C7_15 
REMARK    7  A    between atoms: C7_15  and  N4_16 
REMARK    8  A    between atoms: N4_16  and  C8_19 
REMARK    9  A    between atoms: C8_19  and  C9_20 
REMARK   10  A    between atoms: C9_20  and  C10_21 
REMARK   11  A    between atoms: C10_21  and  S2_22 
REMARK   12  A    between atoms: S2_22  and  C11_23 
ROOT
HETATM    1  N4  UNL     1       0.739  77.968  27.165  1.00  0.00    -0.075 N 
ATOM      2  H41 UNL     1       1.396  78.005  26.385  1.00  0.00     0.277 HD
ATOM      3  H42 UNL     1       0.279  78.870  27.045  1.00  0.00     0.277 HD
ENDROOT
BRANCH   1   4
HETATM    4  C7  UNL     1       1.455  77.925  28.434  1.00  0.00     0.234 C 
BRANCH   4   5
HETATM    5  C6  UNL     1       2.560  79.000  28.263  1.00  0.00     0.047 C 
BRANCH   5   6
HETATM    6  C5  UNL     1       3.806  78.181  27.981  1.00  0.00     0.122 C 
BRANCH   6   7
HETATM    7  N3  UNL     1       3.957  77.147  28.951  1.00  0.00    -0.382 N 
ATOM      8  H3  UNL     1       3.659  77.304  29.915  1.00  0.00     0.160 HD
BRANCH   7   9
HETATM    9  C4  UNL     1       4.527  75.888  28.573  1.00  0.00     0.098 A 
HETATM   10  C1  UNL     1       4.140  74.639  29.007  1.00  0.00     0.081 A 
HETATM   11  C2  UNL     1       4.814  73.586  28.527  1.00  0.00     0.041 A 
HETATM   12  C3  UNL     1       5.830  73.828  27.646  1.00  0.00     0.054 A 
HETATM   13  S1  UNL     1       5.814  75.524  27.514  1.00  0.00    -0.082 SA
BRANCH  10  14
HETATM   14  N2  UNL     1       3.055  74.507  29.955  1.00  0.00    -0.305 N 
ATOM     15  H2  UNL     1       2.288  75.179  29.987  1.00  0.00     0.186 HD
BRANCH  14  16
HETATM   16  N1  UNL     1       3.107  73.419  30.821  1.00  0.00    -0.345 N 
ATOM     17  H12 UNL     1       3.499  73.518  31.757  1.00  0.00     0.176 HD
ATOM     18  H11 UNL     1       2.738  72.536  30.472  1.00  0.00     0.176 HD
ENDBRANCH  14  16
ENDBRANCH  10  14
ENDBRANCH   7   9
ENDBRANCH   6   7
ENDBRANCH   5   6
ENDBRANCH   4   5
ENDBRANCH   1   4
BRANCH   1  19
HETATM   19  C8  UNL     1      -0.195  76.899  26.985  1.00  0.00     0.233 C 
BRANCH  19  20
HETATM   20  C9  UNL     1      -0.923  76.997  25.657  1.00  0.00     0.038 C 
BRANCH  20  21
HETATM   21  C10 UNL     1      -2.198  76.160  25.816  1.00  0.00     0.084 C 
BRANCH  21  22
HETATM   22  S2  UNL     1      -3.018  76.438  27.391  1.00  0.00    -0.094 SA
BRANCH  22  23
HETATM   23  C11 UNL     1      -3.725  78.049  27.547  1.00  0.00     0.145 A 
HETATM   24  N5  UNL     1      -3.135  79.233  27.325  1.00  0.00    -0.335 N 
HETATM   25  C12 UNL     1      -4.033  80.230  27.572  1.00  0.00     0.061 A 
ATOM     26  H5  UNL     1      -2.170  79.367  27.021  1.00  0.00     0.168 HD
HETATM   27  C13 UNL     1      -3.964  81.591  27.511  1.00  0.00     0.032 A 
HETATM   28  C17 UNL     1      -5.187  79.603  27.950  1.00  0.00     0.061 A 
HETATM   29  C14 UNL     1      -5.066  82.376  27.831  1.00  0.00     0.002 A 
HETATM   30  C15 UNL     1      -6.222  81.760  28.210  1.00  0.00     0.002 A 
HETATM   31  C16 UNL     1      -6.293  80.385  28.272  1.00  0.00     0.032 A 
HETATM   32  N6  UNL     1      -5.006  78.278  27.936  1.00  0.00    -0.335 N 
ATOM     33  H6  UNL     1      -5.701  77.570  28.173  1.00  0.00     0.168 HD
ENDBRANCH  22  23
ENDBRANCH  21  22
ENDBRANCH  20  21
ENDBRANCH  19  20
ENDBRANCH   1  19
TORSDOF 12
ENDMDL
MODEL 2
REMARK VINA RESULT: -7.686784527      0.197      1.146
REMARK  12 active torsions:
REMARK  status: ('A' for Active; 'I' for Inactive)
REMARK    1  A    between atoms: N1_1  and  N2_4 
REMARK    2  A    between atoms: N2_4  and  C1_6 
REMARK    3  A    between atoms: C4_10  and  N3_11 
REMARK    4  A    between atoms: N3_11  and  C5_13 
REMARK    5  A    between atoms: C5_13  and  C6_14 
REMARK    6  A    between atoms: C6_14  and  C7_15 
REMARK    7  A    between atoms: C7_15  and  N4_16 
REMARK    8  A    between atoms: N4_16  and  C8_19 
REMARK    9  A    between atoms: C8_19  and  C9_20 
REMARK   10  A    between atoms: C9_20  and  C10_21 
REMARK   11  A    between atoms: C10_21  and  S2_22 
REMARK   12  A    between atoms: S2_22  and  C11_23 
ROOT
HETATM    1  N4  UNL     1       0.749  77.931  27.098  1.00  0.00    -0.075 N 
ATOM      2  H41 UNL     1       1.413  77.999  26.327  1.00  0.00     0.277 HD
ATOM      3  H42 UNL     1       0.271  78.826  26.994  1.00  0.00     0.277 HD
ENDROOT
BRANCH   1   4
HETATM    4  C7  UNL     1       1.451  77.872  28.374  1.00  0.00     0.234 C 
BRANCH   4   5
HETATM    5  C6  UNL     1       2.571  78.934  28.220  1.00  0.00     0.047 C 
BRANCH   5   6
HETATM    6  C5  UNL     1       3.839  78.103  28.170  1.00  0.00     0.122 C 
BRANCH   6   7
HETATM    7  N3  UNL     1       3.744  76.990  29.056  1.00  0.00    -0.382 N 
ATOM      8  H3  UNL     1       3.250  77.085  29.944  1.00  0.00     0.160 HD
BRANCH   7   9
HETATM    9  C4  UNL     1       4.344  75.738  28.700  1.00  0.00     0.098 A 
HETATM   10  C1  UNL     1       4.006  74.491  29.180  1.00  0.00     0.081 A 
HETATM   11  C2  UNL     1       4.700  73.445  28.714  1.00  0.00     0.041 A 
HETATM   12  C3  UNL     1       5.687  73.692  27.800  1.00  0.00     0.054 A 
HETATM   13  S1  UNL     1       5.615  75.382  27.620  1.00  0.00    -0.082 SA
BRANCH  10  14
HETATM   14  N2  UNL     1       2.949  74.355  30.159  1.00  0.00    -0.305 N 
ATOM     15  H2  UNL     1       2.406  75.158  30.474  1.00  0.00     0.186 HD
BRANCH  14  16
HETATM   16  N1  UNL     1       2.710  73.075  30.650  1.00  0.00    -0.345 N 
ATOM     17  H12 UNL     1       2.742  72.266  30.030  1.00  0.00     0.176 HD
ATOM     18  H11 UNL     1       2.506  72.996  31.645  1.00  0.00     0.176 HD
ENDBRANCH  14  16
ENDBRANCH  10  14
ENDBRANCH   7   9
ENDBRANCH   6   7
ENDBRANCH   5   6
ENDBRANCH   4   5
ENDBRANCH   1   4
BRANCH   1  19
HETATM   19  C8  UNL     1      -0.162  76.848  26.882  1.00  0.00     0.233 C 
BRANCH  19  20
HETATM   20  C9  UNL     1      -1.017  77.060  25.647  1.00  0.00     0.038 C 
BRANCH  20  21
HETATM   21  C10 UNL     1      -2.263  76.189  25.844  1.00  0.00     0.084 C 
BRANCH  21  22
HETATM   22  S2  UNL     1      -3.039  76.440  27.445  1.00  0.00    -0.094 SA
BRANCH  22  23
HETATM   23  C11 UNL     1      -3.796  78.026  27.624  1.00  0.00     0.145 A 
HETATM   24  N5  UNL     1      -5.064  78.300  27.963  1.00  0.00    -0.335 N 
HETATM   25  C12 UNL     1      -5.238  79.653  27.975  1.00  0.00     0.061 A 
ATOM     26  H5  UNL     1      -5.783  77.608  28.178  1.00  0.00     0.168 HD
HETATM   27  C13 UNL     1      -6.305  80.460  28.242  1.00  0.00     0.032 A 
HETATM   28  C17 UNL     1      -4.027  80.185  27.633  1.00  0.00     0.061 A 
HETATM   29  C14 UNL     1      -6.189  81.843  28.172  1.00  0.00     0.002 A 
HETATM   30  C15 UNL     1      -4.984  82.384  27.830  1.00  0.00     0.002 A 
HETATM   31  C16 UNL     1      -3.906  81.570  27.560  1.00  0.00     0.032 A 
HETATM   32  N6  UNL     1      -3.147  79.201  27.417  1.00  0.00    -0.335 N 
ATOM     33  H6  UNL     1      -2.169  79.311  27.149  1.00  0.00     0.168 HD
ENDBRANCH  22  23
ENDBRANCH  21  22
ENDBRANCH  20  21
ENDBRANCH  19  20
ENDBRANCH   1  19
TORSDOF 12
ENDMDL
MODEL 3
REMARK VINA RESULT: -7.552621550      1.123      1.846
REMARK  12 active torsions:
REMARK  status: ('A' for Active; 'I' for Inactive)
REMARK    1  A    between atoms: N1_1  and  N2_4 
REMARK    2  A    between atoms: N2_4  and  C1_6 
REMARK    3  A    between atoms: C4_10  and  N3_11 
REMARK    4  A    between atoms: N3_11  and  C5_13 
REMARK    5  A    between atoms: C5_13  and  C6_14 
REMARK    6  A    between atoms: C6_14  and  C7_15 
REMARK    7  A    between atoms: C7_15  and  N4_16 
REMARK    8  A    between atoms: N4_16  and  C8_19 
REMARK    9  A    between atoms: C8_19  and  C9_20 
REMARK   10  A    between atoms: C9_20  and  C10_21 
REMARK   11  A    between atoms: C10_21  and  S2_22 
REMARK   12  A    between atoms: S2_22  and  C11_23 
ROOT
HETATM    1  N4  UNL     1       2.019  78.736  27.452  1.00  0.00    -0.075 N 
ATOM      2  H41 UNL     1       1.983  78.489  26.462  1.00  0.00     0.277 HD
ATOM      3  H42 UNL     1       1.360  79.515  27.460  1.00  0.00     0.277 HD
ENDROOT
BRANCH   1   4
HETATM    4  C7  UNL     1       3.355  79.194  27.815  1.00  0.00     0.234 C 
BRANCH   4   5
HETATM    5  C6  UNL     1       3.860  78.097  28.789  1.00  0.00     0.047 C 
BRANCH   5   6
HETATM    6  C5  UNL     1       5.233  77.749  28.244  1.00  0.00     0.122 C 
BRANCH   6   7
HETATM    7  N3  UNL     1       5.143  76.682  27.304  1.00  0.00    -0.382 N 
ATOM      8  H3  UNL     1       4.738  76.846  26.382  1.00  0.00     0.160 HD
BRANCH   7   9
HETATM    9  C4  UNL     1       5.621  75.377  27.654  1.00  0.00     0.098 A 
HETATM   10  C1  UNL     1       4.905  74.366  28.258  1.00  0.00     0.081 A 
HETATM   11  C2  UNL     1       5.549  73.218  28.502  1.00  0.00     0.041 A 
HETATM   12  C3  UNL     1       6.863  73.134  28.135  1.00  0.00     0.054 A 
HETATM   13  S1  UNL     1       7.160  74.667  27.458  1.00  0.00    -0.082 SA
BRANCH  10  14
HETATM   14  N2  UNL     1       3.518  74.575  28.614  1.00  0.00    -0.305 N 
ATOM     15  H2  UNL     1       2.783  74.602  27.907  1.00  0.00     0.186 HD
BRANCH  14  16
HETATM   16  N1  UNL     1       3.235  74.738  29.966  1.00  0.00    -0.345 N 
ATOM     17  H12 UNL     1       3.777  75.388  30.537  1.00  0.00     0.176 HD
ATOM     18  H11 UNL     1       2.470  74.182  30.346  1.00  0.00     0.176 HD
ENDBRANCH  14  16
ENDBRANCH  10  14
ENDBRANCH   7   9
ENDBRANCH   6   7
ENDBRANCH   5   6
ENDBRANCH   4   5
ENDBRANCH   1   4
BRANCH   1  19
HETATM   19  C8  UNL     1       1.533  77.657  28.257  1.00  0.00     0.233 C 
BRANCH  19  20
HETATM   20  C9  UNL     1       0.021  77.536  28.194  1.00  0.00     0.038 C 
BRANCH  20  21
HETATM   21  C10 UNL     1      -0.293  76.914  26.829  1.00  0.00     0.084 C 
BRANCH  21  22
HETATM   22  S2  UNL     1      -2.056  76.700  26.554  1.00  0.00    -0.094 SA
BRANCH  22  23
HETATM   23  C11 UNL     1      -3.016  78.119  26.981  1.00  0.00     0.145 A 
HETATM   24  N5  UNL     1      -4.200  78.154  27.610  1.00  0.00    -0.335 N 
HETATM   25  C12 UNL     1      -4.599  79.453  27.732  1.00  0.00     0.061 A 
ATOM     26  H5  UNL     1      -4.718  77.341  27.944  1.00  0.00     0.168 HD
HETATM   27  C13 UNL     1      -5.701  80.049  28.274  1.00  0.00     0.032 A 
HETATM   28  C17 UNL     1      -3.612  80.200  27.155  1.00  0.00     0.061 A 
HETATM   29  C14 UNL     1      -5.847  81.431  28.253  1.00  0.00     0.002 A 
HETATM   30  C15 UNL     1      -4.867  82.185  27.678  1.00  0.00     0.002 A 
HETATM   31  C16 UNL     1      -3.755  81.585  27.130  1.00  0.00     0.032 A 
HETATM   32  N6  UNL     1      -2.647  79.395  26.696  1.00  0.00    -0.335 N 
ATOM     33  H6  UNL     1      -1.792  79.685  26.221  1.00  0.00     0.168 HD
ENDBRANCH  22  23
ENDBRANCH  21  22
ENDBRANCH  20  21
ENDBRANCH  19  20
ENDBRANCH   1  19
TORSDOF 12
ENDMDL
MODEL 4
REMARK VINA RESULT: -7.529959598      1.645      2.572
REMARK  12 active torsions:
REMARK  status: ('A' for Active; 'I' for Inactive)
REMARK    1  A    between atoms: N1_1  and  N2_4 
REMARK    2  A    between atoms: N2_4  and  C1_6 
REMARK    3  A    between atoms: C4_10  and  N3_11 
REMARK    4  A    between atoms: N3_11  and  C5_13 
REMARK    5  A    between atoms: C5_13  and  C6_14 
REMARK    6  A    between atoms: C6_14  and  C7_15 
REMARK    7  A    between atoms: C7_15  and  N4_16 
REMARK    8  A    between atoms: N4_16  and  C8_19 
REMARK    9  A    between atoms: C8_19  and  C9_20 
REMARK   10  A    between atoms: C9_20  and  C10_21 
REMARK   11  A    between atoms: C10_21  and  S2_22 
REMARK   12  A    between atoms: S2_22  and  C11_23 
ROOT
HETATM    1  N4  UNL     1      -0.373  77.147  25.810  1.00  0.00    -0.075 N 
ATOM      2  H41 UNL     1      -0.623  76.199  26.092  1.00  0.00     0.277 HD
ATOM      3  H42 UNL     1       0.354  76.938  25.126  1.00  0.00     0.277 HD
ENDROOT
BRANCH   1   4
HETATM    4  C7  UNL     1       0.184  77.886  26.937  1.00  0.00     0.234 C 
BRANCH   4   5
HETATM    5  C6  UNL     1       0.680  76.769  27.892  1.00  0.00     0.047 C 
BRANCH   5   6
HETATM    6  C5  UNL     1       0.881  77.496  29.208  1.00  0.00     0.122 C 
BRANCH   6   7
HETATM    7  N3  UNL     1       2.118  77.116  29.807  1.00  0.00    -0.382 N 
ATOM      8  H3  UNL     1       2.164  76.929  30.809  1.00  0.00     0.160 HD
BRANCH   7   9
HETATM    9  C4  UNL     1       3.296  76.996  29.001  1.00  0.00     0.098 A 
HETATM   10  C1  UNL     1       4.017  78.023  28.430  1.00  0.00     0.081 A 
HETATM   11  C2  UNL     1       5.093  77.689  27.705  1.00  0.00     0.041 A 
HETATM   12  C3  UNL     1       5.394  76.361  27.588  1.00  0.00     0.054 A 
HETATM   13  S1  UNL     1       4.162  75.616  28.495  1.00  0.00    -0.082 SA
BRANCH  10  14
HETATM   14  N2  UNL     1       3.593  79.394  28.613  1.00  0.00    -0.305 N 
ATOM     15  H2  UNL     1       3.721  79.879  29.501  1.00  0.00     0.186 HD
BRANCH  14  16
HETATM   16  N1  UNL     1       3.002  80.019  27.520  1.00  0.00    -0.345 N 
ATOM     17  H12 UNL     1       3.063  81.031  27.403  1.00  0.00     0.176 HD
ATOM     18  H11 UNL     1       2.514  79.419  26.856  1.00  0.00     0.176 HD
ENDBRANCH  14  16
ENDBRANCH  10  14
ENDBRANCH   7   9
ENDBRANCH   6   7
ENDBRANCH   5   6
ENDBRANCH   4   5
ENDBRANCH   1   4
BRANCH   1  19
HETATM   19  C8  UNL     1      -1.484  77.793  25.180  1.00  0.00     0.233 C 
BRANCH  19  20
HETATM   20  C9  UNL     1      -2.745  76.950  25.247  1.00  0.00     0.038 C 
BRANCH  20  21
HETATM   21  C10 UNL     1      -2.540  75.980  26.416  1.00  0.00     0.084 C 
BRANCH  21  22
HETATM   22  S2  UNL     1      -3.532  76.405  27.852  1.00  0.00    -0.094 SA
BRANCH  22  23
HETATM   23  C11 UNL     1      -4.050  78.094  27.881  1.00  0.00     0.145 A 
HETATM   24  N5  UNL     1      -3.288  79.191  27.758  1.00  0.00    -0.335 N 
HETATM   25  C12 UNL     1      -4.084  80.295  27.847  1.00  0.00     0.061 A 
ATOM     26  H5  UNL     1      -2.277  79.198  27.621  1.00  0.00     0.168 HD
HETATM   27  C13 UNL     1      -3.837  81.636  27.794  1.00  0.00     0.032 A 
HETATM   28  C17 UNL     1      -5.354  79.824  28.025  1.00  0.00     0.061 A 
HETATM   29  C14 UNL     1      -4.870  82.558  27.920  1.00  0.00     0.002 A 
HETATM   30  C15 UNL     1      -6.142  82.096  28.099  1.00  0.00     0.002 A 
HETATM   31  C16 UNL     1      -6.392  80.742  28.153  1.00  0.00     0.032 A 
HETATM   32  N6  UNL     1      -5.339  78.486  28.047  1.00  0.00    -0.335 N 
ATOM     33  H6  UNL     1      -6.146  77.874  28.166  1.00  0.00     0.168 HD
ENDBRANCH  22  23
ENDBRANCH  21  22
ENDBRANCH  20  21
ENDBRANCH  19  20
ENDBRANCH   1  19
TORSDOF 12
ENDMDL
MODEL 5
REMARK VINA RESULT: -7.524766041      1.435      2.047
REMARK  12 active torsions:
REMARK  status: ('A' for Active; 'I' for Inactive)
REMARK    1  A    between atoms: N1_1  and  N2_4 
REMARK    2  A    between atoms: N2_4  and  C1_6 
REMARK    3  A    between atoms: C4_10  and  N3_11 
REMARK    4  A    between atoms: N3_11  and  C5_13 
REMARK    5  A    between atoms: C5_13  and  C6_14 
REMARK    6  A    between atoms: C6_14  and  C7_15 
REMARK    7  A    between atoms: C7_15  and  N4_16 
REMARK    8  A    between atoms: N4_16  and  C8_19 
REMARK    9  A    between atoms: C8_19  and  C9_20 
REMARK   10  A    between atoms: C9_20  and  C10_21 
REMARK   11  A    between atoms: C10_21  and  S2_22 
REMARK   12  A    between atoms: S2_22  and  C11_23 
ROOT
HETATM    1  N4  UNL     1       0.746  77.912  27.170  1.00  0.00    -0.075 N 
ATOM      2  H41 UNL     1       1.583  77.825  26.593  1.00  0.00     0.277 HD
ATOM      3  H42 UNL     1       0.385  78.798  26.817  1.00  0.00     0.277 HD
ENDROOT
BRANCH   1   4
HETATM    4  C7  UNL     1       1.105  78.030  28.578  1.00  0.00     0.234 C 
BRANCH   4   5
HETATM    5  C6  UNL     1       2.319  78.996  28.561  1.00  0.00     0.047 C 
BRANCH   5   6
HETATM    6  C5  UNL     1       3.374  78.220  27.794  1.00  0.00     0.122 C 
BRANCH   6   7
HETATM    7  N3  UNL     1       4.261  77.558  28.692  1.00  0.00    -0.382 N 
ATOM      8  H3  UNL     1       4.924  78.100  29.248  1.00  0.00     0.160 HD
BRANCH   7   9
HETATM    9  C4  UNL     1       4.221  76.131  28.815  1.00  0.00     0.098 A 
HETATM   10  C1  UNL     1       4.994  75.218  28.132  1.00  0.00     0.081 A 
HETATM   11  C2  UNL     1       4.793  73.921  28.397  1.00  0.00     0.041 A 
HETATM   12  C3  UNL     1       3.839  73.601  29.322  1.00  0.00     0.054 A 
HETATM   13  S1  UNL     1       3.251  75.126  29.795  1.00  0.00    -0.082 SA
BRANCH  10  14
HETATM   14  N2  UNL     1       5.966  75.676  27.162  1.00  0.00    -0.305 N 
ATOM     15  H2  UNL     1       6.148  76.668  27.015  1.00  0.00     0.186 HD
BRANCH  14  16
HETATM   16  N1  UNL     1       6.641  74.697  26.440  1.00  0.00    -0.345 N 
ATOM     17  H12 UNL     1       7.642  74.552  26.568  1.00  0.00     0.176 HD
ATOM     18  H11 UNL     1       6.086  74.143  25.787  1.00  0.00     0.176 HD
ENDBRANCH  14  16
ENDBRANCH  10  14
ENDBRANCH   7   9
ENDBRANCH   6   7
ENDBRANCH   5   6
ENDBRANCH   4   5
ENDBRANCH   1   4
BRANCH   1  19
HETATM   19  C8  UNL     1      -0.170  76.849  26.888  1.00  0.00     0.233 C 
BRANCH  19  20
HETATM   20  C9  UNL     1      -0.921  77.073  25.589  1.00  0.00     0.038 C 
BRANCH  20  21
HETATM   21  C10 UNL     1      -2.210  76.249  25.703  1.00  0.00     0.084 C 
BRANCH  21  22
HETATM   22  S2  UNL     1      -3.016  76.440  27.298  1.00  0.00    -0.094 SA
BRANCH  22  23
HETATM   23  C11 UNL     1      -3.777  78.017  27.523  1.00  0.00     0.145 A 
HETATM   24  N5  UNL     1      -5.029  78.278  27.926  1.00  0.00    -0.335 N 
HETATM   25  C12 UNL     1      -5.213  79.629  27.955  1.00  0.00     0.061 A 
ATOM     26  H5  UNL     1      -5.731  77.578  28.171  1.00  0.00     0.168 HD
HETATM   27  C13 UNL     1      -6.274  80.425  28.279  1.00  0.00     0.032 A 
HETATM   28  C17 UNL     1      -4.025  80.174  27.557  1.00  0.00     0.061 A 
HETATM   29  C14 UNL     1      -6.174  81.810  28.212  1.00  0.00     0.002 A 
HETATM   30  C15 UNL     1      -4.991  82.363  27.814  1.00  0.00     0.002 A 
HETATM   31  C16 UNL     1      -3.920  81.560  27.487  1.00  0.00     0.032 A 
HETATM   32  N6  UNL     1      -3.148  79.199  27.293  1.00  0.00    -0.335 N 
ATOM     33  H6  UNL     1      -2.186  79.320  26.977  1.00  0.00     0.168 HD
ENDBRANCH  22  23
ENDBRANCH  21  22
ENDBRANCH  20  21
ENDBRANCH  19  20
ENDBRANCH   1  19
TORSDOF 12
ENDMDL
