MODEL 1
REMARK VINA RESULT: -8.309670457      0.000      0.000
REMARK  13 active torsions:
REMARK  status: ('A' for Active; 'I' for Inactive)
REMARK    1  A    between atoms: O1_1  and  C1_3 
REMARK    2  A    between atoms: C4_7  and  N1_8 
REMARK    3  A    between atoms: N1_8  and  C5_10 
REMARK    4  A    between atoms: C5_10  and  C6_11 
REMARK    5  A    between atoms: C6_11  and  N2_12 
REMARK    6  A    between atoms: N2_12  and  C7_15 
REMARK    7  A    between atoms: C7_15  and  C8_16 
REMARK    8  A    between atoms: C8_16  and  N3_17 
REMARK    9  A    between atoms: N3_17  and  C9_19 
REMARK   10  A    between atoms: C14_24  and  N4_25 
REMARK   11  A    between atoms: N4_25  and  C15_27 
REMARK   12  A    between atoms: C15_27  and  C16_28 
REMARK   13  A    between atoms: C16_28  and  C17_29 
ROOT
HETATM    1  N3  UNL     1       1.175  76.957  28.855  1.00  0.00    -0.387 N 
ATOM      2  H3  UNL     1       0.930  76.169  29.454  1.00  0.00     0.159 HD
ENDROOT
BRANCH   1   3
HETATM    3  C8  UNL     1       0.122  77.630  28.131  1.00  0.00     0.147 C 
BRANCH   3   4
HETATM    4  C7  UNL     1      -0.136  76.853  26.860  1.00  0.00     0.251 C 
BRANCH   4   5
HETATM    5  N2  UNL     1      -0.613  77.703  25.833  1.00  0.00    -0.072 N 
ATOM      6  H22 UNL     1      -0.040  77.623  24.993  1.00  0.00     0.277 HD
ATOM      7  H21 UNL     1      -0.439  78.683  26.057  1.00  0.00     0.277 HD
BRANCH   5   8
HETATM    8  C6  UNL     1      -1.993  77.481  25.536  1.00  0.00     0.251 C 
BRANCH   8   9
HETATM    9  C5  UNL     1      -2.763  78.791  25.449  1.00  0.00     0.147 C 
BRANCH   9  10
HETATM   10  N1  UNL     1      -2.635  79.540  26.672  1.00  0.00    -0.384 N 
ATOM     11  H1  UNL     1      -1.763  79.486  27.199  1.00  0.00     0.159 HD
BRANCH  10  12
HETATM   12  C4  UNL     1      -3.688  80.350  27.163  1.00  0.00     0.088 A 
HETATM   13  C1  UNL     1      -4.819  79.872  27.841  1.00  0.00     0.210 A 
HETATM   14  O2  UNL     1      -5.575  80.880  28.167  1.00  0.00    -0.299 OA
HETATM   15  C2  UNL     1      -5.072  82.020  27.775  1.00  0.00     0.147 A 
HETATM   16  C3  UNL     1      -3.871  81.711  27.135  1.00  0.00     0.059 A 
BRANCH  13  17
HETATM   17  O1  UNL     1      -5.031  78.518  28.091  1.00  0.00    -0.339 OA
ATOM     18  H1  UNL     1      -4.630  77.771  27.664  1.00  0.00     0.220 HD
ENDBRANCH  13  17
ENDBRANCH  10  12
ENDBRANCH   9  10
ENDBRANCH   8   9
ENDBRANCH   5   8
ENDBRANCH   4   5
ENDBRANCH   3   4
ENDBRANCH   1   3
BRANCH   1  19
HETATM   19  C9  UNL     1       2.530  77.344  28.768  1.00  0.00     0.054 A 
HETATM   20  C10 UNL     1       2.870  78.585  28.231  1.00  0.00     0.031 A 
HETATM   21  C11 UNL     1       4.186  78.998  28.083  1.00  0.00     0.002 A 
HETATM   22  C12 UNL     1       5.210  78.177  28.469  1.00  0.00     0.002 A 
HETATM   23  C13 UNL     1       4.880  76.930  29.007  1.00  0.00     0.031 A 
HETATM   24  C14 UNL     1       3.570  76.519  29.155  1.00  0.00     0.054 A 
BRANCH  24  25
HETATM   25  N4  UNL     1       3.319  75.255  29.751  1.00  0.00    -0.388 N 
ATOM     26  H4  UNL     1       3.168  75.202  30.758  1.00  0.00     0.159 HD
BRANCH  25  27
HETATM   27  C15 UNL     1       3.272  74.026  28.954  1.00  0.00     0.124 C 
BRANCH  27  28
HETATM   28  C16 UNL     1       2.960  72.906  29.885  1.00  0.00     0.058 C 
BRANCH  28  29
HETATM   29  C17 UNL     1       4.135  72.312  30.565  1.00  0.00    -0.057 A 
HETATM   30  C18 UNL     1       5.163  71.883  29.738  1.00  0.00     0.007 A 
HETATM   31  C19 UNL     1       6.298  71.308  30.280  1.00  0.00     0.001 A 
HETATM   32  C20 UNL     1       6.386  71.168  31.657  1.00  0.00     0.000 A 
HETATM   33  C21 UNL     1       5.350  71.601  32.467  1.00  0.00     0.001 A 
HETATM   34  C22 UNL     1       4.216  72.178  31.928  1.00  0.00     0.007 A 
ENDBRANCH  28  29
ENDBRANCH  27  28
ENDBRANCH  25  27
ENDBRANCH  24  25
ENDBRANCH   1  19
TORSDOF 13
ENDMDL
MODEL 2
REMARK VINA RESULT: -8.239461787      4.849      9.501
REMARK  13 active torsions:
REMARK  status: ('A' for Active; 'I' for Inactive)
REMARK    1  A    between atoms: O1_1  and  C1_3 
REMARK    2  A    between atoms: C4_7  and  N1_8 
REMARK    3  A    between atoms: N1_8  and  C5_10 
REMARK    4  A    between atoms: C5_10  and  C6_11 
REMARK    5  A    between atoms: C6_11  and  N2_12 
REMARK    6  A    between atoms: N2_12  and  C7_15 
REMARK    7  A    between atoms: C7_15  and  C8_16 
REMARK    8  A    between atoms: C8_16  and  N3_17 
REMARK    9  A    between atoms: N3_17  and  C9_19 
REMARK   10  A    between atoms: C14_24  and  N4_25 
REMARK   11  A    between atoms: N4_25  and  C15_27 
REMARK   12  A    between atoms: C15_27  and  C16_28 
REMARK   13  A    between atoms: C16_28  and  C17_29 
ROOT
HETATM    1  N3  UNL     1       3.753  75.182  29.492  1.00  0.00    -0.387 N 
ATOM      2  H3  UNL     1       3.554  75.046  30.483  1.00  0.00     0.159 HD
ENDROOT
BRANCH   1   3
HETATM    3  C8  UNL     1       3.877  74.018  28.646  1.00  0.00     0.147 C 
BRANCH   3   4
HETATM    4  C7  UNL     1       5.347  73.687  28.525  1.00  0.00     0.251 C 
BRANCH   4   5
HETATM    5  N2  UNL     1       5.732  73.573  27.166  1.00  0.00    -0.072 N 
ATOM      6  H22 UNL     1       4.918  73.600  26.551  1.00  0.00     0.277 HD
ATOM      7  H21 UNL     1       6.065  72.632  26.957  1.00  0.00     0.277 HD
BRANCH   5   8
HETATM    8  C6  UNL     1       6.696  74.556  26.786  1.00  0.00     0.251 C 
BRANCH   8   9
HETATM    9  C5  UNL     1       6.131  75.523  25.756  1.00  0.00     0.147 C 
BRANCH   9  10
HETATM   10  N1  UNL     1       6.202  74.959  24.433  1.00  0.00    -0.384 N 
ATOM     11  H1  UNL     1       5.527  74.245  24.161  1.00  0.00     0.159 HD
BRANCH  10  12
HETATM   12  C4  UNL     1       7.185  75.371  23.501  1.00  0.00     0.088 A 
HETATM   13  C1  UNL     1       7.228  76.628  22.882  1.00  0.00     0.210 A 
HETATM   14  O2  UNL     1       8.267  76.680  22.099  1.00  0.00    -0.299 OA
HETATM   15  C2  UNL     1       8.953  75.570  22.118  1.00  0.00     0.147 A 
HETATM   16  C3  UNL     1       8.287  74.720  23.002  1.00  0.00     0.059 A 
BRANCH  13  17
HETATM   17  O1  UNL     1       6.274  77.616  23.116  1.00  0.00    -0.339 OA
ATOM     18  H1  UNL     1       5.882  78.215  22.492  1.00  0.00     0.220 HD
ENDBRANCH  13  17
ENDBRANCH  10  12
ENDBRANCH   9  10
ENDBRANCH   8   9
ENDBRANCH   5   8
ENDBRANCH   4   5
ENDBRANCH   3   4
ENDBRANCH   1   3
BRANCH   1  19
HETATM   19  C9  UNL     1       3.896  76.499  29.005  1.00  0.00     0.054 A 
HETATM   20  C10 UNL     1       5.147  77.115  29.012  1.00  0.00     0.031 A 
HETATM   21  C11 UNL     1       5.336  78.422  28.585  1.00  0.00     0.002 A 
HETATM   22  C12 UNL     1       4.274  79.158  28.136  1.00  0.00     0.002 A 
HETATM   23  C13 UNL     1       3.015  78.549  28.127  1.00  0.00     0.031 A 
HETATM   24  C14 UNL     1       2.826  77.249  28.551  1.00  0.00     0.054 A 
BRANCH  24  25
HETATM   25  N4  UNL     1       1.524  76.691  28.467  1.00  0.00    -0.388 N 
ATOM     26  H4  UNL     1       1.401  75.689  28.615  1.00  0.00     0.159 HD
BRANCH  25  27
HETATM   27  C15 UNL     1       0.351  77.520  28.173  1.00  0.00     0.124 C 
BRANCH  27  28
HETATM   28  C16 UNL     1      -0.365  76.885  27.033  1.00  0.00     0.058 C 
BRANCH  28  29
HETATM   29  C17 UNL     1      -1.721  77.420  26.769  1.00  0.00    -0.057 A 
HETATM   30  C18 UNL     1      -2.499  77.682  27.888  1.00  0.00     0.007 A 
HETATM   31  C19 UNL     1      -3.783  78.176  27.744  1.00  0.00     0.001 A 
HETATM   32  C20 UNL     1      -4.274  78.401  26.466  1.00  0.00     0.000 A 
HETATM   33  C21 UNL     1      -3.484  78.134  25.361  1.00  0.00     0.001 A 
HETATM   34  C22 UNL     1      -2.201  77.641  25.503  1.00  0.00     0.007 A 
ENDBRANCH  28  29
ENDBRANCH  27  28
ENDBRANCH  25  27
ENDBRANCH  24  25
ENDBRANCH   1  19
TORSDOF 13
ENDMDL
MODEL 3
REMARK VINA RESULT: -8.238413425      0.636      1.121
REMARK  13 active torsions:
REMARK  status: ('A' for Active; 'I' for Inactive)
REMARK    1  A    between atoms: O1_1  and  C1_3 
REMARK    2  A    between atoms: C4_7  and  N1_8 
REMARK    3  A    between atoms: N1_8  and  C5_10 
REMARK    4  A    between atoms: C5_10  and  C6_11 
REMARK    5  A    between atoms: C6_11  and  N2_12 
REMARK    6  A    between atoms: N2_12  and  C7_15 
REMARK    7  A    between atoms: C7_15  and  C8_16 
REMARK    8  A    between atoms: C8_16  and  N3_17 
REMARK    9  A    between atoms: N3_17  and  C9_19 
REMARK   10  A    between atoms: C14_24  and  N4_25 
REMARK   11  A    between atoms: N4_25  and  C15_27 
REMARK   12  A    between atoms: C15_27  and  C16_28 
REMARK   13  A    between atoms: C16_28  and  C17_29 
ROOT
HETATM    1  N3  UNL     1       0.930  77.212  29.151  1.00  0.00    -0.387 N 
ATOM      2  H3  UNL     1       0.682  76.659  29.972  1.00  0.00     0.159 HD
ENDROOT
BRANCH   1   3
HETATM    3  C8  UNL     1      -0.127  77.663  28.276  1.00  0.00     0.147 C 
BRANCH   3   4
HETATM    4  C7  UNL     1      -0.036  76.866  26.994  1.00  0.00     0.251 C 
BRANCH   4   5
HETATM    5  N2  UNL     1      -0.521  77.617  25.895  1.00  0.00    -0.072 N 
ATOM      6  H22 UNL     1       0.072  77.492  25.074  1.00  0.00     0.277 HD
ATOM      7  H21 UNL     1      -0.385  78.616  26.045  1.00  0.00     0.277 HD
BRANCH   5   8
HETATM    8  C6  UNL     1      -1.886  77.324  25.591  1.00  0.00     0.251 C 
BRANCH   8   9
HETATM    9  C5  UNL     1      -2.668  78.586  25.261  1.00  0.00     0.147 C 
BRANCH   9  10
HETATM   10  N1  UNL     1      -2.638  79.509  26.367  1.00  0.00    -0.384 N 
ATOM     11  H1  UNL     1      -1.757  79.960  26.613  1.00  0.00     0.159 HD
BRANCH  10  12
HETATM   12  C4  UNL     1      -3.799  79.806  27.120  1.00  0.00     0.088 A 
HETATM   13  C1  UNL     1      -4.350  81.086  27.275  1.00  0.00     0.210 A 
HETATM   14  O2  UNL     1      -5.421  81.000  28.011  1.00  0.00    -0.299 OA
HETATM   15  C2  UNL     1      -5.666  79.773  28.382  1.00  0.00     0.147 A 
HETATM   16  C3  UNL     1      -4.650  78.992  27.829  1.00  0.00     0.059 A 
BRANCH  13  17
HETATM   17  O1  UNL     1      -3.786  82.223  26.703  1.00  0.00    -0.339 OA
ATOM     18  H1  UNL     1      -3.917  82.569  25.828  1.00  0.00     0.220 HD
ENDBRANCH  13  17
ENDBRANCH  10  12
ENDBRANCH   9  10
ENDBRANCH   8   9
ENDBRANCH   5   8
ENDBRANCH   4   5
ENDBRANCH   3   4
ENDBRANCH   1   3
BRANCH   1  19
HETATM   19  C9  UNL     1       2.291  77.505  28.920  1.00  0.00     0.054 A 
HETATM   20  C10 UNL     1       2.660  78.743  28.394  1.00  0.00     0.031 A 
HETATM   21  C11 UNL     1       3.979  79.067  28.109  1.00  0.00     0.002 A 
HETATM   22  C12 UNL     1       4.975  78.159  28.341  1.00  0.00     0.002 A 
HETATM   23  C13 UNL     1       4.614  76.915  28.867  1.00  0.00     0.031 A 
HETATM   24  C14 UNL     1       3.302  76.592  29.151  1.00  0.00     0.054 A 
BRANCH  24  25
HETATM   25  N4  UNL     1       3.026  75.323  29.726  1.00  0.00    -0.388 N 
ATOM     26  H4  UNL     1       2.652  75.276  30.673  1.00  0.00     0.159 HD
BRANCH  25  27
HETATM   27  C15 UNL     1       3.266  74.078  28.988  1.00  0.00     0.124 C 
BRANCH  27  28
HETATM   28  C16 UNL     1       2.990  72.952  29.922  1.00  0.00     0.058 C 
BRANCH  28  29
HETATM   29  C17 UNL     1       4.192  72.328  30.523  1.00  0.00    -0.057 A 
HETATM   30  C18 UNL     1       5.203  71.981  29.638  1.00  0.00     0.007 A 
HETATM   31  C19 UNL     1       6.361  71.385  30.103  1.00  0.00     0.001 A 
HETATM   32  C20 UNL     1       6.491  71.143  31.462  1.00  0.00     0.000 A 
HETATM   33  C21 UNL     1       5.472  71.495  32.331  1.00  0.00     0.001 A 
HETATM   34  C22 UNL     1       4.314  72.092  31.869  1.00  0.00     0.007 A 
ENDBRANCH  28  29
ENDBRANCH  27  28
ENDBRANCH  25  27
ENDBRANCH  24  25
ENDBRANCH   1  19
TORSDOF 13
ENDMDL
MODEL 4
REMARK VINA RESULT: -8.166617645      1.129      1.292
REMARK  13 active torsions:
REMARK  status: ('A' for Active; 'I' for Inactive)
REMARK    1  A    between atoms: O1_1  and  C1_3 
REMARK    2  A    between atoms: C4_7  and  N1_8 
REMARK    3  A    between atoms: N1_8  and  C5_10 
REMARK    4  A    between atoms: C5_10  and  C6_11 
REMARK    5  A    between atoms: C6_11  and  N2_12 
REMARK    6  A    between atoms: N2_12  and  C7_15 
REMARK    7  A    between atoms: C7_15  and  C8_16 
REMARK    8  A    between atoms: C8_16  and  N3_17 
REMARK    9  A    between atoms: N3_17  and  C9_19 
REMARK   10  A    between atoms: C14_24  and  N4_25 
REMARK   11  A    between atoms: N4_25  and  C15_27 
REMARK   12  A    between atoms: C15_27  and  C16_28 
REMARK   13  A    between atoms: C16_28  and  C17_29 
ROOT
HETATM    1  N3  UNL     1       0.629  77.177  28.878  1.00  0.00    -0.387 N 
ATOM      2  H3  UNL     1       0.438  76.544  29.655  1.00  0.00     0.159 HD
ENDROOT
BRANCH   1   3
HETATM    3  C8  UNL     1      -0.470  77.591  28.037  1.00  0.00     0.147 C 
BRANCH   3   4
HETATM    4  C7  UNL     1      -0.259  76.984  26.669  1.00  0.00     0.251 C 
BRANCH   4   5
HETATM    5  N2  UNL     1      -0.778  77.826  25.654  1.00  0.00    -0.072 N 
ATOM      6  H22 UNL     1      -0.269  77.702  24.779  1.00  0.00     0.277 HD
ATOM      7  H21 UNL     1      -0.553  78.803  25.839  1.00  0.00     0.277 HD
BRANCH   5   8
HETATM    8  C6  UNL     1      -2.183  77.649  25.462  1.00  0.00     0.251 C 
BRANCH   8   9
HETATM    9  C5  UNL     1      -2.909  78.984  25.393  1.00  0.00     0.147 C 
BRANCH   9  10
HETATM   10  N1  UNL     1      -2.762  79.708  26.630  1.00  0.00    -0.384 N 
ATOM     11  H1  UNL     1      -1.879  79.652  27.137  1.00  0.00     0.159 HD
BRANCH  10  12
HETATM   12  C4  UNL     1      -3.812  80.497  27.160  1.00  0.00     0.088 A 
HETATM   13  C1  UNL     1      -4.929  79.992  27.841  1.00  0.00     0.210 A 
HETATM   14  O2  UNL     1      -5.686  80.986  28.207  1.00  0.00    -0.299 OA
HETATM   15  C2  UNL     1      -5.196  82.140  27.842  1.00  0.00     0.147 A 
HETATM   16  C3  UNL     1      -4.003  81.857  27.174  1.00  0.00     0.059 A 
BRANCH  13  17
HETATM   17  O1  UNL     1      -5.130  78.631  28.055  1.00  0.00    -0.339 OA
ATOM     18  H1  UNL     1      -5.273  78.179  28.878  1.00  0.00     0.220 HD
ENDBRANCH  13  17
ENDBRANCH  10  12
ENDBRANCH   9  10
ENDBRANCH   8   9
ENDBRANCH   5   8
ENDBRANCH   4   5
ENDBRANCH   3   4
ENDBRANCH   1   3
BRANCH   1  19
HETATM   19  C9  UNL     1       1.956  77.611  28.670  1.00  0.00     0.054 A 
HETATM   20  C10 UNL     1       2.244  78.974  28.604  1.00  0.00     0.031 A 
HETATM   21  C11 UNL     1       3.523  79.454  28.361  1.00  0.00     0.002 A 
HETATM   22  C12 UNL     1       4.560  78.581  28.173  1.00  0.00     0.002 A 
HETATM   23  C13 UNL     1       4.280  77.212  28.237  1.00  0.00     0.031 A 
HETATM   24  C14 UNL     1       3.008  76.734  28.479  1.00  0.00     0.054 A 
BRANCH  24  25
HETATM   25  N4  UNL     1       2.818  75.331  28.572  1.00  0.00    -0.388 N 
ATOM     26  H4  UNL     1       1.977  74.914  28.173  1.00  0.00     0.159 HD
BRANCH  25  27
HETATM   27  C15 UNL     1       3.802  74.464  29.229  1.00  0.00     0.124 C 
BRANCH  27  28
HETATM   28  C16 UNL     1       3.274  74.142  30.583  1.00  0.00     0.058 C 
BRANCH  28  29
HETATM   29  C17 UNL     1       3.272  72.701  30.928  1.00  0.00    -0.057 A 
HETATM   30  C18 UNL     1       2.653  71.859  30.015  1.00  0.00     0.007 A 
HETATM   31  C19 UNL     1       2.593  70.498  30.253  1.00  0.00     0.001 A 
HETATM   32  C20 UNL     1       3.160  69.995  31.415  1.00  0.00     0.000 A 
HETATM   33  C21 UNL     1       3.773  70.851  32.315  1.00  0.00     0.001 A 
HETATM   34  C22 UNL     1       3.835  72.211  32.079  1.00  0.00     0.007 A 
ENDBRANCH  28  29
ENDBRANCH  27  28
ENDBRANCH  25  27
ENDBRANCH  24  25
ENDBRANCH   1  19
TORSDOF 13
ENDMDL
MODEL 5
REMARK VINA RESULT: -8.085126962      4.570     10.255
REMARK  13 active torsions:
REMARK  status: ('A' for Active; 'I' for Inactive)
REMARK    1  A    between atoms: O1_1  and  C1_3 
REMARK    2  A    between atoms: C4_7  and  N1_8 
REMARK    3  A    between atoms: N1_8  and  C5_10 
REMARK    4  A    between atoms: C5_10  and  C6_11 
REMARK    5  A    between atoms: C6_11  and  N2_12 
REMARK    6  A    between atoms: N2_12  and  C7_15 
REMARK    7  A    between atoms: C7_15  and  C8_16 
REMARK    8  A    between atoms: C8_16  and  N3_17 
REMARK    9  A    between atoms: N3_17  and  C9_19 
REMARK   10  A    between atoms: C14_24  and  N4_25 
REMARK   11  A    between atoms: N4_25  and  C15_27 
REMARK   12  A    between atoms: C15_27  and  C16_28 
REMARK   13  A    between atoms: C16_28  and  C17_29 
ROOT
HETATM    1  N3  UNL     1       3.823  75.045  29.246  1.00  0.00    -0.387 N 
ATOM      2  H3  UNL     1       3.223  74.812  30.038  1.00  0.00     0.159 HD
ENDROOT
BRANCH   1   3
HETATM    3  C8  UNL     1       4.507  73.974  28.559  1.00  0.00     0.147 C 
BRANCH   3   4
HETATM    4  C7  UNL     1       3.716  72.704  28.777  1.00  0.00     0.251 C 
BRANCH   4   5
HETATM    5  N2  UNL     1       3.053  72.728  30.029  1.00  0.00    -0.072 N 
ATOM      6  H22 UNL     1       2.141  73.179  29.954  1.00  0.00     0.277 HD
ATOM      7  H21 UNL     1       3.506  73.378  30.671  1.00  0.00     0.277 HD
BRANCH   5   8
HETATM    8  C6  UNL     1       2.937  71.428  30.611  1.00  0.00     0.251 C 
BRANCH   8   9
HETATM    9  C5  UNL     1       3.450  71.411  32.044  1.00  0.00     0.147 C 
BRANCH   9  10
HETATM   10  N1  UNL     1       4.779  71.960  32.116  1.00  0.00    -0.384 N 
ATOM     11  H1  UNL     1       4.896  72.972  32.169  1.00  0.00     0.159 HD
BRANCH  10  12
HETATM   12  C4  UNL     1       5.928  71.132  32.116  1.00  0.00     0.088 A 
HETATM   13  C1  UNL     1       6.973  71.209  33.047  1.00  0.00     0.210 A 
HETATM   14  O2  UNL     1       7.857  70.295  32.768  1.00  0.00    -0.299 OA
HETATM   15  C2  UNL     1       7.521  69.586  31.724  1.00  0.00     0.147 A 
HETATM   16  C3  UNL     1       6.297  70.098  31.290  1.00  0.00     0.059 A 
BRANCH  13  17
HETATM   17  O1  UNL     1       6.994  72.141  34.080  1.00  0.00    -0.339 OA
ATOM     18  H1  UNL     1       6.791  72.008  34.999  1.00  0.00     0.220 HD
ENDBRANCH  13  17
ENDBRANCH  10  12
ENDBRANCH   9  10
ENDBRANCH   8   9
ENDBRANCH   5   8
ENDBRANCH   4   5
ENDBRANCH   3   4
ENDBRANCH   1   3
BRANCH   1  19
HETATM   19  C9  UNL     1       3.950  76.399  28.869  1.00  0.00     0.054 A 
HETATM   20  C10 UNL     1       5.197  77.023  28.913  1.00  0.00     0.031 A 
HETATM   21  C11 UNL     1       5.370  78.362  28.593  1.00  0.00     0.002 A 
HETATM   22  C12 UNL     1       4.298  79.124  28.220  1.00  0.00     0.002 A 
HETATM   23  C13 UNL     1       3.044  78.507  28.174  1.00  0.00     0.031 A 
HETATM   24  C14 UNL     1       2.870  77.175  28.491  1.00  0.00     0.054 A 
BRANCH  24  25
HETATM   25  N4  UNL     1       1.570  76.615  28.376  1.00  0.00    -0.388 N 
ATOM     26  H4  UNL     1       1.456  75.604  28.448  1.00  0.00     0.159 HD
BRANCH  25  27
HETATM   27  C15 UNL     1       0.389  77.455  28.157  1.00  0.00     0.124 C 
BRANCH  27  28
HETATM   28  C16 UNL     1      -0.336  76.901  26.980  1.00  0.00     0.058 C 
BRANCH  28  29
HETATM   29  C17 UNL     1      -1.709  77.423  26.788  1.00  0.00    -0.057 A 
HETATM   30  C18 UNL     1      -2.452  77.619  27.944  1.00  0.00     0.007 A 
HETATM   31  C19 UNL     1      -3.748  78.095  27.866  1.00  0.00     0.001 A 
HETATM   32  C20 UNL     1      -4.287  78.371  26.618  1.00  0.00     0.000 A 
HETATM   33  C21 UNL     1      -3.531  78.169  25.475  1.00  0.00     0.001 A 
HETATM   34  C22 UNL     1      -2.235  77.693  25.550  1.00  0.00     0.007 A 
ENDBRANCH  28  29
ENDBRANCH  27  28
ENDBRANCH  25  27
ENDBRANCH  24  25
ENDBRANCH   1  19
TORSDOF 13
ENDMDL
