MODEL 1
REMARK VINA RESULT: -8.476882494      0.000      0.000
REMARK  12 active torsions:
REMARK  status: ('A' for Active; 'I' for Inactive)
REMARK    1  A    between atoms: C2_3  and  N2_4 
REMARK    2  A    between atoms: C6_12  and  N4_13 
REMARK    3  A    between atoms: N4_13  and  C7_15 
REMARK    4  A    between atoms: C7_15  and  C8_16 
REMARK    5  A    between atoms: C8_16  and  C9_17 
REMARK    6  A    between atoms: C9_17  and  C10_18 
REMARK    7  A    between atoms: C10_18  and  C11_19 
REMARK    8  A    between atoms: C11_19  and  C12_20 
REMARK    9  A    between atoms: C12_20  and  C13_21 
REMARK   10  A    between atoms: C13_21  and  C14_22 
REMARK   11  A    between atoms: C14_22  and  N5_23 
REMARK   12  A    between atoms: N5_23  and  C15_25 
ROOT
HETATM    1  C7  UNL     1      -0.059  76.995  26.766  1.00  0.00     0.119 C 
ENDROOT
BRANCH   1   2
HETATM    2  N4  UNL     1      -0.981  77.963  26.161  1.00  0.00    -0.390 N 
ATOM      3  H4  UNL     1      -0.697  78.499  25.342  1.00  0.00     0.159 HD
BRANCH   2   4
HETATM    4  C6  UNL     1      -2.270  78.147  26.722  1.00  0.00     0.030 A 
HETATM    5  C5  UNL     1      -3.057  77.075  27.083  1.00  0.00     0.031 A 
HETATM    6  C4  UNL     1      -4.322  77.246  27.634  1.00  0.00     0.034 A 
HETATM    7  C3  UNL     1      -4.834  78.513  27.836  1.00  0.00     0.076 A 
HETATM    8  N3  UNL     1      -5.981  79.010  28.329  1.00  0.00    -0.190 N 
HETATM    9  C21 UNL     1      -4.043  79.583  27.473  1.00  0.00     0.080 A 
HETATM   10  C2  UNL     1      -5.930  80.352  28.286  1.00  0.00     0.678 A 
ATOM     11  H3  UNL     1      -6.763  78.458  28.680  1.00  0.00     0.184 HD
HETATM   12  N1  UNL     1      -4.731  80.708  27.756  1.00  0.00    -0.186 N 
HETATM   13  C1  UNL     1      -4.246  82.047  27.522  1.00  0.00     0.175 C 
HETATM   14  C20 UNL     1      -2.785  79.411  26.926  1.00  0.00     0.061 A 
BRANCH  10  15
HETATM   15  N2  UNL     1      -6.858  81.180  28.678  1.00  0.00    -0.234 N 
ATOM     16  H22 UNL     1      -7.406  81.806  28.087  1.00  0.00     0.174 HD
ATOM     17  H21 UNL     1      -7.161  81.314  29.642  1.00  0.00     0.174 HD
ENDBRANCH  10  15
ENDBRANCH   2   4
ENDBRANCH   1   2
BRANCH   1  18
HETATM   18  C8  UNL     1       0.197  77.319  28.208  1.00  0.00     0.020 C 
BRANCH  18  19
HETATM   19  C9  UNL     1       1.659  77.531  28.489  1.00  0.00     0.002 C 
BRANCH  19  20
HETATM   20  C10 UNL     1       2.018  78.935  28.839  1.00  0.00     0.000 C 
BRANCH  20  21
HETATM   21  C11 UNL     1       3.050  79.538  27.947  1.00  0.00     0.000 C 
BRANCH  21  22
HETATM   22  C12 UNL     1       4.093  78.567  27.518  1.00  0.00     0.002 C 
BRANCH  22  23
HETATM   23  C13 UNL     1       5.247  78.581  28.481  1.00  0.00     0.020 C 
BRANCH  23  24
HETATM   24  C14 UNL     1       5.687  77.169  28.842  1.00  0.00     0.121 C 
BRANCH  24  25
HETATM   25  N5  UNL     1       5.313  76.223  27.818  1.00  0.00    -0.375 N 
ATOM     26  H5  UNL     1       5.330  76.492  26.834  1.00  0.00     0.161 HD
BRANCH  25  27
HETATM   27  C15 UNL     1       4.924  74.916  28.197  1.00  0.00     0.125 A 
HETATM   28  N6  UNL     1       3.769  74.681  28.880  1.00  0.00    -0.351 N 
HETATM   29  C16 UNL     1       3.389  73.443  29.246  1.00  0.00     0.090 A 
ATOM     30  H6  UNL     1       3.171  75.471  29.123  1.00  0.00     0.166 HD
HETATM   31  C17 UNL     1       4.205  72.383  28.912  1.00  0.00     0.019 A 
HETATM   32  C18 UNL     1       5.392  72.546  28.220  1.00  0.00     0.032 A 
HETATM   33  C19 UNL     1       5.726  73.840  27.874  1.00  0.00     0.090 A 
HETATM   34  N7  UNL     1       6.935  74.063  27.162  1.00  0.00    -0.098 NA
ENDBRANCH  25  27
ENDBRANCH  24  25
ENDBRANCH  23  24
ENDBRANCH  22  23
ENDBRANCH  21  22
ENDBRANCH  20  21
ENDBRANCH  19  20
ENDBRANCH  18  19
ENDBRANCH   1  18
TORSDOF 12
ENDMDL
MODEL 2
REMARK VINA RESULT: -8.345788092      1.374     10.134
REMARK  12 active torsions:
REMARK  status: ('A' for Active; 'I' for Inactive)
REMARK    1  A    between atoms: C2_3  and  N2_4 
REMARK    2  A    between atoms: C6_12  and  N4_13 
REMARK    3  A    between atoms: N4_13  and  C7_15 
REMARK    4  A    between atoms: C7_15  and  C8_16 
REMARK    5  A    between atoms: C8_16  and  C9_17 
REMARK    6  A    between atoms: C9_17  and  C10_18 
REMARK    7  A    between atoms: C10_18  and  C11_19 
REMARK    8  A    between atoms: C11_19  and  C12_20 
REMARK    9  A    between atoms: C12_20  and  C13_21 
REMARK   10  A    between atoms: C13_21  and  C14_22 
REMARK   11  A    between atoms: C14_22  and  N5_23 
REMARK   12  A    between atoms: N5_23  and  C15_25 
ROOT
HETATM    1  C7  UNL     1       0.488  77.520  29.247  1.00  0.00     0.119 C 
ENDROOT
BRANCH   1   2
HETATM    2  N4  UNL     1       1.680  78.297  28.886  1.00  0.00    -0.390 N 
ATOM      3  H4  UNL     1       1.637  79.316  28.853  1.00  0.00     0.159 HD
BRANCH   2   4
HETATM    4  C6  UNL     1       2.891  77.624  28.584  1.00  0.00     0.030 A 
HETATM    5  C5  UNL     1       4.010  78.310  28.165  1.00  0.00     0.031 A 
HETATM    6  C4  UNL     1       5.202  77.659  27.868  1.00  0.00     0.034 A 
HETATM    7  C3  UNL     1       5.298  76.285  27.983  1.00  0.00     0.076 A 
HETATM    8  N3  UNL     1       6.268  75.378  27.780  1.00  0.00    -0.190 N 
HETATM    9  C21 UNL     1       4.175  75.603  28.403  1.00  0.00     0.080 A 
HETATM   10  C2  UNL     1       5.787  74.154  28.060  1.00  0.00     0.678 A 
ATOM     11  H3  UNL     1       7.215  75.584  27.465  1.00  0.00     0.184 HD
HETATM   12  N1  UNL     1       4.491  74.293  28.445  1.00  0.00    -0.186 N 
HETATM   13  C1  UNL     1       3.584  73.241  28.837  1.00  0.00     0.175 C 
HETATM   14  C20 UNL     1       2.992  76.252  28.699  1.00  0.00     0.061 A 
BRANCH  10  15
HETATM   15  N2  UNL     1       6.435  73.026  27.979  1.00  0.00    -0.234 N 
ATOM     16  H22 UNL     1       6.044  72.113  27.745  1.00  0.00     0.174 HD
ATOM     17  H21 UNL     1       7.434  72.905  28.144  1.00  0.00     0.174 HD
ENDBRANCH  10  15
ENDBRANCH   2   4
ENDBRANCH   1   2
BRANCH   1  18
HETATM   18  C8  UNL     1      -0.550  77.589  28.167  1.00  0.00     0.020 C 
BRANCH  18  19
HETATM   19  C9  UNL     1      -0.182  76.749  26.976  1.00  0.00     0.002 C 
BRANCH  19  20
HETATM   20  C10 UNL     1      -0.788  77.207  25.693  1.00  0.00     0.000 C 
BRANCH  20  21
HETATM   21  C11 UNL     1      -2.246  76.923  25.574  1.00  0.00     0.000 C 
BRANCH  21  22
HETATM   22  C12 UNL     1      -3.029  78.077  25.055  1.00  0.00     0.002 C 
BRANCH  22  23
HETATM   23  C13 UNL     1      -4.198  78.364  25.955  1.00  0.00     0.020 C 
BRANCH  23  24
HETATM   24  C14 UNL     1      -4.033  77.690  27.311  1.00  0.00     0.121 C 
BRANCH  24  25
HETATM   25  N5  UNL     1      -4.683  78.443  28.357  1.00  0.00    -0.375 N 
ATOM     26  H5  UNL     1      -5.031  77.973  29.193  1.00  0.00     0.161 HD
BRANCH  25  27
HETATM   27  C15 UNL     1      -4.831  79.842  28.207  1.00  0.00     0.125 A 
HETATM   28  N6  UNL     1      -3.757  80.665  28.055  1.00  0.00    -0.351 N 
HETATM   29  C16 UNL     1      -3.886  81.997  27.913  1.00  0.00     0.090 A 
ATOM     30  H6  UNL     1      -2.821  80.258  28.048  1.00  0.00     0.166 HD
HETATM   31  C17 UNL     1      -5.156  82.536  27.923  1.00  0.00     0.019 A 
HETATM   32  C18 UNL     1      -6.292  81.763  28.074  1.00  0.00     0.032 A 
HETATM   33  C19 UNL     1      -6.092  80.403  28.216  1.00  0.00     0.090 A 
HETATM   34  N7  UNL     1      -7.227  79.562  28.375  1.00  0.00    -0.098 NA
ENDBRANCH  25  27
ENDBRANCH  24  25
ENDBRANCH  23  24
ENDBRANCH  22  23
ENDBRANCH  21  22
ENDBRANCH  20  21
ENDBRANCH  19  20
ENDBRANCH  18  19
ENDBRANCH   1  18
TORSDOF 12
ENDMDL
MODEL 3
REMARK VINA RESULT: -8.285942947      1.090      1.460
REMARK  12 active torsions:
REMARK  status: ('A' for Active; 'I' for Inactive)
REMARK    1  A    between atoms: C2_3  and  N2_4 
REMARK    2  A    between atoms: C6_12  and  N4_13 
REMARK    3  A    between atoms: N4_13  and  C7_15 
REMARK    4  A    between atoms: C7_15  and  C8_16 
REMARK    5  A    between atoms: C8_16  and  C9_17 
REMARK    6  A    between atoms: C9_17  and  C10_18 
REMARK    7  A    between atoms: C10_18  and  C11_19 
REMARK    8  A    between atoms: C11_19  and  C12_20 
REMARK    9  A    between atoms: C12_20  and  C13_21 
REMARK   10  A    between atoms: C13_21  and  C14_22 
REMARK   11  A    between atoms: C14_22  and  N5_23 
REMARK   12  A    between atoms: N5_23  and  C15_25 
ROOT
HETATM    1  C7  UNL     1       0.209  77.205  27.015  1.00  0.00     0.119 C 
ENDROOT
BRANCH   1   2
HETATM    2  N4  UNL     1      -0.821  77.919  26.251  1.00  0.00    -0.390 N 
ATOM      3  H4  UNL     1      -0.599  78.315  25.338  1.00  0.00     0.159 HD
BRANCH   2   4
HETATM    4  C6  UNL     1      -2.125  78.054  26.790  1.00  0.00     0.030 A 
HETATM    5  C5  UNL     1      -2.887  76.953  27.115  1.00  0.00     0.031 A 
HETATM    6  C4  UNL     1      -4.166  77.075  27.645  1.00  0.00     0.034 A 
HETATM    7  C3  UNL     1      -4.719  78.323  27.862  1.00  0.00     0.076 A 
HETATM    8  N3  UNL     1      -5.889  78.776  28.342  1.00  0.00    -0.190 N 
HETATM    9  C21 UNL     1      -3.953  79.422  27.535  1.00  0.00     0.080 A 
HETATM   10  C2  UNL     1      -5.877  80.120  28.325  1.00  0.00     0.678 A 
ATOM     11  H3  UNL     1      -6.661  78.195  28.666  1.00  0.00     0.184 HD
HETATM   12  N1  UNL     1      -4.679  80.521  27.825  1.00  0.00    -0.186 N 
HETATM   13  C1  UNL     1      -4.231  81.878  27.627  1.00  0.00     0.175 C 
HETATM   14  C20 UNL     1      -2.681  79.299  27.008  1.00  0.00     0.061 A 
BRANCH  10  15
HETATM   15  N2  UNL     1      -6.837  80.912  28.715  1.00  0.00    -0.234 N 
ATOM     16  H22 UNL     1      -7.132  81.779  28.266  1.00  0.00     0.174 HD
ATOM     17  H21 UNL     1      -7.427  80.767  29.534  1.00  0.00     0.174 HD
ENDBRANCH  10  15
ENDBRANCH   2   4
ENDBRANCH   1   2
BRANCH   1  18
HETATM   18  C8  UNL     1       0.195  77.615  28.457  1.00  0.00     0.020 C 
BRANCH  18  19
HETATM   19  C9  UNL     1       1.581  77.846  28.992  1.00  0.00     0.002 C 
BRANCH  19  20
HETATM   20  C10 UNL     1       2.361  78.876  28.248  1.00  0.00     0.000 C 
BRANCH  20  21
HETATM   21  C11 UNL     1       3.631  78.366  27.658  1.00  0.00     0.000 C 
BRANCH  21  22
HETATM   22  C12 UNL     1       4.813  78.573  28.540  1.00  0.00     0.002 C 
BRANCH  22  23
HETATM   23  C13 UNL     1       5.468  77.257  28.852  1.00  0.00     0.020 C 
BRANCH  23  24
HETATM   24  C14 UNL     1       4.916  76.140  27.977  1.00  0.00     0.121 C 
BRANCH  24  25
HETATM   25  N5  UNL     1       5.969  75.469  27.253  1.00  0.00    -0.375 N 
ATOM     26  H5  UNL     1       6.318  75.853  26.374  1.00  0.00     0.161 HD
BRANCH  25  27
HETATM   27  C15 UNL     1       6.511  74.271  27.777  1.00  0.00     0.125 A 
HETATM   28  N6  UNL     1       5.722  73.308  28.329  1.00  0.00    -0.351 N 
HETATM   29  C16 UNL     1       6.226  72.166  28.831  1.00  0.00     0.090 A 
ATOM     30  H6  UNL     1       4.713  73.458  28.364  1.00  0.00     0.166 HD
HETATM   31  C17 UNL     1       7.591  71.975  28.779  1.00  0.00     0.019 A 
HETATM   32  C18 UNL     1       8.454  72.909  28.234  1.00  0.00     0.032 A 
HETATM   33  C19 UNL     1       7.874  74.060  27.736  1.00  0.00     0.090 A 
HETATM   34  N7  UNL     1       8.716  75.052  27.165  1.00  0.00    -0.098 NA
ENDBRANCH  25  27
ENDBRANCH  24  25
ENDBRANCH  23  24
ENDBRANCH  22  23
ENDBRANCH  21  22
ENDBRANCH  20  21
ENDBRANCH  19  20
ENDBRANCH  18  19
ENDBRANCH   1  18
TORSDOF 12
ENDMDL
MODEL 4
REMARK VINA RESULT: -8.185754410      2.524      3.387
REMARK  12 active torsions:
REMARK  status: ('A' for Active; 'I' for Inactive)
REMARK    1  A    between atoms: C2_3  and  N2_4 
REMARK    2  A    between atoms: C6_12  and  N4_13 
REMARK    3  A    between atoms: N4_13  and  C7_15 
REMARK    4  A    between atoms: C7_15  and  C8_16 
REMARK    5  A    between atoms: C8_16  and  C9_17 
REMARK    6  A    between atoms: C9_17  and  C10_18 
REMARK    7  A    between atoms: C10_18  and  C11_19 
REMARK    8  A    between atoms: C11_19  and  C12_20 
REMARK    9  A    between atoms: C12_20  and  C13_21 
REMARK   10  A    between atoms: C13_21  and  C14_22 
REMARK   11  A    between atoms: C14_22  and  N5_23 
REMARK   12  A    between atoms: N5_23  and  C15_25 
ROOT
HETATM    1  C7  UNL     1       0.219  77.070  27.155  1.00  0.00     0.119 C 
ENDROOT
BRANCH   1   2
HETATM    2  N4  UNL     1      -0.767  77.829  26.378  1.00  0.00    -0.390 N 
ATOM      3  H4  UNL     1      -0.507  78.240  25.482  1.00  0.00     0.159 HD
BRANCH   2   4
HETATM    4  C6  UNL     1      -2.084  77.987  26.879  1.00  0.00     0.030 A 
HETATM    5  C5  UNL     1      -2.872  76.899  27.188  1.00  0.00     0.031 A 
HETATM    6  C4  UNL     1      -4.164  77.045  27.681  1.00  0.00     0.034 A 
HETATM    7  C3  UNL     1      -4.702  78.302  27.876  1.00  0.00     0.076 A 
HETATM    8  N3  UNL     1      -5.878  78.776  28.322  1.00  0.00    -0.190 N 
HETATM    9  C21 UNL     1      -3.910  79.388  27.566  1.00  0.00     0.080 A 
HETATM   10  C2  UNL     1      -5.844  80.119  28.299  1.00  0.00     0.678 A 
ATOM     11  H3  UNL     1      -6.668  78.208  28.627  1.00  0.00     0.184 HD
HETATM   12  N1  UNL     1      -4.627  80.499  27.831  1.00  0.00    -0.186 N 
HETATM   13  C1  UNL     1      -4.151  81.848  27.640  1.00  0.00     0.175 C 
HETATM   14  C20 UNL     1      -2.626  79.241  27.076  1.00  0.00     0.061 A 
BRANCH  10  15
HETATM   15  N2  UNL     1      -6.802  80.929  28.658  1.00  0.00    -0.234 N 
ATOM     16  H22 UNL     1      -6.699  81.808  29.166  1.00  0.00     0.174 HD
ATOM     17  H21 UNL     1      -7.795  80.786  28.477  1.00  0.00     0.174 HD
ENDBRANCH  10  15
ENDBRANCH   2   4
ENDBRANCH   1   2
BRANCH   1  18
HETATM   18  C8  UNL     1       0.754  77.885  28.294  1.00  0.00     0.020 C 
BRANCH  18  19
HETATM   19  C9  UNL     1       1.491  77.040  29.296  1.00  0.00     0.002 C 
BRANCH  19  20
HETATM   20  C10 UNL     1       2.975  77.163  29.228  1.00  0.00     0.000 C 
BRANCH  20  21
HETATM   21  C11 UNL     1       3.704  75.909  29.570  1.00  0.00     0.000 C 
BRANCH  21  22
HETATM   22  C12 UNL     1       3.384  74.777  28.658  1.00  0.00     0.002 C 
BRANCH  22  23
HETATM   23  C13 UNL     1       3.738  73.468  29.306  1.00  0.00     0.020 C 
BRANCH  23  24
HETATM   24  C14 UNL     1       2.907  73.225  30.559  1.00  0.00     0.121 C 
BRANCH  24  25
HETATM   25  N5  UNL     1       3.736  72.832  31.673  1.00  0.00    -0.375 N 
ATOM     26  H5  UNL     1       4.310  73.522  32.159  1.00  0.00     0.161 HD
BRANCH  25  27
HETATM   27  C15 UNL     1       3.743  71.478  32.083  1.00  0.00     0.125 A 
HETATM   28  N6  UNL     1       2.610  70.850  32.505  1.00  0.00    -0.351 N 
HETATM   29  C16 UNL     1       2.605  69.563  32.897  1.00  0.00     0.090 A 
ATOM     30  H6  UNL     1       1.735  71.374  32.525  1.00  0.00     0.166 HD
HETATM   31  C17 UNL     1       3.795  68.865  32.865  1.00  0.00     0.019 A 
HETATM   32  C18 UNL     1       4.983  69.436  32.450  1.00  0.00     0.032 A 
HETATM   33  C19 UNL     1       4.922  70.760  32.060  1.00  0.00     0.090 A 
HETATM   34  N7  UNL     1       6.116  71.396  31.624  1.00  0.00    -0.098 NA
ENDBRANCH  25  27
ENDBRANCH  24  25
ENDBRANCH  23  24
ENDBRANCH  22  23
ENDBRANCH  21  22
ENDBRANCH  20  21
ENDBRANCH  19  20
ENDBRANCH  18  19
ENDBRANCH   1  18
TORSDOF 12
ENDMDL
MODEL 5
REMARK VINA RESULT: -8.156738114      1.057      1.571
REMARK  12 active torsions:
REMARK  status: ('A' for Active; 'I' for Inactive)
REMARK    1  A    between atoms: C2_3  and  N2_4 
REMARK    2  A    between atoms: C6_12  and  N4_13 
REMARK    3  A    between atoms: N4_13  and  C7_15 
REMARK    4  A    between atoms: C7_15  and  C8_16 
REMARK    5  A    between atoms: C8_16  and  C9_17 
REMARK    6  A    between atoms: C9_17  and  C10_18 
REMARK    7  A    between atoms: C10_18  and  C11_19 
REMARK    8  A    between atoms: C11_19  and  C12_20 
REMARK    9  A    between atoms: C12_20  and  C13_21 
REMARK   10  A    between atoms: C13_21  and  C14_22 
REMARK   11  A    between atoms: C14_22  and  N5_23 
REMARK   12  A    between atoms: N5_23  and  C15_25 
ROOT
HETATM    1  C7  UNL     1       0.006  77.058  27.080  1.00  0.00     0.119 C 
ENDROOT
BRANCH   1   2
HETATM    2  N4  UNL     1      -0.937  77.932  26.373  1.00  0.00    -0.390 N 
ATOM      3  H4  UNL     1      -0.653  78.408  25.518  1.00  0.00     0.159 HD
BRANCH   2   4
HETATM    4  C6  UNL     1      -2.247  78.110  26.888  1.00  0.00     0.030 A 
HETATM    5  C5  UNL     1      -3.041  77.035  27.220  1.00  0.00     0.031 A 
HETATM    6  C4  UNL     1      -4.326  77.199  27.726  1.00  0.00     0.034 A 
HETATM    7  C3  UNL     1      -4.850  78.464  27.910  1.00  0.00     0.076 A 
HETATM    8  N3  UNL     1      -6.016  78.956  28.362  1.00  0.00    -0.190 N 
HETATM    9  C21 UNL     1      -4.051  79.538  27.576  1.00  0.00     0.080 A 
HETATM   10  C2  UNL     1      -5.969  80.299  28.321  1.00  0.00     0.678 A 
ATOM     11  H3  UNL     1      -6.808  78.400  28.684  1.00  0.00     0.184 HD
HETATM   12  N1  UNL     1      -4.754  80.659  27.834  1.00  0.00    -0.186 N 
HETATM   13  C1  UNL     1      -4.267  82.001  27.618  1.00  0.00     0.175 C 
HETATM   14  C20 UNL     1      -2.775  79.372  27.074  1.00  0.00     0.061 A 
BRANCH  10  15
HETATM   15  N2  UNL     1      -6.915  81.122  28.680  1.00  0.00    -0.234 N 
ATOM     16  H22 UNL     1      -7.031  82.088  28.372  1.00  0.00     0.174 HD
ATOM     17  H21 UNL     1      -7.673  80.905  29.326  1.00  0.00     0.174 HD
ENDBRANCH  10  15
ENDBRANCH   2   4
ENDBRANCH   1   2
BRANCH   1  18
HETATM   18  C8  UNL     1       0.337  77.603  28.437  1.00  0.00     0.020 C 
BRANCH  18  19
HETATM   19  C9  UNL     1       1.811  77.537  28.728  1.00  0.00     0.002 C 
BRANCH  19  20
HETATM   20  C10 UNL     1       2.603  78.653  28.137  1.00  0.00     0.000 C 
BRANCH  20  21
HETATM   21  C11 UNL     1       4.077  78.433  28.167  1.00  0.00     0.000 C 
BRANCH  21  22
HETATM   22  C12 UNL     1       4.470  77.186  28.879  1.00  0.00     0.002 C 
BRANCH  22  23
HETATM   23  C13 UNL     1       5.625  76.527  28.178  1.00  0.00     0.020 C 
BRANCH  23  24
HETATM   24  C14 UNL     1       5.388  75.034  27.998  1.00  0.00     0.121 C 
BRANCH  24  25
HETATM   25  N5  UNL     1       4.018  74.680  28.284  1.00  0.00    -0.375 N 
ATOM     26  H5  UNL     1       3.251  75.157  27.810  1.00  0.00     0.161 HD
BRANCH  25  27
HETATM   27  C15 UNL     1       3.753  73.662  29.230  1.00  0.00     0.125 A 
HETATM   28  N6  UNL     1       3.590  73.937  30.554  1.00  0.00    -0.351 N 
HETATM   29  C16 UNL     1       3.338  72.977  31.463  1.00  0.00     0.090 A 
ATOM     30  H6  UNL     1       3.661  74.905  30.868  1.00  0.00     0.166 HD
HETATM   31  C17 UNL     1       3.243  71.672  31.026  1.00  0.00     0.019 A 
HETATM   32  C18 UNL     1       3.398  71.318  29.699  1.00  0.00     0.032 A 
HETATM   33  C19 UNL     1       3.656  72.349  28.816  1.00  0.00     0.090 A 
HETATM   34  N7  UNL     1       3.823  72.039  27.439  1.00  0.00    -0.098 NA
ENDBRANCH  25  27
ENDBRANCH  24  25
ENDBRANCH  23  24
ENDBRANCH  22  23
ENDBRANCH  21  22
ENDBRANCH  20  21
ENDBRANCH  19  20
ENDBRANCH  18  19
ENDBRANCH   1  18
TORSDOF 12
ENDMDL
