MODEL 1
REMARK VINA RESULT: -9.916542427      0.000      0.000
REMARK  13 active torsions:
REMARK  status: ('A' for Active; 'I' for Inactive)
REMARK    1  A    between atoms: C5_6  and  C6_7 
REMARK    2  A    between atoms: C10_11  and  C11_12 
REMARK    3  A    between atoms: C11_12  and  C12_13 
REMARK    4  A    between atoms: C12_13  and  C13_14 
REMARK       I    between atoms: C13_14  and  N2_16 
REMARK    5  A    between atoms: N2_16  and  C14_18 
REMARK    6  A    between atoms: C15_23  and  C16_24 
REMARK    7  A    between atoms: C16_24  and  C17_25 
REMARK    8  A    between atoms: C17_25  and  S1_26 
REMARK    9  A    between atoms: S1_26  and  C18_27 
REMARK   10  A    between atoms: C18_27  and  C19_28 
REMARK   11  A    between atoms: C19_28  and  C20_29 
REMARK       I    between atoms: N7_35  and  C22_37 
REMARK   12  A    between atoms: C22_37  and  C23_39 
REMARK   13  A    between atoms: C23_39  and  C24_40 
ROOT
HETATM    1  C14 UNL     1      16.154  23.200  15.104  1.00  0.00     0.167 A 
HETATM    2  N3  UNL     1      15.123  24.019  15.312  1.00  0.00    -0.279 N 
ATOM      3  H3  UNL     1      15.216  24.819  15.938  1.00  0.00     0.189 HD
HETATM    4  N4  UNL     1      14.024  23.788  14.722  1.00  0.00    -0.296 N 
ATOM      5  H4  UNL     1      13.230  24.409  14.876  1.00  0.00     0.187 HD
HETATM    6  C15 UNL     1      13.895  22.758  13.912  1.00  0.00     0.070 A 
HETATM    7  S3  UNL     1      15.478  22.068  14.008  1.00  0.00    -0.038 SA
ENDROOT
BRANCH   6   8
HETATM    8  C16 UNL     1      12.722  22.247  13.106  1.00  0.00     0.076 C 
BRANCH   8   9
HETATM    9  C17 UNL     1      11.551  21.962  13.981  1.00  0.00     0.080 C 
BRANCH   9  10
HETATM   10  S1  UNL     1      10.895  20.344  13.705  1.00  0.00    -0.168 SA
BRANCH  10  11
HETATM   11  C18 UNL     1      11.154  19.088  14.896  1.00  0.00     0.080 C 
BRANCH  11  12
HETATM   12  C19 UNL     1      10.977  19.459  16.356  1.00  0.00     0.076 C 
BRANCH  12  13
HETATM   13  C20 UNL     1      12.370  19.879  16.792  1.00  0.00     0.070 A 
HETATM   14  N5  UNL     1      12.950  21.051  16.867  1.00  0.00    -0.296 N 
HETATM   15  N6  UNL     1      14.146  21.165  17.276  1.00  0.00    -0.279 N 
ATOM     16  H5  UNL     1      12.433  21.887  16.591  1.00  0.00     0.187 HD
HETATM   17  C21 UNL     1      14.820  20.075  17.636  1.00  0.00     0.167 A 
ATOM     18  H6  UNL     1      14.587  22.084  17.328  1.00  0.00     0.189 HD
HETATM   19  N7  UNL     1      16.009  19.936  18.103  1.00  0.00    -0.306 N 
HETATM   20  S2  UNL     1      13.633  18.843  17.353  1.00  0.00    -0.038 SA
HETATM   21  C22 UNL     1      16.890  20.999  18.343  1.00  0.00     0.227 C 
ATOM     22  H7  UNL     1      16.333  18.991  18.312  1.00  0.00     0.171 HD
HETATM   23  O2  UNL     1      18.014  20.987  17.776  1.00  0.00    -0.273 OA
BRANCH  21  24
HETATM   24  C23 UNL     1      16.523  22.132  19.252  1.00  0.00     0.141 C 
BRANCH  24  25
HETATM   25  C24 UNL     1      17.733  22.880  19.681  1.00  0.00    -0.050 A 
HETATM   26  C25 UNL     1      18.101  24.040  19.070  1.00  0.00     0.007 A 
HETATM   27  C26 UNL     1      19.235  24.767  19.453  1.00  0.00     0.001 A 
HETATM   28  C27 UNL     1      19.975  24.241  20.500  1.00  0.00     0.000 A 
HETATM   29  C28 UNL     1      19.611  23.070  21.126  1.00  0.00     0.001 A 
HETATM   30  C29 UNL     1      18.490  22.387  20.718  1.00  0.00     0.007 A 
ENDBRANCH  24  25
ENDBRANCH  21  24
ENDBRANCH  12  13
ENDBRANCH  11  12
ENDBRANCH  10  11
ENDBRANCH   9  10
ENDBRANCH   8   9
ENDBRANCH   6   8
BRANCH   1  31
HETATM   31  N2  UNL     1      17.367  23.250  15.604  1.00  0.00    -0.306 N 
HETATM   32  C13 UNL     1      18.254  24.195  15.050  1.00  0.00     0.223 C 
HETATM   33  O1  UNL     1      17.919  24.765  13.962  1.00  0.00    -0.273 OA
ATOM     34  H2  UNL     1      17.655  22.631  16.361  1.00  0.00     0.171 HD
BRANCH  32  35
HETATM   35  C12 UNL     1      19.566  24.554  15.677  1.00  0.00     0.108 C 
BRANCH  35  36
HETATM   36  C11 UNL     1      20.635  24.708  14.621  1.00  0.00     0.048 C 
BRANCH  36  37
HETATM   37  C10 UNL     1      21.097  26.111  14.609  1.00  0.00    -0.057 A 
HETATM   38  C9  UNL     1      20.387  27.098  13.908  1.00  0.00     0.007 A 
HETATM   39  C8  UNL     1      20.818  28.403  13.921  1.00  0.00     0.001 A 
HETATM   40  C7  UNL     1      21.954  28.734  14.630  1.00  0.00     0.009 A 
HETATM   41  C6  UNL     1      22.689  27.777  15.344  1.00  0.00    -0.025 A 
HETATM   42  C30 UNL     1      22.240  26.479  15.316  1.00  0.00     0.016 A 
BRANCH  41  43
HETATM   43  C5  UNL     1      23.896  28.165  16.110  1.00  0.00     0.255 C 
HETATM   44  N1  UNL     1      24.752  29.037  15.365  1.00  0.00     0.093 N 
HETATM   45  C1  UNL     1      25.188  30.179  16.157  1.00  0.00     0.310 C 
HETATM   46  C2  UNL     1      25.877  28.291  14.889  1.00  0.00     0.273 C 
HETATM   47  C3  UNL     1      25.881  26.943  15.544  1.00  0.00     0.033 C 
HETATM   48  C4  UNL     1      24.723  26.966  16.510  1.00  0.00     0.042 C 
ENDBRANCH  41  43
ENDBRANCH  36  37
ENDBRANCH  35  36
ENDBRANCH  32  35
ENDBRANCH   1  31
TORSDOF 13
ENDMDL
MODEL 2
REMARK VINA RESULT: -9.902798972      3.276     11.059
REMARK  13 active torsions:
REMARK  status: ('A' for Active; 'I' for Inactive)
REMARK    1  A    between atoms: C5_6  and  C6_7 
REMARK    2  A    between atoms: C10_11  and  C11_12 
REMARK    3  A    between atoms: C11_12  and  C12_13 
REMARK    4  A    between atoms: C12_13  and  C13_14 
REMARK       I    between atoms: C13_14  and  N2_16 
REMARK    5  A    between atoms: N2_16  and  C14_18 
REMARK    6  A    between atoms: C15_23  and  C16_24 
REMARK    7  A    between atoms: C16_24  and  C17_25 
REMARK    8  A    between atoms: C17_25  and  S1_26 
REMARK    9  A    between atoms: S1_26  and  C18_27 
REMARK   10  A    between atoms: C18_27  and  C19_28 
REMARK   11  A    between atoms: C19_28  and  C20_29 
REMARK       I    between atoms: N7_35  and  C22_37 
REMARK   12  A    between atoms: C22_37  and  C23_39 
REMARK   13  A    between atoms: C23_39  and  C24_40 
ROOT
HETATM    1  C14 UNL     1      17.725  23.809  19.138  1.00  0.00     0.167 A 
HETATM    2  N3  UNL     1      17.526  24.866  18.351  1.00  0.00    -0.279 N 
ATOM      3  H3  UNL     1      16.585  25.115  18.048  1.00  0.00     0.189 HD
HETATM    4  N4  UNL     1      18.525  25.558  17.985  1.00  0.00    -0.296 N 
ATOM      5  H4  UNL     1      18.381  26.368  17.382  1.00  0.00     0.187 HD
HETATM    6  C15 UNL     1      19.742  25.244  18.372  1.00  0.00     0.070 A 
HETATM    7  S3  UNL     1      19.427  23.845  19.339  1.00  0.00    -0.038 SA
ENDROOT
BRANCH   6   8
HETATM    8  C16 UNL     1      21.089  25.869  18.080  1.00  0.00     0.076 C 
BRANCH   8   9
HETATM    9  C17 UNL     1      20.947  27.307  17.720  1.00  0.00     0.080 C 
BRANCH   9  10
HETATM   10  S1  UNL     1      21.174  27.583  15.989  1.00  0.00    -0.168 SA
BRANCH  10  11
HETATM   11  C18 UNL     1      19.791  27.540  14.916  1.00  0.00     0.080 C 
BRANCH  11  12
HETATM   12  C19 UNL     1      19.686  26.372  13.954  1.00  0.00     0.076 C 
BRANCH  12  13
HETATM   13  C20 UNL     1      18.406  25.673  14.374  1.00  0.00     0.070 A 
HETATM   14  N5  UNL     1      17.192  26.117  14.587  1.00  0.00    -0.296 N 
HETATM   15  N6  UNL     1      16.258  25.329  14.933  1.00  0.00    -0.279 N 
ATOM     16  H5  UNL     1      16.993  27.111  14.474  1.00  0.00     0.187 HD
HETATM   17  C21 UNL     1      16.517  24.032  15.080  1.00  0.00     0.167 A 
ATOM     18  H6  UNL     1      15.317  25.688  15.096  1.00  0.00     0.189 HD
HETATM   19  N7  UNL     1      15.749  23.049  15.386  1.00  0.00    -0.306 N 
HETATM   20  S2  UNL     1      18.207  23.987  14.692  1.00  0.00    -0.038 SA
HETATM   21  C22 UNL     1      14.376  23.173  15.641  1.00  0.00     0.227 C 
ATOM     22  H7  UNL     1      16.164  22.120  15.449  1.00  0.00     0.171 HD
HETATM   23  O2  UNL     1      13.934  22.772  16.750  1.00  0.00    -0.273 OA
BRANCH  21  24
HETATM   24  C23 UNL     1      13.440  23.761  14.630  1.00  0.00     0.141 C 
BRANCH  24  25
HETATM   25  C24 UNL     1      12.898  22.708  13.734  1.00  0.00    -0.050 A 
HETATM   26  C25 UNL     1      11.796  21.986  14.076  1.00  0.00     0.007 A 
HETATM   27  C26 UNL     1      11.262  20.989  13.253  1.00  0.00     0.001 A 
HETATM   28  C27 UNL     1      11.920  20.768  12.052  1.00  0.00     0.000 A 
HETATM   29  C28 UNL     1      13.034  21.492  11.696  1.00  0.00     0.001 A 
HETATM   30  C29 UNL     1      13.526  22.463  12.535  1.00  0.00     0.007 A 
ENDBRANCH  24  25
ENDBRANCH  21  24
ENDBRANCH  12  13
ENDBRANCH  11  12
ENDBRANCH  10  11
ENDBRANCH   9  10
ENDBRANCH   8   9
ENDBRANCH   6   8
BRANCH   1  31
HETATM   31  N2  UNL     1      16.848  22.965  19.631  1.00  0.00    -0.306 N 
HETATM   32  C13 UNL     1      16.567  21.811  18.873  1.00  0.00     0.223 C 
HETATM   33  O1  UNL     1      16.984  21.768  17.671  1.00  0.00    -0.273 OA
ATOM     34  H2  UNL     1      16.389  23.138  20.525  1.00  0.00     0.171 HD
BRANCH  32  35
HETATM   35  C12 UNL     1      15.804  20.641  19.413  1.00  0.00     0.108 C 
BRANCH  35  36
HETATM   36  C11 UNL     1      14.985  19.992  18.322  1.00  0.00     0.048 C 
BRANCH  36  37
HETATM   37  C10 UNL     1      13.840  19.292  18.937  1.00  0.00    -0.057 A 
HETATM   38  C9  UNL     1      13.841  18.969  20.303  1.00  0.00     0.007 A 
HETATM   39  C8  UNL     1      12.760  18.334  20.865  1.00  0.00     0.001 A 
HETATM   40  C7  UNL     1      11.673  18.018  20.077  1.00  0.00     0.009 A 
HETATM   41  C6  UNL     1      11.634  18.324  18.709  1.00  0.00    -0.025 A 
HETATM   42  C30 UNL     1      12.726  18.959  18.168  1.00  0.00     0.016 A 
BRANCH  41  43
HETATM   43  C5  UNL     1      10.447  17.987  17.890  1.00  0.00     0.255 C 
HETATM   44  N1  UNL     1      10.448  16.618  17.475  1.00  0.00     0.093 N 
HETATM   45  C1  UNL     1       9.154  15.984  17.687  1.00  0.00     0.310 C 
HETATM   46  C2  UNL     1      10.826  16.548  16.096  1.00  0.00     0.273 C 
HETATM   47  C3  UNL     1      10.842  17.934  15.524  1.00  0.00     0.033 C 
HETATM   48  C4  UNL     1      10.363  18.830  16.639  1.00  0.00     0.042 C 
ENDBRANCH  41  43
ENDBRANCH  36  37
ENDBRANCH  35  36
ENDBRANCH  32  35
ENDBRANCH   1  31
TORSDOF 13
ENDMDL
MODEL 3
REMARK VINA RESULT: -9.845193357      2.386      4.740
REMARK  13 active torsions:
REMARK  status: ('A' for Active; 'I' for Inactive)
REMARK    1  A    between atoms: C5_6  and  C6_7 
REMARK    2  A    between atoms: C10_11  and  C11_12 
REMARK    3  A    between atoms: C11_12  and  C12_13 
REMARK    4  A    between atoms: C12_13  and  C13_14 
REMARK       I    between atoms: C13_14  and  N2_16 
REMARK    5  A    between atoms: N2_16  and  C14_18 
REMARK    6  A    between atoms: C15_23  and  C16_24 
REMARK    7  A    between atoms: C16_24  and  C17_25 
REMARK    8  A    between atoms: C17_25  and  S1_26 
REMARK    9  A    between atoms: S1_26  and  C18_27 
REMARK   10  A    between atoms: C18_27  and  C19_28 
REMARK   11  A    between atoms: C19_28  and  C20_29 
REMARK       I    between atoms: N7_35  and  C22_37 
REMARK   12  A    between atoms: C22_37  and  C23_39 
REMARK   13  A    between atoms: C23_39  and  C24_40 
ROOT
HETATM    1  C14 UNL     1      16.450  24.179  18.230  1.00  0.00     0.167 A 
HETATM    2  N3  UNL     1      15.177  24.553  18.100  1.00  0.00    -0.279 N 
ATOM      3  H3  UNL     1      14.939  25.535  17.961  1.00  0.00     0.189 HD
HETATM    4  N4  UNL     1      14.267  23.671  18.153  1.00  0.00    -0.296 N 
ATOM      5  H4  UNL     1      13.291  23.949  18.055  1.00  0.00     0.187 HD
HETATM    6  C15 UNL     1      14.566  22.402  18.331  1.00  0.00     0.070 A 
HETATM    7  S3  UNL     1      16.291  22.484  18.432  1.00  0.00    -0.038 SA
ENDROOT
BRANCH   6   8
HETATM    8  C16 UNL     1      13.701  21.166  18.445  1.00  0.00     0.076 C 
BRANCH   8   9
HETATM    9  C17 UNL     1      14.478  20.014  18.980  1.00  0.00     0.080 C 
BRANCH   9  10
HETATM   10  S1  UNL     1      13.525  19.032  20.099  1.00  0.00    -0.168 SA
BRANCH  10  11
HETATM   11  C18 UNL     1      12.486  17.769  19.476  1.00  0.00     0.080 C 
BRANCH  11  12
HETATM   12  C19 UNL     1      11.015  18.094  19.300  1.00  0.00     0.076 C 
BRANCH  12  13
HETATM   13  C20 UNL     1      10.946  18.715  17.916  1.00  0.00     0.070 A 
HETATM   14  N5  UNL     1      10.437  19.843  17.484  1.00  0.00    -0.296 N 
HETATM   15  N6  UNL     1      10.503  20.164  16.257  1.00  0.00    -0.279 N 
ATOM     16  H5  UNL     1       9.980  20.473  18.143  1.00  0.00     0.187 HD
HETATM   17  C21 UNL     1      11.100  19.341  15.398  1.00  0.00     0.167 A 
ATOM     18  H6  UNL     1      10.103  21.044  15.934  1.00  0.00     0.189 HD
HETATM   19  N7  UNL     1      11.317  19.454  14.137  1.00  0.00    -0.306 N 
HETATM   20  S2  UNL     1      11.575  18.049  16.452  1.00  0.00    -0.038 SA
HETATM   21  C22 UNL     1      10.935  20.561  13.368  1.00  0.00     0.227 C 
ATOM     22  H7  UNL     1      11.798  18.688  13.664  1.00  0.00     0.171 HD
HETATM   23  O2  UNL     1      10.189  20.371  12.371  1.00  0.00    -0.273 OA
BRANCH  21  24
HETATM   24  C23 UNL     1      11.394  21.947  13.705  1.00  0.00     0.141 C 
BRANCH  24  25
HETATM   25  C24 UNL     1      12.877  22.021  13.733  1.00  0.00    -0.050 A 
HETATM   26  C25 UNL     1      13.638  21.320  12.848  1.00  0.00     0.007 A 
HETATM   27  C26 UNL     1      15.036  21.370  12.849  1.00  0.00     0.001 A 
HETATM   28  C27 UNL     1      15.620  22.181  13.810  1.00  0.00     0.000 A 
HETATM   29  C28 UNL     1      14.861  22.894  14.710  1.00  0.00     0.001 A 
HETATM   30  C29 UNL     1      13.489  22.816  14.675  1.00  0.00     0.007 A 
ENDBRANCH  24  25
ENDBRANCH  21  24
ENDBRANCH  12  13
ENDBRANCH  11  12
ENDBRANCH  10  11
ENDBRANCH   9  10
ENDBRANCH   8   9
ENDBRANCH   6   8
BRANCH   1  31
HETATM   31  N2  UNL     1      17.537  24.914  18.207  1.00  0.00    -0.306 N 
HETATM   32  C13 UNL     1      18.161  25.105  16.958  1.00  0.00     0.223 C 
HETATM   33  O1  UNL     1      17.786  24.374  15.985  1.00  0.00    -0.273 OA
ATOM     34  H2  UNL     1      17.915  25.330  19.058  1.00  0.00     0.171 HD
BRANCH  32  35
HETATM   35  C12 UNL     1      19.238  26.118  16.725  1.00  0.00     0.108 C 
BRANCH  35  36
HETATM   36  C11 UNL     1      20.237  25.608  15.713  1.00  0.00     0.048 C 
BRANCH  36  37
HETATM   37  C10 UNL     1      21.004  26.753  15.180  1.00  0.00    -0.057 A 
HETATM   38  C9  UNL     1      20.529  27.493  14.087  1.00  0.00     0.007 A 
HETATM   39  C8  UNL     1      21.244  28.567  13.614  1.00  0.00     0.001 A 
HETATM   40  C7  UNL     1      22.433  28.911  14.223  1.00  0.00     0.009 A 
HETATM   41  C6  UNL     1      22.940  28.197  15.318  1.00  0.00    -0.025 A 
HETATM   42  C30 UNL     1      22.208  27.127  15.773  1.00  0.00     0.016 A 
BRANCH  41  43
HETATM   43  C5  UNL     1      24.211  28.599  15.963  1.00  0.00     0.255 C 
HETATM   44  N1  UNL     1      25.137  29.162  15.028  1.00  0.00     0.093 N 
HETATM   45  C1  UNL     1      25.734  30.393  15.528  1.00  0.00     0.310 C 
HETATM   46  C2  UNL     1      26.148  28.194  14.730  1.00  0.00     0.273 C 
HETATM   47  C3  UNL     1      26.016  27.043  15.682  1.00  0.00     0.033 C 
HETATM   48  C4  UNL     1      24.905  27.432  16.626  1.00  0.00     0.042 C 
ENDBRANCH  41  43
ENDBRANCH  36  37
ENDBRANCH  35  36
ENDBRANCH  32  35
ENDBRANCH   1  31
TORSDOF 13
ENDMDL
MODEL 4
REMARK VINA RESULT: -9.832510879      3.354      9.598
REMARK  13 active torsions:
REMARK  status: ('A' for Active; 'I' for Inactive)
REMARK    1  A    between atoms: C5_6  and  C6_7 
REMARK    2  A    between atoms: C10_11  and  C11_12 
REMARK    3  A    between atoms: C11_12  and  C12_13 
REMARK    4  A    between atoms: C12_13  and  C13_14 
REMARK       I    between atoms: C13_14  and  N2_16 
REMARK    5  A    between atoms: N2_16  and  C14_18 
REMARK    6  A    between atoms: C15_23  and  C16_24 
REMARK    7  A    between atoms: C16_24  and  C17_25 
REMARK    8  A    between atoms: C17_25  and  S1_26 
REMARK    9  A    between atoms: S1_26  and  C18_27 
REMARK   10  A    between atoms: C18_27  and  C19_28 
REMARK   11  A    between atoms: C19_28  and  C20_29 
REMARK       I    between atoms: N7_35  and  C22_37 
REMARK   12  A    between atoms: C22_37  and  C23_39 
REMARK   13  A    between atoms: C23_39  and  C24_40 
ROOT
HETATM    1  C14 UNL     1      18.525  25.603  14.201  1.00  0.00     0.167 A 
HETATM    2  N3  UNL     1      18.155  26.871  14.024  1.00  0.00    -0.279 N 
ATOM      3  H3  UNL     1      17.167  27.124  14.005  1.00  0.00     0.189 HD
HETATM    4  N4  UNL     1      19.049  27.760  13.878  1.00  0.00    -0.296 N 
ATOM      5  H4  UNL     1      18.774  28.732  13.742  1.00  0.00     0.187 HD
HETATM    6  C15 UNL     1      20.326  27.443  13.902  1.00  0.00     0.070 A 
HETATM    7  S3  UNL     1      20.234  25.734  14.153  1.00  0.00    -0.038 SA
ENDROOT
BRANCH   6   8
HETATM    8  C16 UNL     1      21.578  28.278  13.743  1.00  0.00     0.076 C 
BRANCH   8   9
HETATM    9  C17 UNL     1      21.978  28.898  15.036  1.00  0.00     0.080 C 
BRANCH   9  10
HETATM   10  S1  UNL     1      22.993  27.822  16.003  1.00  0.00    -0.168 SA
BRANCH  10  11
HETATM   11  C18 UNL     1      22.308  26.988  17.381  1.00  0.00     0.080 C 
BRANCH  11  12
HETATM   12  C19 UNL     1      20.922  27.406  17.835  1.00  0.00     0.076 C 
BRANCH  12  13
HETATM   13  C20 UNL     1      20.269  26.099  18.248  1.00  0.00     0.070 A 
HETATM   14  N5  UNL     1      19.104  25.570  17.963  1.00  0.00    -0.296 N 
HETATM   15  N6  UNL     1      18.768  24.438  18.428  1.00  0.00    -0.279 N 
ATOM     16  H5  UNL     1      18.458  26.076  17.357  1.00  0.00     0.187 HD
HETATM   17  C21 UNL     1      19.612  23.778  19.217  1.00  0.00     0.167 A 
ATOM     18  H6  UNL     1      17.857  24.038  18.198  1.00  0.00     0.189 HD
HETATM   19  N7  UNL     1      19.516  22.625  19.776  1.00  0.00    -0.306 N 
HETATM   20  S2  UNL     1      20.948  24.882  19.268  1.00  0.00    -0.038 SA
HETATM   21  C22 UNL     1      18.410  21.776  19.643  1.00  0.00     0.227 C 
ATOM     22  H7  UNL     1      20.295  22.308  20.354  1.00  0.00     0.171 HD
HETATM   23  O2  UNL     1      17.813  21.399  20.686  1.00  0.00    -0.273 OA
BRANCH  21  24
HETATM   24  C23 UNL     1      17.934  21.311  18.300  1.00  0.00     0.141 C 
BRANCH  24  25
HETATM   25  C24 UNL     1      16.458  21.146  18.289  1.00  0.00    -0.050 A 
HETATM   26  C25 UNL     1      15.630  22.154  18.682  1.00  0.00     0.007 A 
HETATM   27  C26 UNL     1      14.236  22.029  18.682  1.00  0.00     0.001 A 
HETATM   28  C27 UNL     1      13.730  20.811  18.255  1.00  0.00     0.000 A 
HETATM   29  C28 UNL     1      14.557  19.786  17.855  1.00  0.00     0.001 A 
HETATM   30  C29 UNL     1      15.921  19.951  17.871  1.00  0.00     0.007 A 
ENDBRANCH  24  25
ENDBRANCH  21  24
ENDBRANCH  12  13
ENDBRANCH  11  12
ENDBRANCH  10  11
ENDBRANCH   9  10
ENDBRANCH   8   9
ENDBRANCH   6   8
BRANCH   1  31
HETATM   31  N2  UNL     1      17.778  24.537  14.370  1.00  0.00    -0.306 N 
HETATM   32  C13 UNL     1      16.812  24.582  15.395  1.00  0.00     0.223 C 
HETATM   33  O1  UNL     1      16.877  25.535  16.237  1.00  0.00    -0.273 OA
ATOM     34  H2  UNL     1      17.893  23.710  13.785  1.00  0.00     0.171 HD
BRANCH  32  35
HETATM   35  C12 UNL     1      15.721  23.567  15.539  1.00  0.00     0.108 C 
BRANCH  35  36
HETATM   36  C11 UNL     1      16.122  22.260  14.897  1.00  0.00     0.048 C 
BRANCH  36  37
HETATM   37  C10 UNL     1      15.076  21.859  13.935  1.00  0.00    -0.057 A 
HETATM   38  C9  UNL     1      15.324  21.865  12.554  1.00  0.00     0.007 A 
HETATM   39  C8  UNL     1      14.347  21.471  11.672  1.00  0.00     0.001 A 
HETATM   40  C7  UNL     1      13.119  21.069  12.156  1.00  0.00     0.009 A 
HETATM   41  C6  UNL     1      12.833  21.048  13.529  1.00  0.00    -0.025 A 
HETATM   42  C30 UNL     1      13.825  21.447  14.391  1.00  0.00     0.016 A 
BRANCH  41  43
HETATM   43  C5  UNL     1      11.511  20.596  14.021  1.00  0.00     0.255 C 
HETATM   44  N1  UNL     1      11.623  19.535  14.973  1.00  0.00     0.093 N 
HETATM   45  C1  UNL     1      10.788  19.764  16.145  1.00  0.00     0.310 C 
HETATM   46  C2  UNL     1      11.277  18.299  14.339  1.00  0.00     0.273 C 
HETATM   47  C3  UNL     1      10.688  18.592  12.991  1.00  0.00     0.033 C 
HETATM   48  C4  UNL     1      10.630  20.096  12.900  1.00  0.00     0.042 C 
ENDBRANCH  41  43
ENDBRANCH  36  37
ENDBRANCH  35  36
ENDBRANCH  32  35
ENDBRANCH   1  31
TORSDOF 13
ENDMDL
MODEL 5
REMARK VINA RESULT: -9.812050060      4.770      8.377
REMARK  13 active torsions:
REMARK  status: ('A' for Active; 'I' for Inactive)
REMARK    1  A    between atoms: C5_6  and  C6_7 
REMARK    2  A    between atoms: C10_11  and  C11_12 
REMARK    3  A    between atoms: C11_12  and  C12_13 
REMARK    4  A    between atoms: C12_13  and  C13_14 
REMARK       I    between atoms: C13_14  and  N2_16 
REMARK    5  A    between atoms: N2_16  and  C14_18 
REMARK    6  A    between atoms: C15_23  and  C16_24 
REMARK    7  A    between atoms: C16_24  and  C17_25 
REMARK    8  A    between atoms: C17_25  and  S1_26 
REMARK    9  A    between atoms: S1_26  and  C18_27 
REMARK   10  A    between atoms: C18_27  and  C19_28 
REMARK   11  A    between atoms: C19_28  and  C20_29 
REMARK       I    between atoms: N7_35  and  C22_37 
REMARK   12  A    between atoms: C22_37  and  C23_39 
REMARK   13  A    between atoms: C23_39  and  C24_40 
ROOT
HETATM    1  C14 UNL     1      10.470  16.015  18.076  1.00  0.00     0.167 A 
HETATM    2  N3  UNL     1       9.311  16.619  17.815  1.00  0.00    -0.279 N 
ATOM      3  H3  UNL     1       9.125  17.556  18.171  1.00  0.00     0.189 HD
HETATM    4  N4  UNL     1       8.442  16.012  17.118  1.00  0.00    -0.296 N 
ATOM      5  H4  UNL     1       7.553  16.467  16.914  1.00  0.00     0.187 HD
HETATM    6  C15 UNL     1       8.674  14.803  16.653  1.00  0.00     0.070 A 
HETATM    7  S3  UNL     1      10.266  14.516  17.268  1.00  0.00    -0.038 SA
ENDROOT
BRANCH   6   8
HETATM    8  C16 UNL     1       7.830  13.858  15.826  1.00  0.00     0.076 C 
BRANCH   8   9
HETATM    9  C17 UNL     1       8.665  13.111  14.845  1.00  0.00     0.080 C 
BRANCH   9  10
HETATM   10  S1  UNL     1       8.572  13.812  13.225  1.00  0.00    -0.168 SA
BRANCH  10  11
HETATM   11  C18 UNL     1      10.038  14.062  12.302  1.00  0.00     0.080 C 
BRANCH  11  12
HETATM   12  C19 UNL     1      11.306  14.376  13.073  1.00  0.00     0.076 C 
BRANCH  12  13
HETATM   13  C20 UNL     1      11.204  15.867  13.344  1.00  0.00     0.070 A 
HETATM   14  N5  UNL     1      10.957  16.546  14.437  1.00  0.00    -0.296 N 
HETATM   15  N6  UNL     1      10.927  17.815  14.427  1.00  0.00    -0.279 N 
ATOM     16  H5  UNL     1      10.785  16.047  15.310  1.00  0.00     0.187 HD
HETATM   17  C21 UNL     1      11.152  18.465  13.287  1.00  0.00     0.167 A 
ATOM     18  H6  UNL     1      10.733  18.332  15.285  1.00  0.00     0.189 HD
HETATM   19  N7  UNL     1      11.206  19.723  13.032  1.00  0.00    -0.306 N 
HETATM   20  S2  UNL     1      11.414  17.141  12.198  1.00  0.00    -0.038 SA
HETATM   21  C22 UNL     1      11.024  20.729  13.990  1.00  0.00     0.227 C 
ATOM     22  H7  UNL     1      11.391  20.007  12.070  1.00  0.00     0.171 HD
HETATM   23  O2  UNL     1      10.118  21.582  13.800  1.00  0.00    -0.273 OA
BRANCH  21  24
HETATM   24  C23 UNL     1      11.880  20.807  15.217  1.00  0.00     0.141 C 
BRANCH  24  25
HETATM   25  C24 UNL     1      13.177  21.467  14.917  1.00  0.00    -0.050 A 
HETATM   26  C25 UNL     1      13.321  22.818  15.011  1.00  0.00     0.007 A 
HETATM   27  C26 UNL     1      14.530  23.468  14.736  1.00  0.00     0.001 A 
HETATM   28  C27 UNL     1      15.589  22.658  14.358  1.00  0.00     0.000 A 
HETATM   29  C28 UNL     1      15.455  21.291  14.261  1.00  0.00     0.001 A 
HETATM   30  C29 UNL     1      14.249  20.693  14.540  1.00  0.00     0.007 A 
ENDBRANCH  24  25
ENDBRANCH  21  24
ENDBRANCH  12  13
ENDBRANCH  11  12
ENDBRANCH  10  11
ENDBRANCH   9  10
ENDBRANCH   8   9
ENDBRANCH   6   8
BRANCH   1  31
HETATM   31  N2  UNL     1      11.497  16.453  18.767  1.00  0.00    -0.306 N 
HETATM   32  C13 UNL     1      12.232  17.524  18.220  1.00  0.00     0.223 C 
HETATM   33  O1  UNL     1      12.016  17.840  17.006  1.00  0.00    -0.273 OA
ATOM     34  H2  UNL     1      11.752  16.036  19.661  1.00  0.00     0.171 HD
BRANCH  32  35
HETATM   35  C12 UNL     1      13.251  18.300  18.996  1.00  0.00     0.108 C 
BRANCH  35  36
HETATM   36  C11 UNL     1      14.498  18.514  18.171  1.00  0.00     0.048 C 
BRANCH  36  37
HETATM   37  C10 UNL     1      14.857  19.946  18.209  1.00  0.00    -0.057 A 
HETATM   38  C9  UNL     1      13.880  20.928  18.431  1.00  0.00     0.007 A 
HETATM   39  C8  UNL     1      14.231  22.256  18.483  1.00  0.00     0.001 A 
HETATM   40  C7  UNL     1      15.552  22.614  18.316  1.00  0.00     0.009 A 
HETATM   41  C6  UNL     1      16.558  21.662  18.092  1.00  0.00    -0.025 A 
HETATM   42  C30 UNL     1      16.182  20.342  18.044  1.00  0.00     0.016 A 
BRANCH  41  43
HETATM   43  C5  UNL     1      17.971  22.075  17.932  1.00  0.00     0.255 C 
HETATM   44  N1  UNL     1      18.267  23.278  18.648  1.00  0.00     0.093 N 
HETATM   45  C1  UNL     1      19.502  23.166  19.412  1.00  0.00     0.310 C 
HETATM   46  C2  UNL     1      18.342  24.367  17.721  1.00  0.00     0.273 C 
HETATM   47  C3  UNL     1      18.331  23.820  16.325  1.00  0.00     0.033 C 
HETATM   48  C4  UNL     1      18.329  22.320  16.485  1.00  0.00     0.042 C 
ENDBRANCH  41  43
ENDBRANCH  36  37
ENDBRANCH  35  36
ENDBRANCH  32  35
ENDBRANCH   1  31
TORSDOF 13
ENDMDL
