MODEL 1
REMARK VINA RESULT: -10.227755115      0.000      0.000
REMARK  12 active torsions:
REMARK  status: ('A' for Active; 'I' for Inactive)
REMARK    1  A    between atoms: C1_2  and  N1_3 
REMARK    2  A    between atoms: N1_3  and  C2_5 
REMARK    3  A    between atoms: C2_5  and  C3_6 
REMARK    4  A    between atoms: C3_6  and  C4_7 
REMARK    5  A    between atoms: C3_6  and  C11_17 
REMARK    6  A    between atoms: C11_17  and  C12_18 
REMARK    7  A    between atoms: C11_17  and  N4_25 
REMARK    8  A    between atoms: C12_18  and  C13_19 
REMARK    9  A    between atoms: C20_27  and  C21_28 
REMARK   10  A    between atoms: C21_28  and  N5_29 
REMARK   11  A    between atoms: N6_32  and  C24_33 
REMARK   12  A    between atoms: C24_33  and  C25_34 
ROOT
HETATM    1  N4  UNL     1      14.557  22.667  16.820  1.00  0.00    -0.278 N 
HETATM    2  C19 UNL     1      14.671  22.005  15.668  1.00  0.00     0.140 A 
HETATM    3  C20 UNL     1      13.842  22.610  14.714  1.00  0.00     0.062 A 
HETATM    4  N7  UNL     1      13.267  23.625  15.370  1.00  0.00    -0.287 N 
ATOM      5  H7  UNL     1      12.597  24.282  14.972  1.00  0.00     0.188 HD
HETATM    6  N8  UNL     1      13.709  23.637  16.625  1.00  0.00    -0.240 N 
ATOM      7  H8  UNL     1      13.424  24.312  17.335  1.00  0.00     0.208 HD
ENDROOT
BRANCH   1   8
HETATM    8  C11 UNL     1      15.315  22.290  18.067  1.00  0.00     0.147 C 
BRANCH   8   9
HETATM    9  C3  UNL     1      16.172  23.421  18.400  1.00  0.00     0.104 C 
BRANCH   9  10
HETATM   10  C2  UNL     1      17.001  23.502  19.609  1.00  0.00     0.076 C 
BRANCH  10  11
HETATM   11  N1  UNL     1      17.591  24.675  20.074  1.00  0.00    -0.347 N 
ATOM     12  H1  UNL     1      17.072  25.554  20.080  1.00  0.00     0.167 HD
BRANCH  11  13
HETATM   13  C1  UNL     1      18.935  24.621  20.539  1.00  0.00     0.352 C 
HETATM   14  O1  UNL     1      19.679  23.620  20.328  1.00  0.00    -0.283 OA
ENDBRANCH  11  13
ENDBRANCH  10  11
ENDBRANCH   9  10
BRANCH   9  15
HETATM   15  C4  UNL     1      17.258  23.348  17.298  1.00  0.00     0.044 A 
HETATM   16  C5  UNL     1      18.175  22.356  17.234  1.00  0.00     0.116 A 
HETATM   17  N2  UNL     1      19.006  22.577  16.163  1.00  0.00    -0.350 N 
HETATM   18  C6  UNL     1      18.553  23.726  15.600  1.00  0.00     0.111 A 
ATOM     19  H2  UNL     1      19.792  22.002  15.858  1.00  0.00     0.166 HD
HETATM   20  C7  UNL     1      19.040  24.376  14.504  1.00  0.00     0.049 A 
HETATM   21  N3  UNL     1      17.480  24.191  16.304  1.00  0.00    -0.310 N 
HETATM   22  C8  UNL     1      18.432  25.540  14.092  1.00  0.00     0.005 A 
HETATM   23  C9  UNL     1      17.360  25.996  14.803  1.00  0.00     0.018 A 
HETATM   24  C10 UNL     1      16.882  25.326  15.907  1.00  0.00     0.099 A 
ENDBRANCH   9  15
ENDBRANCH   8   9
BRANCH   8  25
HETATM   25  C12 UNL     1      14.367  21.534  18.852  1.00  0.00     0.012 C 
BRANCH  25  26
HETATM   26  C13 UNL     1      14.283  20.099  18.963  1.00  0.00    -0.038 A 
HETATM   27  C14 UNL     1      13.530  19.502  19.960  1.00  0.00     0.011 A 
HETATM   28  C15 UNL     1      13.409  18.143  20.118  1.00  0.00     0.001 A 
HETATM   29  C16 UNL     1      14.079  17.340  19.229  1.00  0.00     0.000 A 
HETATM   30  C17 UNL     1      14.855  17.876  18.202  1.00  0.00     0.001 A 
HETATM   31  C18 UNL     1      14.951  19.236  18.077  1.00  0.00     0.011 A 
ENDBRANCH  25  26
ENDBRANCH   8  25
ENDBRANCH   1   8
BRANCH   3  32
HETATM   32  C21 UNL     1      13.699  22.168  13.311  1.00  0.00     0.186 C 
BRANCH  32  33
HETATM   33  N5  UNL     1      13.067  20.857  13.224  1.00  0.00    -0.341 N 
HETATM   34  C22 UNL     1      11.780  20.639  13.835  1.00  0.00     0.146 C 
HETATM   35  C23 UNL     1      10.809  19.862  13.015  1.00  0.00     0.143 C 
HETATM   36  N6  UNL     1      11.106  18.433  12.985  1.00  0.00    -0.374 N 
HETATM   37  C31 UNL     1      12.262  17.897  12.348  1.00  0.00     0.046 A 
HETATM   38  C32 UNL     1      12.071  16.604  11.926  1.00  0.00     0.030 A 
HETATM   39  C36 UNL     1      13.495  18.505  12.120  1.00  0.00     0.058 A 
HETATM   40  C33 UNL     1      13.097  15.955  11.295  1.00  0.00     0.002 A 
HETATM   41  C34 UNL     1      14.320  16.564  11.072  1.00  0.00     0.001 A 
HETATM   42  C35 UNL     1      14.526  17.867  11.491  1.00  0.00     0.019 A 
HETATM   43  C37 UNL     1      13.835  19.894  12.518  1.00  0.00     0.256 C 
HETATM   44  O2  UNL     1      15.011  20.227  12.146  1.00  0.00    -0.267 OA
BRANCH  36  45
HETATM   45  C24 UNL     1      10.243  17.489  13.599  1.00  0.00     0.161 C 
BRANCH  45  46
HETATM   46  C25 UNL     1      10.562  17.130  15.008  1.00  0.00    -0.040 A 
HETATM   47  C26 UNL     1      10.832  18.090  15.924  1.00  0.00     0.009 A 
HETATM   48  C27 UNL     1      11.128  17.682  17.227  1.00  0.00     0.001 A 
HETATM   49  C28 UNL     1      11.147  16.350  17.579  1.00  0.00     0.000 A 
HETATM   50  C29 UNL     1      10.864  15.412  16.606  1.00  0.00     0.001 A 
HETATM   51  C30 UNL     1      10.570  15.783  15.315  1.00  0.00     0.009 A 
ENDBRANCH  45  46
ENDBRANCH  36  45
ENDBRANCH  32  33
ENDBRANCH   3  32
TORSDOF 12
ENDMDL
MODEL 2
REMARK VINA RESULT: -9.836017957      1.392      2.941
REMARK  12 active torsions:
REMARK  status: ('A' for Active; 'I' for Inactive)
REMARK    1  A    between atoms: C1_2  and  N1_3 
REMARK    2  A    between atoms: N1_3  and  C2_5 
REMARK    3  A    between atoms: C2_5  and  C3_6 
REMARK    4  A    between atoms: C3_6  and  C4_7 
REMARK    5  A    between atoms: C3_6  and  C11_17 
REMARK    6  A    between atoms: C11_17  and  C12_18 
REMARK    7  A    between atoms: C11_17  and  N4_25 
REMARK    8  A    between atoms: C12_18  and  C13_19 
REMARK    9  A    between atoms: C20_27  and  C21_28 
REMARK   10  A    between atoms: C21_28  and  N5_29 
REMARK   11  A    between atoms: N6_32  and  C24_33 
REMARK   12  A    between atoms: C24_33  and  C25_34 
ROOT
HETATM    1  N4  UNL     1      14.469  22.039  15.773  1.00  0.00    -0.278 N 
HETATM    2  C19 UNL     1      14.294  21.365  14.635  1.00  0.00     0.140 A 
HETATM    3  C20 UNL     1      13.178  21.885  13.967  1.00  0.00     0.062 A 
HETATM    4  N7  UNL     1      12.740  22.866  14.765  1.00  0.00    -0.287 N 
ATOM      5  H7  UNL     1      11.933  23.462  14.582  1.00  0.00     0.188 HD
HETATM    6  N8  UNL     1      13.527  22.937  15.837  1.00  0.00    -0.240 N 
ATOM      7  H8  UNL     1      13.408  23.602  16.601  1.00  0.00     0.208 HD
ENDROOT
BRANCH   1   8
HETATM    8  C11 UNL     1      15.584  21.746  16.742  1.00  0.00     0.147 C 
BRANCH   8   9
HETATM    9  C3  UNL     1      16.691  22.630  16.396  1.00  0.00     0.104 C 
BRANCH   9  10
HETATM   10  C2  UNL     1      16.586  23.761  15.466  1.00  0.00     0.076 C 
BRANCH  10  11
HETATM   11  N1  UNL     1      17.463  23.984  14.407  1.00  0.00    -0.347 N 
ATOM     12  H1  UNL     1      17.530  23.319  13.636  1.00  0.00     0.167 HD
BRANCH  11  13
HETATM   13  C1  UNL     1      18.262  25.161  14.423  1.00  0.00     0.352 C 
HETATM   14  O1  UNL     1      18.452  25.829  15.481  1.00  0.00    -0.283 OA
ENDBRANCH  11  13
ENDBRANCH  10  11
ENDBRANCH   9  10
BRANCH   9  15
HETATM   15  C4  UNL     1      16.957  23.365  17.733  1.00  0.00     0.044 A 
HETATM   16  C5  UNL     1      16.450  24.587  18.014  1.00  0.00     0.116 A 
HETATM   17  N2  UNL     1      16.875  24.977  19.260  1.00  0.00    -0.350 N 
HETATM   18  C6  UNL     1      17.647  23.952  19.703  1.00  0.00     0.111 A 
ATOM     19  H2  UNL     1      16.659  25.847  19.746  1.00  0.00     0.166 HD
HETATM   20  C7  UNL     1      18.308  23.847  20.892  1.00  0.00     0.049 A 
HETATM   21  N3  UNL     1      17.690  22.967  18.759  1.00  0.00    -0.310 N 
HETATM   22  C8  UNL     1      19.044  22.714  21.151  1.00  0.00     0.005 A 
HETATM   23  C9  UNL     1      19.081  21.736  20.199  1.00  0.00     0.018 A 
HETATM   24  C10 UNL     1      18.406  21.858  19.005  1.00  0.00     0.099 A 
ENDBRANCH   9  15
ENDBRANCH   8   9
BRANCH   8  25
HETATM   25  C12 UNL     1      14.915  21.485  17.996  1.00  0.00     0.012 C 
BRANCH  25  26
HETATM   26  C13 UNL     1      14.508  20.201  18.510  1.00  0.00    -0.038 A 
HETATM   27  C14 UNL     1      14.868  19.027  17.871  1.00  0.00     0.011 A 
HETATM   28  C15 UNL     1      14.513  17.775  18.310  1.00  0.00     0.001 A 
HETATM   29  C16 UNL     1      13.757  17.696  19.452  1.00  0.00     0.000 A 
HETATM   30  C17 UNL     1      13.361  18.839  20.147  1.00  0.00     0.001 A 
HETATM   31  C18 UNL     1      13.734  20.070  19.677  1.00  0.00     0.011 A 
ENDBRANCH  25  26
ENDBRANCH   8  25
ENDBRANCH   1   8
BRANCH   3  32
HETATM   32  C21 UNL     1      12.667  21.406  12.665  1.00  0.00     0.186 C 
BRANCH  32  33
HETATM   33  N5  UNL     1      12.279  20.002  12.727  1.00  0.00    -0.341 N 
HETATM   34  C22 UNL     1      11.033  19.629  13.347  1.00  0.00     0.146 C 
HETATM   35  C23 UNL     1      10.239  18.604  12.615  1.00  0.00     0.143 C 
HETATM   36  N6  UNL     1      10.783  17.256  12.755  1.00  0.00    -0.374 N 
HETATM   37  C31 UNL     1      12.033  16.866  12.195  1.00  0.00     0.046 A 
HETATM   38  C32 UNL     1      12.086  15.520  11.925  1.00  0.00     0.030 A 
HETATM   39  C36 UNL     1      13.146  17.654  11.908  1.00  0.00     0.058 A 
HETATM   40  C33 UNL     1      13.228  14.998  11.383  1.00  0.00     0.002 A 
HETATM   41  C34 UNL     1      14.331  15.785  11.102  1.00  0.00     0.001 A 
HETATM   42  C35 UNL     1      14.292  17.143  11.368  1.00  0.00     0.019 A 
HETATM   43  C37 UNL     1      13.225  19.117  12.145  1.00  0.00     0.256 C 
HETATM   44  O2  UNL     1      14.334  19.611  11.746  1.00  0.00    -0.267 OA
BRANCH  36  45
HETATM   45  C24 UNL     1      10.082  16.250  13.467  1.00  0.00     0.161 C 
BRANCH  45  46
HETATM   46  C25 UNL     1      10.380  16.150  14.922  1.00  0.00    -0.040 A 
HETATM   47  C26 UNL     1      10.727  17.247  15.636  1.00  0.00     0.009 A 
HETATM   48  C27 UNL     1      10.997  17.081  16.996  1.00  0.00     0.001 A 
HETATM   49  C28 UNL     1      10.915  15.845  17.602  1.00  0.00     0.000 A 
HETATM   50  C29 UNL     1      10.556  14.760  16.828  1.00  0.00     0.001 A 
HETATM   51  C30 UNL     1      10.285  14.892  15.487  1.00  0.00     0.009 A 
ENDBRANCH  45  46
ENDBRANCH  36  45
ENDBRANCH  32  33
ENDBRANCH   3  32
TORSDOF 12
ENDMDL
MODEL 3
REMARK VINA RESULT: -9.812468770      3.587     10.201
REMARK  12 active torsions:
REMARK  status: ('A' for Active; 'I' for Inactive)
REMARK    1  A    between atoms: C1_2  and  N1_3 
REMARK    2  A    between atoms: N1_3  and  C2_5 
REMARK    3  A    between atoms: C2_5  and  C3_6 
REMARK    4  A    between atoms: C3_6  and  C4_7 
REMARK    5  A    between atoms: C3_6  and  C11_17 
REMARK    6  A    between atoms: C11_17  and  C12_18 
REMARK    7  A    between atoms: C11_17  and  N4_25 
REMARK    8  A    between atoms: C12_18  and  C13_19 
REMARK    9  A    between atoms: C20_27  and  C21_28 
REMARK   10  A    between atoms: C21_28  and  N5_29 
REMARK   11  A    between atoms: N6_32  and  C24_33 
REMARK   12  A    between atoms: C24_33  and  C25_34 
ROOT
HETATM    1  N4  UNL     1      17.530  22.267  19.361  1.00  0.00    -0.278 N 
HETATM    2  C19 UNL     1      18.857  22.397  19.320  1.00  0.00     0.140 A 
HETATM    3  C20 UNL     1      19.233  23.467  20.142  1.00  0.00     0.062 A 
HETATM    4  N7  UNL     1      18.078  23.926  20.639  1.00  0.00    -0.287 N 
ATOM      5  H7  UNL     1      17.980  24.711  21.283  1.00  0.00     0.188 HD
HETATM    6  N8  UNL     1      17.076  23.193  20.157  1.00  0.00    -0.240 N 
ATOM      7  H8  UNL     1      16.092  23.337  20.380  1.00  0.00     0.208 HD
ENDROOT
BRANCH   1   8
HETATM    8  C11 UNL     1      16.782  21.208  18.595  1.00  0.00     0.147 C 
BRANCH   8   9
HETATM    9  C3  UNL     1      15.395  21.259  19.044  1.00  0.00     0.104 C 
BRANCH   9  10
HETATM   10  C2  UNL     1      14.330  21.999  18.357  1.00  0.00     0.076 C 
BRANCH  10  11
HETATM   11  N1  UNL     1      14.103  23.365  18.512  1.00  0.00    -0.347 N 
ATOM     12  H1  UNL     1      13.382  23.704  19.148  1.00  0.00     0.167 HD
BRANCH  11  13
HETATM   13  C1  UNL     1      14.899  24.275  17.762  1.00  0.00     0.352 C 
HETATM   14  O1  UNL     1      15.876  24.894  18.277  1.00  0.00    -0.283 OA
ENDBRANCH  11  13
ENDBRANCH  10  11
ENDBRANCH   9  10
BRANCH   9  15
HETATM   15  C4  UNL     1      14.927  19.797  18.835  1.00  0.00     0.044 A 
HETATM   16  C5  UNL     1      15.428  18.996  17.868  1.00  0.00     0.116 A 
HETATM   17  N2  UNL     1      14.805  17.774  17.926  1.00  0.00    -0.350 N 
HETATM   18  C6  UNL     1      13.924  17.879  18.952  1.00  0.00     0.111 A 
ATOM     19  H2  UNL     1      14.969  16.964  17.328  1.00  0.00     0.166 HD
HETATM   20  C7  UNL     1      13.057  16.934  19.420  1.00  0.00     0.049 A 
HETATM   21  N3  UNL     1      14.007  19.124  19.504  1.00  0.00    -0.310 N 
HETATM   22  C8  UNL     1      12.239  17.244  20.481  1.00  0.00     0.005 A 
HETATM   23  C9  UNL     1      12.329  18.492  21.025  1.00  0.00     0.018 A 
HETATM   24  C10 UNL     1      13.211  19.433  20.540  1.00  0.00     0.099 A 
ENDBRANCH   9  15
ENDBRANCH   8   9
BRANCH   8  25
HETATM   25  C12 UNL     1      17.369  21.231  17.275  1.00  0.00     0.012 C 
BRANCH  25  26
HETATM   26  C13 UNL     1      16.770  21.748  16.069  1.00  0.00    -0.038 A 
HETATM   27  C14 UNL     1      17.142  22.979  15.556  1.00  0.00     0.011 A 
HETATM   28  C15 UNL     1      16.611  23.525  14.413  1.00  0.00     0.001 A 
HETATM   29  C16 UNL     1      15.655  22.797  13.749  1.00  0.00     0.000 A 
HETATM   30  C17 UNL     1      15.235  21.550  14.211  1.00  0.00     0.001 A 
HETATM   31  C18 UNL     1      15.788  21.040  15.354  1.00  0.00     0.011 A 
ENDBRANCH  25  26
ENDBRANCH   8  25
ENDBRANCH   1   8
BRANCH   3  32
HETATM   32  C21 UNL     1      20.622  23.922  20.364  1.00  0.00     0.186 C 
BRANCH  32  33
HETATM   33  N5  UNL     1      21.063  24.829  19.313  1.00  0.00    -0.341 N 
HETATM   34  C22 UNL     1      20.092  25.463  18.457  1.00  0.00     0.146 C 
HETATM   35  C23 UNL     1      20.329  26.908  18.185  1.00  0.00     0.143 C 
HETATM   36  N6  UNL     1      21.410  27.137  17.231  1.00  0.00    -0.374 N 
HETATM   37  C31 UNL     1      22.773  26.842  17.522  1.00  0.00     0.046 A 
HETATM   38  C32 UNL     1      23.641  27.627  16.804  1.00  0.00     0.030 A 
HETATM   39  C36 UNL     1      23.293  25.897  18.405  1.00  0.00     0.058 A 
HETATM   40  C33 UNL     1      24.986  27.457  16.977  1.00  0.00     0.002 A 
HETATM   41  C34 UNL     1      25.498  26.516  17.854  1.00  0.00     0.001 A 
HETATM   42  C35 UNL     1      24.635  25.718  18.586  1.00  0.00     0.019 A 
HETATM   43  C37 UNL     1      22.473  24.988  19.244  1.00  0.00     0.256 C 
HETATM   44  O2  UNL     1      23.192  24.255  20.005  1.00  0.00    -0.267 OA
BRANCH  36  45
HETATM   45  C24 UNL     1      21.154  27.676  15.944  1.00  0.00     0.161 C 
BRANCH  45  46
HETATM   46  C25 UNL     1      20.414  26.793  15.001  1.00  0.00    -0.040 A 
HETATM   47  C26 UNL     1      19.285  27.222  14.390  1.00  0.00     0.009 A 
HETATM   48  C27 UNL     1      18.638  26.341  13.520  1.00  0.00     0.001 A 
HETATM   49  C28 UNL     1      19.125  25.073  13.285  1.00  0.00     0.000 A 
HETATM   50  C29 UNL     1      20.280  24.685  13.934  1.00  0.00     0.001 A 
HETATM   51  C30 UNL     1      20.938  25.530  14.796  1.00  0.00     0.009 A 
ENDBRANCH  45  46
ENDBRANCH  36  45
ENDBRANCH  32  33
ENDBRANCH   3  32
TORSDOF 12
ENDMDL
MODEL 4
REMARK VINA RESULT: -9.767481798      1.943      4.547
REMARK  12 active torsions:
REMARK  status: ('A' for Active; 'I' for Inactive)
REMARK    1  A    between atoms: C1_2  and  N1_3 
REMARK    2  A    between atoms: N1_3  and  C2_5 
REMARK    3  A    between atoms: C2_5  and  C3_6 
REMARK    4  A    between atoms: C3_6  and  C4_7 
REMARK    5  A    between atoms: C3_6  and  C11_17 
REMARK    6  A    between atoms: C11_17  and  C12_18 
REMARK    7  A    between atoms: C11_17  and  N4_25 
REMARK    8  A    between atoms: C12_18  and  C13_19 
REMARK    9  A    between atoms: C20_27  and  C21_28 
REMARK   10  A    between atoms: C21_28  and  N5_29 
REMARK   11  A    between atoms: N6_32  and  C24_33 
REMARK   12  A    between atoms: C24_33  and  C25_34 
ROOT
HETATM    1  N4  UNL     1      14.520  22.814  15.357  1.00  0.00    -0.278 N 
HETATM    2  C19 UNL     1      14.566  22.194  14.176  1.00  0.00     0.140 A 
HETATM    3  C20 UNL     1      13.277  22.167  13.628  1.00  0.00     0.062 A 
HETATM    4  N7  UNL     1      12.516  22.788  14.538  1.00  0.00    -0.287 N 
ATOM      5  H7  UNL     1      11.512  22.948  14.460  1.00  0.00     0.188 HD
HETATM    6  N8  UNL     1      13.281  23.164  15.560  1.00  0.00    -0.240 N 
ATOM      7  H8  UNL     1      12.945  23.657  16.387  1.00  0.00     0.208 HD
ENDROOT
BRANCH   1   8
HETATM    8  C11 UNL     1      15.733  23.026  16.224  1.00  0.00     0.147 C 
BRANCH   8   9
HETATM    9  C3  UNL     1      15.408  22.501  17.545  1.00  0.00     0.104 C 
BRANCH   9  10
HETATM   10  C2  UNL     1      15.670  21.122  17.973  1.00  0.00     0.076 C 
BRANCH  10  11
HETATM   11  N1  UNL     1      14.906  20.024  17.582  1.00  0.00    -0.347 N 
ATOM     12  H1  UNL     1      15.353  19.163  17.269  1.00  0.00     0.167 HD
BRANCH  11  13
HETATM   13  C1  UNL     1      13.488  20.133  17.628  1.00  0.00     0.352 C 
HETATM   14  O1  UNL     1      12.791  20.275  16.582  1.00  0.00    -0.283 OA
ENDBRANCH  11  13
ENDBRANCH  10  11
ENDBRANCH   9  10
BRANCH   9  15
HETATM   15  C4  UNL     1      16.379  23.288  18.460  1.00  0.00     0.044 A 
HETATM   16  C5  UNL     1      16.442  24.639  18.476  1.00  0.00     0.116 A 
HETATM   17  N2  UNL     1      17.403  25.036  19.372  1.00  0.00    -0.350 N 
HETATM   18  C6  UNL     1      17.904  23.883  19.882  1.00  0.00     0.111 A 
ATOM     19  H2  UNL     1      17.681  25.990  19.603  1.00  0.00     0.166 HD
HETATM   20  C7  UNL     1      18.887  23.730  20.816  1.00  0.00     0.049 A 
HETATM   21  N3  UNL     1      17.268  22.815  19.317  1.00  0.00    -0.310 N 
HETATM   22  C8  UNL     1      19.253  22.461  21.201  1.00  0.00     0.005 A 
HETATM   23  C9  UNL     1      18.611  21.401  20.629  1.00  0.00     0.018 A 
HETATM   24  C10 UNL     1      17.620  21.574  19.689  1.00  0.00     0.099 A 
ENDBRANCH   9  15
ENDBRANCH   8   9
BRANCH   8  25
HETATM   25  C12 UNL     1      16.854  22.794  15.343  1.00  0.00     0.012 C 
BRANCH  25  26
HETATM   26  C13 UNL     1      17.919  23.716  15.033  1.00  0.00    -0.038 A 
HETATM   27  C14 UNL     1      17.832  24.571  13.948  1.00  0.00     0.011 A 
HETATM   28  C15 UNL     1      18.810  25.470  13.601  1.00  0.00     0.001 A 
HETATM   29  C16 UNL     1      19.935  25.516  14.385  1.00  0.00     0.000 A 
HETATM   30  C17 UNL     1      20.087  24.684  15.494  1.00  0.00     0.001 A 
HETATM   31  C18 UNL     1      19.090  23.799  15.807  1.00  0.00     0.011 A 
ENDBRANCH  25  26
ENDBRANCH   8  25
ENDBRANCH   1   8
BRANCH   3  32
HETATM   32  C21 UNL     1      12.920  21.571  12.324  1.00  0.00     0.186 C 
BRANCH  32  33
HETATM   33  N5  UNL     1      12.459  20.196  12.471  1.00  0.00    -0.341 N 
HETATM   34  C22 UNL     1      11.163  19.931  13.044  1.00  0.00     0.146 C 
HETATM   35  C23 UNL     1      10.360  18.888  12.348  1.00  0.00     0.143 C 
HETATM   36  N6  UNL     1      10.828  17.532  12.625  1.00  0.00    -0.374 N 
HETATM   37  C31 UNL     1      12.086  17.042  12.172  1.00  0.00     0.046 A 
HETATM   38  C32 UNL     1      12.086  15.677  12.011  1.00  0.00     0.030 A 
HETATM   39  C36 UNL     1      13.251  17.753  11.891  1.00  0.00     0.058 A 
HETATM   40  C33 UNL     1      13.228  15.061  11.580  1.00  0.00     0.002 A 
HETATM   41  C34 UNL     1      14.383  15.772  11.304  1.00  0.00     0.001 A 
HETATM   42  C35 UNL     1      14.398  17.148  11.461  1.00  0.00     0.019 A 
HETATM   43  C37 UNL     1      13.390  19.225  12.017  1.00  0.00     0.256 C 
HETATM   44  O2  UNL     1      14.543  19.633  11.648  1.00  0.00    -0.267 OA
BRANCH  36  45
HETATM   45  C24 UNL     1      10.039  16.620  13.370  1.00  0.00     0.161 C 
BRANCH  45  46
HETATM   46  C25 UNL     1      10.395  16.469  14.808  1.00  0.00    -0.040 A 
HETATM   47  C26 UNL     1      10.704  17.550  15.563  1.00  0.00     0.009 A 
HETATM   48  C27 UNL     1      11.033  17.336  16.903  1.00  0.00     0.001 A 
HETATM   49  C28 UNL     1      11.045  16.071  17.449  1.00  0.00     0.000 A 
HETATM   50  C29 UNL     1      10.722  15.004  16.636  1.00  0.00     0.001 A 
HETATM   51  C30 UNL     1      10.395  15.182  15.312  1.00  0.00     0.009 A 
ENDBRANCH  45  46
ENDBRANCH  36  45
ENDBRANCH  32  33
ENDBRANCH   3  32
TORSDOF 12
ENDMDL
MODEL 5
REMARK VINA RESULT: -9.723423121      1.267      4.668
REMARK  12 active torsions:
REMARK  status: ('A' for Active; 'I' for Inactive)
REMARK    1  A    between atoms: C1_2  and  N1_3 
REMARK    2  A    between atoms: N1_3  and  C2_5 
REMARK    3  A    between atoms: C2_5  and  C3_6 
REMARK    4  A    between atoms: C3_6  and  C4_7 
REMARK    5  A    between atoms: C3_6  and  C11_17 
REMARK    6  A    between atoms: C11_17  and  C12_18 
REMARK    7  A    between atoms: C11_17  and  N4_25 
REMARK    8  A    between atoms: C12_18  and  C13_19 
REMARK    9  A    between atoms: C20_27  and  C21_28 
REMARK   10  A    between atoms: C21_28  and  N5_29 
REMARK   11  A    between atoms: N6_32  and  C24_33 
REMARK   12  A    between atoms: C24_33  and  C25_34 
ROOT
HETATM    1  N4  UNL     1      14.743  23.272  14.911  1.00  0.00    -0.278 N 
HETATM    2  C19 UNL     1      14.838  22.534  13.804  1.00  0.00     0.140 A 
HETATM    3  C20 UNL     1      13.573  22.442  13.210  1.00  0.00     0.062 A 
HETATM    4  N7  UNL     1      12.774  23.149  14.019  1.00  0.00    -0.287 N 
ATOM      5  H7  UNL     1      11.773  23.293  13.885  1.00  0.00     0.188 HD
HETATM    6  N8  UNL     1      13.496  23.634  15.027  1.00  0.00    -0.240 N 
ATOM      7  H8  UNL     1      13.126  24.208  15.784  1.00  0.00     0.208 HD
ENDROOT
BRANCH   1   8
HETATM    8  C11 UNL     1      15.919  23.582  15.799  1.00  0.00     0.147 C 
BRANCH   8   9
HETATM    9  C3  UNL     1      16.463  22.304  16.244  1.00  0.00     0.104 C 
BRANCH   9  10
HETATM   10  C2  UNL     1      17.787  22.136  16.855  1.00  0.00     0.076 C 
BRANCH  10  11
HETATM   11  N1  UNL     1      18.286  22.947  17.872  1.00  0.00    -0.347 N 
ATOM     12  H1  UNL     1      18.305  23.962  17.769  1.00  0.00     0.167 HD
BRANCH  11  13
HETATM   13  C1  UNL     1      18.770  22.328  19.059  1.00  0.00     0.352 C 
HETATM   14  O1  UNL     1      18.335  21.208  19.457  1.00  0.00    -0.283 OA
ENDBRANCH  11  13
ENDBRANCH  10  11
ENDBRANCH   9  10
BRANCH   9  15
HETATM   15  C4  UNL     1      15.537  21.948  17.434  1.00  0.00     0.044 A 
HETATM   16  C5  UNL     1      14.990  22.882  18.245  1.00  0.00     0.116 A 
HETATM   17  N2  UNL     1      14.238  22.259  19.209  1.00  0.00    -0.350 N 
HETATM   18  C6  UNL     1      14.358  20.933  18.945  1.00  0.00     0.111 A 
ATOM     19  H2  UNL     1      13.705  22.697  19.961  1.00  0.00     0.166 HD
HETATM   20  C7  UNL     1      13.800  19.885  19.617  1.00  0.00     0.049 A 
HETATM   21  N3  UNL     1      15.157  20.753  17.853  1.00  0.00    -0.310 N 
HETATM   22  C8  UNL     1      14.050  18.604  19.184  1.00  0.00     0.005 A 
HETATM   23  C9  UNL     1      14.851  18.435  18.091  1.00  0.00     0.018 A 
HETATM   24  C10 UNL     1      15.405  19.505  17.425  1.00  0.00     0.099 A 
ENDBRANCH   9  15
ENDBRANCH   8   9
BRANCH   8  25
HETATM   25  C12 UNL     1      16.541  24.734  15.190  1.00  0.00     0.012 C 
BRANCH  25  26
HETATM   26  C13 UNL     1      17.953  25.020  15.116  1.00  0.00    -0.038 A 
HETATM   27  C14 UNL     1      18.565  25.847  16.042  1.00  0.00     0.011 A 
HETATM   28  C15 UNL     1      19.903  26.157  16.027  1.00  0.00     0.001 A 
HETATM   29  C16 UNL     1      20.668  25.607  15.029  1.00  0.00     0.000 A 
HETATM   30  C17 UNL     1      20.115  24.766  14.064  1.00  0.00     0.001 A 
HETATM   31  C18 UNL     1      18.777  24.481  14.112  1.00  0.00     0.011 A 
ENDBRANCH  25  26
ENDBRANCH   8  25
ENDBRANCH   1   8
BRANCH   3  32
HETATM   32  C21 UNL     1      13.271  21.712  11.961  1.00  0.00     0.186 C 
BRANCH  32  33
HETATM   33  N5  UNL     1      12.749  20.379  12.233  1.00  0.00    -0.341 N 
HETATM   34  C22 UNL     1      11.461  20.226  12.860  1.00  0.00     0.146 C 
HETATM   35  C23 UNL     1      10.588  19.171  12.273  1.00  0.00     0.143 C 
HETATM   36  N6  UNL     1      10.999  17.821  12.647  1.00  0.00    -0.374 N 
HETATM   37  C31 UNL     1      12.217  17.233  12.202  1.00  0.00     0.046 A 
HETATM   38  C32 UNL     1      12.147  15.862  12.154  1.00  0.00     0.030 A 
HETATM   39  C36 UNL     1      13.406  17.860  11.833  1.00  0.00     0.058 A 
HETATM   40  C33 UNL     1      13.245  15.157  11.745  1.00  0.00     0.002 A 
HETATM   41  C34 UNL     1      14.424  15.784  11.380  1.00  0.00     0.001 A 
HETATM   42  C35 UNL     1      14.508  17.165  11.423  1.00  0.00     0.019 A 
HETATM   43  C37 UNL     1      13.619  19.329  11.835  1.00  0.00     0.256 C 
HETATM   44  O2  UNL     1      14.778  19.648  11.403  1.00  0.00    -0.267 OA
BRANCH  36  45
HETATM   45  C24 UNL     1      10.190  17.012  13.486  1.00  0.00     0.161 C 
BRANCH  45  46
HETATM   46  C25 UNL     1      10.563  16.986  14.927  1.00  0.00    -0.040 A 
HETATM   47  C26 UNL     1      10.876  18.128  15.583  1.00  0.00     0.009 A 
HETATM   48  C27 UNL     1      11.221  18.031  16.933  1.00  0.00     0.001 A 
HETATM   49  C28 UNL     1      11.244  16.817  17.585  1.00  0.00     0.000 A 
HETATM   50  C29 UNL     1      10.916  15.683  16.870  1.00  0.00     0.001 A 
HETATM   51  C30 UNL     1      10.573  15.747  15.540  1.00  0.00     0.009 A 
ENDBRANCH  45  46
ENDBRANCH  36  45
ENDBRANCH  32  33
ENDBRANCH   3  32
TORSDOF 12
ENDMDL
