MODEL 1
REMARK VINA RESULT: -10.700441705      0.000      0.000
REMARK  12 active torsions:
REMARK  status: ('A' for Active; 'I' for Inactive)
REMARK    1  A    between atoms: C1_2  and  C2_3 
REMARK       I    between atoms: C1_2  and  N3_24 
REMARK    2  A    between atoms: C2_3  and  C3_4 
REMARK    3  A    between atoms: C3_4  and  C4_5 
REMARK    4  A    between atoms: N1_8  and  C7_9 
REMARK    5  A    between atoms: C7_9  and  C8_10 
REMARK       I    between atoms: C8_10  and  N2_12 
REMARK    6  A    between atoms: N2_12  and  C9_14 
REMARK    7  A    between atoms: C9_14  and  C10_15 
REMARK    8  A    between atoms: C10_15  and  O3_16 
REMARK    9  A    between atoms: O3_16  and  C11_17 
REMARK   10  A    between atoms: C18_29  and  C19_30 
REMARK   11  A    between atoms: N7_43  and  C28_44 
REMARK   12  A    between atoms: C28_44  and  C29_45 
ROOT
HETATM    1  O1  UNL     1      12.952  24.942  14.367  1.00  0.00    -0.273 OA
HETATM    2  C1  UNL     1      13.067  23.696  14.491  1.00  0.00     0.223 C 
HETATM    3  N3  UNL     1      13.435  23.086  15.710  1.00  0.00    -0.311 N 
ATOM      4  H3  UNL     1      12.720  22.651  16.293  1.00  0.00     0.170 HD
HETATM    5  C17 UNL     1      14.652  23.074  16.086  1.00  0.00     0.140 A 
HETATM    6  N4  UNL     1      15.699  23.596  15.439  1.00  0.00    -0.326 N 
ATOM      7  H4  UNL     1      15.527  24.058  14.546  1.00  0.00     0.169 HD
HETATM    8  C18 UNL     1      16.958  23.550  15.890  1.00  0.00     0.118 A 
HETATM    9  N5  UNL     1      17.163  22.924  17.090  1.00  0.00    -0.326 N 
ATOM     10  H5  UNL     1      18.115  22.879  17.449  1.00  0.00     0.169 HD
HETATM   11  C25 UNL     1      16.197  22.373  17.814  1.00  0.00     0.141 A 
HETATM   12  C26 UNL     1      14.917  22.444  17.309  1.00  0.00     0.122 A 
HETATM   13  N6  UNL     1      14.140  21.820  18.216  1.00  0.00    -0.346 N 
ATOM     14  H6  UNL     1      13.131  21.696  18.146  1.00  0.00     0.167 HD
HETATM   15  C27 UNL     1      14.913  21.389  19.229  1.00  0.00     0.185 A 
HETATM   16  N7  UNL     1      16.196  21.725  18.992  1.00  0.00    -0.323 N 
ENDROOT
BRANCH   2  17
HETATM   17  C2  UNL     1      12.789  22.881  13.255  1.00  0.00     0.107 C 
BRANCH  17  18
HETATM   18  C3  UNL     1      13.880  21.910  12.980  1.00  0.00     0.043 C 
BRANCH  18  19
HETATM   19  C4  UNL     1      13.261  20.589  12.589  1.00  0.00    -0.073 C 
HETATM   20  C5  UNL     1      11.999  20.541  12.185  1.00  0.00     0.021 C 
HETATM   21  C6  UNL     1      11.382  19.251  11.799  1.00  0.00     0.096 C 
HETATM   22  N1  UNL     1      12.168  18.157  12.192  1.00  0.00    -0.341 N 
HETATM   23  C15 UNL     1      13.525  18.262  11.854  1.00  0.00     0.073 C 
HETATM   24  C16 UNL     1      14.128  19.390  12.680  1.00  0.00     0.079 C 
BRANCH  22  25
HETATM   25  C7  UNL     1      11.602  16.941  12.564  1.00  0.00     0.169 C 
BRANCH  25  26
HETATM   26  C8  UNL     1      10.763  17.090  13.783  1.00  0.00     0.257 C 
HETATM   27  O2  UNL     1       9.507  16.912  13.713  1.00  0.00    -0.267 OA
HETATM   28  N2  UNL     1      11.307  17.427  15.044  1.00  0.00    -0.354 N 
ATOM     29  H2  UNL     1      12.312  17.573  15.140  1.00  0.00     0.162 HD
BRANCH  28  30
HETATM   30  C9  UNL     1      10.456  17.564  16.186  1.00  0.00     0.149 C 
BRANCH  30  31
HETATM   31  C10 UNL     1      10.565  16.348  17.055  1.00  0.00     0.196 C 
BRANCH  31  32
HETATM   32  O3  UNL     1      11.909  16.180  17.439  1.00  0.00    -0.342 OA
BRANCH  32  33
HETATM   33  C11 UNL     1      12.340  16.924  18.562  1.00  0.00     0.109 A 
HETATM   34  C12 UNL     1      11.602  17.252  19.669  1.00  0.00     0.045 A 
HETATM   35  C13 UNL     1      12.214  17.972  20.623  1.00  0.00     0.010 A 
HETATM   36  C14 UNL     1      13.519  18.317  20.410  1.00  0.00     0.052 A 
HETATM   37  S1  UNL     1      13.857  17.628  18.887  1.00  0.00    -0.077 SA
ENDBRANCH  32  33
ENDBRANCH  31  32
ENDBRANCH  30  31
ENDBRANCH  28  30
ENDBRANCH  25  26
ENDBRANCH  22  25
ENDBRANCH  18  19
ENDBRANCH  17  18
ENDBRANCH   2  17
BRANCH   8  38
HETATM   38  C19 UNL     1      18.100  24.114  15.193  1.00  0.00     0.008 A 
HETATM   39  C20 UNL     1      17.982  24.753  13.986  1.00  0.00     0.015 A 
HETATM   40  C21 UNL     1      19.105  25.286  13.335  1.00  0.00     0.001 A 
HETATM   41  C22 UNL     1      20.348  25.176  13.896  1.00  0.00     0.000 A 
HETATM   42  C23 UNL     1      20.481  24.540  15.100  1.00  0.00     0.001 A 
HETATM   43  C24 UNL     1      19.362  24.015  15.739  1.00  0.00     0.015 A 
ENDBRANCH   8  38
BRANCH  16  44
HETATM   44  C28 UNL     1      17.319  21.424  19.872  1.00  0.00     0.170 C 
BRANCH  44  45
HETATM   45  C29 UNL     1      18.214  22.588  19.961  1.00  0.00    -0.040 A 
HETATM   46  C30 UNL     1      17.727  23.719  20.597  1.00  0.00     0.009 A 
HETATM   47  C31 UNL     1      18.560  24.818  20.691  1.00  0.00     0.001 A 
HETATM   48  C32 UNL     1      19.847  24.811  20.173  1.00  0.00     0.000 A 
HETATM   49  C33 UNL     1      20.314  23.676  19.544  1.00  0.00     0.001 A 
HETATM   50  C34 UNL     1      19.493  22.566  19.440  1.00  0.00     0.009 A 
ENDBRANCH  44  45
ENDBRANCH  16  44
TORSDOF 12
ENDMDL
MODEL 2
REMARK VINA RESULT: -10.428555916      2.398      5.781
REMARK  12 active torsions:
REMARK  status: ('A' for Active; 'I' for Inactive)
REMARK    1  A    between atoms: C1_2  and  C2_3 
REMARK       I    between atoms: C1_2  and  N3_24 
REMARK    2  A    between atoms: C2_3  and  C3_4 
REMARK    3  A    between atoms: C3_4  and  C4_5 
REMARK    4  A    between atoms: N1_8  and  C7_9 
REMARK    5  A    between atoms: C7_9  and  C8_10 
REMARK       I    between atoms: C8_10  and  N2_12 
REMARK    6  A    between atoms: N2_12  and  C9_14 
REMARK    7  A    between atoms: C9_14  and  C10_15 
REMARK    8  A    between atoms: C10_15  and  O3_16 
REMARK    9  A    between atoms: O3_16  and  C11_17 
REMARK   10  A    between atoms: C18_29  and  C19_30 
REMARK   11  A    between atoms: N7_43  and  C28_44 
REMARK   12  A    between atoms: C28_44  and  C29_45 
ROOT
HETATM    1  O1  UNL     1      14.020  22.319  18.965  1.00  0.00    -0.273 OA
HETATM    2  C1  UNL     1      15.087  21.687  18.756  1.00  0.00     0.223 C 
HETATM    3  N3  UNL     1      16.259  22.312  18.276  1.00  0.00    -0.311 N 
ATOM      4  H3  UNL     1      17.015  22.534  18.923  1.00  0.00     0.170 HD
HETATM    5  C17 UNL     1      16.377  22.602  17.041  1.00  0.00     0.140 A 
HETATM    6  N4  UNL     1      15.483  22.379  16.073  1.00  0.00    -0.326 N 
ATOM      7  H4  UNL     1      14.604  21.928  16.328  1.00  0.00     0.169 HD
HETATM    8  C18 UNL     1      15.669  22.708  14.789  1.00  0.00     0.118 A 
HETATM    9  N5  UNL     1      16.855  23.311  14.472  1.00  0.00    -0.326 N 
ATOM     10  H5  UNL     1      17.016  23.569  13.498  1.00  0.00     0.169 HD
HETATM   11  C25 UNL     1      17.812  23.580  15.352  1.00  0.00     0.141 A 
HETATM   12  C26 UNL     1      17.575  23.221  16.661  1.00  0.00     0.122 A 
HETATM   13  N6  UNL     1      18.679  23.593  17.338  1.00  0.00    -0.346 N 
ATOM     14  H6  UNL     1      18.831  23.470  18.339  1.00  0.00     0.167 HD
HETATM   15  C27 UNL     1      19.549  24.155  16.479  1.00  0.00     0.185 A 
HETATM   16  N7  UNL     1      19.022  24.153  15.238  1.00  0.00    -0.323 N 
ENDROOT
BRANCH   2  17
HETATM   17  C2  UNL     1      15.049  20.210  19.048  1.00  0.00     0.107 C 
BRANCH  17  18
HETATM   18  C3  UNL     1      14.622  19.425  17.861  1.00  0.00     0.043 C 
BRANCH  18  19
HETATM   19  C4  UNL     1      13.223  18.909  18.103  1.00  0.00    -0.073 C 
HETATM   20  C5  UNL     1      12.918  18.336  19.260  1.00  0.00     0.021 C 
HETATM   21  C6  UNL     1      11.549  17.826  19.508  1.00  0.00     0.096 C 
HETATM   22  N1  UNL     1      10.792  17.766  18.328  1.00  0.00    -0.341 N 
HETATM   23  C15 UNL     1      10.832  18.930  17.549  1.00  0.00     0.073 C 
HETATM   24  C16 UNL     1      12.245  19.080  17.002  1.00  0.00     0.079 C 
BRANCH  22  25
HETATM   25  C7  UNL     1       9.823  16.786  18.127  1.00  0.00     0.169 C 
BRANCH  25  26
HETATM   26  C8  UNL     1      10.103  15.998  16.897  1.00  0.00     0.257 C 
HETATM   27  O2  UNL     1      11.217  15.402  16.767  1.00  0.00    -0.267 OA
HETATM   28  N2  UNL     1       9.169  15.878  15.842  1.00  0.00    -0.354 N 
ATOM     29  H2  UNL     1       8.263  16.339  15.913  1.00  0.00     0.162 HD
BRANCH  28  30
HETATM   30  C9  UNL     1       9.490  15.113  14.676  1.00  0.00     0.149 C 
BRANCH  30  31
HETATM   31  C10 UNL     1       9.273  15.940  13.445  1.00  0.00     0.196 C 
BRANCH  31  32
HETATM   32  O3  UNL     1       9.998  17.141  13.568  1.00  0.00    -0.342 OA
BRANCH  32  33
HETATM   33  C11 UNL     1      11.250  17.190  12.913  1.00  0.00     0.109 A 
HETATM   34  C12 UNL     1      12.045  18.291  12.728  1.00  0.00     0.045 A 
HETATM   35  C13 UNL     1      13.202  18.110  12.072  1.00  0.00     0.010 A 
HETATM   36  C14 UNL     1      13.490  16.844  11.644  1.00  0.00     0.052 A 
HETATM   37  S1  UNL     1      12.140  15.943  12.167  1.00  0.00    -0.077 SA
ENDBRANCH  32  33
ENDBRANCH  31  32
ENDBRANCH  30  31
ENDBRANCH  28  30
ENDBRANCH  25  26
ENDBRANCH  22  25
ENDBRANCH  18  19
ENDBRANCH  17  18
ENDBRANCH   2  17
BRANCH   8  38
HETATM   38  C19 UNL     1      14.703  22.468  13.732  1.00  0.00     0.008 A 
HETATM   39  C20 UNL     1      13.423  22.958  13.781  1.00  0.00     0.015 A 
HETATM   40  C21 UNL     1      12.511  22.707  12.745  1.00  0.00     0.001 A 
HETATM   41  C22 UNL     1      12.884  21.962  11.659  1.00  0.00     0.000 A 
HETATM   42  C23 UNL     1      14.157  21.467  11.597  1.00  0.00     0.001 A 
HETATM   43  C24 UNL     1      15.055  21.721  12.629  1.00  0.00     0.015 A 
ENDBRANCH   8  38
BRANCH  16  44
HETATM   44  C28 UNL     1      19.677  24.681  14.048  1.00  0.00     0.170 C 
BRANCH  44  45
HETATM   45  C29 UNL     1      20.318  25.969  14.356  1.00  0.00    -0.040 A 
HETATM   46  C30 UNL     1      19.583  27.119  14.116  1.00  0.00     0.009 A 
HETATM   47  C31 UNL     1      20.172  28.335  14.405  1.00  0.00     0.001 A 
HETATM   48  C32 UNL     1      21.458  28.425  14.919  1.00  0.00     0.000 A 
HETATM   49  C33 UNL     1      22.174  27.269  15.151  1.00  0.00     0.001 A 
HETATM   50  C34 UNL     1      21.599  26.042  14.867  1.00  0.00     0.009 A 
ENDBRANCH  44  45
ENDBRANCH  16  44
TORSDOF 12
ENDMDL
MODEL 3
REMARK VINA RESULT: -10.405487656      3.300     10.240
REMARK  12 active torsions:
REMARK  status: ('A' for Active; 'I' for Inactive)
REMARK    1  A    between atoms: C1_2  and  C2_3 
REMARK       I    between atoms: C1_2  and  N3_24 
REMARK    2  A    between atoms: C2_3  and  C3_4 
REMARK    3  A    between atoms: C3_4  and  C4_5 
REMARK    4  A    between atoms: N1_8  and  C7_9 
REMARK    5  A    between atoms: C7_9  and  C8_10 
REMARK       I    between atoms: C8_10  and  N2_12 
REMARK    6  A    between atoms: N2_12  and  C9_14 
REMARK    7  A    between atoms: C9_14  and  C10_15 
REMARK    8  A    between atoms: C10_15  and  O3_16 
REMARK    9  A    between atoms: O3_16  and  C11_17 
REMARK   10  A    between atoms: C18_29  and  C19_30 
REMARK   11  A    between atoms: N7_43  and  C28_44 
REMARK   12  A    between atoms: C28_44  and  C29_45 
ROOT
HETATM    1  O1  UNL     1      17.233  20.343  17.327  1.00  0.00    -0.273 OA
HETATM    2  C1  UNL     1      16.380  20.477  18.240  1.00  0.00     0.223 C 
HETATM    3  N3  UNL     1      15.353  19.534  18.465  1.00  0.00    -0.311 N 
ATOM      4  H3  UNL     1      15.441  18.862  19.227  1.00  0.00     0.170 HD
HETATM    5  C17 UNL     1      14.318  19.516  17.722  1.00  0.00     0.140 A 
HETATM    6  N4  UNL     1      14.055  20.323  16.690  1.00  0.00    -0.326 N 
ATOM      7  H4  UNL     1      14.744  21.038  16.454  1.00  0.00     0.169 HD
HETATM    8  C18 UNL     1      12.944  20.252  15.946  1.00  0.00     0.118 A 
HETATM    9  N5  UNL     1      12.037  19.285  16.282  1.00  0.00    -0.326 N 
ATOM     10  H5  UNL     1      11.184  19.216  15.727  1.00  0.00     0.169 HD
HETATM   11  C25 UNL     1      12.197  18.431  17.286  1.00  0.00     0.141 A 
HETATM   12  C26 UNL     1      13.355  18.544  18.023  1.00  0.00     0.122 A 
HETATM   13  N6  UNL     1      13.274  17.583  18.964  1.00  0.00    -0.346 N 
ATOM     14  H6  UNL     1      13.975  17.393  19.680  1.00  0.00     0.167 HD
HETATM   15  C27 UNL     1      12.118  16.915  18.806  1.00  0.00     0.185 A 
HETATM   16  N7  UNL     1      11.436  17.432  17.765  1.00  0.00    -0.323 N 
ENDROOT
BRANCH   2  17
HETATM   17  C2  UNL     1      16.513  21.712  19.093  1.00  0.00     0.107 C 
BRANCH  17  18
HETATM   18  C3  UNL     1      17.762  21.694  19.897  1.00  0.00     0.043 C 
BRANCH  18  19
HETATM   19  C4  UNL     1      18.555  22.940  19.582  1.00  0.00    -0.073 C 
HETATM   20  C5  UNL     1      18.406  23.544  18.410  1.00  0.00     0.021 C 
HETATM   21  C6  UNL     1      19.179  24.766  18.091  1.00  0.00     0.096 C 
HETATM   22  N1  UNL     1      20.221  24.980  19.005  1.00  0.00    -0.341 N 
HETATM   23  C15 UNL     1      19.844  24.881  20.352  1.00  0.00     0.073 C 
HETATM   24  C16 UNL     1      19.480  23.430  20.633  1.00  0.00     0.079 C 
BRANCH  22  25
HETATM   25  C7  UNL     1      21.421  25.574  18.626  1.00  0.00     0.169 C 
BRANCH  25  26
HETATM   26  C8  UNL     1      21.188  26.709  17.692  1.00  0.00     0.257 C 
HETATM   27  O2  UNL     1      20.670  27.786  18.123  1.00  0.00    -0.267 OA
HETATM   28  N2  UNL     1      21.522  26.645  16.320  1.00  0.00    -0.354 N 
ATOM     29  H2  UNL     1      21.944  25.798  15.940  1.00  0.00     0.162 HD
BRANCH  28  30
HETATM   30  C9  UNL     1      21.271  27.763  15.462  1.00  0.00     0.149 C 
BRANCH  30  31
HETATM   31  C10 UNL     1      20.511  27.318  14.251  1.00  0.00     0.196 C 
BRANCH  31  32
HETATM   32  O3  UNL     1      19.131  27.383  14.528  1.00  0.00    -0.342 OA
BRANCH  32  33
HETATM   33  C11 UNL     1      18.454  26.146  14.643  1.00  0.00     0.109 A 
HETATM   34  C12 UNL     1      17.162  25.946  15.051  1.00  0.00     0.045 A 
HETATM   35  C13 UNL     1      16.719  24.679  15.087  1.00  0.00     0.010 A 
HETATM   36  C14 UNL     1      17.594  23.697  14.714  1.00  0.00     0.052 A 
HETATM   37  S1  UNL     1      19.007  24.567  14.324  1.00  0.00    -0.077 SA
ENDBRANCH  32  33
ENDBRANCH  31  32
ENDBRANCH  30  31
ENDBRANCH  28  30
ENDBRANCH  25  26
ENDBRANCH  22  25
ENDBRANCH  18  19
ENDBRANCH  17  18
ENDBRANCH   2  17
BRANCH   8  38
HETATM   38  C19 UNL     1      12.651  21.125  14.824  1.00  0.00     0.008 A 
HETATM   39  C20 UNL     1      11.679  20.834  13.901  1.00  0.00     0.015 A 
HETATM   40  C21 UNL     1      11.421  21.698  12.825  1.00  0.00     0.001 A 
HETATM   41  C22 UNL     1      12.139  22.853  12.676  1.00  0.00     0.000 A 
HETATM   42  C23 UNL     1      13.111  23.156  13.589  1.00  0.00     0.001 A 
HETATM   43  C24 UNL     1      13.361  22.294  14.653  1.00  0.00     0.015 A 
ENDBRANCH   8  38
BRANCH  16  44
HETATM   44  C28 UNL     1      10.139  16.963  17.294  1.00  0.00     0.170 C 
BRANCH  44  45
HETATM   45  C29 UNL     1      10.315  15.794  16.418  1.00  0.00    -0.040 A 
HETATM   46  C30 UNL     1      10.119  14.542  16.981  1.00  0.00     0.009 A 
HETATM   47  C31 UNL     1      10.276  13.436  16.168  1.00  0.00     0.001 A 
HETATM   48  C32 UNL     1      10.619  13.551  14.828  1.00  0.00     0.000 A 
HETATM   49  C33 UNL     1      10.810  14.805  14.287  1.00  0.00     0.001 A 
HETATM   50  C34 UNL     1      10.656  15.925  15.086  1.00  0.00     0.009 A 
ENDBRANCH  44  45
ENDBRANCH  16  44
TORSDOF 12
ENDMDL
MODEL 4
REMARK VINA RESULT: -10.372923199      3.297     10.253
REMARK  12 active torsions:
REMARK  status: ('A' for Active; 'I' for Inactive)
REMARK    1  A    between atoms: C1_2  and  C2_3 
REMARK       I    between atoms: C1_2  and  N3_24 
REMARK    2  A    between atoms: C2_3  and  C3_4 
REMARK    3  A    between atoms: C3_4  and  C4_5 
REMARK    4  A    between atoms: N1_8  and  C7_9 
REMARK    5  A    between atoms: C7_9  and  C8_10 
REMARK       I    between atoms: C8_10  and  N2_12 
REMARK    6  A    between atoms: N2_12  and  C9_14 
REMARK    7  A    between atoms: C9_14  and  C10_15 
REMARK    8  A    between atoms: C10_15  and  O3_16 
REMARK    9  A    between atoms: O3_16  and  C11_17 
REMARK   10  A    between atoms: C18_29  and  C19_30 
REMARK   11  A    between atoms: N7_43  and  C28_44 
REMARK   12  A    between atoms: C28_44  and  C29_45 
ROOT
HETATM    1  O1  UNL     1      17.236  20.357  17.385  1.00  0.00    -0.273 OA
HETATM    2  C1  UNL     1      16.373  20.491  18.289  1.00  0.00     0.223 C 
HETATM    3  N3  UNL     1      15.339  19.553  18.496  1.00  0.00    -0.311 N 
ATOM      4  H3  UNL     1      15.413  18.877  19.257  1.00  0.00     0.170 HD
HETATM    5  C17 UNL     1      14.312  19.544  17.741  1.00  0.00     0.140 A 
HETATM    6  N4  UNL     1      14.066  20.358  16.710  1.00  0.00    -0.326 N 
ATOM      7  H4  UNL     1      14.761  21.070  16.486  1.00  0.00     0.169 HD
HETATM    8  C18 UNL     1      12.964  20.296  15.952  1.00  0.00     0.118 A 
HETATM    9  N5  UNL     1      12.047  19.333  16.273  1.00  0.00    -0.326 N 
ATOM     10  H5  UNL     1      11.201  19.271  15.707  1.00  0.00     0.169 HD
HETATM   11  C25 UNL     1      12.191  18.473  17.274  1.00  0.00     0.141 A 
HETATM   12  C26 UNL     1      13.341  18.576  18.026  1.00  0.00     0.122 A 
HETATM   13  N6  UNL     1      13.243  17.611  18.961  1.00  0.00    -0.346 N 
ATOM     14  H6  UNL     1      13.934  17.414  19.684  1.00  0.00     0.167 HD
HETATM   15  C27 UNL     1      12.085  16.950  18.786  1.00  0.00     0.185 A 
HETATM   16  N7  UNL     1      11.419  17.476  17.739  1.00  0.00    -0.323 N 
ENDROOT
BRANCH   2  17
HETATM   17  C2  UNL     1      16.503  21.721  19.149  1.00  0.00     0.107 C 
BRANCH  17  18
HETATM   18  C3  UNL     1      17.760  21.710  19.940  1.00  0.00     0.043 C 
BRANCH  18  19
HETATM   19  C4  UNL     1      18.551  22.952  19.603  1.00  0.00    -0.073 C 
HETATM   20  C5  UNL     1      18.386  23.546  18.429  1.00  0.00     0.021 C 
HETATM   21  C6  UNL     1      19.156  24.765  18.089  1.00  0.00     0.096 C 
HETATM   22  N1  UNL     1      20.212  24.984  18.986  1.00  0.00    -0.341 N 
HETATM   23  C15 UNL     1      19.854  24.897  20.339  1.00  0.00     0.073 C 
HETATM   24  C16 UNL     1      19.491  23.449  20.637  1.00  0.00     0.079 C 
BRANCH  22  25
HETATM   25  C7  UNL     1      21.408  25.573  18.584  1.00  0.00     0.169 C 
BRANCH  25  26
HETATM   26  C8  UNL     1      21.161  26.719  17.668  1.00  0.00     0.257 C 
HETATM   27  O2  UNL     1      20.654  27.792  18.119  1.00  0.00    -0.267 OA
HETATM   28  N2  UNL     1      21.472  26.670  16.290  1.00  0.00    -0.354 N 
ATOM     29  H2  UNL     1      21.885  25.827  15.893  1.00  0.00     0.162 HD
BRANCH  28  30
HETATM   30  C9  UNL     1      21.210  27.798  15.449  1.00  0.00     0.149 C 
BRANCH  30  31
HETATM   31  C10 UNL     1      20.483  27.359  14.215  1.00  0.00     0.196 C 
BRANCH  31  32
HETATM   32  O3  UNL     1      19.097  27.405  14.460  1.00  0.00    -0.342 OA
BRANCH  32  33
HETATM   33  C11 UNL     1      18.442  26.160  14.605  1.00  0.00     0.109 A 
HETATM   34  C12 UNL     1      17.157  25.947  15.030  1.00  0.00     0.045 A 
HETATM   35  C13 UNL     1      16.735  24.674  15.095  1.00  0.00     0.010 A 
HETATM   36  C14 UNL     1      17.623  23.699  14.732  1.00  0.00     0.052 A 
HETATM   37  S1  UNL     1      19.018  24.584  14.311  1.00  0.00    -0.077 SA
ENDBRANCH  32  33
ENDBRANCH  31  32
ENDBRANCH  30  31
ENDBRANCH  28  30
ENDBRANCH  25  26
ENDBRANCH  22  25
ENDBRANCH  18  19
ENDBRANCH  17  18
ENDBRANCH   2  17
BRANCH   8  38
HETATM   38  C19 UNL     1      12.689  21.177  14.831  1.00  0.00     0.008 A 
HETATM   39  C20 UNL     1      13.357  22.360  14.646  1.00  0.00     0.015 A 
HETATM   40  C21 UNL     1      13.066  23.192  13.554  1.00  0.00     0.001 A 
HETATM   41  C22 UNL     1      12.105  22.836  12.647  1.00  0.00     0.000 A 
HETATM   42  C23 UNL     1      11.431  21.658  12.820  1.00  0.00     0.001 A 
HETATM   43  C24 UNL     1      11.725  20.839  13.906  1.00  0.00     0.015 A 
ENDBRANCH   8  38
BRANCH  16  44
HETATM   44  C28 UNL     1      10.125  17.016  17.250  1.00  0.00     0.170 C 
BRANCH  44  45
HETATM   45  C29 UNL     1      10.296  15.798  16.443  1.00  0.00    -0.040 A 
HETATM   46  C30 UNL     1      10.629  15.960  15.108  1.00  0.00     0.009 A 
HETATM   47  C31 UNL     1      10.796  14.824  14.340  1.00  0.00     0.001 A 
HETATM   48  C32 UNL     1      10.641  13.550  14.869  1.00  0.00     0.000 A 
HETATM   49  C33 UNL     1      10.310  13.409  16.200  1.00  0.00     0.001 A 
HETATM   50  C34 UNL     1      10.137  14.537  16.984  1.00  0.00     0.009 A 
ENDBRANCH  44  45
ENDBRANCH  16  44
TORSDOF 12
ENDMDL
MODEL 5
REMARK VINA RESULT: -10.204822895      3.036      9.766
REMARK  12 active torsions:
REMARK  status: ('A' for Active; 'I' for Inactive)
REMARK    1  A    between atoms: C1_2  and  C2_3 
REMARK       I    between atoms: C1_2  and  N3_24 
REMARK    2  A    between atoms: C2_3  and  C3_4 
REMARK    3  A    between atoms: C3_4  and  C4_5 
REMARK    4  A    between atoms: N1_8  and  C7_9 
REMARK    5  A    between atoms: C7_9  and  C8_10 
REMARK       I    between atoms: C8_10  and  N2_12 
REMARK    6  A    between atoms: N2_12  and  C9_14 
REMARK    7  A    between atoms: C9_14  and  C10_15 
REMARK    8  A    between atoms: C10_15  and  O3_16 
REMARK    9  A    between atoms: O3_16  and  C11_17 
REMARK   10  A    between atoms: C18_29  and  C19_30 
REMARK   11  A    between atoms: N7_43  and  C28_44 
REMARK   12  A    between atoms: C28_44  and  C29_45 
ROOT
HETATM    1  O1  UNL     1      14.584  24.069  17.775  1.00  0.00    -0.273 OA
HETATM    2  C1  UNL     1      15.158  23.454  16.840  1.00  0.00     0.223 C 
HETATM    3  N3  UNL     1      14.453  22.901  15.749  1.00  0.00    -0.311 N 
ATOM      4  H3  UNL     1      14.444  23.389  14.853  1.00  0.00     0.170 HD
HETATM    5  C17 UNL     1      13.828  21.798  15.875  1.00  0.00     0.140 A 
HETATM    6  N4  UNL     1      13.745  21.042  16.974  1.00  0.00    -0.326 N 
ATOM      7  H4  UNL     1      14.226  21.364  17.814  1.00  0.00     0.169 HD
HETATM    8  C18 UNL     1      13.070  19.888  17.041  1.00  0.00     0.118 A 
HETATM    9  N5  UNL     1      12.434  19.477  15.902  1.00  0.00    -0.326 N 
ATOM     10  H5  UNL     1      11.915  18.600  15.934  1.00  0.00     0.169 HD
HETATM   11  C25 UNL     1      12.450  20.149  14.757  1.00  0.00     0.141 A 
HETATM   12  C26 UNL     1      13.159  21.330  14.736  1.00  0.00     0.122 A 
HETATM   13  N6  UNL     1      13.022  21.806  13.483  1.00  0.00    -0.346 N 
ATOM     14  H6  UNL     1      13.429  22.672  13.130  1.00  0.00     0.167 HD
HETATM   15  C27 UNL     1      12.264  20.952  12.773  1.00  0.00     0.185 A 
HETATM   16  N7  UNL     1      11.900  19.915  13.553  1.00  0.00    -0.323 N 
ENDROOT
BRANCH   2  17
HETATM   17  C2  UNL     1      16.656  23.338  16.948  1.00  0.00     0.107 C 
BRANCH  17  18
HETATM   18  C3  UNL     1      17.271  22.934  15.657  1.00  0.00     0.043 C 
BRANCH  18  19
HETATM   19  C4  UNL     1      17.948  24.140  15.049  1.00  0.00    -0.073 C 
HETATM   20  C5  UNL     1      19.220  24.072  14.680  1.00  0.00     0.021 C 
HETATM   21  C6  UNL     1      19.893  25.248  14.082  1.00  0.00     0.096 C 
HETATM   22  N1  UNL     1      19.141  26.421  14.246  1.00  0.00    -0.341 N 
HETATM   23  C15 UNL     1      17.789  26.300  13.894  1.00  0.00     0.073 C 
HETATM   24  C16 UNL     1      17.125  25.364  14.895  1.00  0.00     0.079 C 
BRANCH  22  25
HETATM   25  C7  UNL     1      19.744  27.665  14.406  1.00  0.00     0.169 C 
BRANCH  25  26
HETATM   26  C8  UNL     1      20.461  27.751  15.706  1.00  0.00     0.257 C 
HETATM   27  O2  UNL     1      21.456  28.532  15.830  1.00  0.00    -0.267 OA
HETATM   28  N2  UNL     1      20.081  26.991  16.836  1.00  0.00    -0.354 N 
ATOM     29  H2  UNL     1      19.284  26.357  16.775  1.00  0.00     0.162 HD
BRANCH  28  30
HETATM   30  C9  UNL     1      20.807  27.106  18.063  1.00  0.00     0.149 C 
BRANCH  30  31
HETATM   31  C10 UNL     1      21.183  25.745  18.565  1.00  0.00     0.196 C 
BRANCH  31  32
HETATM   32  O3  UNL     1      20.587  25.543  19.826  1.00  0.00    -0.342 OA
BRANCH  32  33
HETATM   33  C11 UNL     1      19.722  24.430  19.940  1.00  0.00     0.109 A 
HETATM   34  C12 UNL     1      19.905  23.182  19.405  1.00  0.00     0.045 A 
HETATM   35  C13 UNL     1      18.950  22.267  19.639  1.00  0.00     0.010 A 
HETATM   36  C14 UNL     1      17.877  22.658  20.390  1.00  0.00     0.052 A 
HETATM   37  S1  UNL     1      18.229  24.287  20.748  1.00  0.00    -0.077 SA
ENDBRANCH  32  33
ENDBRANCH  31  32
ENDBRANCH  30  31
ENDBRANCH  28  30
ENDBRANCH  25  26
ENDBRANCH  22  25
ENDBRANCH  18  19
ENDBRANCH  17  18
ENDBRANCH   2  17
BRANCH   8  38
HETATM   38  C19 UNL     1      12.976  19.061  18.231  1.00  0.00     0.008 A 
HETATM   39  C20 UNL     1      12.398  17.817  18.217  1.00  0.00     0.015 A 
HETATM   40  C21 UNL     1      12.319  17.043  19.384  1.00  0.00     0.001 A 
HETATM   41  C22 UNL     1      12.820  17.517  20.566  1.00  0.00     0.000 A 
HETATM   42  C23 UNL     1      13.398  18.756  20.594  1.00  0.00     0.001 A 
HETATM   43  C24 UNL     1      13.472  19.518  19.432  1.00  0.00     0.015 A 
ENDBRANCH   8  38
BRANCH  16  44
HETATM   44  C28 UNL     1      11.074  18.793  13.127  1.00  0.00     0.170 C 
BRANCH  44  45
HETATM   45  C29 UNL     1      11.924  17.715  12.597  1.00  0.00    -0.040 A 
HETATM   46  C30 UNL     1      11.459  16.416  12.728  1.00  0.00     0.009 A 
HETATM   47  C31 UNL     1      12.246  15.394  12.231  1.00  0.00     0.001 A 
HETATM   48  C32 UNL     1      13.466  15.639  11.615  1.00  0.00     0.000 A 
HETATM   49  C33 UNL     1      13.910  16.939  11.494  1.00  0.00     0.001 A 
HETATM   50  C34 UNL     1      13.135  17.974  11.987  1.00  0.00     0.009 A 
ENDBRANCH  44  45
ENDBRANCH  16  44
TORSDOF 12
ENDMDL
