MODEL 1
REMARK VINA RESULT: -8.198024766      0.000      0.000
REMARK  8 active torsions:
REMARK  status: ('A' for Active; 'I' for Inactive)
REMARK    1  A    between atoms: S1_2  and  C2_5 
REMARK    2  A    between atoms: C5_10  and  C6_11 
REMARK    3  A    between atoms: C6_11  and  N1_12 
REMARK    4  A    between atoms: N1_12  and  N2_14 
REMARK    5  A    between atoms: N2_14  and  C7_16 
REMARK    6  A    between atoms: C7_16  and  N3_18 
REMARK       I    between atoms: N3_18  and  C8_20 
REMARK    7  A    between atoms: C8_20  and  C9_22 
REMARK    8  A    between atoms: C11_24  and  C12_25 
ROOT
HETATM    1  C7  UNL     1      25.032  -7.130  21.621  1.00  0.00     0.193 C 
HETATM    2  S3  UNL     1      26.162  -8.296  22.045  1.00  0.00    -0.039 SA
ENDROOT
BRANCH   1   3
HETATM    3  N2  UNL     1      25.446  -6.251  20.613  1.00  0.00    -0.276 N 
ATOM      4  H2  UNL     1      25.729  -6.656  19.721  1.00  0.00     0.189 HD
BRANCH   3   5
HETATM    5  N1  UNL     1      25.500  -4.891  20.735  1.00  0.00    -0.309 N 
ATOM      6  H1  UNL     1      26.459  -4.568  20.856  1.00  0.00     0.186 HD
BRANCH   5   7
HETATM    7  C6  UNL     1      24.702  -3.943  20.740  1.00  0.00     0.120 C 
BRANCH   7   8
HETATM    8  C5  UNL     1      24.807  -2.640  20.021  1.00  0.00     0.011 A 
HETATM    9  C2  UNL     1      24.750  -2.567  18.644  1.00  0.00     0.112 A 
HETATM   10  S2  UNL     1      24.874  -0.896  18.329  1.00  0.00    -0.065 SA
HETATM   11  C3  UNL     1      24.995  -0.323  19.918  1.00  0.00     0.076 A 
HETATM   12 CL1  UNL     1      25.161   1.349  20.509  1.00  0.00    -0.076 Cl
HETATM   13  C4  UNL     1      24.935  -1.461  20.674  1.00  0.00     0.046 A 
BRANCH   9  14
HETATM   14  S1  UNL     1      24.577  -3.887  17.468  1.00  0.00     0.179 S 
HETATM   15  C1  UNL     1      22.985  -4.609  17.588  1.00  0.00     0.167 C 
HETATM   16  O1  UNL     1      24.670  -3.203  16.114  1.00  0.00    -0.222 OA
HETATM   17  O2  UNL     1      25.663  -4.852  17.673  1.00  0.00    -0.222 OA
ENDBRANCH   9  14
ENDBRANCH   7   8
ENDBRANCH   5   7
ENDBRANCH   3   5
ENDBRANCH   1   3
BRANCH   1  18
HETATM   18  N3  UNL     1      23.831  -7.151  22.295  1.00  0.00    -0.297 N 
HETATM   19  C8  UNL     1      22.565  -6.809  21.811  1.00  0.00     0.275 C 
HETATM   20  O3  UNL     1      22.433  -6.424  20.615  1.00  0.00    -0.266 OA
ATOM     21  H3  UNL     1      23.871  -7.454  23.268  1.00  0.00     0.171 HD
BRANCH  19  22
HETATM   22  C9  UNL     1      21.333  -6.872  22.642  1.00  0.00     0.119 A 
HETATM   23  C10 UNL     1      20.184  -6.318  22.188  1.00  0.00     0.069 A 
HETATM   24  C11 UNL     1      19.037  -6.393  22.990  1.00  0.00     0.093 A 
HETATM   25  N4  UNL     1      19.140  -7.013  24.171  1.00  0.00    -0.285 N 
HETATM   26  N5  UNL     1      20.281  -7.540  24.572  1.00  0.00    -0.242 N 
ATOM     27  H4  UNL     1      18.320  -7.081  24.773  1.00  0.00     0.188 HD
HETATM   28  N6  UNL     1      21.364  -7.476  23.829  1.00  0.00    -0.281 N 
ATOM     29  H5  UNL     1      20.324  -8.006  25.478  1.00  0.00     0.208 HD
ATOM     30  H6  UNL     1      22.234  -7.893  24.163  1.00  0.00     0.188 HD
BRANCH  24  31
HETATM   31  C12 UNL     1      17.749  -5.787  22.510  1.00  0.00     0.404 C 
HETATM   32  F1  UNL     1      17.423  -6.371  21.286  1.00  0.00    -0.207 F 
HETATM   33  F2  UNL     1      16.737  -6.082  23.415  1.00  0.00    -0.207 F 
ENDBRANCH  24  31
ENDBRANCH  19  22
ENDBRANCH   1  18
TORSDOF 8
ENDMDL
MODEL 2
REMARK VINA RESULT: -8.082949116      1.839      2.322
REMARK  8 active torsions:
REMARK  status: ('A' for Active; 'I' for Inactive)
REMARK    1  A    between atoms: S1_2  and  C2_5 
REMARK    2  A    between atoms: C5_10  and  C6_11 
REMARK    3  A    between atoms: C6_11  and  N1_12 
REMARK    4  A    between atoms: N1_12  and  N2_14 
REMARK    5  A    between atoms: N2_14  and  C7_16 
REMARK    6  A    between atoms: C7_16  and  N3_18 
REMARK       I    between atoms: N3_18  and  C8_20 
REMARK    7  A    between atoms: C8_20  and  C9_22 
REMARK    8  A    between atoms: C11_24  and  C12_25 
ROOT
HETATM    1  C7  UNL     1      24.976  -6.699  21.584  1.00  0.00     0.193 C 
HETATM    2  S3  UNL     1      26.080  -7.933  21.862  1.00  0.00    -0.039 SA
ENDROOT
BRANCH   1   3
HETATM    3  N2  UNL     1      25.408  -5.719  20.682  1.00  0.00    -0.276 N 
ATOM      4  H2  UNL     1      25.762  -6.032  19.778  1.00  0.00     0.189 HD
BRANCH   3   5
HETATM    5  N1  UNL     1      25.390  -4.374  20.922  1.00  0.00    -0.309 N 
ATOM      6  H1  UNL     1      26.266  -4.061  21.342  1.00  0.00     0.186 HD
BRANCH   5   7
HETATM    7  C6  UNL     1      24.603  -3.430  20.769  1.00  0.00     0.120 C 
BRANCH   7   8
HETATM    8  C5  UNL     1      23.393  -3.363  19.899  1.00  0.00     0.011 A 
HETATM    9  C2  UNL     1      23.494  -3.232  18.529  1.00  0.00     0.112 A 
HETATM   10  S2  UNL     1      21.872  -3.242  18.006  1.00  0.00    -0.065 SA
HETATM   11  C3  UNL     1      21.100  -3.409  19.505  1.00  0.00     0.076 A 
HETATM   12 CL1  UNL     1      19.361  -3.507  19.878  1.00  0.00    -0.076 Cl
HETATM   13  C4  UNL     1      22.137  -3.455  20.395  1.00  0.00     0.046 A 
BRANCH   9  14
HETATM   14  S1  UNL     1      24.958  -3.095  17.532  1.00  0.00     0.179 S 
HETATM   15  C1  UNL     1      25.857  -1.653  17.959  1.00  0.00     0.167 C 
HETATM   16  O1  UNL     1      25.800  -4.296  17.929  1.00  0.00    -0.222 OA
HETATM   17  O2  UNL     1      24.575  -3.136  16.116  1.00  0.00    -0.222 OA
ENDBRANCH   9  14
ENDBRANCH   7   8
ENDBRANCH   5   7
ENDBRANCH   3   5
ENDBRANCH   1   3
BRANCH   1  18
HETATM   18  N3  UNL     1      23.778  -6.770  22.258  1.00  0.00    -0.297 N 
HETATM   19  C8  UNL     1      22.491  -6.863  21.721  1.00  0.00     0.275 C 
HETATM   20  O3  UNL     1      22.334  -6.889  20.468  1.00  0.00    -0.266 OA
ATOM     21  H3  UNL     1      23.838  -6.752  23.276  1.00  0.00     0.171 HD
BRANCH  19  22
HETATM   22  C9  UNL     1      21.264  -6.932  22.559  1.00  0.00     0.119 A 
HETATM   23  C10 UNL     1      20.119  -6.351  22.128  1.00  0.00     0.069 A 
HETATM   24  C11 UNL     1      18.977  -6.432  22.936  1.00  0.00     0.093 A 
HETATM   25  N4  UNL     1      19.080  -7.086  24.099  1.00  0.00    -0.285 N 
HETATM   26  N5  UNL     1      20.216  -7.638  24.478  1.00  0.00    -0.242 N 
ATOM     27  H4  UNL     1      18.263  -7.159  24.705  1.00  0.00     0.188 HD
HETATM   28  N6  UNL     1      21.295  -7.569  23.729  1.00  0.00    -0.281 N 
ATOM     29  H5  UNL     1      20.259  -8.130  25.371  1.00  0.00     0.208 HD
ATOM     30  H6  UNL     1      22.161  -8.005  24.045  1.00  0.00     0.188 HD
BRANCH  24  31
HETATM   31  C12 UNL     1      17.694  -5.797  22.482  1.00  0.00     0.404 C 
HETATM   32  F1  UNL     1      17.377  -6.307  21.223  1.00  0.00    -0.207 F 
HETATM   33  F2  UNL     1      16.673  -6.144  23.360  1.00  0.00    -0.207 F 
ENDBRANCH  24  31
ENDBRANCH  19  22
ENDBRANCH   1  18
TORSDOF 8
ENDMDL
MODEL 3
REMARK VINA RESULT: -7.987527202      4.521      6.465
REMARK  8 active torsions:
REMARK  status: ('A' for Active; 'I' for Inactive)
REMARK    1  A    between atoms: S1_2  and  C2_5 
REMARK    2  A    between atoms: C5_10  and  C6_11 
REMARK    3  A    between atoms: C6_11  and  N1_12 
REMARK    4  A    between atoms: N1_12  and  N2_14 
REMARK    5  A    between atoms: N2_14  and  C7_16 
REMARK    6  A    between atoms: C7_16  and  N3_18 
REMARK       I    between atoms: N3_18  and  C8_20 
REMARK    7  A    between atoms: C8_20  and  C9_22 
REMARK    8  A    between atoms: C11_24  and  C12_25 
ROOT
HETATM    1  C7  UNL     1      24.729  -1.734  19.173  1.00  0.00     0.193 C 
HETATM    2  S3  UNL     1      25.228  -0.337  19.959  1.00  0.00    -0.039 SA
ENDROOT
BRANCH   1   3
HETATM    3  N2  UNL     1      23.833  -1.524  18.118  1.00  0.00    -0.276 N 
ATOM      4  H2  UNL     1      23.781  -0.585  17.723  1.00  0.00     0.189 HD
BRANCH   3   5
HETATM    5  N1  UNL     1      23.023  -2.483  17.578  1.00  0.00    -0.309 N 
ATOM      6  H1  UNL     1      23.308  -2.716  16.627  1.00  0.00     0.186 HD
BRANCH   5   7
HETATM    7  C6  UNL     1      22.038  -3.148  17.927  1.00  0.00     0.120 C 
BRANCH   7   8
HETATM    8  C5  UNL     1      21.462  -3.305  19.294  1.00  0.00     0.011 A 
HETATM    9  C2  UNL     1      20.703  -2.312  19.879  1.00  0.00     0.112 A 
HETATM   10  S2  UNL     1      20.263  -2.980  21.384  1.00  0.00    -0.065 SA
HETATM   11  C3  UNL     1      21.035  -4.483  21.256  1.00  0.00     0.076 A 
HETATM   12 CL1  UNL     1      21.088  -5.831  22.418  1.00  0.00    -0.076 Cl
HETATM   13  C4  UNL     1      21.628  -4.434  20.024  1.00  0.00     0.046 A 
BRANCH   9  14
HETATM   14  S1  UNL     1      20.269  -0.718  19.226  1.00  0.00     0.179 S 
HETATM   15  C1  UNL     1      19.248   0.148  20.356  1.00  0.00     0.167 C 
HETATM   16  O1  UNL     1      21.590   0.027  19.136  1.00  0.00    -0.222 OA
HETATM   17  O2  UNL     1      19.648  -0.896  17.909  1.00  0.00    -0.222 OA
ENDBRANCH   9  14
ENDBRANCH   7   8
ENDBRANCH   5   7
ENDBRANCH   3   5
ENDBRANCH   1   3
BRANCH   1  18
HETATM   18  N3  UNL     1      25.238  -2.926  19.636  1.00  0.00    -0.297 N 
HETATM   19  C8  UNL     1      25.609  -4.051  18.894  1.00  0.00     0.275 C 
HETATM   20  O3  UNL     1      25.487  -4.041  17.637  1.00  0.00    -0.266 OA
ATOM     21  H3  UNL     1      25.360  -2.997  20.646  1.00  0.00     0.171 HD
BRANCH  19  22
HETATM   22  C9  UNL     1      26.151  -5.290  19.512  1.00  0.00     0.119 A 
HETATM   23  C10 UNL     1      25.457  -5.914  20.493  1.00  0.00     0.069 A 
HETATM   24  C11 UNL     1      25.989  -7.081  21.058  1.00  0.00     0.093 A 
HETATM   25  N4  UNL     1      27.164  -7.520  20.593  1.00  0.00    -0.285 N 
HETATM   26  N5  UNL     1      27.805  -6.880  19.635  1.00  0.00    -0.242 N 
ATOM     27  H4  UNL     1      27.573  -8.367  20.988  1.00  0.00     0.188 HD
HETATM   28  N6  UNL     1      27.316  -5.784  19.096  1.00  0.00    -0.281 N 
ATOM     29  H5  UNL     1      28.699  -7.243  19.303  1.00  0.00     0.208 HD
ATOM     30  H6  UNL     1      27.832  -5.309  18.355  1.00  0.00     0.188 HD
BRANCH  24  31
HETATM   31  C12 UNL     1      25.239  -7.793  22.148  1.00  0.00     0.404 C 
HETATM   32  F1  UNL     1      23.874  -7.653  21.900  1.00  0.00    -0.207 F 
HETATM   33  F2  UNL     1      25.550  -9.147  22.111  1.00  0.00    -0.207 F 
ENDBRANCH  24  31
ENDBRANCH  19  22
ENDBRANCH   1  18
TORSDOF 8
ENDMDL
MODEL 4
REMARK VINA RESULT: -7.924872019      3.437      4.615
REMARK  8 active torsions:
REMARK  status: ('A' for Active; 'I' for Inactive)
REMARK    1  A    between atoms: S1_2  and  C2_5 
REMARK    2  A    between atoms: C5_10  and  C6_11 
REMARK    3  A    between atoms: C6_11  and  N1_12 
REMARK    4  A    between atoms: N1_12  and  N2_14 
REMARK    5  A    between atoms: N2_14  and  C7_16 
REMARK    6  A    between atoms: C7_16  and  N3_18 
REMARK       I    between atoms: N3_18  and  C8_20 
REMARK    7  A    between atoms: C8_20  and  C9_22 
REMARK    8  A    between atoms: C11_24  and  C12_25 
ROOT
HETATM    1  C7  UNL     1      21.146  -1.842  20.252  1.00  0.00     0.193 C 
HETATM    2  S3  UNL     1      21.927  -0.541  20.968  1.00  0.00    -0.039 SA
ENDROOT
BRANCH   1   3
HETATM    3  N2  UNL     1      21.085  -1.792  18.854  1.00  0.00    -0.276 N 
ATOM      4  H2  UNL     1      20.577  -1.016  18.431  1.00  0.00     0.189 HD
BRANCH   3   5
HETATM    5  N1  UNL     1      21.656  -2.706  18.013  1.00  0.00    -0.309 N 
ATOM      6  H1  UNL     1      21.797  -2.315  17.082  1.00  0.00     0.186 HD
BRANCH   5   7
HETATM    7  C6  UNL     1      22.050  -3.879  18.073  1.00  0.00     0.120 C 
BRANCH   7   8
HETATM    8  C5  UNL     1      23.141  -4.449  18.916  1.00  0.00     0.011 A 
HETATM    9  C2  UNL     1      24.436  -3.980  18.837  1.00  0.00     0.112 A 
HETATM   10  S2  UNL     1      25.268  -4.910  19.999  1.00  0.00    -0.065 SA
HETATM   11  C3  UNL     1      23.985  -5.865  20.558  1.00  0.00     0.076 A 
HETATM   12 CL1  UNL     1      23.981  -7.135  21.807  1.00  0.00    -0.076 Cl
HETATM   13  C4  UNL     1      22.919  -5.434  19.819  1.00  0.00     0.046 A 
BRANCH   9  14
HETATM   14  S1  UNL     1      25.094  -2.705  17.790  1.00  0.00     0.179 S 
HETATM   15  C1  UNL     1      24.751  -1.124  18.461  1.00  0.00     0.167 C 
HETATM   16  O1  UNL     1      26.598  -2.910  17.841  1.00  0.00    -0.222 OA
HETATM   17  O2  UNL     1      24.561  -2.882  16.434  1.00  0.00    -0.222 OA
ENDBRANCH   9  14
ENDBRANCH   7   8
ENDBRANCH   5   7
ENDBRANCH   3   5
ENDBRANCH   1   3
BRANCH   1  18
HETATM   18  N3  UNL     1      20.649  -2.812  21.093  1.00  0.00    -0.297 N 
HETATM   19  C8  UNL     1      19.599  -3.704  20.857  1.00  0.00     0.275 C 
HETATM   20  O3  UNL     1      18.984  -3.671  19.754  1.00  0.00    -0.266 OA
ATOM     21  H3  UNL     1      21.105  -2.890  22.003  1.00  0.00     0.171 HD
BRANCH  19  22
HETATM   22  C9  UNL     1      19.150  -4.714  21.852  1.00  0.00     0.119 A 
HETATM   23  C10 UNL     1      20.066  -5.422  22.554  1.00  0.00     0.069 A 
HETATM   24  C11 UNL     1      19.616  -6.367  23.486  1.00  0.00     0.093 A 
HETATM   25  N4  UNL     1      18.295  -6.519  23.634  1.00  0.00    -0.285 N 
HETATM   26  N5  UNL     1      17.439  -5.806  22.928  1.00  0.00    -0.242 N 
ATOM     27  H4  UNL     1      17.943  -7.201  24.306  1.00  0.00     0.188 HD
HETATM   28  N6  UNL     1      17.848  -4.916  22.050  1.00  0.00    -0.281 N 
ATOM     29  H5  UNL     1      16.438  -5.947  23.067  1.00  0.00     0.208 HD
ATOM     30  H6  UNL     1      17.165  -4.377  21.518  1.00  0.00     0.188 HD
BRANCH  24  31
HETATM   31  C12 UNL     1      20.611  -7.166  24.279  1.00  0.00     0.404 C 
HETATM   32  F1  UNL     1      19.908  -8.070  25.075  1.00  0.00    -0.207 F 
HETATM   33  F2  UNL     1      21.418  -7.890  23.409  1.00  0.00    -0.207 F 
ENDBRANCH  24  31
ENDBRANCH  19  22
ENDBRANCH   1  18
TORSDOF 8
ENDMDL
MODEL 5
REMARK VINA RESULT: -7.922998879      2.418      2.999
REMARK  8 active torsions:
REMARK  status: ('A' for Active; 'I' for Inactive)
REMARK    1  A    between atoms: S1_2  and  C2_5 
REMARK    2  A    between atoms: C5_10  and  C6_11 
REMARK    3  A    between atoms: C6_11  and  N1_12 
REMARK    4  A    between atoms: N1_12  and  N2_14 
REMARK    5  A    between atoms: N2_14  and  C7_16 
REMARK    6  A    between atoms: C7_16  and  N3_18 
REMARK       I    between atoms: N3_18  and  C8_20 
REMARK    7  A    between atoms: C8_20  and  C9_22 
REMARK    8  A    between atoms: C11_24  and  C12_25 
ROOT
HETATM    1  C7  UNL     1      25.036  -5.932  21.446  1.00  0.00     0.193 C 
HETATM    2  S3  UNL     1      26.058  -7.246  21.236  1.00  0.00    -0.039 SA
ENDROOT
BRANCH   1   3
HETATM    3  N2  UNL     1      25.518  -4.725  20.924  1.00  0.00    -0.276 N 
ATOM      4  H2  UNL     1      26.184  -4.200  21.489  1.00  0.00     0.189 HD
BRANCH   3   5
HETATM    5  N1  UNL     1      25.162  -4.200  19.714  1.00  0.00    -0.309 N 
ATOM      6  H1  UNL     1      25.983  -3.945  19.165  1.00  0.00     0.186 HD
BRANCH   5   7
HETATM    7  C6  UNL     1      24.115  -3.948  19.101  1.00  0.00     0.120 C 
BRANCH   7   8
HETATM    8  C5  UNL     1      22.937  -3.158  19.562  1.00  0.00     0.011 A 
HETATM    9  C2  UNL     1      23.068  -1.863  20.019  1.00  0.00     0.112 A 
HETATM   10  S2  UNL     1      21.467  -1.403  20.380  1.00  0.00    -0.065 SA
HETATM   11  C3  UNL     1      20.666  -2.835  19.956  1.00  0.00     0.076 A 
HETATM   12 CL1  UNL     1      18.929  -3.223  20.023  1.00  0.00    -0.076 Cl
HETATM   13  C4  UNL     1      21.677  -3.653  19.534  1.00  0.00     0.046 A 
BRANCH   9  14
HETATM   14  S1  UNL     1      24.544  -0.889  20.187  1.00  0.00     0.179 S 
HETATM   15  C1  UNL     1      24.147   0.747  20.670  1.00  0.00     0.167 C 
HETATM   16  O1  UNL     1      25.298  -1.539  21.335  1.00  0.00    -0.222 OA
HETATM   17  O2  UNL     1      25.299  -0.950  18.930  1.00  0.00    -0.222 OA
ENDBRANCH   9  14
ENDBRANCH   7   8
ENDBRANCH   5   7
ENDBRANCH   3   5
ENDBRANCH   1   3
BRANCH   1  18
HETATM   18  N3  UNL     1      23.847  -6.165  22.100  1.00  0.00    -0.297 N 
HETATM   19  C8  UNL     1      22.655  -6.666  21.570  1.00  0.00     0.275 C 
HETATM   20  O3  UNL     1      22.590  -6.963  20.344  1.00  0.00    -0.266 OA
ATOM     21  H3  UNL     1      23.835  -5.944  23.096  1.00  0.00     0.171 HD
BRANCH  19  22
HETATM   22  C9  UNL     1      21.427  -6.874  22.383  1.00  0.00     0.119 A 
HETATM   23  C10 UNL     1      20.265  -6.288  22.013  1.00  0.00     0.069 A 
HETATM   24  C11 UNL     1      19.123  -6.502  22.796  1.00  0.00     0.093 A 
HETATM   25  N4  UNL     1      19.244  -7.281  23.877  1.00  0.00    -0.285 N 
HETATM   26  N5  UNL     1      20.397  -7.832  24.200  1.00  0.00    -0.242 N 
ATOM     27  H4  UNL     1      18.427  -7.452  24.464  1.00  0.00     0.188 HD
HETATM   28  N6  UNL     1      21.476  -7.640  23.473  1.00  0.00    -0.281 N 
ATOM     29  H5  UNL     1      20.454  -8.421  25.031  1.00  0.00     0.208 HD
ATOM     30  H6  UNL     1      22.356  -8.079  23.745  1.00  0.00     0.188 HD
BRANCH  24  31
HETATM   31  C12 UNL     1      17.819  -5.864  22.407  1.00  0.00     0.404 C 
HETATM   32  F1  UNL     1      17.441  -6.372  21.164  1.00  0.00    -0.207 F 
HETATM   33  F2  UNL     1      16.843  -6.211  23.333  1.00  0.00    -0.207 F 
ENDBRANCH  24  31
ENDBRANCH  19  22
ENDBRANCH   1  18
TORSDOF 8
ENDMDL
