MODEL 1
REMARK VINA RESULT: -7.645804950      0.000      0.000
REMARK  12 active torsions:
REMARK  status: ('A' for Active; 'I' for Inactive)
REMARK    1  A    between atoms: C2_2  and  O1_3 
REMARK    2  A    between atoms: O1_3  and  C3_4 
REMARK       I    between atoms: C3_4  and  N1_6 
REMARK    3  A    between atoms: N1_6  and  N2_8 
REMARK    4  A    between atoms: N2_8  and  C4_10 
REMARK    5  A    between atoms: C4_10  and  C5_11 
REMARK    6  A    between atoms: C5_11  and  S1_12 
REMARK    7  A    between atoms: N3_16  and  O6_18 
REMARK    8  A    between atoms: O6_18  and  N4_19 
REMARK    9  A    between atoms: C6_21  and  C8_23 
REMARK   10  A    between atoms: C8_23  and  O7_24 
REMARK   11  A    between atoms: N5_26  and  O8_28 
REMARK   12  A    between atoms: O8_28  and  C9_29 
ROOT
HETATM    1  C4  UNL     1      26.791 127.873  17.162  1.00  0.00     0.135 C 
HETATM    2  N3  UNL     1      25.897 128.537  17.769  1.00  0.00    -0.227 N 
ATOM      3  H3  UNL     1      25.253 127.946  18.294  1.00  0.00     0.198 HD
ENDROOT
BRANCH   2   4
HETATM    4  O6  UNL     1      25.614 129.820  17.874  1.00  0.00    -0.155 OA
BRANCH   4   5
HETATM    5  N4  UNL     1      25.352 130.777  16.987  1.00  0.00    -0.242 N 
HETATM    6  C6  UNL     1      25.551 132.011  17.127  1.00  0.00     0.083 C 
HETATM    7  C7  UNL     1      25.166 132.894  15.975  1.00  0.00     0.075 C 
ATOM      8  H4  UNL     1      24.947 130.479  16.100  1.00  0.00     0.196 HD
BRANCH   6   9
HETATM    9  C8  UNL     1      26.123 132.591  18.342  1.00  0.00     0.185 C 
HETATM   10  N5  UNL     1      25.589 133.681  18.760  1.00  0.00    -0.232 N 
ATOM     11  H5  UNL     1      24.810 134.074  18.230  1.00  0.00     0.197 HD
BRANCH   9  12
HETATM   12  O7  UNL     1      27.178 132.036  19.042  1.00  0.00    -0.343 OA
ATOM     13  H7  UNL     1      27.540 132.404  19.839  1.00  0.00     0.219 HD
ENDBRANCH   9  12
BRANCH  10  14
HETATM   14  O8  UNL     1      26.012 134.343  19.878  1.00  0.00    -0.171 OA
BRANCH  14  15
HETATM   15  C9  UNL     1      26.759 135.531  19.752  1.00  0.00     0.355 C 
HETATM   16  O9  UNL     1      26.272 136.570  20.234  1.00  0.00    -0.622 OA
HETATM   17  O10 UNL     1      27.962 135.528  19.124  1.00  0.00    -0.622 OA
ENDBRANCH  14  15
ENDBRANCH  10  14
ENDBRANCH   6   9
ENDBRANCH   4   5
ENDBRANCH   2   4
BRANCH   1  18
HETATM   18  N2  UNL     1      26.793 126.444  17.275  1.00  0.00    -0.282 N 
ATOM     19  H2  UNL     1      26.659 125.886  16.431  1.00  0.00     0.188 HD
BRANCH  18  20
HETATM   20  N1  UNL     1      26.970 125.787  18.486  1.00  0.00    -0.244 N 
HETATM   21  C3  UNL     1      28.263 125.668  19.111  1.00  0.00     0.379 C 
HETATM   22  O2  UNL     1      29.267 126.179  18.526  1.00  0.00    -0.237 OA
ATOM     23  H1  UNL     1      26.159 125.375  18.947  1.00  0.00     0.192 HD
BRANCH  21  24
HETATM   24  O1  UNL     1      28.503 125.048  20.298  1.00  0.00    -0.303 OA
BRANCH  24  25
HETATM   25  C2  UNL     1      27.891 123.917  20.820  1.00  0.00     0.176 C 
HETATM   26  C1  UNL     1      27.955 122.666  20.036  1.00  0.00     0.034 C 
ENDBRANCH  24  25
ENDBRANCH  21  24
ENDBRANCH  18  20
ENDBRANCH   1  18
BRANCH   1  27
HETATM   27  C5  UNL     1      27.802 128.554  16.338  1.00  0.00     0.244 C 
BRANCH  27  28
HETATM   28  S1  UNL     1      28.938 129.468  17.339  1.00  0.00     0.108 S 
HETATM   29  O3  UNL     1      28.942 130.920  17.012  1.00  0.00    -0.595 OA
HETATM   30  O4  UNL     1      28.678 129.276  18.801  1.00  0.00    -0.595 OA
HETATM   31  O5  UNL     1      30.533 128.928  17.058  1.00  0.00    -0.595 OA
ENDBRANCH  27  28
ENDBRANCH   1  27
TORSDOF 12
ENDMDL
MODEL 2
REMARK VINA RESULT: -7.611843854      2.361      3.362
REMARK  12 active torsions:
REMARK  status: ('A' for Active; 'I' for Inactive)
REMARK    1  A    between atoms: C2_2  and  O1_3 
REMARK    2  A    between atoms: O1_3  and  C3_4 
REMARK       I    between atoms: C3_4  and  N1_6 
REMARK    3  A    between atoms: N1_6  and  N2_8 
REMARK    4  A    between atoms: N2_8  and  C4_10 
REMARK    5  A    between atoms: C4_10  and  C5_11 
REMARK    6  A    between atoms: C5_11  and  S1_12 
REMARK    7  A    between atoms: N3_16  and  O6_18 
REMARK    8  A    between atoms: O6_18  and  N4_19 
REMARK    9  A    between atoms: C6_21  and  C8_23 
REMARK   10  A    between atoms: C8_23  and  O7_24 
REMARK   11  A    between atoms: N5_26  and  O8_28 
REMARK   12  A    between atoms: O8_28  and  C9_29 
ROOT
HETATM    1  C4  UNL     1      27.155 130.149  17.169  1.00  0.00     0.135 C 
HETATM    2  N3  UNL     1      27.049 131.086  18.017  1.00  0.00    -0.227 N 
ATOM      3  H3  UNL     1      27.765 131.046  18.742  1.00  0.00     0.198 HD
ENDROOT
BRANCH   2   4
HETATM    4  O6  UNL     1      26.222 132.100  18.171  1.00  0.00    -0.155 OA
BRANCH   4   5
HETATM    5  N4  UNL     1      25.683 132.691  19.234  1.00  0.00    -0.242 N 
HETATM    6  C6  UNL     1      26.003 133.805  19.722  1.00  0.00     0.083 C 
HETATM    7  C7  UNL     1      25.244 134.257  20.936  1.00  0.00     0.075 C 
ATOM      8  H4  UNL     1      24.931 132.187  19.704  1.00  0.00     0.196 HD
BRANCH   6   9
HETATM    9  C8  UNL     1      27.063 134.643  19.161  1.00  0.00     0.185 C 
HETATM   10  N5  UNL     1      26.985 134.895  17.904  1.00  0.00    -0.232 N 
ATOM     11  H5  UNL     1      26.202 134.503  17.379  1.00  0.00     0.197 HD
BRANCH   9  12
HETATM   12  O7  UNL     1      28.111 135.163  19.897  1.00  0.00    -0.343 OA
ATOM     13  H7  UNL     1      28.506 136.011  19.734  1.00  0.00     0.219 HD
ENDBRANCH   9  12
BRANCH  10  14
HETATM   14  O8  UNL     1      27.898 135.660  17.235  1.00  0.00    -0.171 OA
BRANCH  14  15
HETATM   15  C9  UNL     1      29.033 135.057  16.657  1.00  0.00     0.355 C 
HETATM   16  O9  UNL     1      29.339 135.397  15.499  1.00  0.00    -0.622 OA
HETATM   17  O10 UNL     1      29.755 134.139  17.348  1.00  0.00    -0.622 OA
ENDBRANCH  14  15
ENDBRANCH  10  14
ENDBRANCH   6   9
ENDBRANCH   4   5
ENDBRANCH   2   4
BRANCH   1  18
HETATM   18  N2  UNL     1      28.210 129.189  17.319  1.00  0.00    -0.282 N 
ATOM     19  H2  UNL     1      28.940 129.149  16.608  1.00  0.00     0.188 HD
BRANCH  18  20
HETATM   20  N1  UNL     1      28.279 128.312  18.394  1.00  0.00    -0.244 N 
HETATM   21  C3  UNL     1      28.732 126.953  18.246  1.00  0.00     0.379 C 
HETATM   22  O2  UNL     1      29.071 126.551  17.091  1.00  0.00    -0.237 OA
ATOM     23  H1  UNL     1      27.999 128.641  19.318  1.00  0.00     0.192 HD
BRANCH  21  24
HETATM   24  O1  UNL     1      28.831 126.047  19.256  1.00  0.00    -0.303 OA
BRANCH  24  25
HETATM   25  C2  UNL     1      27.984 124.989  19.554  1.00  0.00     0.176 C 
HETATM   26  C1  UNL     1      27.994 124.455  20.932  1.00  0.00     0.034 C 
ENDBRANCH  24  25
ENDBRANCH  21  24
ENDBRANCH  18  20
ENDBRANCH   1  18
BRANCH   1  27
HETATM   27  C5  UNL     1      26.200 130.032  16.056  1.00  0.00     0.244 C 
BRANCH  27  28
HETATM   28  S1  UNL     1      25.841 128.339  15.693  1.00  0.00     0.108 S 
HETATM   29  O3  UNL     1      26.877 127.711  14.827  1.00  0.00    -0.595 OA
HETATM   30  O4  UNL     1      25.655 127.526  16.936  1.00  0.00    -0.595 OA
HETATM   31  O5  UNL     1      24.379 128.224  14.819  1.00  0.00    -0.595 OA
ENDBRANCH  27  28
ENDBRANCH   1  27
TORSDOF 12
ENDMDL
MODEL 3
REMARK VINA RESULT: -7.550079230      2.502      3.399
REMARK  12 active torsions:
REMARK  status: ('A' for Active; 'I' for Inactive)
REMARK    1  A    between atoms: C2_2  and  O1_3 
REMARK    2  A    between atoms: O1_3  and  C3_4 
REMARK       I    between atoms: C3_4  and  N1_6 
REMARK    3  A    between atoms: N1_6  and  N2_8 
REMARK    4  A    between atoms: N2_8  and  C4_10 
REMARK    5  A    between atoms: C4_10  and  C5_11 
REMARK    6  A    between atoms: C5_11  and  S1_12 
REMARK    7  A    between atoms: N3_16  and  O6_18 
REMARK    8  A    between atoms: O6_18  and  N4_19 
REMARK    9  A    between atoms: C6_21  and  C8_23 
REMARK   10  A    between atoms: C8_23  and  O7_24 
REMARK   11  A    between atoms: N5_26  and  O8_28 
REMARK   12  A    between atoms: O8_28  and  C9_29 
ROOT
HETATM    1  C4  UNL     1      27.327 130.155  17.232  1.00  0.00     0.135 C 
HETATM    2  N3  UNL     1      27.409 131.060  18.117  1.00  0.00    -0.227 N 
ATOM      3  H3  UNL     1      28.179 130.908  18.768  1.00  0.00     0.198 HD
ENDROOT
BRANCH   2   4
HETATM    4  O6  UNL     1      26.722 132.153  18.383  1.00  0.00    -0.155 OA
BRANCH   4   5
HETATM    5  N4  UNL     1      26.043 132.572  19.448  1.00  0.00    -0.242 N 
HETATM    6  C6  UNL     1      25.948 133.755  19.865  1.00  0.00     0.083 C 
HETATM    7  C7  UNL     1      25.119 133.973  21.099  1.00  0.00     0.075 C 
ATOM      8  H4  UNL     1      25.546 131.859  19.982  1.00  0.00     0.196 HD
BRANCH   6   9
HETATM    9  C8  UNL     1      26.604 134.884  19.207  1.00  0.00     0.185 C 
HETATM   10  N5  UNL     1      26.224 135.144  18.009  1.00  0.00    -0.232 N 
ATOM     11  H5  UNL     1      25.499 134.559  17.592  1.00  0.00     0.197 HD
BRANCH   9  12
HETATM   12  O7  UNL     1      27.582 135.662  19.797  1.00  0.00    -0.343 OA
ATOM     13  H7  UNL     1      28.494 135.662  19.530  1.00  0.00     0.219 HD
ENDBRANCH   9  12
BRANCH  10  14
HETATM   14  O8  UNL     1      26.742 136.166  17.263  1.00  0.00    -0.171 OA
BRANCH  14  15
HETATM   15  C9  UNL     1      25.993 136.712  16.201  1.00  0.00     0.355 C 
HETATM   16  O9  UNL     1      25.159 135.973  15.646  1.00  0.00    -0.622 OA
HETATM   17  O10 UNL     1      26.186 137.997  15.808  1.00  0.00    -0.622 OA
ENDBRANCH  14  15
ENDBRANCH  10  14
ENDBRANCH   6   9
ENDBRANCH   4   5
ENDBRANCH   2   4
BRANCH   1  18
HETATM   18  N2  UNL     1      28.274 129.078  17.247  1.00  0.00    -0.282 N 
ATOM     19  H2  UNL     1      28.860 128.929  16.426  1.00  0.00     0.188 HD
BRANCH  18  20
HETATM   20  N1  UNL     1      28.424 128.228  18.336  1.00  0.00    -0.244 N 
HETATM   21  C3  UNL     1      28.662 126.816  18.178  1.00  0.00     0.379 C 
HETATM   22  O2  UNL     1      28.729 126.342  17.003  1.00  0.00    -0.237 OA
ATOM     23  H1  UNL     1      28.364 128.616  19.277  1.00  0.00     0.192 HD
BRANCH  21  24
HETATM   24  O1  UNL     1      28.827 125.932  19.199  1.00  0.00    -0.303 OA
BRANCH  24  25
HETATM   25  C2  UNL     1      28.017 124.863  19.555  1.00  0.00     0.176 C 
HETATM   26  C1  UNL     1      27.979 124.462  20.977  1.00  0.00     0.034 C 
ENDBRANCH  24  25
ENDBRANCH  21  24
ENDBRANCH  18  20
ENDBRANCH   1  18
BRANCH   1  27
HETATM   27  C5  UNL     1      26.267 130.195  16.213  1.00  0.00     0.244 C 
BRANCH  27  28
HETATM   28  S1  UNL     1      25.744 128.566  15.766  1.00  0.00     0.108 S 
HETATM   29  O3  UNL     1      26.643 127.936  14.760  1.00  0.00    -0.595 OA
HETATM   30  O4  UNL     1      25.610 127.672  16.960  1.00  0.00    -0.595 OA
HETATM   31  O5  UNL     1      24.203 128.625  15.033  1.00  0.00    -0.595 OA
ENDBRANCH  27  28
ENDBRANCH   1  27
TORSDOF 12
ENDMDL
MODEL 4
REMARK VINA RESULT: -7.485844657      2.934      8.695
REMARK  12 active torsions:
REMARK  status: ('A' for Active; 'I' for Inactive)
REMARK    1  A    between atoms: C2_2  and  O1_3 
REMARK    2  A    between atoms: O1_3  and  C3_4 
REMARK       I    between atoms: C3_4  and  N1_6 
REMARK    3  A    between atoms: N1_6  and  N2_8 
REMARK    4  A    between atoms: N2_8  and  C4_10 
REMARK    5  A    between atoms: C4_10  and  C5_11 
REMARK    6  A    between atoms: C5_11  and  S1_12 
REMARK    7  A    between atoms: N3_16  and  O6_18 
REMARK    8  A    between atoms: O6_18  and  N4_19 
REMARK    9  A    between atoms: C6_21  and  C8_23 
REMARK   10  A    between atoms: C8_23  and  O7_24 
REMARK   11  A    between atoms: N5_26  and  O8_28 
REMARK   12  A    between atoms: O8_28  and  C9_29 
ROOT
HETATM    1  C4  UNL     1      26.066 133.380  18.045  1.00  0.00     0.135 C 
HETATM    2  N3  UNL     1      26.033 132.269  17.436  1.00  0.00    -0.227 N 
ATOM      3  H3  UNL     1      26.028 132.374  16.421  1.00  0.00     0.198 HD
ENDROOT
BRANCH   2   4
HETATM    4  O6  UNL     1      26.004 131.008  17.819  1.00  0.00    -0.155 OA
BRANCH   4   5
HETATM    5  N4  UNL     1      25.506 129.897  17.282  1.00  0.00    -0.242 N 
HETATM    6  C6  UNL     1      26.146 128.998  16.677  1.00  0.00     0.083 C 
HETATM    7  C7  UNL     1      25.351 127.836  16.155  1.00  0.00     0.075 C 
ATOM      8  H4  UNL     1      24.499 129.760  17.369  1.00  0.00     0.196 HD
BRANCH   6   9
HETATM    9  C8  UNL     1      27.593 129.055  16.472  1.00  0.00     0.185 C 
HETATM   10  N5  UNL     1      28.213 127.931  16.475  1.00  0.00    -0.232 N 
ATOM     11  H5  UNL     1      27.671 127.078  16.616  1.00  0.00     0.197 HD
BRANCH   9  12
HETATM   12  O7  UNL     1      28.302 130.226  16.280  1.00  0.00    -0.343 OA
ATOM     13  H7  UNL     1      28.891 130.376  15.550  1.00  0.00     0.219 HD
ENDBRANCH   9  12
BRANCH  10  14
HETATM   14  O8  UNL     1      29.564 127.820  16.297  1.00  0.00    -0.171 OA
BRANCH  14  15
HETATM   15  C9  UNL     1      30.428 127.895  17.407  1.00  0.00     0.355 C 
HETATM   16  O9  UNL     1      30.781 129.027  17.785  1.00  0.00    -0.622 OA
HETATM   17  O10 UNL     1      30.852 126.767  18.031  1.00  0.00    -0.622 OA
ENDBRANCH  14  15
ENDBRANCH  10  14
ENDBRANCH   6   9
ENDBRANCH   4   5
ENDBRANCH   2   4
BRANCH   1  18
HETATM   18  N2  UNL     1      26.089 134.594  17.281  1.00  0.00    -0.282 N 
ATOM     19  H2  UNL     1      26.988 135.038  17.095  1.00  0.00     0.188 HD
BRANCH  18  20
HETATM   20  N1  UNL     1      24.936 135.188  16.783  1.00  0.00    -0.244 N 
HETATM   21  C3  UNL     1      24.906 136.566  16.362  1.00  0.00     0.379 C 
HETATM   22  O2  UNL     1      25.969 137.251  16.458  1.00  0.00    -0.237 OA
ATOM     23  H1  UNL     1      24.084 134.632  16.714  1.00  0.00     0.192 HD
BRANCH  21  24
HETATM   24  O1  UNL     1      23.815 137.205  15.858  1.00  0.00    -0.303 OA
BRANCH  24  25
HETATM   25  C2  UNL     1      23.324 137.181  14.561  1.00  0.00     0.176 C 
HETATM   26  C1  UNL     1      22.697 138.411  14.031  1.00  0.00     0.034 C 
ENDBRANCH  24  25
ENDBRANCH  21  24
ENDBRANCH  18  20
ENDBRANCH   1  18
BRANCH   1  27
HETATM   27  C5  UNL     1      26.061 133.431  19.515  1.00  0.00     0.244 C 
BRANCH  27  28
HETATM   28  S1  UNL     1      26.180 135.095  20.101  1.00  0.00     0.108 S 
HETATM   29  O3  UNL     1      25.014 135.926  19.693  1.00  0.00    -0.595 OA
HETATM   30  O4  UNL     1      26.355 135.157  21.587  1.00  0.00    -0.595 OA
HETATM   31  O5  UNL     1      27.549 135.859  19.423  1.00  0.00    -0.595 OA
ENDBRANCH  27  28
ENDBRANCH   1  27
TORSDOF 12
ENDMDL
MODEL 5
REMARK VINA RESULT: -7.463045599      2.460      3.232
REMARK  12 active torsions:
REMARK  status: ('A' for Active; 'I' for Inactive)
REMARK    1  A    between atoms: C2_2  and  O1_3 
REMARK    2  A    between atoms: O1_3  and  C3_4 
REMARK       I    between atoms: C3_4  and  N1_6 
REMARK    3  A    between atoms: N1_6  and  N2_8 
REMARK    4  A    between atoms: N2_8  and  C4_10 
REMARK    5  A    between atoms: C4_10  and  C5_11 
REMARK    6  A    between atoms: C5_11  and  S1_12 
REMARK    7  A    between atoms: N3_16  and  O6_18 
REMARK    8  A    between atoms: O6_18  and  N4_19 
REMARK    9  A    between atoms: C6_21  and  C8_23 
REMARK   10  A    between atoms: C8_23  and  O7_24 
REMARK   11  A    between atoms: N5_26  and  O8_28 
REMARK   12  A    between atoms: O8_28  and  C9_29 
ROOT
HETATM    1  C4  UNL     1      27.411 129.445  16.317  1.00  0.00     0.135 C 
HETATM    2  N3  UNL     1      28.240 130.281  16.789  1.00  0.00    -0.227 N 
ATOM      3  H3  UNL     1      29.167 129.880  16.935  1.00  0.00     0.198 HD
ENDROOT
BRANCH   2   4
HETATM    4  O6  UNL     1      28.174 131.552  17.131  1.00  0.00    -0.155 OA
BRANCH   4   5
HETATM    5  N4  UNL     1      28.635 132.674  16.585  1.00  0.00    -0.242 N 
HETATM    6  C6  UNL     1      28.617 133.825  17.094  1.00  0.00     0.083 C 
HETATM    7  C7  UNL     1      29.200 134.938  16.272  1.00  0.00     0.075 C 
ATOM      8  H4  UNL     1      29.048 132.594  15.656  1.00  0.00     0.196 HD
BRANCH   6   9
HETATM    9  C8  UNL     1      28.058 134.099  18.417  1.00  0.00     0.185 C 
HETATM   10  N5  UNL     1      26.892 133.617  18.654  1.00  0.00    -0.232 N 
ATOM     11  H5  UNL     1      26.430 133.081  17.919  1.00  0.00     0.197 HD
BRANCH   9  12
HETATM   12  O7  UNL     1      28.707 134.828  19.396  1.00  0.00    -0.343 OA
ATOM     13  H7  UNL     1      29.215 134.440  20.100  1.00  0.00     0.219 HD
ENDBRANCH   9  12
BRANCH  10  14
HETATM   14  O8  UNL     1      26.237 133.788  19.842  1.00  0.00    -0.171 OA
BRANCH  14  15
HETATM   15  C9  UNL     1      25.834 135.077  20.244  1.00  0.00     0.355 C 
HETATM   16  O9  UNL     1      26.381 135.565  21.249  1.00  0.00    -0.622 OA
HETATM   17  O10 UNL     1      24.879 135.749  19.551  1.00  0.00    -0.622 OA
ENDBRANCH  14  15
ENDBRANCH  10  14
ENDBRANCH   6   9
ENDBRANCH   4   5
ENDBRANCH   2   4
BRANCH   1  18
HETATM   18  N2  UNL     1      27.845 128.103  16.060  1.00  0.00    -0.282 N 
ATOM     19  H2  UNL     1      28.164 127.863  15.121  1.00  0.00     0.188 HD
BRANCH  18  20
HETATM   20  N1  UNL     1      27.847 127.115  17.037  1.00  0.00    -0.244 N 
HETATM   21  C3  UNL     1      28.927 126.974  17.980  1.00  0.00     0.379 C 
HETATM   22  O2  UNL     1      29.905 127.778  17.904  1.00  0.00    -0.237 OA
ATOM     23  H1  UNL     1      27.059 126.469  17.088  1.00  0.00     0.192 HD
BRANCH  21  24
HETATM   24  O1  UNL     1      28.987 126.037  18.965  1.00  0.00    -0.303 OA
BRANCH  24  25
HETATM   25  C2  UNL     1      28.051 125.066  19.291  1.00  0.00     0.176 C 
HETATM   26  C1  UNL     1      27.978 124.614  20.696  1.00  0.00     0.034 C 
ENDBRANCH  24  25
ENDBRANCH  21  24
ENDBRANCH  18  20
ENDBRANCH   1  18
BRANCH   1  27
HETATM   27  C5  UNL     1      26.017 129.837  16.055  1.00  0.00     0.244 C 
BRANCH  27  28
HETATM   28  S1  UNL     1      25.183 128.623  15.076  1.00  0.00     0.108 S 
HETATM   29  O3  UNL     1      25.868 128.370  13.779  1.00  0.00    -0.595 OA
HETATM   30  O4  UNL     1      24.999 127.335  15.815  1.00  0.00    -0.595 OA
HETATM   31  O5  UNL     1      23.618 129.172  14.670  1.00  0.00    -0.595 OA
ENDBRANCH  27  28
ENDBRANCH   1  27
TORSDOF 12
ENDMDL
