MODEL 1
REMARK VINA RESULT: -7.509088641      0.000      0.000
REMARK  9 active torsions:
REMARK  status: ('A' for Active; 'I' for Inactive)
REMARK    1  A    between atoms: C3_3  and  O1_4 
REMARK    2  A    between atoms: C7_9  and  C8_10 
REMARK    3  A    between atoms: C8_10  and  C9_11 
REMARK    4  A    between atoms: C9_11  and  C10_12 
REMARK    5  A    between atoms: C10_12  and  O2_15 
REMARK    6  A    between atoms: C15_19  and  O4_20 
REMARK    7  A    between atoms: O4_20  and  C16_21 
REMARK    8  A    between atoms: C16_21  and  C17_23 
REMARK    9  A    between atoms: C20_27  and  O6_28 
ROOT
HETATM    1  C1  UNL     1      24.945 -30.130   2.791  1.00  0.00     0.017 C 
HETATM    2  C2  UNL     1      26.138 -30.707   2.978  1.00  0.00    -0.054 C 
HETATM    3  C3  UNL     1      26.352 -31.978   2.250  1.00  0.00     0.148 C 
HETATM    4  C4  UNL     1      26.445 -33.096   3.277  1.00  0.00     0.052 C 
HETATM    5  C5  UNL     1      27.330 -32.611   4.383  1.00  0.00     0.012 C 
HETATM    6  C6  UNL     1      27.872 -33.829   5.088  1.00  0.00     0.018 C 
HETATM    7  C7  UNL     1      29.136 -33.572   5.364  1.00  0.00     0.044 C 
HETATM    8  O3  UNL     1      29.516 -32.312   4.926  1.00  0.00    -0.347 OA
HETATM    9  C14 UNL     1      28.583 -31.968   3.912  1.00  0.00     0.171 C 
HETATM   10  C15 UNL     1      28.501 -30.510   3.640  1.00  0.00     0.171 C 
HETATM   11  C23 UNL     1      27.079 -29.991   3.887  1.00  0.00     0.052 C 
HETATM   12  C24 UNL     1      26.773 -30.356   5.341  1.00  0.00    -0.007 C 
HETATM   13  C25 UNL     1      25.660 -29.546   5.914  1.00  0.00     0.011 C 
HETATM   14  C26 UNL     1      26.579 -31.829   5.425  1.00  0.00     0.021 C 
ENDROOT
BRANCH  10  15
HETATM   15  O4  UNL     1      28.919 -30.159   2.336  1.00  0.00    -0.309 OA
BRANCH  15  16
HETATM   16  C16 UNL     1      30.238 -29.930   2.063  1.00  0.00     0.293 C 
HETATM   17  O5  UNL     1      31.049 -30.861   1.838  1.00  0.00    -0.259 OA
BRANCH  16  18
HETATM   18  C17 UNL     1      30.757 -28.557   2.024  1.00  0.00     0.043 A 
HETATM   19  C18 UNL     1      31.880 -28.245   1.259  1.00  0.00     0.044 A 
HETATM   20  C19 UNL     1      32.370 -26.969   1.217  1.00  0.00     0.069 A 
HETATM   21 CL1  UNL     1      33.779 -26.592   0.255  1.00  0.00    -0.081 Cl
HETATM   22  C20 UNL     1      31.752 -25.977   1.933  1.00  0.00     0.109 A 
HETATM   23  C21 UNL     1      30.628 -26.233   2.712  1.00  0.00     0.069 A 
HETATM   24 CL2  UNL     1      29.836 -24.970   3.626  1.00  0.00    -0.081 Cl
HETATM   25  C22 UNL     1      30.172 -27.531   2.724  1.00  0.00     0.044 A 
BRANCH  22  26
HETATM   26  O6  UNL     1      32.240 -24.695   1.893  1.00  0.00    -0.357 OA
ATOM     27  H6  UNL     1      31.908 -24.080   1.251  1.00  0.00     0.217 HD
ENDBRANCH  22  26
ENDBRANCH  16  18
ENDBRANCH  15  16
ENDBRANCH  10  15
BRANCH   7  28
HETATM   28  C8  UNL     1      30.059 -34.526   6.070  1.00  0.00     0.067 C 
BRANCH  28  29
HETATM   29  C9  UNL     1      29.271 -35.118   7.184  1.00  0.00     0.043 C 
BRANCH  29  30
HETATM   30  C10 UNL     1      29.453 -36.563   7.457  1.00  0.00     0.053 C 
HETATM   31  C11 UNL     1      28.689 -36.902   8.713  1.00  0.00     0.045 C 
HETATM   32  C12 UNL     1      28.616 -37.270   6.325  1.00  0.00     0.045 C 
BRANCH  30  33
HETATM   33  O2  UNL     1      30.685 -37.045   7.314  1.00  0.00    -0.386 OA
HETATM   34  C13 UNL     1      30.971 -38.163   6.618  1.00  0.00     0.202 C 
ENDBRANCH  30  33
ENDBRANCH  29  30
ENDBRANCH  28  29
ENDBRANCH   7  28
BRANCH   3  35
HETATM   35  O1  UNL     1      25.339 -32.213   1.344  1.00  0.00    -0.391 OA
ATOM     36  H1  UNL     1      25.194 -33.144   1.222  1.00  0.00     0.210 HD
ENDBRANCH   3  35
TORSDOF 9
ENDMDL
MODEL 2
REMARK VINA RESULT: -7.498888185      0.029      1.552
REMARK  9 active torsions:
REMARK  status: ('A' for Active; 'I' for Inactive)
REMARK    1  A    between atoms: C3_3  and  O1_4 
REMARK    2  A    between atoms: C7_9  and  C8_10 
REMARK    3  A    between atoms: C8_10  and  C9_11 
REMARK    4  A    between atoms: C9_11  and  C10_12 
REMARK    5  A    between atoms: C10_12  and  O2_15 
REMARK    6  A    between atoms: C15_19  and  O4_20 
REMARK    7  A    between atoms: O4_20  and  C16_21 
REMARK    8  A    between atoms: C16_21  and  C17_23 
REMARK    9  A    between atoms: C20_27  and  O6_28 
ROOT
HETATM    1  C1  UNL     1      24.959 -30.125   2.786  1.00  0.00     0.017 C 
HETATM    2  C2  UNL     1      26.152 -30.702   2.977  1.00  0.00    -0.054 C 
HETATM    3  C3  UNL     1      26.371 -31.967   2.242  1.00  0.00     0.148 C 
HETATM    4  C4  UNL     1      26.461 -33.092   3.264  1.00  0.00     0.052 C 
HETATM    5  C5  UNL     1      27.339 -32.612   4.377  1.00  0.00     0.012 C 
HETATM    6  C6  UNL     1      27.878 -33.834   5.078  1.00  0.00     0.018 C 
HETATM    7  C7  UNL     1      29.140 -33.576   5.363  1.00  0.00     0.044 C 
HETATM    8  O3  UNL     1      29.521 -32.314   4.934  1.00  0.00    -0.347 OA
HETATM    9  C14 UNL     1      28.594 -31.964   3.917  1.00  0.00     0.171 C 
HETATM   10  C15 UNL     1      28.511 -30.505   3.653  1.00  0.00     0.171 C 
HETATM   11  C23 UNL     1      27.086 -29.990   3.896  1.00  0.00     0.052 C 
HETATM   12  C24 UNL     1      26.773 -30.364   5.346  1.00  0.00    -0.007 C 
HETATM   13  C25 UNL     1      25.655 -29.559   5.918  1.00  0.00     0.011 C 
HETATM   14  C26 UNL     1      26.581 -31.838   5.419  1.00  0.00     0.021 C 
ENDROOT
BRANCH  10  15
HETATM   15  O4  UNL     1      28.936 -30.145   2.355  1.00  0.00    -0.309 OA
BRANCH  15  16
HETATM   16  C16 UNL     1      30.255 -29.913   2.091  1.00  0.00     0.293 C 
HETATM   17  O5  UNL     1      31.074 -30.843   1.886  1.00  0.00    -0.259 OA
BRANCH  16  18
HETATM   18  C17 UNL     1      30.768 -28.538   2.037  1.00  0.00     0.043 A 
HETATM   19  C18 UNL     1      30.149 -27.521   2.761  1.00  0.00     0.044 A 
HETATM   20  C19 UNL     1      30.620 -26.238   2.717  1.00  0.00     0.069 A 
HETATM   21 CL1  UNL     1      29.833 -24.973   3.630  1.00  0.00    -0.081 Cl
HETATM   22  C20 UNL     1      31.717 -25.941   1.952  1.00  0.00     0.109 A 
HETATM   23  C21 UNL     1      32.374 -26.917   1.209  1.00  0.00     0.069 A 
HETATM   24 CL2  UNL     1      33.775 -26.541   0.232  1.00  0.00    -0.081 Cl
HETATM   25  C22 UNL     1      31.864 -28.192   1.284  1.00  0.00     0.044 A 
BRANCH  22  26
HETATM   26  O6  UNL     1      32.194 -24.655   1.904  1.00  0.00    -0.357 OA
ATOM     27  H6  UNL     1      32.610 -24.273   2.668  1.00  0.00     0.217 HD
ENDBRANCH  22  26
ENDBRANCH  16  18
ENDBRANCH  15  16
ENDBRANCH  10  15
BRANCH   7  28
HETATM   28  C8  UNL     1      30.061 -34.533   6.067  1.00  0.00     0.067 C 
BRANCH  28  29
HETATM   29  C9  UNL     1      29.272 -35.124   7.182  1.00  0.00     0.043 C 
BRANCH  29  30
HETATM   30  C10 UNL     1      29.450 -36.568   7.455  1.00  0.00     0.053 C 
HETATM   31  C11 UNL     1      28.679 -36.907   8.707  1.00  0.00     0.045 C 
HETATM   32  C12 UNL     1      28.619 -37.274   6.319  1.00  0.00     0.045 C 
BRANCH  30  33
HETATM   33  O2  UNL     1      30.682 -37.052   7.320  1.00  0.00    -0.386 OA
HETATM   34  C13 UNL     1      30.973 -38.165   6.617  1.00  0.00     0.202 C 
ENDBRANCH  30  33
ENDBRANCH  29  30
ENDBRANCH  28  29
ENDBRANCH   7  28
BRANCH   3  35
HETATM   35  O1  UNL     1      25.364 -32.199   1.329  1.00  0.00    -0.391 OA
ATOM     36  H1  UNL     1      25.716 -32.435   0.479  1.00  0.00     0.210 HD
ENDBRANCH   3  35
TORSDOF 9
ENDMDL
MODEL 3
REMARK VINA RESULT: -7.476943286      1.359      1.498
REMARK  9 active torsions:
REMARK  status: ('A' for Active; 'I' for Inactive)
REMARK    1  A    between atoms: C3_3  and  O1_4 
REMARK    2  A    between atoms: C7_9  and  C8_10 
REMARK    3  A    between atoms: C8_10  and  C9_11 
REMARK    4  A    between atoms: C9_11  and  C10_12 
REMARK    5  A    between atoms: C10_12  and  O2_15 
REMARK    6  A    between atoms: C15_19  and  O4_20 
REMARK    7  A    between atoms: O4_20  and  C16_21 
REMARK    8  A    between atoms: C16_21  and  C17_23 
REMARK    9  A    between atoms: C20_27  and  O6_28 
ROOT
HETATM    1  C1  UNL     1      24.862 -30.392   2.537  1.00  0.00     0.017 C 
HETATM    2  C2  UNL     1      26.053 -30.966   2.744  1.00  0.00    -0.054 C 
HETATM    3  C3  UNL     1      26.226 -32.306   2.141  1.00  0.00     0.148 C 
HETATM    4  C4  UNL     1      26.340 -33.316   3.273  1.00  0.00     0.052 C 
HETATM    5  C5  UNL     1      27.267 -32.736   4.296  1.00  0.00     0.012 C 
HETATM    6  C6  UNL     1      27.817 -33.886   5.103  1.00  0.00     0.018 C 
HETATM    7  C7  UNL     1      29.092 -33.621   5.312  1.00  0.00     0.044 C 
HETATM    8  O3  UNL     1      29.473 -32.419   4.736  1.00  0.00    -0.347 OA
HETATM    9  C14 UNL     1      28.512 -32.164   3.723  1.00  0.00     0.171 C 
HETATM   10  C15 UNL     1      28.439 -30.739   3.307  1.00  0.00     0.171 C 
HETATM   11  C23 UNL     1      27.032 -30.176   3.546  1.00  0.00     0.052 C 
HETATM   12  C24 UNL     1      26.770 -30.387   5.038  1.00  0.00    -0.007 C 
HETATM   13  C25 UNL     1      25.686 -29.507   5.561  1.00  0.00     0.011 C 
HETATM   14  C26 UNL     1      26.561 -31.841   5.276  1.00  0.00     0.021 C 
ENDROOT
BRANCH  10  15
HETATM   15  O4  UNL     1      28.818 -30.528   1.962  1.00  0.00    -0.309 OA
BRANCH  15  16
HETATM   16  C16 UNL     1      29.972 -29.864   1.658  1.00  0.00     0.293 C 
HETATM   17  O5  UNL     1      30.602 -30.065   0.591  1.00  0.00    -0.259 OA
BRANCH  16  18
HETATM   18  C17 UNL     1      30.523 -28.873   2.591  1.00  0.00     0.043 A 
HETATM   19  C18 UNL     1      31.516 -29.229   3.500  1.00  0.00     0.044 A 
HETATM   20  C19 UNL     1      32.034 -28.312   4.372  1.00  0.00     0.069 A 
HETATM   21 CL1  UNL     1      33.279 -28.774   5.508  1.00  0.00    -0.081 Cl
HETATM   22  C20 UNL     1      31.575 -27.021   4.356  1.00  0.00     0.109 A 
HETATM   23  C21 UNL     1      30.585 -26.611   3.469  1.00  0.00     0.069 A 
HETATM   24 CL2  UNL     1      29.997 -24.964   3.446  1.00  0.00    -0.081 Cl
HETATM   25  C22 UNL     1      30.094 -27.568   2.612  1.00  0.00     0.044 A 
BRANCH  22  26
HETATM   26  O6  UNL     1      32.092 -26.097   5.229  1.00  0.00    -0.357 OA
ATOM     27  H6  UNL     1      32.509 -25.311   4.898  1.00  0.00     0.217 HD
ENDBRANCH  22  26
ENDBRANCH  16  18
ENDBRANCH  15  16
ENDBRANCH  10  15
BRANCH   7  28
HETATM   28  C8  UNL     1      30.026 -34.514   6.080  1.00  0.00     0.067 C 
BRANCH  28  29
HETATM   29  C9  UNL     1      29.210 -35.142   7.154  1.00  0.00     0.043 C 
BRANCH  29  30
HETATM   30  C10 UNL     1      29.418 -36.585   7.414  1.00  0.00     0.053 C 
HETATM   31  C11 UNL     1      28.702 -36.939   8.695  1.00  0.00     0.045 C 
HETATM   32  C12 UNL     1      28.551 -37.299   6.309  1.00  0.00     0.045 C 
BRANCH  30  33
HETATM   33  O2  UNL     1      30.650 -37.053   7.228  1.00  0.00    -0.386 OA
HETATM   34  C13 UNL     1      30.919 -38.218   6.607  1.00  0.00     0.202 C 
ENDBRANCH  30  33
ENDBRANCH  29  30
ENDBRANCH  28  29
ENDBRANCH   7  28
BRANCH   3  35
HETATM   35  O1  UNL     1      25.182 -32.616   1.297  1.00  0.00    -0.391 OA
ATOM     36  H1  UNL     1      24.895 -33.514   1.417  1.00  0.00     0.210 HD
ENDBRANCH   3  35
TORSDOF 9
ENDMDL
MODEL 4
REMARK VINA RESULT: -7.476596822      1.649      2.180
REMARK  9 active torsions:
REMARK  status: ('A' for Active; 'I' for Inactive)
REMARK    1  A    between atoms: C3_3  and  O1_4 
REMARK    2  A    between atoms: C7_9  and  C8_10 
REMARK    3  A    between atoms: C8_10  and  C9_11 
REMARK    4  A    between atoms: C9_11  and  C10_12 
REMARK    5  A    between atoms: C10_12  and  O2_15 
REMARK    6  A    between atoms: C15_19  and  O4_20 
REMARK    7  A    between atoms: O4_20  and  C16_21 
REMARK    8  A    between atoms: C16_21  and  C17_23 
REMARK    9  A    between atoms: C20_27  and  O6_28 
ROOT
HETATM    1  C1  UNL     1      25.269 -30.321   2.818  1.00  0.00     0.017 C 
HETATM    2  C2  UNL     1      26.416 -30.961   3.070  1.00  0.00    -0.054 C 
HETATM    3  C3  UNL     1      26.617 -32.224   2.326  1.00  0.00     0.148 C 
HETATM    4  C4  UNL     1      26.586 -33.369   3.328  1.00  0.00     0.052 C 
HETATM    5  C5  UNL     1      27.415 -32.953   4.503  1.00  0.00     0.012 C 
HETATM    6  C6  UNL     1      27.847 -34.212   5.212  1.00  0.00     0.018 C 
HETATM    7  C7  UNL     1      29.100 -34.025   5.579  1.00  0.00     0.044 C 
HETATM    8  O3  UNL     1      29.570 -32.777   5.200  1.00  0.00    -0.347 OA
HETATM    9  C14 UNL     1      28.727 -32.364   4.134  1.00  0.00     0.171 C 
HETATM   10  C15 UNL     1      28.735 -30.897   3.894  1.00  0.00     0.171 C 
HETATM   11  C23 UNL     1      27.326 -30.314   4.059  1.00  0.00     0.052 C 
HETATM   12  C24 UNL     1      26.904 -30.695   5.479  1.00  0.00    -0.007 C 
HETATM   13  C25 UNL     1      25.795 -29.843   5.996  1.00  0.00     0.011 C 
HETATM   14  C26 UNL     1      26.633 -32.157   5.512  1.00  0.00     0.021 C 
ENDROOT
BRANCH  10  15
HETATM   15  O4  UNL     1      29.258 -30.539   2.632  1.00  0.00    -0.309 OA
BRANCH  15  16
HETATM   16  C16 UNL     1      30.251 -29.607   2.526  1.00  0.00     0.293 C 
HETATM   17  O5  UNL     1      31.215 -29.738   1.733  1.00  0.00    -0.259 OA
BRANCH  16  18
HETATM   18  C17 UNL     1      30.217 -28.394   3.354  1.00  0.00     0.043 A 
HETATM   19  C18 UNL     1      29.846 -27.169   2.805  1.00  0.00     0.044 A 
HETATM   20  C19 UNL     1      29.812 -26.036   3.569  1.00  0.00     0.069 A 
HETATM   21 CL1  UNL     1      29.347 -24.506   2.866  1.00  0.00    -0.081 Cl
HETATM   22  C20 UNL     1      30.146 -26.099   4.897  1.00  0.00     0.109 A 
HETATM   23  C21 UNL     1      30.523 -27.296   5.497  1.00  0.00     0.069 A 
HETATM   24 CL2  UNL     1      30.949 -27.381   7.191  1.00  0.00    -0.081 Cl
HETATM   25  C22 UNL     1      30.543 -28.409   4.689  1.00  0.00     0.044 A 
BRANCH  22  26
HETATM   26  O6  UNL     1      30.114 -24.965   5.668  1.00  0.00    -0.357 OA
ATOM     27  H6  UNL     1      30.101 -24.109   5.256  1.00  0.00     0.217 HD
ENDBRANCH  22  26
ENDBRANCH  16  18
ENDBRANCH  15  16
ENDBRANCH  10  15
BRANCH   7  28
HETATM   28  C8  UNL     1      29.925 -35.040   6.321  1.00  0.00     0.067 C 
BRANCH  28  29
HETATM   29  C9  UNL     1      29.141 -35.409   7.530  1.00  0.00     0.043 C 
BRANCH  29  30
HETATM   30  C10 UNL     1      28.973 -36.852   7.821  1.00  0.00     0.053 C 
HETATM   31  C11 UNL     1      28.547 -37.541   6.548  1.00  0.00     0.045 C 
HETATM   32  C12 UNL     1      30.445 -37.370   8.035  1.00  0.00     0.045 C 
BRANCH  30  33
HETATM   33  O2  UNL     1      28.342 -37.161   8.951  1.00  0.00    -0.386 OA
HETATM   34  C13 UNL     1      28.790 -36.818  10.174  1.00  0.00     0.202 C 
ENDBRANCH  30  33
ENDBRANCH  29  30
ENDBRANCH  28  29
ENDBRANCH   7  28
BRANCH   3  35
HETATM   35  O1  UNL     1      25.659 -32.389   1.348  1.00  0.00    -0.391 OA
ATOM     36  H1  UNL     1      25.143 -33.173   1.498  1.00  0.00     0.210 HD
ENDBRANCH   3  35
TORSDOF 9
ENDMDL
MODEL 5
REMARK VINA RESULT: -7.452686939      2.059      2.658
REMARK  9 active torsions:
REMARK  status: ('A' for Active; 'I' for Inactive)
REMARK    1  A    between atoms: C3_3  and  O1_4 
REMARK    2  A    between atoms: C7_9  and  C8_10 
REMARK    3  A    between atoms: C8_10  and  C9_11 
REMARK    4  A    between atoms: C9_11  and  C10_12 
REMARK    5  A    between atoms: C10_12  and  O2_15 
REMARK    6  A    between atoms: C15_19  and  O4_20 
REMARK    7  A    between atoms: O4_20  and  C16_21 
REMARK    8  A    between atoms: C16_21  and  C17_23 
REMARK    9  A    between atoms: C20_27  and  O6_28 
ROOT
HETATM    1  C1  UNL     1      26.191 -29.057   4.080  1.00  0.00     0.017 C 
HETATM    2  C2  UNL     1      27.049 -30.084   4.086  1.00  0.00    -0.054 C 
HETATM    3  C3  UNL     1      26.895 -31.049   2.975  1.00  0.00     0.148 C 
HETATM    4  C4  UNL     1      26.418 -32.369   3.563  1.00  0.00     0.052 C 
HETATM    5  C5  UNL     1      27.239 -32.632   4.787  1.00  0.00     0.012 C 
HETATM    6  C6  UNL     1      27.187 -34.116   5.048  1.00  0.00     0.018 C 
HETATM    7  C7  UNL     1      28.400 -34.474   5.423  1.00  0.00     0.044 C 
HETATM    8  O3  UNL     1      29.274 -33.398   5.447  1.00  0.00    -0.347 OA
HETATM    9  C14 UNL     1      28.696 -32.424   4.590  1.00  0.00     0.171 C 
HETATM   10  C15 UNL     1      29.192 -31.043   4.827  1.00  0.00     0.171 C 
HETATM   11  C23 UNL     1      28.035 -30.109   5.205  1.00  0.00     0.052 C 
HETATM   12  C24 UNL     1      27.400 -30.747   6.441  1.00  0.00    -0.007 C 
HETATM   13  C25 UNL     1      26.584 -29.781   7.231  1.00  0.00     0.011 C 
HETATM   14  C26 UNL     1      26.674 -31.975   6.016  1.00  0.00     0.021 C 
ENDROOT
BRANCH  10  15
HETATM   15  O4  UNL     1      29.902 -30.507   3.730  1.00  0.00    -0.309 OA
BRANCH  15  16
HETATM   16  C16 UNL     1      30.934 -29.633   3.925  1.00  0.00     0.293 C 
HETATM   17  O5  UNL     1      32.127 -29.934   3.678  1.00  0.00    -0.259 OA
BRANCH  16  18
HETATM   18  C17 UNL     1      30.671 -28.283   4.440  1.00  0.00     0.043 A 
HETATM   19  C18 UNL     1      30.918 -27.972   5.776  1.00  0.00     0.044 A 
HETATM   20  C19 UNL     1      30.676 -26.718   6.263  1.00  0.00     0.069 A 
HETATM   21 CL1  UNL     1      30.989 -26.344   7.941  1.00  0.00    -0.081 Cl
HETATM   22  C20 UNL     1      30.184 -25.746   5.432  1.00  0.00     0.109 A 
HETATM   23  C21 UNL     1      29.920 -26.001   4.090  1.00  0.00     0.069 A 
HETATM   24 CL2  UNL     1      29.294 -24.763   3.025  1.00  0.00    -0.081 Cl
HETATM   25  C22 UNL     1      30.179 -27.277   3.644  1.00  0.00     0.044 A 
BRANCH  22  26
HETATM   26  O6  UNL     1      29.940 -24.486   5.916  1.00  0.00    -0.357 OA
ATOM     27  H6  UNL     1      30.542 -23.777   5.722  1.00  0.00     0.217 HD
ENDBRANCH  22  26
ENDBRANCH  16  18
ENDBRANCH  15  16
ENDBRANCH  10  15
BRANCH   7  28
HETATM   28  C8  UNL     1      28.795 -35.879   5.782  1.00  0.00     0.067 C 
BRANCH  28  29
HETATM   29  C9  UNL     1      28.293 -36.112   7.163  1.00  0.00     0.043 C 
BRANCH  29  30
HETATM   30  C10 UNL     1      29.196 -35.768   8.286  1.00  0.00     0.053 C 
HETATM   31  C11 UNL     1      28.633 -34.555   8.986  1.00  0.00     0.045 C 
HETATM   32  C12 UNL     1      28.963 -36.925   9.328  1.00  0.00     0.045 C 
BRANCH  30  33
HETATM   33  O2  UNL     1      30.502 -35.803   8.031  1.00  0.00    -0.386 OA
HETATM   34  C13 UNL     1      31.333 -34.768   8.260  1.00  0.00     0.202 C 
ENDBRANCH  30  33
ENDBRANCH  29  30
ENDBRANCH  28  29
ENDBRANCH   7  28
BRANCH   3  35
HETATM   35  O1  UNL     1      26.017 -30.579   2.021  1.00  0.00    -0.391 OA
ATOM     36  H1  UNL     1      26.252 -30.886   1.153  1.00  0.00     0.210 HD
ENDBRANCH   3  35
TORSDOF 9
ENDMDL
