MODEL 1
REMARK VINA RESULT: -8.664335234      0.000      0.000
REMARK  14 active torsions:
REMARK  status: ('A' for Active; 'I' for Inactive)
REMARK    1  A    between atoms: C6_7  and  C7_8 
REMARK    2  A    between atoms: C7_8  and  C8_9 
REMARK    3  A    between atoms: C8_9  and  C9_10 
REMARK    4  A    between atoms: C9_10  and  N2_11 
REMARK    5  A    between atoms: N2_11  and  C12_14 
REMARK    6  A    between atoms: C12_14  and  C13_15 
REMARK    7  A    between atoms: C17_19  and  C18_20 
REMARK    8  A    between atoms: C21_23  and  C22_24 
REMARK    9  A    between atoms: C22_24  and  C23_25 
REMARK   10  A    between atoms: C26_28  and  C27_29 
REMARK   11  A    between atoms: C27_29  and  C28_30 
REMARK   12  A    between atoms: C31_33  and  C32_34 
REMARK   13  A    between atoms: C32_34  and  N3_35 
REMARK   14  A    between atoms: C32_34  and  N4_39 
ROOT
HETATM    1  C18 UNL     1      13.160  34.304  20.718  1.00  0.00    -0.026 A 
HETATM    2  C19 UNL     1      12.232  35.244  20.343  1.00  0.00     0.013 A 
HETATM    3  C20 UNL     1      12.433  36.608  20.583  1.00  0.00     0.012 A 
HETATM    4  C21 UNL     1      13.606  37.014  21.220  1.00  0.00    -0.035 A 
HETATM    5  C36 UNL     1      14.554  36.082  21.606  1.00  0.00     0.012 A 
HETATM    6  C37 UNL     1      14.309  34.767  21.348  1.00  0.00     0.013 A 
ENDROOT
BRANCH   4   7
HETATM    7  C22 UNL     1      13.879  38.401  21.530  1.00  0.00     0.028 C 
BRANCH   7   8
HETATM    8  C23 UNL     1      13.109  39.392  21.173  1.00  0.00     0.033 A 
HETATM    9  C24 UNL     1      12.133  39.854  22.032  1.00  0.00     0.019 A 
HETATM   10  C25 UNL     1      11.306  40.916  21.642  1.00  0.00     0.030 A 
HETATM   11  C26 UNL     1      11.482  41.485  20.400  1.00  0.00     0.035 A 
HETATM   12  N5  UNL     1      12.450  41.012  19.576  1.00  0.00    -0.323 N 
HETATM   13  C35 UNL     1      13.254  39.995  19.927  1.00  0.00     0.256 A 
ATOM     14  H5  UNL     1      12.571  41.443  18.660  1.00  0.00     0.169 HD
HETATM   15  O1  UNL     1      14.158  39.566  19.133  1.00  0.00    -0.267 OA
BRANCH  11  16
HETATM   16  C27 UNL     1      10.717  42.478  20.024  1.00  0.00     0.041 C 
BRANCH  16  17
HETATM   17  C28 UNL     1      11.310  43.582  19.283  1.00  0.00    -0.034 A 
HETATM   18  C29 UNL     1      10.664  44.117  18.168  1.00  0.00     0.012 A 
HETATM   19  C30 UNL     1      11.215  45.160  17.450  1.00  0.00     0.012 A 
HETATM   20  C31 UNL     1      12.426  45.693  17.830  1.00  0.00    -0.001 A 
HETATM   21  C33 UNL     1      13.073  45.162  18.942  1.00  0.00     0.012 A 
HETATM   22  C34 UNL     1      12.521  44.108  19.672  1.00  0.00     0.012 A 
BRANCH  20  23
HETATM   23  C32 UNL     1      12.995  46.818  17.037  1.00  0.00     0.411 C 
BRANCH  23  24
HETATM   24  N3  UNL     1      12.322  46.854  15.764  1.00  0.00    -0.046 N 
ATOM     25  H33 UNL     1      12.385  45.969  15.260  1.00  0.00     0.277 HD
ATOM     26  H32 UNL     1      11.307  46.887  15.856  1.00  0.00     0.277 HD
ATOM     27  H31 UNL     1      12.696  47.639  15.230  1.00  0.00     0.277 HD
ENDBRANCH  23  24
BRANCH  23  28
HETATM   28  N4  UNL     1      12.704  48.078  17.718  1.00  0.00    -0.046 N 
ATOM     29  H43 UNL     1      13.209  48.865  17.310  1.00  0.00     0.277 HD
ATOM     30  H42 UNL     1      11.756  48.406  17.537  1.00  0.00     0.277 HD
ATOM     31  H41 UNL     1      12.894  47.971  18.715  1.00  0.00     0.277 HD
ENDBRANCH  23  28
ENDBRANCH  20  23
ENDBRANCH  16  17
ENDBRANCH  11  16
ENDBRANCH   7   8
ENDBRANCH   4   7
BRANCH   1  32
HETATM   32  C17 UNL     1      12.945  32.878  20.488  1.00  0.00    -0.025 A 
HETATM   33  C16 UNL     1      13.448  32.244  19.370  1.00  0.00     0.012 A 
HETATM   34  C15 UNL     1      13.205  30.898  19.169  1.00  0.00     0.001 A 
HETATM   35  C14 UNL     1      12.457  30.133  20.062  1.00  0.00     0.009 A 
HETATM   36  C13 UNL     1      11.957  30.761  21.172  1.00  0.00    -0.032 A 
HETATM   37  C38 UNL     1      12.210  32.126  21.368  1.00  0.00     0.021 A 
BRANCH  36  38
HETATM   38  C12 UNL     1      11.143  29.998  22.142  1.00  0.00     0.275 C 
BRANCH  38  39
HETATM   39  N2  UNL     1      11.210  30.400  23.495  1.00  0.00    -0.071 N 
HETATM   40  C10 UNL     1      10.130  31.287  23.844  1.00  0.00     0.272 C 
HETATM   41  C11 UNL     1      10.991  29.201  24.349  1.00  0.00     0.272 C 
BRANCH  39  42
HETATM   42  C9  UNL     1      12.473  30.979  23.929  1.00  0.00     0.237 C 
BRANCH  42  43
HETATM   43  C8  UNL     1      12.362  32.056  24.939  1.00  0.00     0.034 C 
BRANCH  43  44
HETATM   44  C7  UNL     1      13.393  33.125  24.700  1.00  0.00     0.059 C 
BRANCH  44  45
HETATM   45  C6  UNL     1      12.847  34.458  24.570  1.00  0.00     0.010 A 
HETATM   46  N1  UNL     1      13.581  35.510  25.041  1.00  0.00    -0.364 N 
HETATM   47  C1  UNL     1      14.878  35.225  25.595  1.00  0.00     0.155 C 
HETATM   48  C2  UNL     1      13.117  36.770  24.993  1.00  0.00     0.090 A 
HETATM   49  C3  UNL     1      11.881  37.087  24.473  1.00  0.00     0.017 A 
HETATM   50  C4  UNL     1      11.122  36.046  23.994  1.00  0.00     0.003 A 
HETATM   51  C5  UNL     1      11.629  34.740  24.055  1.00  0.00     0.025 A 
ENDBRANCH  44  45
ENDBRANCH  43  44
ENDBRANCH  42  43
ENDBRANCH  39  42
ENDBRANCH  38  39
ENDBRANCH  36  38
ENDBRANCH   1  32
TORSDOF 14
ENDMDL
MODEL 2
REMARK VINA RESULT: -8.607069375      1.489      2.364
REMARK  14 active torsions:
REMARK  status: ('A' for Active; 'I' for Inactive)
REMARK    1  A    between atoms: C6_7  and  C7_8 
REMARK    2  A    between atoms: C7_8  and  C8_9 
REMARK    3  A    between atoms: C8_9  and  C9_10 
REMARK    4  A    between atoms: C9_10  and  N2_11 
REMARK    5  A    between atoms: N2_11  and  C12_14 
REMARK    6  A    between atoms: C12_14  and  C13_15 
REMARK    7  A    between atoms: C17_19  and  C18_20 
REMARK    8  A    between atoms: C21_23  and  C22_24 
REMARK    9  A    between atoms: C22_24  and  C23_25 
REMARK   10  A    between atoms: C26_28  and  C27_29 
REMARK   11  A    between atoms: C27_29  and  C28_30 
REMARK   12  A    between atoms: C31_33  and  C32_34 
REMARK   13  A    between atoms: C32_34  and  N3_35 
REMARK   14  A    between atoms: C32_34  and  N4_39 
ROOT
HETATM    1  C18 UNL     1      13.395  34.236  20.771  1.00  0.00    -0.026 A 
HETATM    2  C19 UNL     1      14.262  34.611  21.768  1.00  0.00     0.013 A 
HETATM    3  C20 UNL     1      14.550  35.957  22.020  1.00  0.00     0.012 A 
HETATM    4  C21 UNL     1      13.939  36.936  21.236  1.00  0.00    -0.035 A 
HETATM    5  C36 UNL     1      13.062  36.579  20.227  1.00  0.00     0.012 A 
HETATM    6  C37 UNL     1      12.815  35.254  20.023  1.00  0.00     0.013 A 
ENDROOT
BRANCH   4   7
HETATM    7  C22 UNL     1      14.204  38.347  21.413  1.00  0.00     0.028 C 
BRANCH   7   8
HETATM    8  C23 UNL     1      13.360  39.291  21.097  1.00  0.00     0.033 A 
HETATM    9  C24 UNL     1      12.386  39.677  21.994  1.00  0.00     0.019 A 
HETATM   10  C25 UNL     1      11.480  40.689  21.648  1.00  0.00     0.030 A 
HETATM   11  C26 UNL     1      11.578  41.286  20.411  1.00  0.00     0.035 A 
HETATM   12  N5  UNL     1      12.547  40.888  19.549  1.00  0.00    -0.323 N 
HETATM   13  C35 UNL     1      13.425  39.920  19.857  1.00  0.00     0.256 A 
ATOM     14  H5  UNL     1      12.610  41.339  18.636  1.00  0.00     0.169 HD
HETATM   15  O1  UNL     1      14.329  39.562  19.028  1.00  0.00    -0.267 OA
BRANCH  11  16
HETATM   16  C27 UNL     1      10.740  42.232  20.075  1.00  0.00     0.041 C 
BRANCH  16  17
HETATM   17  C28 UNL     1      11.242  43.402  19.369  1.00  0.00    -0.034 A 
HETATM   18  C29 UNL     1      10.557  43.916  18.268  1.00  0.00     0.012 A 
HETATM   19  C30 UNL     1      11.023  45.020  17.581  1.00  0.00     0.012 A 
HETATM   20  C31 UNL     1      12.188  45.636  17.981  1.00  0.00    -0.001 A 
HETATM   21  C33 UNL     1      12.875  45.126  19.078  1.00  0.00     0.012 A 
HETATM   22  C34 UNL     1      12.408  44.010  19.776  1.00  0.00     0.012 A 
BRANCH  20  23
HETATM   23  C32 UNL     1      12.666  46.826  17.222  1.00  0.00     0.411 C 
BRANCH  23  24
HETATM   24  N3  UNL     1      12.454  46.577  15.819  1.00  0.00    -0.046 N 
ATOM     25  H33 UNL     1      11.578  46.088  15.633  1.00  0.00     0.277 HD
ATOM     26  H32 UNL     1      12.250  47.427  15.295  1.00  0.00     0.277 HD
ATOM     27  H31 UNL     1      13.268  46.077  15.459  1.00  0.00     0.277 HD
ENDBRANCH  23  24
BRANCH  23  28
HETATM   28  N4  UNL     1      11.852  47.983  17.586  1.00  0.00    -0.046 N 
ATOM     29  H43 UNL     1      11.999  48.272  18.554  1.00  0.00     0.277 HD
ATOM     30  H42 UNL     1      12.170  48.839  17.131  1.00  0.00     0.277 HD
ATOM     31  H41 UNL     1      10.872  47.779  17.387  1.00  0.00     0.277 HD
ENDBRANCH  23  28
ENDBRANCH  20  23
ENDBRANCH  16  17
ENDBRANCH  11  16
ENDBRANCH   7   8
ENDBRANCH   4   7
BRANCH   1  32
HETATM   32  C17 UNL     1      13.107  32.833  20.491  1.00  0.00    -0.025 A 
HETATM   33  C16 UNL     1      13.414  32.262  19.272  1.00  0.00     0.012 A 
HETATM   34  C15 UNL     1      13.106  30.937  19.030  1.00  0.00     0.001 A 
HETATM   35  C14 UNL     1      12.484  30.130  19.982  1.00  0.00     0.009 A 
HETATM   36  C13 UNL     1      12.180  30.694  21.192  1.00  0.00    -0.032 A 
HETATM   37  C38 UNL     1      12.497  32.039  21.428  1.00  0.00     0.021 A 
BRANCH  36  38
HETATM   38  C12 UNL     1      11.506  29.885  22.230  1.00  0.00     0.275 C 
BRANCH  38  39
HETATM   39  N2  UNL     1      10.207  30.285  22.615  1.00  0.00    -0.071 N 
HETATM   40  C10 UNL     1       9.399  29.163  23.019  1.00  0.00     0.272 C 
HETATM   41  C11 UNL     1      10.319  31.117  23.843  1.00  0.00     0.272 C 
BRANCH  39  42
HETATM   42  C9  UNL     1       9.472  31.089  21.649  1.00  0.00     0.237 C 
BRANCH  42  43
HETATM   43  C8  UNL     1       8.888  32.341  22.182  1.00  0.00     0.034 C 
BRANCH  43  44
HETATM   44  C7  UNL     1       9.167  33.498  21.261  1.00  0.00     0.059 C 
BRANCH  44  45
HETATM   45  C6  UNL     1       9.667  34.680  21.928  1.00  0.00     0.010 A 
HETATM   46  N1  UNL     1       9.286  35.904  21.455  1.00  0.00    -0.364 N 
HETATM   47  C1  UNL     1       8.370  35.936  20.346  1.00  0.00     0.155 C 
HETATM   48  C2  UNL     1       9.746  37.043  21.998  1.00  0.00     0.090 A 
HETATM   49  C3  UNL     1      10.626  37.058  23.058  1.00  0.00     0.017 A 
HETATM   50  C4  UNL     1      11.026  35.839  23.553  1.00  0.00     0.003 A 
HETATM   51  C5  UNL     1      10.531  34.664  22.969  1.00  0.00     0.025 A 
ENDBRANCH  44  45
ENDBRANCH  43  44
ENDBRANCH  42  43
ENDBRANCH  39  42
ENDBRANCH  38  39
ENDBRANCH  36  38
ENDBRANCH   1  32
TORSDOF 14
ENDMDL
MODEL 3
REMARK VINA RESULT: -8.520578733      0.919      1.517
REMARK  14 active torsions:
REMARK  status: ('A' for Active; 'I' for Inactive)
REMARK    1  A    between atoms: C6_7  and  C7_8 
REMARK    2  A    between atoms: C7_8  and  C8_9 
REMARK    3  A    between atoms: C8_9  and  C9_10 
REMARK    4  A    between atoms: C9_10  and  N2_11 
REMARK    5  A    between atoms: N2_11  and  C12_14 
REMARK    6  A    between atoms: C12_14  and  C13_15 
REMARK    7  A    between atoms: C17_19  and  C18_20 
REMARK    8  A    between atoms: C21_23  and  C22_24 
REMARK    9  A    between atoms: C22_24  and  C23_25 
REMARK   10  A    between atoms: C26_28  and  C27_29 
REMARK   11  A    between atoms: C27_29  and  C28_30 
REMARK   12  A    between atoms: C31_33  and  C32_34 
REMARK   13  A    between atoms: C32_34  and  N3_35 
REMARK   14  A    between atoms: C32_34  and  N4_39 
ROOT
HETATM    1  C18 UNL     1      13.198  34.307  20.606  1.00  0.00    -0.026 A 
HETATM    2  C19 UNL     1      12.328  34.948  21.454  1.00  0.00     0.013 A 
HETATM    3  C20 UNL     1      12.496  36.296  21.792  1.00  0.00     0.012 A 
HETATM    4  C21 UNL     1      13.574  36.998  21.251  1.00  0.00    -0.035 A 
HETATM    5  C36 UNL     1      14.461  36.369  20.395  1.00  0.00     0.012 A 
HETATM    6  C37 UNL     1      14.252  35.056  20.098  1.00  0.00     0.013 A 
ENDROOT
BRANCH   4   7
HETATM    7  C22 UNL     1      13.834  38.385  21.571  1.00  0.00     0.028 C 
BRANCH   7   8
HETATM    8  C23 UNL     1      13.072  39.374  21.193  1.00  0.00     0.033 A 
HETATM    9  C24 UNL     1      12.078  39.840  22.028  1.00  0.00     0.019 A 
HETATM   10  C25 UNL     1      11.259  40.900  21.616  1.00  0.00     0.030 A 
HETATM   11  C26 UNL     1      11.463  41.464  20.377  1.00  0.00     0.035 A 
HETATM   12  N5  UNL     1      12.448  40.987  19.576  1.00  0.00    -0.323 N 
HETATM   13  C35 UNL     1      13.244  39.972  19.948  1.00  0.00     0.256 A 
ATOM     14  H5  UNL     1      12.589  41.415  18.660  1.00  0.00     0.169 HD
HETATM   15  O1  UNL     1      14.165  39.540  19.176  1.00  0.00    -0.267 OA
BRANCH  11  16
HETATM   16  C27 UNL     1      10.706  42.455  19.979  1.00  0.00     0.041 C 
BRANCH  16  17
HETATM   17  C28 UNL     1      11.315  43.559  19.251  1.00  0.00    -0.034 A 
HETATM   18  C29 UNL     1      12.550  44.075  19.645  1.00  0.00     0.012 A 
HETATM   19  C30 UNL     1      13.139  45.126  18.971  1.00  0.00     0.012 A 
HETATM   20  C31 UNL     1      12.504  45.688  17.885  1.00  0.00    -0.001 A 
HETATM   21  C33 UNL     1      11.273  45.177  17.489  1.00  0.00     0.012 A 
HETATM   22  C34 UNL     1      10.673  44.113  18.167  1.00  0.00     0.012 A 
BRANCH  20  23
HETATM   23  C32 UNL     1      13.164  46.820  17.176  1.00  0.00     0.411 C 
BRANCH  23  24
HETATM   24  N3  UNL     1      12.766  46.774  15.792  1.00  0.00    -0.046 N 
ATOM     25  H33 UNL     1      12.706  45.822  15.430  1.00  0.00     0.277 HD
ATOM     26  H32 UNL     1      11.789  47.033  15.654  1.00  0.00     0.277 HD
ATOM     27  H31 UNL     1      13.408  47.359  15.258  1.00  0.00     0.277 HD
ENDBRANCH  23  24
BRANCH  23  28
HETATM   28  N4  UNL     1      12.673  48.081  17.728  1.00  0.00    -0.046 N 
ATOM     29  H43 UNL     1      11.960  47.939  18.443  1.00  0.00     0.277 HD
ATOM     30  H42 UNL     1      13.370  48.546  18.310  1.00  0.00     0.277 HD
ATOM     31  H41 UNL     1      12.346  48.674  16.965  1.00  0.00     0.277 HD
ENDBRANCH  23  28
ENDBRANCH  20  23
ENDBRANCH  16  17
ENDBRANCH  11  16
ENDBRANCH   7   8
ENDBRANCH   4   7
BRANCH   1  32
HETATM   32  C17 UNL     1      13.038  32.896  20.268  1.00  0.00    -0.025 A 
HETATM   33  C16 UNL     1      13.420  32.402  19.037  1.00  0.00     0.012 A 
HETATM   34  C15 UNL     1      13.232  31.065  18.738  1.00  0.00     0.001 A 
HETATM   35  C14 UNL     1      12.661  30.172  19.643  1.00  0.00     0.009 A 
HETATM   36  C13 UNL     1      12.283  30.660  20.865  1.00  0.00    -0.032 A 
HETATM   37  C38 UNL     1      12.478  32.017  21.159  1.00  0.00     0.021 A 
BRANCH  36  38
HETATM   38  C12 UNL     1      11.658  29.757  21.855  1.00  0.00     0.275 C 
BRANCH  38  39
HETATM   39  N2  UNL     1      11.088  30.354  23.002  1.00  0.00    -0.071 N 
HETATM   40  C10 UNL     1      10.086  31.329  22.656  1.00  0.00     0.272 C 
HETATM   41  C11 UNL     1      10.340  29.307  23.749  1.00  0.00     0.272 C 
BRANCH  39  42
HETATM   42  C9  UNL     1      12.025  30.936  23.952  1.00  0.00     0.237 C 
BRANCH  42  43
HETATM   43  C8  UNL     1      11.720  32.323  24.373  1.00  0.00     0.034 C 
BRANCH  43  44
HETATM   44  C7  UNL     1      12.736  32.818  25.365  1.00  0.00     0.059 C 
BRANCH  44  45
HETATM   45  C6  UNL     1      13.794  33.614  24.782  1.00  0.00     0.010 A 
HETATM   46  N1  UNL     1      13.875  34.936  25.121  1.00  0.00    -0.364 N 
HETATM   47  C1  UNL     1      12.926  35.440  26.076  1.00  0.00     0.155 C 
HETATM   48  C2  UNL     1      14.805  35.744  24.585  1.00  0.00     0.090 A 
HETATM   49  C3  UNL     1      15.731  35.303  23.665  1.00  0.00     0.017 A 
HETATM   50  C4  UNL     1      15.671  33.978  23.306  1.00  0.00     0.003 A 
HETATM   51  C5  UNL     1      14.691  33.154  23.880  1.00  0.00     0.025 A 
ENDBRANCH  44  45
ENDBRANCH  43  44
ENDBRANCH  42  43
ENDBRANCH  39  42
ENDBRANCH  38  39
ENDBRANCH  36  38
ENDBRANCH   1  32
TORSDOF 14
ENDMDL
MODEL 4
REMARK VINA RESULT: -8.390821899      1.798      3.981
REMARK  14 active torsions:
REMARK  status: ('A' for Active; 'I' for Inactive)
REMARK    1  A    between atoms: C6_7  and  C7_8 
REMARK    2  A    between atoms: C7_8  and  C8_9 
REMARK    3  A    between atoms: C8_9  and  C9_10 
REMARK    4  A    between atoms: C9_10  and  N2_11 
REMARK    5  A    between atoms: N2_11  and  C12_14 
REMARK    6  A    between atoms: C12_14  and  C13_15 
REMARK    7  A    between atoms: C17_19  and  C18_20 
REMARK    8  A    between atoms: C21_23  and  C22_24 
REMARK    9  A    between atoms: C22_24  and  C23_25 
REMARK   10  A    between atoms: C26_28  and  C27_29 
REMARK   11  A    between atoms: C27_29  and  C28_30 
REMARK   12  A    between atoms: C31_33  and  C32_34 
REMARK   13  A    between atoms: C32_34  and  N3_35 
REMARK   14  A    between atoms: C32_34  and  N4_39 
ROOT
HETATM    1  C18 UNL     1      12.867  34.905  21.948  1.00  0.00    -0.026 A 
HETATM    2  C19 UNL     1      11.551  35.272  21.805  1.00  0.00     0.013 A 
HETATM    3  C20 UNL     1      11.153  36.212  20.848  1.00  0.00     0.012 A 
HETATM    4  C21 UNL     1      12.122  36.787  20.024  1.00  0.00    -0.035 A 
HETATM    5  C36 UNL     1      13.453  36.430  20.153  1.00  0.00     0.012 A 
HETATM    6  C37 UNL     1      13.786  35.510  21.100  1.00  0.00     0.013 A 
ENDROOT
BRANCH   4   7
HETATM    7  C22 UNL     1      11.798  37.786  19.028  1.00  0.00     0.028 C 
BRANCH   7   8
HETATM    8  C23 UNL     1      11.602  39.047  19.300  1.00  0.00     0.033 A 
HETATM    9  C24 UNL     1      12.284  39.646  20.339  1.00  0.00     0.019 A 
HETATM   10  C25 UNL     1      12.066  40.999  20.628  1.00  0.00     0.030 A 
HETATM   11  C26 UNL     1      11.170  41.715  19.865  1.00  0.00     0.035 A 
HETATM   12  N5  UNL     1      10.514  41.102  18.849  1.00  0.00    -0.323 N 
HETATM   13  C35 UNL     1      10.705  39.806  18.553  1.00  0.00     0.256 A 
ATOM     14  H5  UNL     1       9.854  41.643  18.291  1.00  0.00     0.169 HD
HETATM   15  O1  UNL     1      10.075  39.250  17.591  1.00  0.00    -0.267 OA
BRANCH  11  16
HETATM   16  C27 UNL     1      10.958  42.980  20.124  1.00  0.00     0.041 C 
BRANCH  16  17
HETATM   17  C28 UNL     1      11.551  43.986  19.256  1.00  0.00    -0.034 A 
HETATM   18  C29 UNL     1      10.825  44.524  18.193  1.00  0.00     0.012 A 
HETATM   19  C30 UNL     1      11.374  45.475  17.355  1.00  0.00     0.012 A 
HETATM   20  C31 UNL     1      12.665  45.909  17.560  1.00  0.00    -0.001 A 
HETATM   21  C33 UNL     1      13.392  45.375  18.618  1.00  0.00     0.012 A 
HETATM   22  C34 UNL     1      12.842  44.414  19.470  1.00  0.00     0.012 A 
BRANCH  20  23
HETATM   23  C32 UNL     1      13.230  46.936  16.641  1.00  0.00     0.411 C 
BRANCH  23  24
HETATM   24  N3  UNL     1      12.431  46.952  15.442  1.00  0.00    -0.046 N 
ATOM     25  H33 UNL     1      12.244  46.017  15.080  1.00  0.00     0.277 HD
ATOM     26  H32 UNL     1      11.464  47.227  15.617  1.00  0.00     0.277 HD
ATOM     27  H31 UNL     1      12.895  47.553  14.760  1.00  0.00     0.277 HD
ENDBRANCH  23  24
BRANCH  23  28
HETATM   28  N4  UNL     1      13.108  48.253  17.262  1.00  0.00    -0.046 N 
ATOM     29  H43 UNL     1      13.193  48.212  18.278  1.00  0.00     0.277 HD
ATOM     30  H42 UNL     1      13.917  48.846  17.074  1.00  0.00     0.277 HD
ATOM     31  H41 UNL     1      12.233  48.684  16.963  1.00  0.00     0.277 HD
ENDBRANCH  23  28
ENDBRANCH  20  23
ENDBRANCH  16  17
ENDBRANCH  11  16
ENDBRANCH   7   8
ENDBRANCH   4   7
BRANCH   1  32
HETATM   32  C17 UNL     1      13.288  33.940  22.959  1.00  0.00    -0.025 A 
HETATM   33  C16 UNL     1      14.457  34.108  23.674  1.00  0.00     0.012 A 
HETATM   34  C15 UNL     1      14.841  33.163  24.607  1.00  0.00     0.001 A 
HETATM   35  C14 UNL     1      14.086  32.020  24.865  1.00  0.00     0.009 A 
HETATM   36  C13 UNL     1      12.925  31.852  24.157  1.00  0.00    -0.032 A 
HETATM   37  C38 UNL     1      12.544  32.817  23.214  1.00  0.00     0.021 A 
BRANCH  36  38
HETATM   38  C12 UNL     1      12.096  30.650  24.382  1.00  0.00     0.275 C 
BRANCH  38  39
HETATM   39  N2  UNL     1      10.727  30.855  24.664  1.00  0.00    -0.071 N 
HETATM   40  C10 UNL     1      10.050  29.619  24.963  1.00  0.00     0.272 C 
HETATM   41  C11 UNL     1      10.623  31.644  25.922  1.00  0.00     0.272 C 
BRANCH  39  42
HETATM   42  C9  UNL     1       9.971  31.593  23.663  1.00  0.00     0.237 C 
BRANCH  42  43
HETATM   43  C8  UNL     1       9.670  30.847  22.419  1.00  0.00     0.034 C 
BRANCH  43  44
HETATM   44  C7  UNL     1       9.838  31.727  21.211  1.00  0.00     0.059 C 
BRANCH  44  45
HETATM   45  C6  UNL     1      10.806  31.240  20.252  1.00  0.00     0.010 A 
HETATM   46  N1  UNL     1      10.537  31.396  18.922  1.00  0.00    -0.364 N 
HETATM   47  C1  UNL     1       9.323  32.079  18.560  1.00  0.00     0.155 C 
HETATM   48  C2  UNL     1      11.369  30.929  17.976  1.00  0.00     0.090 A 
HETATM   49  C3  UNL     1      12.539  30.267  18.278  1.00  0.00     0.017 A 
HETATM   50  C4  UNL     1      12.833  30.097  19.610  1.00  0.00     0.003 A 
HETATM   51  C5  UNL     1      11.948  30.593  20.578  1.00  0.00     0.025 A 
ENDBRANCH  44  45
ENDBRANCH  43  44
ENDBRANCH  42  43
ENDBRANCH  39  42
ENDBRANCH  38  39
ENDBRANCH  36  38
ENDBRANCH   1  32
TORSDOF 14
ENDMDL
MODEL 5
REMARK VINA RESULT: -8.278864648      2.096      4.368
REMARK  14 active torsions:
REMARK  status: ('A' for Active; 'I' for Inactive)
REMARK    1  A    between atoms: C6_7  and  C7_8 
REMARK    2  A    between atoms: C7_8  and  C8_9 
REMARK    3  A    between atoms: C8_9  and  C9_10 
REMARK    4  A    between atoms: C9_10  and  N2_11 
REMARK    5  A    between atoms: N2_11  and  C12_14 
REMARK    6  A    between atoms: C12_14  and  C13_15 
REMARK    7  A    between atoms: C17_19  and  C18_20 
REMARK    8  A    between atoms: C21_23  and  C22_24 
REMARK    9  A    between atoms: C22_24  and  C23_25 
REMARK   10  A    between atoms: C26_28  and  C27_29 
REMARK   11  A    between atoms: C27_29  and  C28_30 
REMARK   12  A    between atoms: C31_33  and  C32_34 
REMARK   13  A    between atoms: C32_34  and  N3_35 
REMARK   14  A    between atoms: C32_34  and  N4_39 
ROOT
HETATM    1  C18 UNL     1      11.560  36.529  20.713  1.00  0.00    -0.026 A 
HETATM    2  C19 UNL     1      10.854  37.370  21.537  1.00  0.00     0.013 A 
HETATM    3  C20 UNL     1      10.219  38.515  21.044  1.00  0.00     0.012 A 
HETATM    4  C21 UNL     1      10.310  38.803  19.682  1.00  0.00    -0.035 A 
HETATM    5  C36 UNL     1      11.016  37.967  18.834  1.00  0.00     0.012 A 
HETATM    6  C37 UNL     1      11.615  36.865  19.365  1.00  0.00     0.013 A 
ENDROOT
BRANCH   4   7
HETATM    7  C22 UNL     1       9.705  39.980  19.096  1.00  0.00     0.028 C 
BRANCH   7   8
HETATM    8  C23 UNL     1      10.126  41.197  19.308  1.00  0.00     0.033 A 
HETATM    9  C24 UNL     1      10.569  41.567  20.561  1.00  0.00     0.019 A 
HETATM   10  C25 UNL     1      11.017  42.876  20.785  1.00  0.00     0.030 A 
HETATM   11  C26 UNL     1      11.009  43.777  19.743  1.00  0.00     0.035 A 
HETATM   12  N5  UNL     1      10.570  43.385  18.521  1.00  0.00    -0.323 N 
HETATM   13  C35 UNL     1      10.135  42.138  18.282  1.00  0.00     0.256 A 
ATOM     14  H5  UNL     1      10.570  44.062  17.757  1.00  0.00     0.169 HD
HETATM   15  O1  UNL     1       9.726  41.793  17.123  1.00  0.00    -0.267 OA
BRANCH  11  16
HETATM   16  C27 UNL     1      11.425  45.002  19.937  1.00  0.00     0.041 C 
BRANCH  16  17
HETATM   17  C28 UNL     1      11.788  45.814  18.785  1.00  0.00    -0.034 A 
HETATM   18  C29 UNL     1      13.044  45.684  18.191  1.00  0.00     0.012 A 
HETATM   19  C30 UNL     1      13.408  46.451  17.102  1.00  0.00     0.012 A 
HETATM   20  C31 UNL     1      12.523  47.369  16.581  1.00  0.00    -0.001 A 
HETATM   21  C33 UNL     1      11.270  47.502  17.171  1.00  0.00     0.012 A 
HETATM   22  C34 UNL     1      10.897  46.728  18.272  1.00  0.00     0.012 A 
BRANCH  20  23
HETATM   23  C32 UNL     1      12.942  48.182  15.406  1.00  0.00     0.411 C 
BRANCH  23  24
HETATM   24  N3  UNL     1      12.942  47.326  14.247  1.00  0.00    -0.046 N 
ATOM     25  H33 UNL     1      13.882  47.115  13.913  1.00  0.00     0.277 HD
ATOM     26  H32 UNL     1      12.656  46.371  14.463  1.00  0.00     0.277 HD
ATOM     27  H31 UNL     1      12.358  47.761  13.532  1.00  0.00     0.277 HD
ENDBRANCH  23  24
BRANCH  23  28
HETATM   28  N4  UNL     1      11.952  49.231  15.172  1.00  0.00    -0.046 N 
ATOM     29  H43 UNL     1      11.985  49.589  14.217  1.00  0.00     0.277 HD
ATOM     30  H42 UNL     1      10.999  48.868  15.156  1.00  0.00     0.277 HD
ATOM     31  H41 UNL     1      12.076  49.968  15.867  1.00  0.00     0.277 HD
ENDBRANCH  23  28
ENDBRANCH  20  23
ENDBRANCH  16  17
ENDBRANCH  11  16
ENDBRANCH   7   8
ENDBRANCH   4   7
BRANCH   1  32
HETATM   32  C17 UNL     1      12.242  35.344  21.226  1.00  0.00    -0.025 A 
HETATM   33  C16 UNL     1      13.104  34.609  20.438  1.00  0.00     0.012 A 
HETATM   34  C15 UNL     1      13.714  33.478  20.947  1.00  0.00     0.001 A 
HETATM   35  C14 UNL     1      13.494  33.034  22.250  1.00  0.00     0.009 A 
HETATM   36  C13 UNL     1      12.639  33.762  23.034  1.00  0.00    -0.032 A 
HETATM   37  C38 UNL     1      12.026  34.908  22.509  1.00  0.00     0.021 A 
BRANCH  36  38
HETATM   38  C12 UNL     1      12.359  33.325  24.418  1.00  0.00     0.275 C 
BRANCH  38  39
HETATM   39  N2  UNL     1      11.504  32.212  24.581  1.00  0.00    -0.071 N 
HETATM   40  C10 UNL     1      12.202  30.968  24.388  1.00  0.00     0.272 C 
HETATM   41  C11 UNL     1      11.061  32.169  26.001  1.00  0.00     0.272 C 
BRANCH  39  42
HETATM   42  C9  UNL     1      10.288  32.217  23.780  1.00  0.00     0.237 C 
BRANCH  42  43
HETATM   43  C8  UNL     1      10.154  31.093  22.826  1.00  0.00     0.034 C 
BRANCH  43  44
HETATM   44  C7  UNL     1       9.827  31.596  21.446  1.00  0.00     0.059 C 
BRANCH  44  45
HETATM   45  C6  UNL     1      10.767  31.184  20.426  1.00  0.00     0.010 A 
HETATM   46  N1  UNL     1      10.474  31.465  19.122  1.00  0.00    -0.364 N 
HETATM   47  C1  UNL     1       9.265  32.196  18.850  1.00  0.00     0.155 C 
HETATM   48  C2  UNL     1      11.279  31.075  18.120  1.00  0.00     0.090 A 
HETATM   49  C3  UNL     1      12.444  30.370  18.335  1.00  0.00     0.017 A 
HETATM   50  C4  UNL     1      12.761  30.075  19.639  1.00  0.00     0.003 A 
HETATM   51  C5  UNL     1      11.904  30.494  20.667  1.00  0.00     0.025 A 
ENDBRANCH  44  45
ENDBRANCH  43  44
ENDBRANCH  42  43
ENDBRANCH  39  42
ENDBRANCH  38  39
ENDBRANCH  36  38
ENDBRANCH   1  32
TORSDOF 14
ENDMDL
