MODEL 1
REMARK VINA RESULT: -6.025049096      0.000      0.000
REMARK  12 active torsions:
REMARK  status: ('A' for Active; 'I' for Inactive)
REMARK    1  A    between atoms: C2_2  and  C4_4 
REMARK    2  A    between atoms: C5_6  and  C6_7 
REMARK    3  A    between atoms: C6_7  and  O2_8 
REMARK    4  A    between atoms: C6_7  and  C7_10 
REMARK    5  A    between atoms: C6_7  and  C9_14 
REMARK    6  A    between atoms: C7_10  and  O3_12 
REMARK    7  A    between atoms: C9_14  and  O4_15 
REMARK    8  A    between atoms: C9_14  and  C10_17 
REMARK    9  A    between atoms: C10_17  and  O5_18 
REMARK   10  A    between atoms: O5_18  and  C11_19 
REMARK   11  A    between atoms: C14_22  and  O6_23 
REMARK   12  A    between atoms: C15_25  and  O7_26 
ROOT
HETATM    1  C6  UNL     1      37.556  22.136  42.908  1.00  0.00     0.139 C 
ENDROOT
BRANCH   1   2
HETATM    2  C5  UNL     1      36.551  23.233  42.482  1.00  0.00     0.193 C 
HETATM    3  O1  UNL     1      36.657  23.437  41.093  1.00  0.00    -0.368 OA
HETATM    4  C4  UNL     1      35.514  24.208  40.865  1.00  0.00     0.181 C 
HETATM    5  C15 UNL     1      34.438  23.324  41.463  1.00  0.00     0.182 C 
HETATM    6  C14 UNL     1      35.139  22.831  42.738  1.00  0.00     0.181 C 
BRANCH   4   7
HETATM    7  C2  UNL     1      35.298  24.500  39.450  1.00  0.00    -0.062 C 
HETATM    8  C1  UNL     1      36.327  24.545  38.621  1.00  0.00     0.016 C 
HETATM    9  C3  UNL     1      33.942  24.750  38.919  1.00  0.00     0.045 C 
ENDBRANCH   4   7
BRANCH   5  10
HETATM   10  O7  UNL     1      34.116  22.272  40.621  1.00  0.00    -0.390 OA
ATOM     11  H7  UNL     1      34.321  21.433  41.015  1.00  0.00     0.210 HD
ENDBRANCH   5  10
BRANCH   6  12
HETATM   12  O6  UNL     1      34.577  23.591  43.777  1.00  0.00    -0.390 OA
ATOM     13  H6  UNL     1      33.628  23.581  43.734  1.00  0.00     0.210 HD
ENDBRANCH   6  12
ENDBRANCH   1   2
BRANCH   1  14
HETATM   14  O2  UNL     1      36.872  21.320  43.758  1.00  0.00    -0.382 OA
ATOM     15  H2  UNL     1      37.530  20.782  44.182  1.00  0.00     0.211 HD
ENDBRANCH   1  14
BRANCH   1  16
HETATM   16  C7  UNL     1      38.626  22.887  43.667  1.00  0.00     0.153 C 
HETATM   17  C8  UNL     1      39.166  22.125  44.853  1.00  0.00     0.042 C 
BRANCH  16  18
HETATM   18  O3  UNL     1      39.622  23.393  42.834  1.00  0.00    -0.393 OA
ATOM     19  H3  UNL     1      40.318  22.767  42.673  1.00  0.00     0.210 HD
ENDBRANCH  16  18
ENDBRANCH   1  16
BRANCH   1  20
HETATM   20  C9  UNL     1      38.031  21.543  41.627  1.00  0.00     0.181 C 
BRANCH  20  21
HETATM   21  O4  UNL     1      37.000  21.053  40.870  1.00  0.00    -0.390 OA
ATOM     22  H4  UNL     1      36.905  21.520  40.048  1.00  0.00     0.210 HD
ENDBRANCH  20  21
BRANCH  20  23
HETATM   23  C10 UNL     1      39.165  20.598  41.683  1.00  0.00     0.203 C 
BRANCH  23  24
HETATM   24  O5  UNL     1      38.977  19.281  41.490  1.00  0.00    -0.384 OA
BRANCH  24  25
HETATM   25  C11 UNL     1      39.473  18.644  40.404  1.00  0.00     0.113 C 
HETATM   26  C12 UNL     1      39.551  17.145  40.686  1.00  0.00     0.039 C 
HETATM   27  C13 UNL     1      40.913  19.042  40.088  1.00  0.00     0.039 C 
ENDBRANCH  24  25
ENDBRANCH  23  24
ENDBRANCH  20  23
ENDBRANCH   1  20
TORSDOF 12
ENDMDL
MODEL 2
REMARK VINA RESULT: -5.967678920      0.821      1.072
REMARK  12 active torsions:
REMARK  status: ('A' for Active; 'I' for Inactive)
REMARK    1  A    between atoms: C2_2  and  C4_4 
REMARK    2  A    between atoms: C5_6  and  C6_7 
REMARK    3  A    between atoms: C6_7  and  O2_8 
REMARK    4  A    between atoms: C6_7  and  C7_10 
REMARK    5  A    between atoms: C6_7  and  C9_14 
REMARK    6  A    between atoms: C7_10  and  O3_12 
REMARK    7  A    between atoms: C9_14  and  O4_15 
REMARK    8  A    between atoms: C9_14  and  C10_17 
REMARK    9  A    between atoms: C10_17  and  O5_18 
REMARK   10  A    between atoms: O5_18  and  C11_19 
REMARK   11  A    between atoms: C14_22  and  O6_23 
REMARK   12  A    between atoms: C15_25  and  O7_26 
ROOT
HETATM    1  C6  UNL     1      37.596  22.139  42.996  1.00  0.00     0.139 C 
ENDROOT
BRANCH   1   2
HETATM    2  C5  UNL     1      36.591  23.220  42.530  1.00  0.00     0.193 C 
HETATM    3  O1  UNL     1      36.725  23.403  41.140  1.00  0.00    -0.368 OA
HETATM    4  C4  UNL     1      35.581  24.159  40.875  1.00  0.00     0.181 C 
HETATM    5  C15 UNL     1      34.500  23.274  41.463  1.00  0.00     0.182 C 
HETATM    6  C14 UNL     1      35.177  22.809  42.761  1.00  0.00     0.181 C 
BRANCH   4   7
HETATM    7  C2  UNL     1      35.394  24.426  39.450  1.00  0.00    -0.062 C 
HETATM    8  C1  UNL     1      36.427  24.368  38.627  1.00  0.00     0.016 C 
HETATM    9  C3  UNL     1      34.063  24.762  38.904  1.00  0.00     0.045 C 
ENDBRANCH   4   7
BRANCH   5  10
HETATM   10  O7  UNL     1      34.206  22.206  40.632  1.00  0.00    -0.390 OA
ATOM     11  H7  UNL     1      34.612  21.404  40.936  1.00  0.00     0.210 HD
ENDBRANCH   5  10
BRANCH   6  12
HETATM   12  O6  UNL     1      34.586  23.581  43.775  1.00  0.00    -0.390 OA
ATOM     13  H6  UNL     1      33.841  23.131  44.157  1.00  0.00     0.210 HD
ENDBRANCH   6  12
ENDBRANCH   1   2
BRANCH   1  14
HETATM   14  O2  UNL     1      36.898  21.326  43.837  1.00  0.00    -0.382 OA
ATOM     15  H2  UNL     1      36.551  21.894  44.514  1.00  0.00     0.211 HD
ENDBRANCH   1  14
BRANCH   1  16
HETATM   16  C7  UNL     1      38.637  22.911  43.774  1.00  0.00     0.153 C 
HETATM   17  C8  UNL     1      39.179  22.156  44.963  1.00  0.00     0.042 C 
BRANCH  16  18
HETATM   18  O3  UNL     1      39.631  23.447  42.958  1.00  0.00    -0.393 OA
ATOM     19  H3  UNL     1      40.414  22.910  42.934  1.00  0.00     0.210 HD
ENDBRANCH  16  18
ENDBRANCH   1  16
BRANCH   1  20
HETATM   20  C9  UNL     1      38.112  21.537  41.735  1.00  0.00     0.181 C 
BRANCH  20  21
HETATM   21  O4  UNL     1      37.116  20.965  40.990  1.00  0.00    -0.390 OA
ATOM     22  H4  UNL     1      37.153  20.015  41.010  1.00  0.00     0.210 HD
ENDBRANCH  20  21
BRANCH  20  23
HETATM   23  C10 UNL     1      39.299  20.662  41.825  1.00  0.00     0.203 C 
BRANCH  23  24
HETATM   24  O5  UNL     1      40.523  21.123  41.515  1.00  0.00    -0.384 OA
BRANCH  24  25
HETATM   25  C11 UNL     1      41.189  20.690  40.420  1.00  0.00     0.113 C 
HETATM   26  C12 UNL     1      40.735  19.273  40.075  1.00  0.00     0.039 C 
HETATM   27  C13 UNL     1      42.692  20.557  40.654  1.00  0.00     0.039 C 
ENDBRANCH  24  25
ENDBRANCH  23  24
ENDBRANCH  20  23
ENDBRANCH   1  20
TORSDOF 12
ENDMDL
MODEL 3
REMARK VINA RESULT: -5.895965482      2.085      3.879
REMARK  12 active torsions:
REMARK  status: ('A' for Active; 'I' for Inactive)
REMARK    1  A    between atoms: C2_2  and  C4_4 
REMARK    2  A    between atoms: C5_6  and  C6_7 
REMARK    3  A    between atoms: C6_7  and  O2_8 
REMARK    4  A    between atoms: C6_7  and  C7_10 
REMARK    5  A    between atoms: C6_7  and  C9_14 
REMARK    6  A    between atoms: C7_10  and  O3_12 
REMARK    7  A    between atoms: C9_14  and  O4_15 
REMARK    8  A    between atoms: C9_14  and  C10_17 
REMARK    9  A    between atoms: C10_17  and  O5_18 
REMARK   10  A    between atoms: O5_18  and  C11_19 
REMARK   11  A    between atoms: C14_22  and  O6_23 
REMARK   12  A    between atoms: C15_25  and  O7_26 
ROOT
HETATM    1  C6  UNL     1      36.276  23.919  40.903  1.00  0.00     0.139 C 
ENDROOT
BRANCH   1   2
HETATM    2  C5  UNL     1      34.926  24.354  40.284  1.00  0.00     0.193 C 
HETATM    3  O1  UNL     1      35.140  24.749  38.949  1.00  0.00    -0.368 OA
HETATM    4  C4  UNL     1      33.820  24.814  38.493  1.00  0.00     0.181 C 
HETATM    5  C15 UNL     1      33.318  23.429  38.846  1.00  0.00     0.182 C 
HETATM    6  C14 UNL     1      33.944  23.236  40.235  1.00  0.00     0.181 C 
BRANCH   4   7
HETATM    7  C2  UNL     1      33.727  25.114  37.066  1.00  0.00    -0.062 C 
HETATM    8  C1  UNL     1      32.547  25.339  36.514  1.00  0.00     0.016 C 
HETATM    9  C3  UNL     1      34.936  25.171  36.217  1.00  0.00     0.045 C 
ENDBRANCH   4   7
BRANCH   5  10
HETATM   10  O7  UNL     1      33.772  22.477  37.948  1.00  0.00    -0.390 OA
ATOM     11  H7  UNL     1      33.490  21.603  38.191  1.00  0.00     0.210 HD
ENDBRANCH   5  10
BRANCH   6  12
HETATM   12  O6  UNL     1      32.889  23.449  41.140  1.00  0.00    -0.390 OA
ATOM     13  H6  UNL     1      32.594  22.630  41.521  1.00  0.00     0.210 HD
ENDBRANCH   6  12
ENDBRANCH   1   2
BRANCH   1  14
HETATM   14  O2  UNL     1      37.129  24.961  40.698  1.00  0.00    -0.382 OA
ATOM     15  H2  UNL     1      37.744  24.935  41.420  1.00  0.00     0.211 HD
ENDBRANCH   1  14
BRANCH   1  16
HETATM   16  C7  UNL     1      36.703  22.733  40.068  1.00  0.00     0.153 C 
HETATM   17  C8  UNL     1      38.068  22.899  39.445  1.00  0.00     0.042 C 
BRANCH  16  18
HETATM   18  O3  UNL     1      36.542  21.520  40.733  1.00  0.00    -0.393 OA
ATOM     19  H3  UNL     1      37.014  21.488  41.557  1.00  0.00     0.210 HD
ENDBRANCH  16  18
ENDBRANCH   1  16
BRANCH   1  20
HETATM   20  C9  UNL     1      35.948  23.573  42.314  1.00  0.00     0.181 C 
BRANCH  20  21
HETATM   21  O4  UNL     1      35.162  24.523  42.910  1.00  0.00    -0.390 OA
ATOM     22  H4  UNL     1      35.592  24.929  43.655  1.00  0.00     0.210 HD
ENDBRANCH  20  21
BRANCH  20  23
HETATM   23  C10 UNL     1      37.054  23.148  43.196  1.00  0.00     0.203 C 
BRANCH  23  24
HETATM   24  O5  UNL     1      37.080  21.913  43.726  1.00  0.00    -0.384 OA
BRANCH  24  25
HETATM   25  C11 UNL     1      38.243  21.307  44.059  1.00  0.00     0.113 C 
HETATM   26  C12 UNL     1      39.044  22.219  44.986  1.00  0.00     0.039 C 
HETATM   27  C13 UNL     1      39.163  21.089  42.859  1.00  0.00     0.039 C 
ENDBRANCH  24  25
ENDBRANCH  23  24
ENDBRANCH  20  23
ENDBRANCH   1  20
TORSDOF 12
ENDMDL
MODEL 4
REMARK VINA RESULT: -5.883243000      2.255      4.799
REMARK  12 active torsions:
REMARK  status: ('A' for Active; 'I' for Inactive)
REMARK    1  A    between atoms: C2_2  and  C4_4 
REMARK    2  A    between atoms: C5_6  and  C6_7 
REMARK    3  A    between atoms: C6_7  and  O2_8 
REMARK    4  A    between atoms: C6_7  and  C7_10 
REMARK    5  A    between atoms: C6_7  and  C9_14 
REMARK    6  A    between atoms: C7_10  and  O3_12 
REMARK    7  A    between atoms: C9_14  and  O4_15 
REMARK    8  A    between atoms: C9_14  and  C10_17 
REMARK    9  A    between atoms: C10_17  and  O5_18 
REMARK   10  A    between atoms: O5_18  and  C11_19 
REMARK   11  A    between atoms: C14_22  and  O6_23 
REMARK   12  A    between atoms: C15_25  and  O7_26 
ROOT
HETATM    1  C6  UNL     1      35.791  23.233  41.240  1.00  0.00     0.139 C 
ENDROOT
BRANCH   1   2
HETATM    2  C5  UNL     1      36.683  24.353  40.651  1.00  0.00     0.193 C 
HETATM    3  O1  UNL     1      37.897  24.395  41.362  1.00  0.00    -0.368 OA
HETATM    4  C4  UNL     1      38.649  25.224  40.525  1.00  0.00     0.181 C 
HETATM    5  C15 UNL     1      38.523  24.498  39.201  1.00  0.00     0.182 C 
HETATM    6  C14 UNL     1      37.042  24.094  39.228  1.00  0.00     0.181 C 
BRANCH   4   7
HETATM    7  C2  UNL     1      40.033  25.375  40.970  1.00  0.00    -0.062 C 
HETATM    8  C1  UNL     1      40.799  26.310  40.436  1.00  0.00     0.016 C 
HETATM    9  C3  UNL     1      40.599  24.496  42.015  1.00  0.00     0.045 C 
ENDBRANCH   4   7
BRANCH   5  10
HETATM   10  O7  UNL     1      39.352  23.389  39.147  1.00  0.00    -0.390 OA
ATOM     11  H7  UNL     1      38.886  22.593  39.372  1.00  0.00     0.210 HD
ENDBRANCH   5  10
BRANCH   6  12
HETATM   12  O6  UNL     1      36.402  25.005  38.371  1.00  0.00    -0.390 OA
ATOM     13  H6  UNL     1      37.008  25.354  37.728  1.00  0.00     0.210 HD
ENDBRANCH   6  12
ENDBRANCH   1   2
BRANCH   1  14
HETATM   14  O2  UNL     1      36.360  22.062  40.843  1.00  0.00    -0.382 OA
ATOM     15  H2  UNL     1      36.590  21.604  41.642  1.00  0.00     0.211 HD
ENDBRANCH   1  14
BRANCH   1  16
HETATM   16  C7  UNL     1      34.459  23.418  40.551  1.00  0.00     0.153 C 
HETATM   17  C8  UNL     1      34.098  22.279  39.628  1.00  0.00     0.042 C 
BRANCH  16  18
HETATM   18  O3  UNL     1      33.437  23.757  41.436  1.00  0.00    -0.393 OA
ATOM     19  H3  UNL     1      32.577  23.711  41.037  1.00  0.00     0.210 HD
ENDBRANCH  16  18
ENDBRANCH   1  16
BRANCH   1  20
HETATM   20  C9  UNL     1      35.755  23.513  42.703  1.00  0.00     0.181 C 
BRANCH  20  21
HETATM   21  O4  UNL     1      35.445  24.819  42.972  1.00  0.00    -0.390 OA
ATOM     22  H4  UNL     1      36.158  25.409  42.758  1.00  0.00     0.210 HD
ENDBRANCH  20  21
BRANCH  20  23
HETATM   23  C10 UNL     1      36.889  23.041  43.524  1.00  0.00     0.203 C 
BRANCH  23  24
HETATM   24  O5  UNL     1      37.057  21.732  43.783  1.00  0.00    -0.384 OA
BRANCH  24  25
HETATM   25  C11 UNL     1      38.281  21.206  44.013  1.00  0.00     0.113 C 
HETATM   26  C12 UNL     1      39.075  22.142  44.923  1.00  0.00     0.039 C 
HETATM   27  C13 UNL     1      39.131  21.102  42.749  1.00  0.00     0.039 C 
ENDBRANCH  24  25
ENDBRANCH  23  24
ENDBRANCH  20  23
ENDBRANCH   1  20
TORSDOF 12
ENDMDL
MODEL 5
REMARK VINA RESULT: -5.790140213      2.607      3.584
REMARK  12 active torsions:
REMARK  status: ('A' for Active; 'I' for Inactive)
REMARK    1  A    between atoms: C2_2  and  C4_4 
REMARK    2  A    between atoms: C5_6  and  C6_7 
REMARK    3  A    between atoms: C6_7  and  O2_8 
REMARK    4  A    between atoms: C6_7  and  C7_10 
REMARK    5  A    between atoms: C6_7  and  C9_14 
REMARK    6  A    between atoms: C7_10  and  O3_12 
REMARK    7  A    between atoms: C9_14  and  O4_15 
REMARK    8  A    between atoms: C9_14  and  C10_17 
REMARK    9  A    between atoms: C10_17  and  O5_18 
REMARK   10  A    between atoms: O5_18  and  C11_19 
REMARK   11  A    between atoms: C14_22  and  O6_23 
REMARK   12  A    between atoms: C15_25  and  O7_26 
ROOT
HETATM    1  C6  UNL     1      36.422  23.356  41.179  1.00  0.00     0.139 C 
ENDROOT
BRANCH   1   2
HETATM    2  C5  UNL     1      35.273  23.849  40.266  1.00  0.00     0.193 C 
HETATM    3  O1  UNL     1      35.546  23.468  38.939  1.00  0.00    -0.368 OA
HETATM    4  C4  UNL     1      34.308  23.725  38.344  1.00  0.00     0.181 C 
HETATM    5  C15 UNL     1      33.382  22.919  39.233  1.00  0.00     0.182 C 
HETATM    6  C14 UNL     1      33.968  23.223  40.620  1.00  0.00     0.181 C 
BRANCH   4   7
HETATM    7  C2  UNL     1      34.256  23.321  36.941  1.00  0.00    -0.062 C 
HETATM    8  C1  UNL     1      35.288  22.701  36.395  1.00  0.00     0.016 C 
HETATM    9  C3  UNL     1      33.064  23.592  36.111  1.00  0.00     0.045 C 
ENDBRANCH   4   7
BRANCH   5  10
HETATM   10  O7  UNL     1      33.444  21.567  38.940  1.00  0.00    -0.390 OA
ATOM     11  H7  UNL     1      32.593  21.152  39.018  1.00  0.00     0.210 HD
ENDBRANCH   5  10
BRANCH   6  12
HETATM   12  O6  UNL     1      33.091  24.165  41.184  1.00  0.00    -0.390 OA
ATOM     13  H6  UNL     1      32.556  23.771  41.863  1.00  0.00     0.210 HD
ENDBRANCH   6  12
ENDBRANCH   1   2
BRANCH   1  14
HETATM   14  O2  UNL     1      36.619  22.050  40.850  1.00  0.00    -0.382 OA
ATOM     15  H2  UNL     1      37.407  21.786  41.309  1.00  0.00     0.211 HD
ENDBRANCH   1  14
BRANCH   1  16
HETATM   16  C7  UNL     1      35.854  23.455  42.576  1.00  0.00     0.153 C 
HETATM   17  C8  UNL     1      36.613  22.633  43.591  1.00  0.00     0.042 C 
BRANCH  16  18
HETATM   18  O3  UNL     1      35.640  24.771  42.979  1.00  0.00    -0.393 OA
ATOM     19  H3  UNL     1      36.118  24.995  43.769  1.00  0.00     0.210 HD
ENDBRANCH  16  18
ENDBRANCH   1  16
BRANCH   1  20
HETATM   20  C9  UNL     1      37.542  24.303  40.917  1.00  0.00     0.181 C 
BRANCH  20  21
HETATM   21  O4  UNL     1      37.173  25.321  40.078  1.00  0.00    -0.390 OA
ATOM     22  H4  UNL     1      37.924  25.757  39.692  1.00  0.00     0.210 HD
ENDBRANCH  20  21
BRANCH  20  23
HETATM   23  C10 UNL     1      38.853  23.734  40.543  1.00  0.00     0.203 C 
BRANCH  23  24
HETATM   24  O5  UNL     1      39.528  22.938  41.389  1.00  0.00    -0.384 OA
BRANCH  24  25
HETATM   25  C11 UNL     1      40.052  23.410  42.543  1.00  0.00     0.113 C 
HETATM   26  C12 UNL     1      41.264  24.286  42.230  1.00  0.00     0.039 C 
HETATM   27  C13 UNL     1      40.609  22.305  43.438  1.00  0.00     0.039 C 
ENDBRANCH  24  25
ENDBRANCH  23  24
ENDBRANCH  20  23
ENDBRANCH   1  20
TORSDOF 12
ENDMDL
