MODEL 1
REMARK VINA RESULT: -6.703198210      0.000      0.000
REMARK  14 active torsions:
REMARK  status: ('A' for Active; 'I' for Inactive)
REMARK    1  A    between atoms: N1_1  and  C1_5 
REMARK    2  A    between atoms: C2_6  and  C3_7 
REMARK    3  A    between atoms: C3_7  and  C4_8 
REMARK    4  A    between atoms: C5_9  and  C6_10 
REMARK    5  A    between atoms: C6_10  and  C7_11 
REMARK    6  A    between atoms: C7_11  and  C8_12 
REMARK    7  A    between atoms: C8_12  and  C9_13 
REMARK    8  A    between atoms: C9_13  and  C10_14 
REMARK    9  A    between atoms: C10_14  and  S1_15 
REMARK   10  A    between atoms: S1_15  and  C11_16 
REMARK   11  A    between atoms: C15_22  and  C16_23 
REMARK   12  A    between atoms: C16_23  and  O1_24 
REMARK   13  A    between atoms: C17_26  and  O2_27 
REMARK   14  A    between atoms: C18_29  and  O3_30 
ROOT
HETATM    1  C1  UNL     1      14.332  36.200 -12.582  1.00  0.00     0.236 C 
HETATM    2  C2  UNL     1      13.395  37.231 -12.023  1.00  0.00     0.113 C 
HETATM    3  N2  UNL     1      14.087  38.503 -12.043  1.00  0.00    -0.406 N 
ATOM      4  H2  UNL     1      14.221  39.049 -11.192  1.00  0.00     0.154 HD
HETATM    5  C15 UNL     1      14.565  38.953 -13.287  1.00  0.00     0.132 C 
HETATM    6  C17 UNL     1      15.124  37.905 -14.195  1.00  0.00     0.173 C 
HETATM    7  C18 UNL     1      14.501  36.570 -14.070  1.00  0.00     0.181 C 
ENDROOT
BRANCH   2   8
HETATM    8  C3  UNL     1      13.024  37.001 -10.570  1.00  0.00     0.053 C 
BRANCH   8   9
HETATM    9  C4  UNL     1      14.061  37.403  -9.632  1.00  0.00    -0.029 C 
HETATM   10  C5  UNL     1      13.921  38.105  -8.539  1.00  0.00    -0.031 C 
BRANCH  10  11
HETATM   11  C6  UNL     1      12.638  38.620  -8.067  1.00  0.00     0.027 C 
BRANCH  11  12
HETATM   12  C7  UNL     1      12.268  38.081  -6.692  1.00  0.00     0.004 C 
BRANCH  12  13
HETATM   13  C8  UNL     1      11.126  38.851  -6.109  1.00  0.00     0.001 C 
BRANCH  13  14
HETATM   14  C9  UNL     1      10.894  38.417  -4.680  1.00  0.00     0.010 C 
BRANCH  14  15
HETATM   15  C10 UNL     1       9.436  38.375  -4.310  1.00  0.00     0.074 C 
BRANCH  15  16
HETATM   16  S1  UNL     1       9.223  38.947  -2.629  1.00  0.00    -0.164 SA
BRANCH  16  17
HETATM   17  C11 UNL     1      10.202  38.070  -1.412  1.00  0.00     0.047 C 
HETATM   18  C12 UNL     1       9.885  36.568  -1.518  1.00  0.00     0.015 C 
HETATM   19  C13 UNL     1       8.746  36.816  -0.553  1.00  0.00     0.002 C 
HETATM   20  C14 UNL     1       9.586  37.979  -0.009  1.00  0.00     0.015 C 
ENDBRANCH  16  17
ENDBRANCH  15  16
ENDBRANCH  14  15
ENDBRANCH  13  14
ENDBRANCH  12  13
ENDBRANCH  11  12
ENDBRANCH  10  11
ENDBRANCH   8   9
ENDBRANCH   2   8
BRANCH   1  21
HETATM   21  N1  UNL     1      13.832  34.839 -12.496  1.00  0.00    -0.070 N 
ATOM     22  H13 UNL     1      13.677  34.575 -11.523  1.00  0.00     0.274 HD
ATOM     23  H12 UNL     1      12.874  34.787 -12.843  1.00  0.00     0.274 HD
ATOM     24  H11 UNL     1      14.421  34.151 -12.964  1.00  0.00     0.274 HD
ENDBRANCH   1  21
BRANCH   7  25
HETATM   25  O3  UNL     1      15.281  35.601 -14.700  1.00  0.00    -0.391 OA
ATOM     26  H3  UNL     1      15.116  35.625 -15.635  1.00  0.00     0.210 HD
ENDBRANCH   7  25
BRANCH   5  27
HETATM   27  C16 UNL     1      15.658  39.979 -13.046  1.00  0.00     0.191 C 
BRANCH  27  28
HETATM   28  O1  UNL     1      15.936  40.648 -14.260  1.00  0.00    -0.399 OA
ATOM     29  H1  UNL     1      16.661  41.246 -14.124  1.00  0.00     0.209 HD
ENDBRANCH  27  28
ENDBRANCH   5  27
BRANCH   6  30
HETATM   30  O2  UNL     1      16.504  37.794 -14.073  1.00  0.00    -0.391 OA
ATOM     31  H2  UNL     1      16.753  37.074 -13.506  1.00  0.00     0.210 HD
ENDBRANCH   6  30
TORSDOF 14
ENDMDL
MODEL 2
REMARK VINA RESULT: -6.631488842      5.042      9.082
REMARK  14 active torsions:
REMARK  status: ('A' for Active; 'I' for Inactive)
REMARK    1  A    between atoms: N1_1  and  C1_5 
REMARK    2  A    between atoms: C2_6  and  C3_7 
REMARK    3  A    between atoms: C3_7  and  C4_8 
REMARK    4  A    between atoms: C5_9  and  C6_10 
REMARK    5  A    between atoms: C6_10  and  C7_11 
REMARK    6  A    between atoms: C7_11  and  C8_12 
REMARK    7  A    between atoms: C8_12  and  C9_13 
REMARK    8  A    between atoms: C9_13  and  C10_14 
REMARK    9  A    between atoms: C10_14  and  S1_15 
REMARK   10  A    between atoms: S1_15  and  C11_16 
REMARK   11  A    between atoms: C15_22  and  C16_23 
REMARK   12  A    between atoms: C16_23  and  O1_24 
REMARK   13  A    between atoms: C17_26  and  O2_27 
REMARK   14  A    between atoms: C18_29  and  O3_30 
ROOT
HETATM    1  C1  UNL     1      12.491  40.173  -8.423  1.00  0.00     0.236 C 
HETATM    2  C2  UNL     1      12.946  40.994  -7.251  1.00  0.00     0.113 C 
HETATM    3  N2  UNL     1      12.005  40.770  -6.174  1.00  0.00    -0.406 N 
ATOM      4  H2  UNL     1      11.499  41.543  -5.740  1.00  0.00     0.154 HD
HETATM    5  C15 UNL     1      11.818  39.442  -5.751  1.00  0.00     0.132 C 
HETATM    6  C17 UNL     1      11.820  38.403  -6.825  1.00  0.00     0.173 C 
HETATM    7  C18 UNL     1      12.682  38.704  -7.988  1.00  0.00     0.181 C 
ENDROOT
BRANCH   2   8
HETATM    8  C3  UNL     1      12.918  42.490  -7.502  1.00  0.00     0.053 C 
BRANCH   8   9
HETATM    9  C4  UNL     1      14.039  43.202  -6.910  1.00  0.00    -0.029 C 
HETATM   10  C5  UNL     1      15.168  43.530  -7.481  1.00  0.00    -0.031 C 
BRANCH  10  11
HETATM   11  C6  UNL     1      15.494  43.216  -8.870  1.00  0.00     0.027 C 
BRANCH  11  12
HETATM   12  C7  UNL     1      16.921  43.603  -9.232  1.00  0.00     0.004 C 
BRANCH  12  13
HETATM   13  C8  UNL     1      17.478  42.673 -10.262  1.00  0.00     0.001 C 
BRANCH  13  14
HETATM   14  C9  UNL     1      16.502  41.548 -10.517  1.00  0.00     0.010 C 
BRANCH  14  15
HETATM   15  C10 UNL     1      16.220  41.338 -11.981  1.00  0.00     0.074 C 
BRANCH  15  16
HETATM   16  S1  UNL     1      15.890  39.607 -12.290  1.00  0.00    -0.164 SA
BRANCH  16  17
HETATM   17  C11 UNL     1      14.253  39.261 -12.928  1.00  0.00     0.047 C 
HETATM   18  C12 UNL     1      13.755  37.942 -12.312  1.00  0.00     0.015 C 
HETATM   19  C13 UNL     1      14.448  37.234 -13.455  1.00  0.00     0.002 C 
HETATM   20  C14 UNL     1      14.209  38.513 -14.267  1.00  0.00     0.015 C 
ENDBRANCH  16  17
ENDBRANCH  15  16
ENDBRANCH  14  15
ENDBRANCH  13  14
ENDBRANCH  12  13
ENDBRANCH  11  12
ENDBRANCH  10  11
ENDBRANCH   8   9
ENDBRANCH   2   8
BRANCH   1  21
HETATM   21  N1  UNL     1      13.257  40.400  -9.636  1.00  0.00    -0.070 N 
ATOM     22  H13 UNL     1      12.817  41.121 -10.207  1.00  0.00     0.274 HD
ATOM     23  H12 UNL     1      14.139  40.865  -9.420  1.00  0.00     0.274 HD
ATOM     24  H11 UNL     1      13.420  39.558 -10.187  1.00  0.00     0.274 HD
ENDBRANCH   1  21
BRANCH   7  25
HETATM   25  O3  UNL     1      12.379  37.864  -9.057  1.00  0.00    -0.391 OA
ATOM     26  H3  UNL     1      11.469  37.985  -9.304  1.00  0.00     0.210 HD
ENDBRANCH   7  25
BRANCH   5  27
HETATM   27  C16 UNL     1      10.489  39.345  -5.023  1.00  0.00     0.191 C 
BRANCH  27  28
HETATM   28  O1  UNL     1       9.786  40.560  -5.185  1.00  0.00    -0.399 OA
ATOM     29  H1  UNL     1      10.102  41.188  -4.546  1.00  0.00     0.209 HD
ENDBRANCH  27  28
ENDBRANCH   5  27
BRANCH   6  30
HETATM   30  O2  UNL     1      10.535  38.100  -7.257  1.00  0.00    -0.391 OA
ATOM     31  H2  UNL     1      10.332  38.517  -8.086  1.00  0.00     0.210 HD
ENDBRANCH   6  30
TORSDOF 14
ENDMDL
MODEL 3
REMARK VINA RESULT: -6.553953829      5.463     10.077
REMARK  14 active torsions:
REMARK  status: ('A' for Active; 'I' for Inactive)
REMARK    1  A    between atoms: N1_1  and  C1_5 
REMARK    2  A    between atoms: C2_6  and  C3_7 
REMARK    3  A    between atoms: C3_7  and  C4_8 
REMARK    4  A    between atoms: C5_9  and  C6_10 
REMARK    5  A    between atoms: C6_10  and  C7_11 
REMARK    6  A    between atoms: C7_11  and  C8_12 
REMARK    7  A    between atoms: C8_12  and  C9_13 
REMARK    8  A    between atoms: C9_13  and  C10_14 
REMARK    9  A    between atoms: C10_14  and  S1_15 
REMARK   10  A    between atoms: S1_15  and  C11_16 
REMARK   11  A    between atoms: C15_22  and  C16_23 
REMARK   12  A    between atoms: C16_23  and  O1_24 
REMARK   13  A    between atoms: C17_26  and  O2_27 
REMARK   14  A    between atoms: C18_29  and  O3_30 
ROOT
HETATM    1  C1  UNL     1      13.286  41.010  -8.514  1.00  0.00     0.236 C 
HETATM    2  C2  UNL     1      12.989  39.737  -9.253  1.00  0.00     0.113 C 
HETATM    3  N2  UNL     1      12.594  38.748  -8.272  1.00  0.00    -0.406 N 
ATOM      4  H2  UNL     1      13.090  37.862  -8.179  1.00  0.00     0.154 HD
HETATM    5  C15 UNL     1      11.495  39.063  -7.452  1.00  0.00     0.132 C 
HETATM    6  C17 UNL     1      11.393  40.485  -7.005  1.00  0.00     0.173 C 
HETATM    7  C18 UNL     1      11.926  41.482  -7.958  1.00  0.00     0.181 C 
ENDROOT
BRANCH   2   8
HETATM    8  C3  UNL     1      14.194  39.140  -9.957  1.00  0.00     0.053 C 
BRANCH   8   9
HETATM    9  C4  UNL     1      14.026  39.012 -11.395  1.00  0.00    -0.029 C 
HETATM   10  C5  UNL     1      13.639  37.957 -12.064  1.00  0.00    -0.031 C 
BRANCH  10  11
HETATM   11  C6  UNL     1      13.299  36.682 -11.437  1.00  0.00     0.027 C 
BRANCH  11  12
HETATM   12  C7  UNL     1      13.240  35.541 -12.442  1.00  0.00     0.004 C 
BRANCH  12  13
HETATM   13  C8  UNL     1      13.979  35.896 -13.693  1.00  0.00     0.001 C 
BRANCH  13  14
HETATM   14  C9  UNL     1      13.142  35.539 -14.900  1.00  0.00     0.010 C 
BRANCH  14  15
HETATM   15  C10 UNL     1      13.923  35.579 -16.186  1.00  0.00     0.074 C 
BRANCH  15  16
HETATM   16  S1  UNL     1      15.436  36.501 -15.944  1.00  0.00    -0.164 SA
BRANCH  16  17
HETATM   17  C11 UNL     1      15.457  38.118 -16.714  1.00  0.00     0.047 C 
HETATM   18  C12 UNL     1      15.706  39.176 -15.626  1.00  0.00     0.015 C 
HETATM   19  C13 UNL     1      14.209  39.200 -15.411  1.00  0.00     0.002 C 
HETATM   20  C14 UNL     1      14.087  38.788 -16.884  1.00  0.00     0.015 C 
ENDBRANCH  16  17
ENDBRANCH  15  16
ENDBRANCH  14  15
ENDBRANCH  13  14
ENDBRANCH  12  13
ENDBRANCH  11  12
ENDBRANCH  10  11
ENDBRANCH   8   9
ENDBRANCH   2   8
BRANCH   1  21
HETATM   21  N1  UNL     1      13.836  42.063  -9.350  1.00  0.00    -0.070 N 
ATOM     22  H13 UNL     1      14.551  42.585  -8.845  1.00  0.00     0.274 HD
ATOM     23  H12 UNL     1      14.407  41.665 -10.096  1.00  0.00     0.274 HD
ATOM     24  H11 UNL     1      13.135  42.696  -9.734  1.00  0.00     0.274 HD
ENDBRANCH   1  21
BRANCH   7  25
HETATM   25  O3  UNL     1      12.087  42.720  -7.339  1.00  0.00    -0.391 OA
ATOM     26  H3  UNL     1      11.234  43.117  -7.205  1.00  0.00     0.210 HD
ENDBRANCH   7  25
BRANCH   5  27
HETATM   27  C16 UNL     1      11.551  38.195  -6.207  1.00  0.00     0.191 C 
BRANCH  27  28
HETATM   28  O1  UNL     1      10.248  38.066  -5.677  1.00  0.00    -0.399 OA
ATOM     29  H1  UNL     1      10.200  38.540  -4.855  1.00  0.00     0.209 HD
ENDBRANCH  27  28
ENDBRANCH   5  27
BRANCH   6  30
HETATM   30  O2  UNL     1      11.964  40.678  -5.753  1.00  0.00    -0.391 OA
ATOM     31  H2  UNL     1      11.437  41.250  -5.207  1.00  0.00     0.210 HD
ENDBRANCH   6  30
TORSDOF 14
ENDMDL
MODEL 4
REMARK VINA RESULT: -6.539275596      1.908      2.457
REMARK  14 active torsions:
REMARK  status: ('A' for Active; 'I' for Inactive)
REMARK    1  A    between atoms: N1_1  and  C1_5 
REMARK    2  A    between atoms: C2_6  and  C3_7 
REMARK    3  A    between atoms: C3_7  and  C4_8 
REMARK    4  A    between atoms: C5_9  and  C6_10 
REMARK    5  A    between atoms: C6_10  and  C7_11 
REMARK    6  A    between atoms: C7_11  and  C8_12 
REMARK    7  A    between atoms: C8_12  and  C9_13 
REMARK    8  A    between atoms: C9_13  and  C10_14 
REMARK    9  A    between atoms: C10_14  and  S1_15 
REMARK   10  A    between atoms: S1_15  and  C11_16 
REMARK   11  A    between atoms: C15_22  and  C16_23 
REMARK   12  A    between atoms: C16_23  and  O1_24 
REMARK   13  A    between atoms: C17_26  and  O2_27 
REMARK   14  A    between atoms: C18_29  and  O3_30 
ROOT
HETATM    1  C1  UNL     1      13.749  38.188 -10.258  1.00  0.00     0.236 C 
HETATM    2  C2  UNL     1      13.769  39.605 -10.754  1.00  0.00     0.113 C 
HETATM    3  N2  UNL     1      14.983  39.778 -11.523  1.00  0.00    -0.406 N 
ATOM      4  H2  UNL     1      15.667  40.496 -11.283  1.00  0.00     0.154 HD
HETATM    5  C15 UNL     1      15.180  38.913 -12.615  1.00  0.00     0.132 C 
HETATM    6  C17 UNL     1      14.742  37.498 -12.420  1.00  0.00     0.173 C 
HETATM    7  C18 UNL     1      13.582  37.318 -11.521  1.00  0.00     0.181 C 
ENDROOT
BRANCH   2   8
HETATM    8  C3  UNL     1      13.845  40.642  -9.648  1.00  0.00     0.053 C 
BRANCH   8   9
HETATM    9  C4  UNL     1      12.582  41.313  -9.390  1.00  0.00    -0.029 C 
HETATM   10  C5  UNL     1      11.912  41.351  -8.268  1.00  0.00    -0.031 C 
BRANCH  10  11
HETATM   11  C6  UNL     1      12.351  40.690  -7.041  1.00  0.00     0.027 C 
BRANCH  11  12
HETATM   12  C7  UNL     1      11.183  40.178  -6.210  1.00  0.00     0.004 C 
BRANCH  12  13
HETATM   13  C8  UNL     1      11.240  38.690  -6.074  1.00  0.00     0.001 C 
BRANCH  13  14
HETATM   14  C9  UNL     1      10.818  38.288  -4.679  1.00  0.00     0.010 C 
BRANCH  14  15
HETATM   15  C10 UNL     1       9.344  38.477  -4.436  1.00  0.00     0.074 C 
BRANCH  15  16
HETATM   16  S1  UNL     1       9.062  38.860  -2.712  1.00  0.00    -0.164 SA
BRANCH  16  17
HETATM   17  C11 UNL     1      10.158  38.021  -1.570  1.00  0.00     0.047 C 
HETATM   18  C12 UNL     1       9.769  36.534  -1.520  1.00  0.00     0.015 C 
HETATM   19  C13 UNL     1       8.781  36.906  -0.437  1.00  0.00     0.002 C 
HETATM   20  C14 UNL     1       9.734  38.059  -0.096  1.00  0.00     0.015 C 
ENDBRANCH  16  17
ENDBRANCH  15  16
ENDBRANCH  14  15
ENDBRANCH  13  14
ENDBRANCH  12  13
ENDBRANCH  11  12
ENDBRANCH  10  11
ENDBRANCH   8   9
ENDBRANCH   2   8
BRANCH   1  21
HETATM   21  N1  UNL     1      12.657  37.897  -9.346  1.00  0.00    -0.070 N 
ATOM     22  H13 UNL     1      11.926  37.367  -9.820  1.00  0.00     0.274 HD
ATOM     23  H12 UNL     1      12.945  37.209  -8.650  1.00  0.00     0.274 HD
ATOM     24  H11 UNL     1      12.264  38.722  -8.893  1.00  0.00     0.274 HD
ENDBRANCH   1  21
BRANCH   7  25
HETATM   25  O3  UNL     1      13.450  35.982 -11.147  1.00  0.00    -0.391 OA
ATOM     26  H3  UNL     1      13.316  35.450 -11.923  1.00  0.00     0.210 HD
ENDBRANCH   7  25
BRANCH   5  27
HETATM   27  C16 UNL     1      16.658  38.891 -12.958  1.00  0.00     0.191 C 
BRANCH  27  28
HETATM   28  O1  UNL     1      17.394  39.389 -11.859  1.00  0.00    -0.399 OA
ATOM     29  H1  UNL     1      18.306  39.146 -11.961  1.00  0.00     0.209 HD
ENDBRANCH  27  28
ENDBRANCH   5  27
BRANCH   6  30
HETATM   30  O2  UNL     1      15.788  36.682 -12.006  1.00  0.00    -0.391 OA
ATOM     31  H2  UNL     1      16.023  36.043 -12.669  1.00  0.00     0.210 HD
ENDBRANCH   6  30
TORSDOF 14
ENDMDL
MODEL 5
REMARK VINA RESULT: -6.528244538      5.889      9.985
REMARK  14 active torsions:
REMARK  status: ('A' for Active; 'I' for Inactive)
REMARK    1  A    between atoms: N1_1  and  C1_5 
REMARK    2  A    between atoms: C2_6  and  C3_7 
REMARK    3  A    between atoms: C3_7  and  C4_8 
REMARK    4  A    between atoms: C5_9  and  C6_10 
REMARK    5  A    between atoms: C6_10  and  C7_11 
REMARK    6  A    between atoms: C7_11  and  C8_12 
REMARK    7  A    between atoms: C8_12  and  C9_13 
REMARK    8  A    between atoms: C9_13  and  C10_14 
REMARK    9  A    between atoms: C10_14  and  S1_15 
REMARK   10  A    between atoms: S1_15  and  C11_16 
REMARK   11  A    between atoms: C15_22  and  C16_23 
REMARK   12  A    between atoms: C16_23  and  O1_24 
REMARK   13  A    between atoms: C17_26  and  O2_27 
REMARK   14  A    between atoms: C18_29  and  O3_30 
ROOT
HETATM    1  C1  UNL     1      10.674  38.763  -5.178  1.00  0.00     0.236 C 
HETATM    2  C2  UNL     1      10.977  40.216  -5.401  1.00  0.00     0.113 C 
HETATM    3  N2  UNL     1       9.749  40.953  -5.185  1.00  0.00    -0.406 N 
ATOM      4  H2  UNL     1       9.353  41.551  -5.909  1.00  0.00     0.154 HD
HETATM    5  C15 UNL     1       9.127  40.807  -3.931  1.00  0.00     0.132 C 
HETATM    6  C17 UNL     1       9.167  39.439  -3.332  1.00  0.00     0.173 C 
HETATM    7  C18 UNL     1      10.364  38.640  -3.671  1.00  0.00     0.181 C 
ENDROOT
BRANCH   2   8
HETATM    8  C3  UNL     1      11.394  40.545  -6.823  1.00  0.00     0.053 C 
BRANCH   8   9
HETATM    9  C4  UNL     1      12.505  41.479  -6.904  1.00  0.00    -0.029 C 
HETATM   10  C5  UNL     1      13.140  41.874  -7.977  1.00  0.00    -0.031 C 
BRANCH  10  11
HETATM   11  C6  UNL     1      12.813  41.416  -9.325  1.00  0.00     0.027 C 
BRANCH  11  12
HETATM   12  C7  UNL     1      13.806  40.385  -9.842  1.00  0.00     0.004 C 
BRANCH  12  13
HETATM   13  C8  UNL     1      13.196  39.019  -9.855  1.00  0.00     0.001 C 
BRANCH  13  14
HETATM   14  C9  UNL     1      13.997  38.093  -8.968  1.00  0.00     0.010 C 
BRANCH  14  15
HETATM   15  C10 UNL     1      14.416  36.829  -9.669  1.00  0.00     0.074 C 
BRANCH  15  16
HETATM   16  S1  UNL     1      13.502  36.656 -11.197  1.00  0.00    -0.164 SA
BRANCH  16  17
HETATM   17  C11 UNL     1      14.520  36.427 -12.654  1.00  0.00     0.047 C 
HETATM   18  C12 UNL     1      15.323  37.715 -12.898  1.00  0.00     0.015 C 
HETATM   19  C13 UNL     1      14.139  38.215 -13.695  1.00  0.00     0.002 C 
HETATM   20  C14 UNL     1      13.838  36.740 -13.993  1.00  0.00     0.015 C 
ENDBRANCH  16  17
ENDBRANCH  15  16
ENDBRANCH  14  15
ENDBRANCH  13  14
ENDBRANCH  12  13
ENDBRANCH  11  12
ENDBRANCH  10  11
ENDBRANCH   8   9
ENDBRANCH   2   8
BRANCH   1  21
HETATM   21  N1  UNL     1      11.778  37.874  -5.498  1.00  0.00    -0.070 N 
ATOM     22  H13 UNL     1      11.602  36.938  -5.134  1.00  0.00     0.274 HD
ATOM     23  H12 UNL     1      11.794  37.670  -6.497  1.00  0.00     0.274 HD
ATOM     24  H11 UNL     1      12.687  38.214  -5.186  1.00  0.00     0.274 HD
ENDBRANCH   1  21
BRANCH   7  25
HETATM   25  O3  UNL     1      10.169  37.299  -3.348  1.00  0.00    -0.391 OA
ATOM     26  H3  UNL     1      10.242  36.772  -4.136  1.00  0.00     0.210 HD
ENDBRANCH   7  25
BRANCH   5  27
HETATM   27  C16 UNL     1       7.668  41.206  -4.063  1.00  0.00     0.191 C 
BRANCH  27  28
HETATM   28  O1  UNL     1       7.179  41.587  -2.792  1.00  0.00    -0.399 OA
ATOM     29  H1  UNL     1       7.865  42.044  -2.321  1.00  0.00     0.209 HD
ENDBRANCH  27  28
ENDBRANCH   5  27
BRANCH   6  30
HETATM   30  O2  UNL     1       8.018  38.712  -3.620  1.00  0.00    -0.391 OA
ATOM     31  H2  UNL     1       8.185  37.777  -3.635  1.00  0.00     0.210 HD
ENDBRANCH   6  30
TORSDOF 14
ENDMDL
