MODEL 1
REMARK VINA RESULT: -8.271282754      0.000      0.000
REMARK  10 active torsions:
REMARK  status: ('A' for Active; 'I' for Inactive)
REMARK    1  A    between atoms: N1_1  and  C1_4 
REMARK    2  A    between atoms: C2_9  and  C3_10 
REMARK    3  A    between atoms: C3_10  and  C4_11 
REMARK    4  A    between atoms: C4_11  and  C5_12 
REMARK    5  A    between atoms: C5_12  and  C6_13 
REMARK    6  A    between atoms: C6_13  and  C7_14 
REMARK    7  A    between atoms: C7_14  and  C8_15 
REMARK    8  A    between atoms: C8_15  and  C9_16 
REMARK    9  A    between atoms: C9_16  and  C10_17 
REMARK   10  A    between atoms: C10_17  and  N4_18 
ROOT
HETATM    1  C7  UNL     1      12.998  40.321  -9.443  1.00  0.00     0.000 C 
ENDROOT
BRANCH   1   2
HETATM    2  C6  UNL     1      12.192  40.780  -8.297  1.00  0.00     0.000 C 
BRANCH   2   3
HETATM    3  C5  UNL     1      12.416  40.209  -6.954  1.00  0.00     0.000 C 
BRANCH   3   4
HETATM    4  C4  UNL     1      11.108  39.951  -6.207  1.00  0.00     0.006 C 
BRANCH   4   5
HETATM    5  C3  UNL     1      11.005  38.613  -5.577  1.00  0.00     0.064 C 
BRANCH   5   6
HETATM    6  C2  UNL     1      10.627  38.603  -4.174  1.00  0.00     0.094 A 
HETATM    7  N3  UNL     1      11.495  38.949  -3.220  1.00  0.00    -0.285 N 
HETATM    8  N2  UNL     1      11.194  38.947  -1.929  1.00  0.00    -0.132 N 
ATOM      9  H3  UNL     1      12.436  39.227  -3.498  1.00  0.00     0.187 HD
HETATM   10  C1  UNL     1       9.970  38.589  -1.512  1.00  0.00     0.693 A 
ATOM     11  H2  UNL     1      11.900  39.221  -1.246  1.00  0.00     0.205 HD
HETATM   12  N9  UNL     1       9.062  38.231  -2.437  1.00  0.00    -0.153 N 
HETATM   13  C16 UNL     1       9.365  38.230  -3.761  1.00  0.00     0.283 A 
ATOM     14  H9  UNL     1       8.126  37.955  -2.138  1.00  0.00     0.187 HD
HETATM   15  O1  UNL     1       8.463  37.885  -4.565  1.00  0.00    -0.265 OA
BRANCH  10  16
HETATM   16  N1  UNL     1       9.698  38.595  -0.245  1.00  0.00    -0.233 N 
ATOM     17  H12 UNL     1      10.066  39.307   0.386  1.00  0.00     0.174 HD
ATOM     18  H11 UNL     1       9.096  37.869   0.145  1.00  0.00     0.174 HD
ENDBRANCH  10  16
ENDBRANCH   5   6
ENDBRANCH   4   5
ENDBRANCH   3   4
ENDBRANCH   2   3
ENDBRANCH   1   2
BRANCH   1  19
HETATM   19  C8  UNL     1      13.784  39.072  -9.377  1.00  0.00     0.002 C 
BRANCH  19  20
HETATM   20  C9  UNL     1      13.088  37.806  -9.673  1.00  0.00     0.020 C 
BRANCH  20  21
HETATM   21  C10 UNL     1      14.151  36.763 -10.109  1.00  0.00     0.121 C 
BRANCH  21  22
HETATM   22  N4  UNL     1      13.843  36.371 -11.464  1.00  0.00    -0.374 N 
HETATM   23  C11 UNL     1      14.725  36.383 -12.381  1.00  0.00     0.133 A 
HETATM   24  N5  UNL     1      16.004  36.754 -12.181  1.00  0.00    -0.337 N 
HETATM   25  C15 UNL     1      14.357  35.993 -13.661  1.00  0.00     0.122 A 
HETATM   26  C12 UNL     1      16.921  36.756 -13.175  1.00  0.00     0.183 A 
ATOM     27  H5  UNL     1      16.291  37.044 -11.246  1.00  0.00     0.168 HD
HETATM   28  N6  UNL     1      16.588  36.387 -14.404  1.00  0.00    -0.337 N 
HETATM   29  C13 UNL     1      15.308  36.007 -14.641  1.00  0.00     0.138 A 
ATOM     30  H6  UNL     1      17.279  36.389 -15.154  1.00  0.00     0.168 HD
HETATM   31  N7  UNL     1      14.725  35.599 -15.765  1.00  0.00    -0.337 N 
HETATM   32  C14 UNL     1      13.444  35.334 -15.506  1.00  0.00     0.182 A 
ATOM     33  H7  UNL     1      15.182  35.504 -16.672  1.00  0.00     0.168 HD
HETATM   34  N8  UNL     1      13.218  35.577 -14.209  1.00  0.00    -0.346 N 
ATOM     35  H8  UNL     1      12.327  35.463 -13.726  1.00  0.00     0.167 HD
ATOM     36  H4  UNL     1      12.893  36.077 -11.692  1.00  0.00     0.161 HD
ENDBRANCH  21  22
ENDBRANCH  20  21
ENDBRANCH  19  20
ENDBRANCH   1  19
TORSDOF 10
ENDMDL
MODEL 2
REMARK VINA RESULT: -8.194057574      0.778      1.783
REMARK  10 active torsions:
REMARK  status: ('A' for Active; 'I' for Inactive)
REMARK    1  A    between atoms: N1_1  and  C1_4 
REMARK    2  A    between atoms: C2_9  and  C3_10 
REMARK    3  A    between atoms: C3_10  and  C4_11 
REMARK    4  A    between atoms: C4_11  and  C5_12 
REMARK    5  A    between atoms: C5_12  and  C6_13 
REMARK    6  A    between atoms: C6_13  and  C7_14 
REMARK    7  A    between atoms: C7_14  and  C8_15 
REMARK    8  A    between atoms: C8_15  and  C9_16 
REMARK    9  A    between atoms: C9_16  and  C10_17 
REMARK   10  A    between atoms: C10_17  and  N4_18 
ROOT
HETATM    1  C7  UNL     1      13.017  40.797  -9.204  1.00  0.00     0.000 C 
ENDROOT
BRANCH   1   2
HETATM    2  C6  UNL     1      11.903  40.888  -8.242  1.00  0.00     0.000 C 
BRANCH   2   3
HETATM    3  C5  UNL     1      12.155  40.722  -6.797  1.00  0.00     0.000 C 
BRANCH   3   4
HETATM    4  C4  UNL     1      10.911  40.257  -6.041  1.00  0.00     0.006 C 
BRANCH   4   5
HETATM    5  C3  UNL     1      10.979  38.869  -5.525  1.00  0.00     0.064 C 
BRANCH   5   6
HETATM    6  C2  UNL     1      10.618  38.695  -4.128  1.00  0.00     0.094 A 
HETATM    7  N3  UNL     1      11.473  39.002  -3.148  1.00  0.00    -0.285 N 
HETATM    8  N2  UNL     1      11.186  38.853  -1.862  1.00  0.00    -0.132 N 
ATOM      9  H3  UNL     1      12.391  39.367  -3.401  1.00  0.00     0.187 HD
HETATM   10  C1  UNL     1       9.993  38.376  -1.478  1.00  0.00     0.693 A 
ATOM     11  H2  UNL     1      11.880  39.104  -1.158  1.00  0.00     0.205 HD
HETATM   12  N9  UNL     1       9.099  38.053  -2.430  1.00  0.00    -0.153 N 
HETATM   13  C16 UNL     1       9.388  38.203  -3.748  1.00  0.00     0.283 A 
ATOM     14  H9  UNL     1       8.187  37.688  -2.156  1.00  0.00     0.187 HD
HETATM   15  O1  UNL     1       8.501  37.880  -4.579  1.00  0.00    -0.265 OA
BRANCH  10  16
HETATM   16  N1  UNL     1       9.734  38.239  -0.215  1.00  0.00    -0.233 N 
ATOM     17  H12 UNL     1      10.456  37.999   0.464  1.00  0.00     0.174 HD
ATOM     18  H11 UNL     1       8.781  38.374   0.122  1.00  0.00     0.174 HD
ENDBRANCH  10  16
ENDBRANCH   5   6
ENDBRANCH   4   5
ENDBRANCH   3   4
ENDBRANCH   2   3
ENDBRANCH   1   2
BRANCH   1  19
HETATM   19  C8  UNL     1      13.395  39.511  -9.823  1.00  0.00     0.002 C 
BRANCH  19  20
HETATM   20  C9  UNL     1      13.948  38.462  -8.945  1.00  0.00     0.020 C 
BRANCH  20  21
HETATM   21  C10 UNL     1      13.851  37.107  -9.694  1.00  0.00     0.121 C 
BRANCH  21  22
HETATM   22  N4  UNL     1      14.899  37.084 -10.687  1.00  0.00    -0.374 N 
HETATM   23  C11 UNL     1      14.700  36.633 -11.859  1.00  0.00     0.133 A 
HETATM   24  N5  UNL     1      13.518  36.143 -12.280  1.00  0.00    -0.337 N 
HETATM   25  C15 UNL     1      15.754  36.642 -12.762  1.00  0.00     0.122 A 
HETATM   26  C12 UNL     1      13.336  35.669 -13.533  1.00  0.00     0.183 A 
ATOM     27  H5  UNL     1      12.733  36.128 -11.629  1.00  0.00     0.168 HD
HETATM   28  N6  UNL     1      14.331  35.670 -14.410  1.00  0.00    -0.337 N 
HETATM   29  C13 UNL     1      15.536  36.157 -14.019  1.00  0.00     0.138 A 
ATOM     30  H6  UNL     1      14.194  35.313 -15.355  1.00  0.00     0.168 HD
HETATM   31  N7  UNL     1      16.677  36.269 -14.692  1.00  0.00    -0.337 N 
HETATM   32  C14 UNL     1      17.593  36.809 -13.887  1.00  0.00     0.182 A 
ATOM     33  H7  UNL     1      16.827  35.989 -15.661  1.00  0.00     0.168 HD
HETATM   34  N8  UNL     1      17.023  37.039 -12.697  1.00  0.00    -0.346 N 
ATOM     35  H8  UNL     1      17.482  37.447 -11.883  1.00  0.00     0.167 HD
ATOM     36  H4  UNL     1      15.823  37.439 -10.441  1.00  0.00     0.161 HD
ENDBRANCH  21  22
ENDBRANCH  20  21
ENDBRANCH  19  20
ENDBRANCH   1  19
TORSDOF 10
ENDMDL
MODEL 3
REMARK VINA RESULT: -8.126472623      3.943      6.433
REMARK  10 active torsions:
REMARK  status: ('A' for Active; 'I' for Inactive)
REMARK    1  A    between atoms: N1_1  and  C1_4 
REMARK    2  A    between atoms: C2_9  and  C3_10 
REMARK    3  A    between atoms: C3_10  and  C4_11 
REMARK    4  A    between atoms: C4_11  and  C5_12 
REMARK    5  A    between atoms: C5_12  and  C6_13 
REMARK    6  A    between atoms: C6_13  and  C7_14 
REMARK    7  A    between atoms: C7_14  and  C8_15 
REMARK    8  A    between atoms: C8_15  and  C9_16 
REMARK    9  A    between atoms: C9_16  and  C10_17 
REMARK   10  A    between atoms: C10_17  and  N4_18 
ROOT
HETATM    1  C7  UNL     1      13.480  37.465 -12.247  1.00  0.00     0.000 C 
ENDROOT
BRANCH   1   2
HETATM    2  C6  UNL     1      13.248  36.976 -10.875  1.00  0.00     0.000 C 
BRANCH   2   3
HETATM    3  C5  UNL     1      14.375  36.855  -9.929  1.00  0.00     0.000 C 
BRANCH   3   4
HETATM    4  C4  UNL     1      14.223  37.781  -8.724  1.00  0.00     0.006 C 
BRANCH   4   5
HETATM    5  C3  UNL     1      12.967  38.566  -8.696  1.00  0.00     0.064 C 
BRANCH   5   6
HETATM    6  C2  UNL     1      12.360  38.744  -7.387  1.00  0.00     0.094 A 
HETATM    7  N3  UNL     1      12.413  37.782  -6.463  1.00  0.00    -0.285 N 
HETATM    8  N2  UNL     1      11.869  37.901  -5.260  1.00  0.00    -0.132 N 
ATOM      9  H3  UNL     1      12.895  36.913  -6.693  1.00  0.00     0.187 HD
HETATM   10  C1  UNL     1      11.224  39.024  -4.908  1.00  0.00     0.693 A 
ATOM     11  H2  UNL     1      11.941  37.131  -4.595  1.00  0.00     0.205 HD
HETATM   12  N9  UNL     1      11.144  40.020  -5.808  1.00  0.00    -0.153 N 
HETATM   13  C16 UNL     1      11.700  39.904  -7.042  1.00  0.00     0.283 A 
ATOM     14  H9  UNL     1      10.657  40.881  -5.558  1.00  0.00     0.187 HD
HETATM   15  O1  UNL     1      11.584  40.879  -7.827  1.00  0.00    -0.265 OA
BRANCH  10  16
HETATM   16  N1  UNL     1      10.699  39.118  -3.726  1.00  0.00    -0.233 N 
ATOM     17  H12 UNL     1      10.945  39.871  -3.083  1.00  0.00     0.174 HD
ATOM     18  H11 UNL     1      10.018  38.424  -3.420  1.00  0.00     0.174 HD
ENDBRANCH  10  16
ENDBRANCH   5   6
ENDBRANCH   4   5
ENDBRANCH   3   4
ENDBRANCH   2   3
ENDBRANCH   1   2
BRANCH   1  19
HETATM   19  C8  UNL     1      14.563  38.422 -12.548  1.00  0.00     0.002 C 
BRANCH  19  20
HETATM   20  C9  UNL     1      14.363  39.831 -12.157  1.00  0.00     0.020 C 
BRANCH  20  21
HETATM   21  C10 UNL     1      15.592  40.278 -11.322  1.00  0.00     0.121 C 
BRANCH  21  22
HETATM   22  N4  UNL     1      15.098  41.030 -10.192  1.00  0.00    -0.374 N 
HETATM   23  C11 UNL     1      15.734  42.025  -9.721  1.00  0.00     0.133 A 
HETATM   24  N5  UNL     1      16.906  42.464 -10.218  1.00  0.00    -0.337 N 
HETATM   25  C15 UNL     1      15.199  42.701  -8.633  1.00  0.00     0.122 A 
HETATM   26  C12 UNL     1      17.561  43.526  -9.697  1.00  0.00     0.183 A 
ATOM     27  H5  UNL     1      17.314  41.979 -11.017  1.00  0.00     0.168 HD
HETATM   28  N6  UNL     1      17.066  44.185  -8.658  1.00  0.00    -0.337 N 
HETATM   29  C13 UNL     1      15.887  43.769  -8.132  1.00  0.00     0.138 A 
ATOM     30  H6  UNL     1      17.559  44.985  -8.264  1.00  0.00     0.168 HD
HETATM   31  N7  UNL     1      15.185  44.246  -7.108  1.00  0.00    -0.337 N 
HETATM   32  C14 UNL     1      14.087  43.505  -6.963  1.00  0.00     0.182 A 
ATOM     33  H7  UNL     1      15.444  45.046  -6.530  1.00  0.00     0.168 HD
HETATM   34  N8  UNL     1      14.096  42.552  -7.904  1.00  0.00    -0.346 N 
ATOM     35  H8  UNL     1      13.381  41.837  -8.039  1.00  0.00     0.167 HD
ATOM     36  H4  UNL     1      14.215  40.756  -9.761  1.00  0.00     0.161 HD
ENDBRANCH  21  22
ENDBRANCH  20  21
ENDBRANCH  19  20
ENDBRANCH   1  19
TORSDOF 10
ENDMDL
MODEL 4
REMARK VINA RESULT: -8.102635230      1.299      1.849
REMARK  10 active torsions:
REMARK  status: ('A' for Active; 'I' for Inactive)
REMARK    1  A    between atoms: N1_1  and  C1_4 
REMARK    2  A    between atoms: C2_9  and  C3_10 
REMARK    3  A    between atoms: C3_10  and  C4_11 
REMARK    4  A    between atoms: C4_11  and  C5_12 
REMARK    5  A    between atoms: C5_12  and  C6_13 
REMARK    6  A    between atoms: C6_13  and  C7_14 
REMARK    7  A    between atoms: C7_14  and  C8_15 
REMARK    8  A    between atoms: C8_15  and  C9_16 
REMARK    9  A    between atoms: C9_16  and  C10_17 
REMARK   10  A    between atoms: C10_17  and  N4_18 
ROOT
HETATM    1  C7  UNL     1      12.332  40.951  -8.659  1.00  0.00     0.000 C 
ENDROOT
BRANCH   1   2
HETATM    2  C6  UNL     1      12.457  40.221  -7.384  1.00  0.00     0.000 C 
BRANCH   2   3
HETATM    3  C5  UNL     1      12.548  38.747  -7.377  1.00  0.00     0.000 C 
BRANCH   3   4
HETATM    4  C4  UNL     1      11.792  38.124  -6.205  1.00  0.00     0.006 C 
BRANCH   4   5
HETATM    5  C3  UNL     1      10.810  39.021  -5.551  1.00  0.00     0.064 C 
BRANCH   5   6
HETATM    6  C2  UNL     1      10.544  38.753  -4.147  1.00  0.00     0.094 A 
HETATM    7  N3  UNL     1      11.440  39.052  -3.203  1.00  0.00    -0.285 N 
HETATM    8  N2  UNL     1      11.241  38.819  -1.913  1.00  0.00    -0.132 N 
ATOM      9  H3  UNL     1      12.321  39.481  -3.488  1.00  0.00     0.187 HD
HETATM   10  C1  UNL     1      10.100  38.257  -1.488  1.00  0.00     0.693 A 
ATOM     11  H2  UNL     1      11.963  39.069  -1.238  1.00  0.00     0.205 HD
HETATM   12  N9  UNL     1       9.168  37.937  -2.403  1.00  0.00    -0.153 N 
HETATM   13  C16 UNL     1       9.367  38.173  -3.726  1.00  0.00     0.283 A 
ATOM     14  H9  UNL     1       8.294  37.508  -2.098  1.00  0.00     0.187 HD
HETATM   15  O1  UNL     1       8.449  37.847  -4.520  1.00  0.00    -0.265 OA
BRANCH  10  16
HETATM   16  N1  UNL     1       9.926  38.038  -0.222  1.00  0.00    -0.233 N 
ATOM     17  H12 UNL     1      10.116  37.130   0.203  1.00  0.00     0.174 HD
ATOM     18  H11 UNL     1       9.590  38.791   0.379  1.00  0.00     0.174 HD
ENDBRANCH  10  16
ENDBRANCH   5   6
ENDBRANCH   4   5
ENDBRANCH   3   4
ENDBRANCH   2   3
ENDBRANCH   1   2
BRANCH   1  19
HETATM   19  C8  UNL     1      13.248  40.689  -9.786  1.00  0.00     0.002 C 
BRANCH  19  20
HETATM   20  C9  UNL     1      14.653  41.119  -9.645  1.00  0.00     0.020 C 
BRANCH  20  21
HETATM   21  C10 UNL     1      15.491  40.390 -10.728  1.00  0.00     0.121 C 
BRANCH  21  22
HETATM   22  N4  UNL     1      14.768  39.199 -11.107  1.00  0.00    -0.374 N 
HETATM   23  C11 UNL     1      15.275  38.327 -11.883  1.00  0.00     0.133 A 
HETATM   24  N5  UNL     1      16.508  38.429 -12.415  1.00  0.00    -0.337 N 
HETATM   25  C15 UNL     1      14.522  37.206 -12.204  1.00  0.00     0.122 A 
HETATM   26  C12 UNL     1      17.021  37.485 -13.237  1.00  0.00     0.183 A 
ATOM     27  H5  UNL     1      17.075  39.246 -12.189  1.00  0.00     0.168 HD
HETATM   28  N6  UNL     1      16.317  36.408 -13.555  1.00  0.00    -0.337 N 
HETATM   29  C13 UNL     1      15.071  36.274 -13.036  1.00  0.00     0.138 A 
ATOM     30  H6  UNL     1      16.704  35.696 -14.175  1.00  0.00     0.168 HD
HETATM   31  N7  UNL     1      14.173  35.305 -13.194  1.00  0.00    -0.337 N 
HETATM   32  C14 UNL     1      13.087  35.614 -12.484  1.00  0.00     0.182 A 
ATOM     33  H7  UNL     1      14.294  34.468 -13.763  1.00  0.00     0.168 HD
HETATM   34  N8  UNL     1      13.303  36.786 -11.873  1.00  0.00    -0.346 N 
ATOM     35  H8  UNL     1      12.648  37.271 -11.262  1.00  0.00     0.167 HD
ATOM     36  H4  UNL     1      13.827  39.052 -10.743  1.00  0.00     0.161 HD
ENDBRANCH  21  22
ENDBRANCH  20  21
ENDBRANCH  19  20
ENDBRANCH   1  19
TORSDOF 10
ENDMDL
MODEL 5
REMARK VINA RESULT: -8.038060637      1.032      1.317
REMARK  10 active torsions:
REMARK  status: ('A' for Active; 'I' for Inactive)
REMARK    1  A    between atoms: N1_1  and  C1_4 
REMARK    2  A    between atoms: C2_9  and  C3_10 
REMARK    3  A    between atoms: C3_10  and  C4_11 
REMARK    4  A    between atoms: C4_11  and  C5_12 
REMARK    5  A    between atoms: C5_12  and  C6_13 
REMARK    6  A    between atoms: C6_13  and  C7_14 
REMARK    7  A    between atoms: C7_14  and  C8_15 
REMARK    8  A    between atoms: C8_15  and  C9_16 
REMARK    9  A    between atoms: C9_16  and  C10_17 
REMARK   10  A    between atoms: C10_17  and  N4_18 
ROOT
HETATM    1  C7  UNL     1      13.048  38.741  -9.229  1.00  0.00     0.000 C 
ENDROOT
BRANCH   1   2
HETATM    2  C6  UNL     1      12.625  38.812  -7.818  1.00  0.00     0.000 C 
BRANCH   2   3
HETATM    3  C5  UNL     1      12.255  40.109  -7.218  1.00  0.00     0.000 C 
BRANCH   3   4
HETATM    4  C4  UNL     1      11.141  39.972  -6.181  1.00  0.00     0.006 C 
BRANCH   4   5
HETATM    5  C3  UNL     1      11.018  38.625  -5.574  1.00  0.00     0.064 C 
BRANCH   5   6
HETATM    6  C2  UNL     1      10.634  38.595  -4.172  1.00  0.00     0.094 A 
HETATM    7  N3  UNL     1      11.500  38.923  -3.210  1.00  0.00    -0.285 N 
HETATM    8  N2  UNL     1      11.194  38.904  -1.921  1.00  0.00    -0.132 N 
ATOM      9  H3  UNL     1      12.444  39.202  -3.480  1.00  0.00     0.187 HD
HETATM   10  C1  UNL     1       9.967  38.545  -1.514  1.00  0.00     0.693 A 
ATOM     11  H2  UNL     1      11.898  39.164  -1.231  1.00  0.00     0.205 HD
HETATM   12  N9  UNL     1       9.061  38.205  -2.448  1.00  0.00    -0.153 N 
HETATM   13  C16 UNL     1       9.370  38.222  -3.771  1.00  0.00     0.283 A 
ATOM     14  H9  UNL     1       8.123  37.928  -2.157  1.00  0.00     0.187 HD
HETATM   15  O1  UNL     1       8.469  37.892  -4.583  1.00  0.00    -0.265 OA
BRANCH  10  16
HETATM   16  N1  UNL     1       9.690  38.533  -0.248  1.00  0.00    -0.233 N 
ATOM     17  H12 UNL     1       8.752  38.726   0.104  1.00  0.00     0.174 HD
ATOM     18  H11 UNL     1      10.425  38.325   0.428  1.00  0.00     0.174 HD
ENDBRANCH  10  16
ENDBRANCH   5   6
ENDBRANCH   4   5
ENDBRANCH   3   4
ENDBRANCH   2   3
ENDBRANCH   1   2
BRANCH   1  19
HETATM   19  C8  UNL     1      13.412  37.455  -9.857  1.00  0.00     0.002 C 
BRANCH  19  20
HETATM   20  C9  UNL     1      13.355  37.369 -11.329  1.00  0.00     0.020 C 
BRANCH  20  21
HETATM   21  C10 UNL     1      13.730  35.921 -11.741  1.00  0.00     0.121 C 
BRANCH  21  22
HETATM   22  N4  UNL     1      13.500  35.802 -13.162  1.00  0.00    -0.374 N 
HETATM   23  C11 UNL     1      14.432  35.978 -14.009  1.00  0.00     0.133 A 
HETATM   24  N5  UNL     1      15.698  36.289 -13.670  1.00  0.00    -0.337 N 
HETATM   25  C15 UNL     1      14.137  35.847 -15.358  1.00  0.00     0.122 A 
HETATM   26  C12 UNL     1      16.670  36.471 -14.592  1.00  0.00     0.183 A 
ATOM     27  H5  UNL     1      15.932  36.389 -12.682  1.00  0.00     0.168 HD
HETATM   28  N6  UNL     1      16.408  36.349 -15.886  1.00  0.00    -0.337 N 
HETATM   29  C13 UNL     1      15.142  36.038 -16.263  1.00  0.00     0.138 A 
ATOM     30  H6  UNL     1      17.140  36.487 -16.582  1.00  0.00     0.168 HD
HETATM   31  N7  UNL     1      14.624  35.861 -17.475  1.00  0.00    -0.337 N 
HETATM   32  C14 UNL     1      13.330  35.567 -17.344  1.00  0.00     0.182 A 
ATOM     33  H7  UNL     1      15.132  35.937 -18.356  1.00  0.00     0.168 HD
HETATM   34  N8  UNL     1      13.031  35.559 -16.039  1.00  0.00    -0.346 N 
ATOM     35  H8  UNL     1      12.114  35.365 -15.637  1.00  0.00     0.167 HD
ATOM     36  H4  UNL     1      12.564  35.569 -13.495  1.00  0.00     0.161 HD
ENDBRANCH  21  22
ENDBRANCH  20  21
ENDBRANCH  19  20
ENDBRANCH   1  19
TORSDOF 10
ENDMDL
