MODEL 1
REMARK VINA RESULT: -5.969596282      0.000      0.000
REMARK  1 active torsions:
REMARK  status: ('A' for Active; 'I' for Inactive)
REMARK    1  A    between atoms: C4_4  and  N1_5 
ROOT
HETATM    1  C1  UNL     1      19.619   9.921  16.763  1.00  0.00     0.027 C 
HETATM    2  C2  UNL     1      19.642  10.775  15.521  1.00  0.00     0.004 C 
HETATM    3  C3  UNL     1      18.554  11.822  15.525  1.00  0.00     0.027 C 
HETATM    4  C4  UNL     1      18.600  12.669  16.779  1.00  0.00     0.107 C 
HETATM    5  C10 UNL     1      17.990  11.882  17.891  1.00  0.00     0.257 C 
HETATM    6  N2  UNL     1      18.969  11.241  18.737  1.00  0.00    -0.073 N 
ATOM      7  H21 UNL     1      18.529  10.551  19.345  1.00  0.00     0.277 HD
ATOM      8  H22 UNL     1      19.319  11.888  19.444  1.00  0.00     0.277 HD
HETATM    9  C11 UNL     1      20.060  10.651  17.992  1.00  0.00     0.232 C 
ENDROOT
BRANCH   4  10
HETATM   10  N1  UNL     1      17.769  13.816  16.537  1.00  0.00    -0.382 N 
HETATM   11  C5  UNL     1      17.954  14.869  17.217  1.00  0.00     0.042 C 
HETATM   12  C6  UNL     1      17.124  16.093  17.014  1.00  0.00     0.064 C 
HETATM   13  S1  UNL     1      19.230  14.952  18.467  1.00  0.00    -0.117 SA
HETATM   14  C7  UNL     1      17.998  17.290  17.232  1.00  0.00     0.007 C 
HETATM   15  C8  UNL     1      18.247  17.523  18.704  1.00  0.00     0.011 C 
HETATM   16  C9  UNL     1      19.254  16.553  19.267  1.00  0.00     0.080 C 
ATOM     17  H1  UNL     1      17.038  13.782  15.827  1.00  0.00     0.160 HD
ENDBRANCH   4  10
TORSDOF 1
ENDMDL
MODEL 2
REMARK VINA RESULT: -5.748826334      0.989      1.184
REMARK  1 active torsions:
REMARK  status: ('A' for Active; 'I' for Inactive)
REMARK    1  A    between atoms: C4_4  and  N1_5 
ROOT
HETATM    1  C1  UNL     1      19.510   9.892  16.717  1.00  0.00     0.027 C 
HETATM    2  C2  UNL     1      19.560  10.953  15.647  1.00  0.00     0.004 C 
HETATM    3  C3  UNL     1      18.678  12.135  15.970  1.00  0.00     0.027 C 
HETATM    4  C4  UNL     1      18.995  12.711  17.334  1.00  0.00     0.107 C 
HETATM    5  C10 UNL     1      18.369  11.830  18.364  1.00  0.00     0.257 C 
HETATM    6  N2  UNL     1      19.298  10.897  18.954  1.00  0.00    -0.073 N 
ATOM      7  H21 UNL     1      18.806  10.180  19.487  1.00  0.00     0.277 HD
ATOM      8  H22 UNL     1      19.824  11.335  19.711  1.00  0.00     0.277 HD
HETATM    9  C11 UNL     1      20.191  10.298  17.986  1.00  0.00     0.232 C 
ENDROOT
BRANCH   4  10
HETATM   10  N1  UNL     1      18.358  13.997  17.401  1.00  0.00    -0.382 N 
HETATM   11  C5  UNL     1      18.850  14.893  18.150  1.00  0.00     0.042 C 
HETATM   12  C6  UNL     1      18.234  16.249  18.264  1.00  0.00     0.064 C 
HETATM   13  S1  UNL     1      20.320  14.584  19.120  1.00  0.00    -0.117 SA
HETATM   14  C7  UNL     1      19.337  17.247  18.443  1.00  0.00     0.007 C 
HETATM   15  C8  UNL     1      19.881  17.213  19.852  1.00  0.00     0.011 C 
HETATM   16  C9  UNL     1      20.777  16.023  20.084  1.00  0.00     0.080 C 
ATOM     17  H1  UNL     1      17.519  14.186  16.852  1.00  0.00     0.160 HD
ENDBRANCH   4  10
TORSDOF 1
ENDMDL
MODEL 3
REMARK VINA RESULT: -5.636195261      1.647      2.586
REMARK  1 active torsions:
REMARK  status: ('A' for Active; 'I' for Inactive)
REMARK    1  A    between atoms: C4_4  and  N1_5 
ROOT
HETATM    1  C1  UNL     1      19.415   9.528  17.815  1.00  0.00     0.027 C 
HETATM    2  C2  UNL     1      18.842  10.228  19.021  1.00  0.00     0.004 C 
HETATM    3  C3  UNL     1      19.585  11.499  19.355  1.00  0.00     0.027 C 
HETATM    4  C4  UNL     1      19.664  12.428  18.163  1.00  0.00     0.107 C 
HETATM    5  C10 UNL     1      20.730  11.920  17.249  1.00  0.00     0.257 C 
HETATM    6  N2  UNL     1      20.211  11.150  16.143  1.00  0.00    -0.073 N 
ATOM      7  H21 UNL     1      20.960  10.647  15.668  1.00  0.00     0.277 HD
ATOM      8  H22 UNL     1      19.911  11.761  15.383  1.00  0.00     0.277 HD
HETATM    9  C11 UNL     1      19.148  10.249  16.531  1.00  0.00     0.232 C 
ENDROOT
BRANCH   4  10
HETATM   10  N1  UNL     1      20.078  13.710  18.661  1.00  0.00    -0.382 N 
HETATM   11  C5  UNL     1      19.426  14.745  18.327  1.00  0.00     0.042 C 
HETATM   12  C6  UNL     1      19.807  16.105  18.812  1.00  0.00     0.064 C 
HETATM   13  S1  UNL     1      18.001  14.634  17.252  1.00  0.00    -0.117 SA
HETATM   14  C7  UNL     1      18.550  16.896  19.011  1.00  0.00     0.007 C 
HETATM   15  C8  UNL     1      17.983  17.362  17.692  1.00  0.00     0.011 C 
HETATM   16  C9  UNL     1      17.289  16.249  16.950  1.00  0.00     0.080 C 
ATOM     17  H1  UNL     1      20.889  13.787  19.275  1.00  0.00     0.160 HD
ENDBRANCH   4  10
TORSDOF 1
ENDMDL
MODEL 4
REMARK VINA RESULT: -5.477334613      2.034      3.234
REMARK  1 active torsions:
REMARK  status: ('A' for Active; 'I' for Inactive)
REMARK    1  A    between atoms: C4_4  and  N1_5 
ROOT
HETATM    1  C1  UNL     1      19.161  10.023  17.256  1.00  0.00     0.027 C 
HETATM    2  C2  UNL     1      18.731  10.669  18.549  1.00  0.00     0.004 C 
HETATM    3  C3  UNL     1      19.853  11.436  19.207  1.00  0.00     0.027 C 
HETATM    4  C4  UNL     1      20.467  12.446  18.262  1.00  0.00     0.107 C 
HETATM    5  C10 UNL     1      21.375  11.715  17.330  1.00  0.00     0.257 C 
HETATM    6  N2  UNL     1      20.771  11.440  16.048  1.00  0.00    -0.073 N 
ATOM      7  H21 UNL     1      21.326  10.766  15.521  1.00  0.00     0.277 HD
ATOM      8  H22 UNL     1      20.852  12.245  15.426  1.00  0.00     0.277 HD
HETATM    9  C11 UNL     1      19.395  11.005  16.152  1.00  0.00     0.232 C 
ENDROOT
BRANCH   4  10
HETATM   10  N1  UNL     1      21.269  13.330  19.062  1.00  0.00    -0.382 N 
HETATM   11  C5  UNL     1      20.862  14.510  19.279  1.00  0.00     0.042 C 
HETATM   12  C6  UNL     1      21.650  15.476  20.102  1.00  0.00     0.064 C 
HETATM   13  S1  UNL     1      19.309  15.091  18.610  1.00  0.00    -0.117 SA
HETATM   14  C7  UNL     1      20.685  16.334  20.862  1.00  0.00     0.007 C 
HETATM   15  C8  UNL     1      20.061  17.378  19.966  1.00  0.00     0.011 C 
HETATM   16  C9  UNL     1      18.997  16.792  19.072  1.00  0.00     0.080 C 
ATOM     17  H1  UNL     1      22.157  13.010  19.451  1.00  0.00     0.160 HD
ENDBRANCH   4  10
TORSDOF 1
ENDMDL
MODEL 5
REMARK VINA RESULT: -5.438191009      2.007      2.432
REMARK  1 active torsions:
REMARK  status: ('A' for Active; 'I' for Inactive)
REMARK    1  A    between atoms: C4_4  and  N1_5 
ROOT
HETATM    1  C1  UNL     1      19.284  10.131  15.904  1.00  0.00     0.027 C 
HETATM    2  C2  UNL     1      19.164  11.521  15.332  1.00  0.00     0.004 C 
HETATM    3  C3  UNL     1      18.550  12.493  16.311  1.00  0.00     0.027 C 
HETATM    4  C4  UNL     1      19.291  12.500  17.630  1.00  0.00     0.107 C 
HETATM    5  C10 UNL     1      18.872  11.294  18.403  1.00  0.00     0.257 C 
HETATM    6  N2  UNL     1      19.811  10.202  18.307  1.00  0.00    -0.073 N 
ATOM      7  H21 UNL     1      19.402   9.338  18.661  1.00  0.00     0.277 HD
ATOM      8  H22 UNL     1      20.570  10.314  18.979  1.00  0.00     0.277 HD
HETATM    9  C11 UNL     1      20.329  10.017  16.969  1.00  0.00     0.232 C 
ENDROOT
BRANCH   4  10
HETATM   10  N1  UNL     1      18.852  13.664  18.348  1.00  0.00    -0.382 N 
HETATM   11  C5  UNL     1      19.688  14.314  19.044  1.00  0.00     0.042 C 
HETATM   12  C6  UNL     1      19.294  15.532  19.813  1.00  0.00     0.064 C 
HETATM   13  S1  UNL     1      21.401  13.809  19.145  1.00  0.00    -0.117 SA
HETATM   14  C7  UNL     1      20.446  16.489  19.792  1.00  0.00     0.007 C 
HETATM   15  C8  UNL     1      21.533  16.056  20.748  1.00  0.00     0.011 C 
HETATM   16  C9  UNL     1      22.341  14.907  20.202  1.00  0.00     0.080 C 
ATOM     17  H1  UNL     1      17.878  13.963  18.299  1.00  0.00     0.160 HD
ENDBRANCH   4  10
TORSDOF 1
ENDMDL
