MODEL 1
REMARK VINA RESULT: -7.891496287      0.000      0.000
REMARK  5 active torsions:
REMARK  status: ('A' for Active; 'I' for Inactive)
REMARK    1  A    between atoms: C1_4  and  C2_6 
REMARK    2  A    between atoms: C3_7  and  C4_8 
REMARK    3  A    between atoms: N3_9  and  N4_11 
REMARK    4  A    between atoms: C6_13  and  C7_14 
REMARK    5  A    between atoms: N10_31  and  N11_32 
ROOT
HETATM    1  C2  UNL     1       0.800  -2.184  21.808  1.00  0.00     0.114 A 
HETATM    2  C3  UNL     1       0.769  -2.165  20.425  1.00  0.00     0.042 A 
HETATM    3  C9  UNL     1       0.135  -1.062  19.808  1.00  0.00     0.078 A 
HETATM    4  N8  UNL     1       0.084  -1.027  18.472  1.00  0.00    -0.296 N 
ATOM      5  H8  UNL     1       0.503  -1.790  17.939  1.00  0.00     0.187 HD
HETATM    6  N9  UNL     1      -0.484  -0.046  17.831  1.00  0.00    -0.266 N 
ATOM      7  H9  UNL     1      -0.505  -0.050  16.812  1.00  0.00     0.190 HD
HETATM    8  C10 UNL     1      -1.040   0.969  18.505  1.00  0.00     0.260 A 
HETATM    9  O2  UNL     1      -1.579   1.898  17.861  1.00  0.00    -0.267 OA
HETATM   10  C11 UNL     1      -1.032   1.010  19.877  1.00  0.00     0.095 A 
HETATM   11  C12 UNL     1      -0.421  -0.046  20.542  1.00  0.00     0.068 A 
HETATM   12  C13 UNL     1      -0.367  -0.089  21.892  1.00  0.00     0.279 A 
HETATM   13  O3  UNL     1      -0.867   0.834  22.596  1.00  0.00    -0.265 OA
HETATM   14  N10 UNL     1       0.227  -1.132  22.495  1.00  0.00    -0.222 N 
ENDROOT
BRANCH   2  15
HETATM   15  C4  UNL     1       1.533  -3.052  19.573  1.00  0.00     0.124 C 
HETATM   16  N3  UNL     1       2.745  -3.103  19.277  1.00  0.00    -0.296 N 
ATOM     17  H3  UNL     1       3.352  -2.399  19.699  1.00  0.00     0.187 HD
BRANCH  16  18
HETATM   18  N4  UNL     1       3.350  -4.029  18.429  1.00  0.00    -0.221 N 
HETATM   19  C5  UNL     1       2.684  -4.286  17.166  1.00  0.00     0.181 C 
HETATM   20  C6  UNL     1       3.674  -4.754  16.144  1.00  0.00     0.112 C 
HETATM   21  C8  UNL     1       5.049  -4.280  16.563  1.00  0.00     0.147 C 
HETATM   22  N6  UNL     1       5.446  -4.839  17.835  1.00  0.00    -0.124 NA
HETATM   23  N7  UNL     1       4.522  -4.625  18.843  1.00  0.00    -0.013 NA
BRANCH  20  24
HETATM   24  C7  UNL     1       3.682  -6.212  15.962  1.00  0.00     0.238 C 
HETATM   25  N5  UNL     1       2.702  -7.063  16.519  1.00  0.00    -0.062 NA
HETATM   26  O1  UNL     1       4.596  -6.748  15.283  1.00  0.00    -0.276 OA
ENDBRANCH  20  24
ENDBRANCH  16  18
ENDBRANCH   2  15
BRANCH   1  27
HETATM   27  C1  UNL     1       1.149  -3.349  22.584  1.00  0.00     0.140 C 
HETATM   28  N1  UNL     1       0.545  -4.423  22.638  1.00  0.00    -0.386 N 
ATOM     29  H12 UNL     1       0.792  -5.247  23.187  1.00  0.00     0.157 HD
ATOM     30  H11 UNL     1      -0.376  -4.391  22.201  1.00  0.00     0.157 HD
HETATM   31  N2  UNL     1       2.466  -3.396  23.211  1.00  0.00    -0.081 NA
ENDBRANCH   1  27
BRANCH  14  32
HETATM   32  N11 UNL     1       0.240  -1.151  23.890  1.00  0.00    -0.335 N 
ATOM     33 2H11 UNL     1       0.332  -2.057  24.350  1.00  0.00     0.177 HD
ATOM     34 1H11 UNL     1       0.173  -0.268  24.395  1.00  0.00     0.177 HD
ENDBRANCH  14  32
TORSDOF 5
ENDMDL
MODEL 2
REMARK VINA RESULT: -7.804418101      1.489      1.913
REMARK  5 active torsions:
REMARK  status: ('A' for Active; 'I' for Inactive)
REMARK    1  A    between atoms: C1_4  and  C2_6 
REMARK    2  A    between atoms: C3_7  and  C4_8 
REMARK    3  A    between atoms: N3_9  and  N4_11 
REMARK    4  A    between atoms: C6_13  and  C7_14 
REMARK    5  A    between atoms: N10_31  and  N11_32 
ROOT
HETATM    1  C2  UNL     1       0.013  -1.827  21.384  1.00  0.00     0.114 A 
HETATM    2  C3  UNL     1       0.079  -1.565  20.027  1.00  0.00     0.042 A 
HETATM    3  C9  UNL     1      -0.606  -0.421  19.556  1.00  0.00     0.078 A 
HETATM    4  N8  UNL     1      -0.565  -0.154  18.246  1.00  0.00    -0.296 N 
ATOM      5  H8  UNL     1      -0.044  -0.777  17.629  1.00  0.00     0.187 HD
HETATM    6  N9  UNL     1      -1.171   0.879  17.736  1.00  0.00    -0.266 N 
ATOM      7  H9  UNL     1      -1.120   1.054  16.733  1.00  0.00     0.190 HD
HETATM    8  C10 UNL     1      -1.862   1.714  18.523  1.00  0.00     0.260 A 
HETATM    9  O2  UNL     1      -2.434   2.699  18.003  1.00  0.00    -0.267 OA
HETATM   10  C11 UNL     1      -1.955   1.512  19.878  1.00  0.00     0.095 A 
HETATM   11  C12 UNL     1      -1.301   0.404  20.402  1.00  0.00     0.068 A 
HETATM   12  C13 UNL     1      -1.339   0.127  21.724  1.00  0.00     0.279 A 
HETATM   13  O3  UNL     1      -1.968   0.871  22.530  1.00  0.00    -0.265 OA
HETATM   14  N10 UNL     1      -0.699  -0.959  22.189  1.00  0.00    -0.222 N 
ENDROOT
BRANCH   2  15
HETATM   15  C4  UNL     1       0.976  -2.227  19.105  1.00  0.00     0.124 C 
HETATM   16  N3  UNL     1       0.847  -3.232  18.374  1.00  0.00    -0.296 N 
ATOM     17  H3  UNL     1      -0.054  -3.710  18.404  1.00  0.00     0.187 HD
BRANCH  16  18
HETATM   18  N4  UNL     1       1.814  -3.763  17.522  1.00  0.00    -0.221 N 
HETATM   19  C5  UNL     1       3.090  -4.107  18.119  1.00  0.00     0.181 C 
HETATM   20  C6  UNL     1       3.762  -5.184  17.324  1.00  0.00     0.112 C 
HETATM   21  C8  UNL     1       2.701  -5.927  16.541  1.00  0.00     0.147 C 
HETATM   22  N6  UNL     1       2.019  -5.062  15.606  1.00  0.00    -0.124 NA
HETATM   23  N7  UNL     1       1.492  -3.924  16.191  1.00  0.00    -0.013 NA
BRANCH  20  24
HETATM   24  C7  UNL     1       4.795  -4.678  16.411  1.00  0.00     0.238 C 
HETATM   25  N5  UNL     1       5.762  -5.512  15.805  1.00  0.00    -0.062 NA
HETATM   26  O1  UNL     1       4.839  -3.450  16.142  1.00  0.00    -0.276 OA
ENDBRANCH  20  24
ENDBRANCH  16  18
ENDBRANCH   2  15
BRANCH   1  27
HETATM   27  C1  UNL     1       0.408  -3.081  21.978  1.00  0.00     0.140 C 
HETATM   28  N1  UNL     1      -0.105  -4.188  21.802  1.00  0.00    -0.386 N 
ATOM     29  H12 UNL     1       0.175  -5.076  22.222  1.00  0.00     0.157 HD
ATOM     30  H11 UNL     1      -0.996  -4.146  21.306  1.00  0.00     0.157 HD
HETATM   31  N2  UNL     1       1.682  -3.141  22.688  1.00  0.00    -0.081 NA
ENDBRANCH   1  27
BRANCH  14  32
HETATM   32  N11 UNL     1      -0.783  -1.223  23.557  1.00  0.00    -0.335 N 
ATOM     33 2H11 UNL     1       0.088  -1.390  24.061  1.00  0.00     0.177 HD
ATOM     34 1H11 UNL     1      -1.700  -1.226  24.002  1.00  0.00     0.177 HD
ENDBRANCH  14  32
TORSDOF 5
ENDMDL
MODEL 3
REMARK VINA RESULT: -7.729571317      1.823      2.237
REMARK  5 active torsions:
REMARK  status: ('A' for Active; 'I' for Inactive)
REMARK    1  A    between atoms: C1_4  and  C2_6 
REMARK    2  A    between atoms: C3_7  and  C4_8 
REMARK    3  A    between atoms: N3_9  and  N4_11 
REMARK    4  A    between atoms: C6_13  and  C7_14 
REMARK    5  A    between atoms: N10_31  and  N11_32 
ROOT
HETATM    1  C2  UNL     1      -0.075  -3.278  20.607  1.00  0.00     0.114 A 
HETATM    2  C3  UNL     1       0.494  -2.686  19.493  1.00  0.00     0.042 A 
HETATM    3  C9  UNL     1       0.159  -1.336  19.239  1.00  0.00     0.078 A 
HETATM    4  N8  UNL     1       0.689  -0.745  18.162  1.00  0.00    -0.296 N 
ATOM      5  H8  UNL     1       1.316  -1.280  17.561  1.00  0.00     0.187 HD
HETATM    6  N9  UNL     1       0.428   0.495  17.860  1.00  0.00    -0.266 N 
ATOM      7  H9  UNL     1       0.849   0.915  17.032  1.00  0.00     0.190 HD
HETATM    8  C10 UNL     1      -0.391   1.221  18.632  1.00  0.00     0.260 A 
HETATM    9  O2  UNL     1      -0.622   2.410  18.316  1.00  0.00    -0.267 OA
HETATM   10  C11 UNL     1      -0.976   0.690  19.755  1.00  0.00     0.095 A 
HETATM   11  C12 UNL     1      -0.685  -0.633  20.060  1.00  0.00     0.068 A 
HETATM   12  C13 UNL     1      -1.217  -1.238  21.145  1.00  0.00     0.279 A 
HETATM   13  O3  UNL     1      -1.996  -0.616  21.923  1.00  0.00    -0.265 OA
HETATM   14  N10 UNL     1      -0.915  -2.521  21.400  1.00  0.00    -0.222 N 
ENDROOT
BRANCH   2  15
HETATM   15  C4  UNL     1       1.573  -3.259  18.717  1.00  0.00     0.124 C 
HETATM   16  N3  UNL     1       2.784  -3.441  18.960  1.00  0.00    -0.296 N 
ATOM     17  H3  UNL     1       3.121  -3.140  19.876  1.00  0.00     0.187 HD
BRANCH  16  18
HETATM   18  N4  UNL     1       3.721  -4.015  18.103  1.00  0.00    -0.221 N 
HETATM   19  C5  UNL     1       4.550  -5.070  18.655  1.00  0.00     0.181 C 
HETATM   20  C6  UNL     1       5.019  -5.984  17.566  1.00  0.00     0.112 C 
HETATM   21  C8  UNL     1       4.064  -5.860  16.397  1.00  0.00     0.147 C 
HETATM   22  N6  UNL     1       4.047  -4.520  15.858  1.00  0.00    -0.124 NA
HETATM   23  N7  UNL     1       3.793  -3.547  16.808  1.00  0.00    -0.013 NA
BRANCH  20  24
HETATM   24  C7  UNL     1       6.392  -5.708  17.121  1.00  0.00     0.238 C 
HETATM   25  N5  UNL     1       7.035  -6.448  16.104  1.00  0.00    -0.062 NA
HETATM   26  O1  UNL     1       7.042  -4.775  17.658  1.00  0.00    -0.276 OA
ENDBRANCH  20  24
ENDBRANCH  16  18
ENDBRANCH   2  15
BRANCH   1  27
HETATM   27  C1  UNL     1      -0.065  -4.701  20.849  1.00  0.00     0.140 C 
HETATM   28  N1  UNL     1       0.711  -5.334  21.568  1.00  0.00    -0.386 N 
ATOM     29  H12 UNL     1       0.718  -6.340  21.739  1.00  0.00     0.157 HD
ATOM     30  H11 UNL     1       1.512  -4.784  21.880  1.00  0.00     0.157 HD
HETATM   31  N2  UNL     1      -1.211  -5.488  20.404  1.00  0.00    -0.081 NA
ENDBRANCH   1  27
BRANCH  14  32
HETATM   32  N11 UNL     1      -1.505  -3.116  22.516  1.00  0.00    -0.335 N 
ATOM     33 2H11 UNL     1      -1.928  -2.501  23.211  1.00  0.00     0.177 HD
ATOM     34 1H11 UNL     1      -1.505  -4.133  22.590  1.00  0.00     0.177 HD
ENDBRANCH  14  32
TORSDOF 5
ENDMDL
MODEL 4
REMARK VINA RESULT: -7.521310728      1.508      3.792
REMARK  5 active torsions:
REMARK  status: ('A' for Active; 'I' for Inactive)
REMARK    1  A    between atoms: C1_4  and  C2_6 
REMARK    2  A    between atoms: C3_7  and  C4_8 
REMARK    3  A    between atoms: N3_9  and  N4_11 
REMARK    4  A    between atoms: C6_13  and  C7_14 
REMARK    5  A    between atoms: N10_31  and  N11_32 
ROOT
HETATM    1  C2  UNL     1      -0.306  -0.980  19.755  1.00  0.00     0.114 A 
HETATM    2  C3  UNL     1       0.596  -1.870  20.310  1.00  0.00     0.042 A 
HETATM    3  C9  UNL     1       0.590  -2.001  21.718  1.00  0.00     0.078 A 
HETATM    4  N8  UNL     1       1.460  -2.848  22.279  1.00  0.00    -0.296 N 
ATOM      5  H8  UNL     1       2.097  -3.373  21.679  1.00  0.00     0.187 HD
HETATM    6  N9  UNL     1       1.517  -3.022  23.568  1.00  0.00    -0.266 N 
ATOM      7  H9  UNL     1       2.192  -3.676  23.963  1.00  0.00     0.190 HD
HETATM    8  C10 UNL     1       0.692  -2.346  24.378  1.00  0.00     0.260 A 
HETATM    9  O2  UNL     1       0.771  -2.535  25.614  1.00  0.00    -0.267 OA
HETATM   10  C11 UNL     1      -0.230  -1.457  23.884  1.00  0.00     0.095 A 
HETATM   11  C12 UNL     1      -0.275  -1.286  22.507  1.00  0.00     0.068 A 
HETATM   12  C13 UNL     1      -1.150  -0.430  21.933  1.00  0.00     0.279 A 
HETATM   13  O3  UNL     1      -1.963   0.240  22.633  1.00  0.00    -0.265 OA
HETATM   14  N10 UNL     1      -1.156  -0.289  20.598  1.00  0.00    -0.222 N 
ENDROOT
BRANCH   2  15
HETATM   15  C4  UNL     1       1.366  -2.837  19.559  1.00  0.00     0.124 C 
HETATM   16  N3  UNL     1       2.505  -2.796  19.047  1.00  0.00    -0.296 N 
ATOM     17  H3  UNL     1       3.029  -1.927  19.158  1.00  0.00     0.187 HD
BRANCH  16  18
HETATM   18  N4  UNL     1       3.130  -3.822  18.339  1.00  0.00    -0.221 N 
HETATM   19  C5  UNL     1       2.562  -4.162  17.048  1.00  0.00     0.181 C 
HETATM   20  C6  UNL     1       3.609  -4.766  16.164  1.00  0.00     0.112 C 
HETATM   21  C8  UNL     1       4.967  -4.318  16.663  1.00  0.00     0.147 C 
HETATM   22  N6  UNL     1       5.222  -4.778  18.009  1.00  0.00    -0.124 NA
HETATM   23  N7  UNL     1       4.228  -4.431  18.907  1.00  0.00    -0.013 NA
BRANCH  20  24
HETATM   24  C7  UNL     1       3.555  -6.232  16.110  1.00  0.00     0.238 C 
HETATM   25  N5  UNL     1       2.644  -6.997  16.872  1.00  0.00    -0.062 NA
HETATM   26  O1  UNL     1       4.347  -6.856  15.357  1.00  0.00    -0.276 OA
ENDBRANCH  20  24
ENDBRANCH  16  18
ENDBRANCH   2  15
BRANCH   1  27
HETATM   27  C1  UNL     1      -0.242  -0.524  18.387  1.00  0.00     0.140 C 
HETATM   28  N1  UNL     1      -0.754  -1.049  17.397  1.00  0.00    -0.386 N 
ATOM     29  H12 UNL     1      -0.708  -0.727  16.430  1.00  0.00     0.157 HD
ATOM     30  H11 UNL     1      -1.118  -1.985  17.579  1.00  0.00     0.157 HD
HETATM   31  N2  UNL     1       0.279   0.815  18.126  1.00  0.00    -0.081 NA
ENDBRANCH   1  27
BRANCH  14  32
HETATM   32  N11 UNL     1      -2.058   0.622  20.046  1.00  0.00    -0.335 N 
ATOM     33 2H11 UNL     1      -3.053   0.436  20.171  1.00  0.00     0.177 HD
ATOM     34 1H11 UNL     1      -1.695   1.439  19.557  1.00  0.00     0.177 HD
ENDBRANCH  14  32
TORSDOF 5
ENDMDL
MODEL 5
REMARK VINA RESULT: -7.484915546      2.449      7.745
REMARK  5 active torsions:
REMARK  status: ('A' for Active; 'I' for Inactive)
REMARK    1  A    between atoms: C1_4  and  C2_6 
REMARK    2  A    between atoms: C3_7  and  C4_8 
REMARK    3  A    between atoms: N3_9  and  N4_11 
REMARK    4  A    between atoms: C6_13  and  C7_14 
REMARK    5  A    between atoms: N10_31  and  N11_32 
ROOT
HETATM    1  C2  UNL     1      -0.121  -1.953  18.642  1.00  0.00     0.114 A 
HETATM    2  C3  UNL     1       0.785  -2.357  19.607  1.00  0.00     0.042 A 
HETATM    3  C9  UNL     1       1.892  -3.122  19.174  1.00  0.00     0.078 A 
HETATM    4  N8  UNL     1       2.775  -3.533  20.090  1.00  0.00    -0.296 N 
ATOM      5  H8  UNL     1       2.627  -3.283  21.068  1.00  0.00     0.187 HD
HETATM    6  N9  UNL     1       3.819  -4.242  19.770  1.00  0.00    -0.266 N 
ATOM      7  H9  UNL     1       4.473  -4.539  20.494  1.00  0.00     0.190 HD
HETATM    8  C10 UNL     1       4.038  -4.584  18.493  1.00  0.00     0.260 A 
HETATM    9  O2  UNL     1       5.051  -5.266  18.217  1.00  0.00    -0.267 OA
HETATM   10  C11 UNL     1       3.180  -4.203  17.491  1.00  0.00     0.095 A 
HETATM   11  C12 UNL     1       2.073  -3.447  17.853  1.00  0.00     0.068 A 
HETATM   12  C13 UNL     1       1.176  -3.030  16.933  1.00  0.00     0.279 A 
HETATM   13  O3  UNL     1       1.317  -3.310  15.709  1.00  0.00    -0.265 OA
HETATM   14  N10 UNL     1       0.115  -2.307  17.327  1.00  0.00    -0.222 N 
ENDROOT
BRANCH   2  15
HETATM   15  C4  UNL     1       0.812  -1.863  20.967  1.00  0.00     0.124 C 
HETATM   16  N3  UNL     1       0.400  -0.807  21.491  1.00  0.00    -0.296 N 
ATOM     17  H3  UNL     1      -0.051  -0.132  20.873  1.00  0.00     0.187 HD
BRANCH  16  18
HETATM   18  N4  UNL     1       0.497  -0.461  22.837  1.00  0.00    -0.221 N 
HETATM   19  C5  UNL     1      -0.233   0.719  23.261  1.00  0.00     0.181 C 
HETATM   20  C6  UNL     1      -0.566   0.627  24.718  1.00  0.00     0.112 C 
HETATM   21  C8  UNL     1      -0.546  -0.832  25.119  1.00  0.00     0.147 C 
HETATM   22  N6  UNL     1       0.761  -1.421  24.937  1.00  0.00    -0.124 NA
HETATM   23  N7  UNL     1       1.268  -1.254  23.661  1.00  0.00    -0.013 NA
BRANCH  20  24
HETATM   24  C7  UNL     1       0.348   1.394  25.576  1.00  0.00     0.238 C 
HETATM   25  N5  UNL     1       0.456   1.181  26.968  1.00  0.00    -0.062 NA
HETATM   26  O1  UNL     1       1.076   2.285  25.067  1.00  0.00    -0.276 OA
ENDBRANCH  20  24
ENDBRANCH  16  18
ENDBRANCH   2  15
BRANCH   1  27
HETATM   27  C1  UNL     1      -1.427  -1.420  18.943  1.00  0.00     0.140 C 
HETATM   28  N1  UNL     1      -2.400  -2.029  19.394  1.00  0.00    -0.386 N 
ATOM     29  H12 UNL     1      -3.324  -1.652  19.607  1.00  0.00     0.157 HD
ATOM     30  H11 UNL     1      -2.279  -3.042  19.389  1.00  0.00     0.157 HD
HETATM   31  N2  UNL     1      -1.600   0.029  18.949  1.00  0.00    -0.081 NA
ENDBRANCH   1  27
BRANCH  14  32
HETATM   32  N11 UNL     1      -0.802  -1.916  16.350  1.00  0.00    -0.335 N 
ATOM     33 2H11 UNL     1      -1.709  -2.383  16.338  1.00  0.00     0.177 HD
ATOM     34 1H11 UNL     1      -0.541  -1.176  15.699  1.00  0.00     0.177 HD
ENDBRANCH  14  32
TORSDOF 5
ENDMDL
