MODEL 1
REMARK VINA RESULT: -8.411603405      0.000      0.000
REMARK  8 active torsions:
REMARK  status: ('A' for Active; 'I' for Inactive)
REMARK    1  A    between atoms: C2_2  and  N3_8 
REMARK    2  A    between atoms: N1_3  and  N2_5 
REMARK    3  A    between atoms: N3_8  and  N4_10 
REMARK    4  A    between atoms: C3_12  and  C4_13 
REMARK    5  A    between atoms: C3_12  and  C7_25 
REMARK    6  A    between atoms: C5_16  and  N6_17 
REMARK    7  A    between atoms: C8_30  and  C9_31 
REMARK    8  A    between atoms: C12_34  and  O1_35 
ROOT
HETATM    1  N4  UNL     1      -0.264   0.037  20.726  1.00  0.00    -0.294 N 
ATOM      2  H4  UNL     1       0.357  -0.720  21.011  1.00  0.00     0.187 HD
HETATM    3  C3  UNL     1      -0.697   0.027  19.513  1.00  0.00     0.123 C 
ENDROOT
BRANCH   3   4
HETATM    4  C4  UNL     1      -0.244  -1.076  18.689  1.00  0.00     0.104 A 
HETATM    5  N5  UNL     1       0.670  -0.898  17.719  1.00  0.00    -0.342 N 
HETATM    6  C5  UNL     1       0.963  -2.101  17.043  1.00  0.00     0.388 A 
ATOM      7  H5  UNL     1       1.100   0.000  17.498  1.00  0.00     0.163 HD
HETATM    8  N7  UNL     1       0.149  -3.083  17.669  1.00  0.00    -0.333 N 
HETATM    9  C6  UNL     1      -0.541  -2.480  18.616  1.00  0.00     0.144 A 
ATOM     10  H7  UNL     1       0.107  -4.073  17.430  1.00  0.00     0.164 HD
HETATM   11  N8  UNL     1      -1.448  -3.224  19.415  1.00  0.00    -0.080 NA
BRANCH   6  12
HETATM   12  N6  UNL     1       0.528  -1.991  15.642  1.00  0.00    -0.041 N 
ATOM     13  H63 UNL     1       0.092  -1.091  15.443  1.00  0.00     0.279 HD
ATOM     14  H62 UNL     1       1.315  -1.917  14.998  1.00  0.00     0.279 HD
ATOM     15  H61 UNL     1      -0.085  -2.775  15.416  1.00  0.00     0.279 HD
ENDBRANCH   6  12
ENDBRANCH   3   4
BRANCH   3  16
HETATM   16  C7  UNL     1      -1.573   1.071  19.068  1.00  0.00     0.152 A 
HETATM   17  N9  UNL     1      -1.170   2.056  18.191  1.00  0.00    -0.282 N 
HETATM   18  N10 UNL     1      -2.166   2.872  17.958  1.00  0.00    -0.282 N 
ATOM     19  H9  UNL     1      -0.237   2.136  17.785  1.00  0.00     0.188 HD
HETATM   20  C8  UNL     1      -3.254   2.484  18.648  1.00  0.00     0.148 A 
ATOM     21  H10 UNL     1      -2.125   3.684  17.343  1.00  0.00     0.188 HD
HETATM   22  N12 UNL     1      -2.841   1.396  19.299  1.00  0.00    -0.323 N 
ATOM     23  H12 UNL     1      -3.445   0.859  19.920  1.00  0.00     0.169 HD
BRANCH  20  24
HETATM   24  C9  UNL     1      -4.565   3.124  18.662  1.00  0.00     0.078 A 
HETATM   25  C10 UNL     1      -5.707   2.481  18.232  1.00  0.00     0.036 A 
HETATM   26  C11 UNL     1      -6.948   3.084  18.244  1.00  0.00     0.040 A 
HETATM   27  C12 UNL     1      -7.083   4.385  18.699  1.00  0.00     0.081 A 
HETATM   28  C13 UNL     1      -5.923   5.004  19.123  1.00  0.00     0.124 A 
HETATM   29  N11 UNL     1      -4.719   4.387  19.099  1.00  0.00    -0.360 N 
ATOM     30  H11 UNL     1      -3.899   4.899  19.424  1.00  0.00     0.165 HD
BRANCH  27  31
HETATM   31  O1  UNL     1      -8.313   5.031  18.728  1.00  0.00    -0.359 OA
ATOM     32  H1  UNL     1      -8.744   5.254  19.545  1.00  0.00     0.217 HD
ENDBRANCH  27  31
ENDBRANCH  20  24
ENDBRANCH   3  16
BRANCH   1  33
HETATM   33  N3  UNL     1      -0.572   0.987  21.660  1.00  0.00    -0.288 N 
ATOM     34  H3  UNL     1      -1.001   1.865  21.368  1.00  0.00     0.188 HD
BRANCH  33  35
HETATM   35  C2  UNL     1      -0.298   0.757  23.047  1.00  0.00     0.105 C 
HETATM   36  C1  UNL     1      -1.287   0.217  24.007  1.00  0.00     0.092 C 
HETATM   37  N1  UNL     1       0.877   1.041  23.478  1.00  0.00    -0.295 N 
ATOM     38  H1  UNL     1       1.557   1.413  22.814  1.00  0.00     0.187 HD
BRANCH  37  39
HETATM   39  N2  UNL     1       1.274   0.869  24.796  1.00  0.00    -0.344 N 
ATOM     40  H22 UNL     1       0.676   1.271  25.518  1.00  0.00     0.176 HD
ATOM     41  H21 UNL     1       2.119   0.368  25.070  1.00  0.00     0.176 HD
ENDBRANCH  37  39
ENDBRANCH  33  35
ENDBRANCH   1  33
TORSDOF 8
ENDMDL
MODEL 2
REMARK VINA RESULT: -8.110742940      0.854      1.044
REMARK  8 active torsions:
REMARK  status: ('A' for Active; 'I' for Inactive)
REMARK    1  A    between atoms: C2_2  and  N3_8 
REMARK    2  A    between atoms: N1_3  and  N2_5 
REMARK    3  A    between atoms: N3_8  and  N4_10 
REMARK    4  A    between atoms: C3_12  and  C4_13 
REMARK    5  A    between atoms: C3_12  and  C7_25 
REMARK    6  A    between atoms: C5_16  and  N6_17 
REMARK    7  A    between atoms: C8_30  and  C9_31 
REMARK    8  A    between atoms: C12_34  and  O1_35 
ROOT
HETATM    1  N4  UNL     1      -0.186  -0.040  20.732  1.00  0.00    -0.294 N 
ATOM      2  H4  UNL     1       0.425  -0.801  21.027  1.00  0.00     0.187 HD
HETATM    3  C3  UNL     1      -0.640  -0.076  19.527  1.00  0.00     0.123 C 
ENDROOT
BRANCH   3   4
HETATM    4  C4  UNL     1      -0.222  -1.208  18.726  1.00  0.00     0.104 A 
HETATM    5  N5  UNL     1       0.753  -2.037  19.138  1.00  0.00    -0.342 N 
HETATM    6  C5  UNL     1       0.998  -3.067  18.206  1.00  0.00     0.388 A 
ATOM      7  H5  UNL     1       1.255  -1.934  20.020  1.00  0.00     0.163 HD
HETATM    8  N7  UNL     1       0.086  -2.828  17.144  1.00  0.00    -0.333 N 
HETATM    9  C6  UNL     1      -0.612  -1.754  17.456  1.00  0.00     0.144 A 
ATOM     10  H7  UNL     1      -0.012  -3.385  16.295  1.00  0.00     0.164 HD
HETATM   11  N8  UNL     1      -1.610  -1.276  16.567  1.00  0.00    -0.080 NA
BRANCH   6  12
HETATM   12  N6  UNL     1       2.358  -2.920  17.664  1.00  0.00    -0.041 N 
ATOM     13  H63 UNL     1       2.408  -2.209  16.936  1.00  0.00     0.279 HD
ATOM     14  H62 UNL     1       2.996  -2.488  18.333  1.00  0.00     0.279 HD
ATOM     15  H61 UNL     1       2.693  -3.828  17.342  1.00  0.00     0.279 HD
ENDBRANCH   6  12
ENDBRANCH   3   4
BRANCH   3  16
HETATM   16  C7  UNL     1      -1.505   0.972  19.069  1.00  0.00     0.152 A 
HETATM   17  N9  UNL     1      -1.097   1.927  18.160  1.00  0.00    -0.282 N 
HETATM   18  N10 UNL     1      -2.083   2.755  17.921  1.00  0.00    -0.282 N 
ATOM     19  H9  UNL     1      -0.169   1.980  17.739  1.00  0.00     0.188 HD
HETATM   20  C8  UNL     1      -3.167   2.405  18.637  1.00  0.00     0.148 A 
ATOM     21  H10 UNL     1      -2.036   3.550  17.285  1.00  0.00     0.188 HD
HETATM   22  N12 UNL     1      -2.763   1.326  19.309  1.00  0.00    -0.323 N 
ATOM     23  H12 UNL     1      -3.367   0.816  19.953  1.00  0.00     0.169 HD
BRANCH  20  24
HETATM   24  C9  UNL     1      -4.466   3.068  18.653  1.00  0.00     0.078 A 
HETATM   25  C10 UNL     1      -5.625   2.435  18.257  1.00  0.00     0.036 A 
HETATM   26  C11 UNL     1      -6.855   3.060  18.271  1.00  0.00     0.040 A 
HETATM   27  C12 UNL     1      -6.960   4.374  18.694  1.00  0.00     0.081 A 
HETATM   28  C13 UNL     1      -5.784   4.983  19.086  1.00  0.00     0.124 A 
HETATM   29  N11 UNL     1      -4.591   4.344  19.060  1.00  0.00    -0.360 N 
ATOM     30  H11 UNL     1      -3.757   4.849  19.360  1.00  0.00     0.165 HD
BRANCH  27  31
HETATM   31  O1  UNL     1      -8.178   5.043  18.725  1.00  0.00    -0.359 OA
ATOM     32  H1  UNL     1      -8.334   5.828  18.214  1.00  0.00     0.217 HD
ENDBRANCH  27  31
ENDBRANCH  20  24
ENDBRANCH   3  16
BRANCH   1  33
HETATM   33  N3  UNL     1      -0.462   0.940  21.645  1.00  0.00    -0.288 N 
ATOM     34  H3  UNL     1      -0.831   1.836  21.330  1.00  0.00     0.188 HD
BRANCH  33  35
HETATM   35  C2  UNL     1      -0.234   0.716  23.042  1.00  0.00     0.105 C 
HETATM   36  C1  UNL     1      -1.229   0.109  23.954  1.00  0.00     0.092 C 
HETATM   37  N1  UNL     1       0.901   1.068  23.525  1.00  0.00    -0.295 N 
ATOM     38  H1  UNL     1       1.585   1.486  22.894  1.00  0.00     0.187 HD
BRANCH  37  39
HETATM   39  N2  UNL     1       1.250   0.910  24.859  1.00  0.00    -0.344 N 
ATOM     40  H22 UNL     1       2.231   0.720  25.064  1.00  0.00     0.176 HD
ATOM     41  H21 UNL     1       0.583   0.974  25.628  1.00  0.00     0.176 HD
ENDBRANCH  37  39
ENDBRANCH  33  35
ENDBRANCH   1  33
TORSDOF 8
ENDMDL
MODEL 3
REMARK VINA RESULT: -7.976923013      1.131      4.396
REMARK  8 active torsions:
REMARK  status: ('A' for Active; 'I' for Inactive)
REMARK    1  A    between atoms: C2_2  and  N3_8 
REMARK    2  A    between atoms: N1_3  and  N2_5 
REMARK    3  A    between atoms: N3_8  and  N4_10 
REMARK    4  A    between atoms: C3_12  and  C4_13 
REMARK    5  A    between atoms: C3_12  and  C7_25 
REMARK    6  A    between atoms: C5_16  and  N6_17 
REMARK    7  A    between atoms: C8_30  and  C9_31 
REMARK    8  A    between atoms: C12_34  and  O1_35 
ROOT
HETATM    1  N4  UNL     1      -0.096  -0.574  19.213  1.00  0.00    -0.294 N 
ATOM      2  H4  UNL     1       0.524  -1.255  19.651  1.00  0.00     0.187 HD
HETATM    3  C3  UNL     1      -0.750   0.221  19.988  1.00  0.00     0.123 C 
ENDROOT
BRANCH   3   4
HETATM    4  C4  UNL     1      -0.521   0.048  21.409  1.00  0.00     0.104 A 
HETATM    5  N5  UNL     1      -0.388   1.103  22.231  1.00  0.00    -0.342 N 
HETATM    6  C5  UNL     1      -0.173   0.706  23.567  1.00  0.00     0.388 A 
ATOM      7  H5  UNL     1      -0.437   2.074  21.925  1.00  0.00     0.163 HD
HETATM    8  N7  UNL     1      -0.179  -0.715  23.535  1.00  0.00    -0.333 N 
HETATM    9  C6  UNL     1      -0.381  -1.081  22.286  1.00  0.00     0.144 A 
ATOM     10  H7  UNL     1      -0.051  -1.337  24.333  1.00  0.00     0.164 HD
HETATM   11  N8  UNL     1      -0.436  -2.460  21.952  1.00  0.00    -0.080 NA
BRANCH   6  12
HETATM   12  N6  UNL     1       1.169   1.134  23.993  1.00  0.00    -0.041 N 
ATOM     13  H63 UNL     1       1.902   0.756  23.394  1.00  0.00     0.279 HD
ATOM     14  H62 UNL     1       1.333   2.125  23.814  1.00  0.00     0.279 HD
ATOM     15  H61 UNL     1       1.307   0.890  24.973  1.00  0.00     0.279 HD
ENDBRANCH   6  12
ENDBRANCH   3   4
BRANCH   3  16
HETATM   16  C7  UNL     1      -1.632   1.196  19.416  1.00  0.00     0.152 A 
HETATM   17  N9  UNL     1      -1.223   2.090  18.449  1.00  0.00    -0.282 N 
HETATM   18  N10 UNL     1      -2.227   2.859  18.109  1.00  0.00    -0.282 N 
ATOM     19  H9  UNL     1      -0.282   2.144  18.058  1.00  0.00     0.188 HD
HETATM   20  C8  UNL     1      -3.324   2.526  18.812  1.00  0.00     0.148 A 
ATOM     21  H10 UNL     1      -2.183   3.603  17.412  1.00  0.00     0.188 HD
HETATM   22  N12 UNL     1      -2.909   1.520  19.583  1.00  0.00    -0.323 N 
ATOM     23  H12 UNL     1      -3.520   1.041  20.244  1.00  0.00     0.169 HD
BRANCH  20  24
HETATM   24  C9  UNL     1      -4.645   3.139  18.729  1.00  0.00     0.078 A 
HETATM   25  C10 UNL     1      -5.743   2.468  18.233  1.00  0.00     0.036 A 
HETATM   26  C11 UNL     1      -6.994   3.046  18.152  1.00  0.00     0.040 A 
HETATM   27  C12 UNL     1      -7.184   4.350  18.580  1.00  0.00     0.081 A 
HETATM   28  C13 UNL     1      -6.067   4.997  19.072  1.00  0.00     0.124 A 
HETATM   29  N11 UNL     1      -4.853   4.404  19.138  1.00  0.00    -0.360 N 
ATOM     30  H11 UNL     1      -4.067   4.936  19.510  1.00  0.00     0.165 HD
BRANCH  27  31
HETATM   31  O1  UNL     1      -8.425   4.971  18.518  1.00  0.00    -0.359 OA
ATOM     32  H1  UNL     1      -8.549   5.875  18.784  1.00  0.00     0.217 HD
ENDBRANCH  27  31
ENDBRANCH  20  24
ENDBRANCH   3  16
BRANCH   1  33
HETATM   33  N3  UNL     1      -0.171  -0.573  17.847  1.00  0.00    -0.288 N 
ATOM     34  H3  UNL     1      -0.398   0.289  17.353  1.00  0.00     0.188 HD
BRANCH  33  35
HETATM   35  C2  UNL     1       0.068  -1.776  17.106  1.00  0.00     0.105 C 
HETATM   36  C1  UNL     1      -0.977  -2.777  16.796  1.00  0.00     0.092 C 
HETATM   37  N1  UNL     1       1.263  -1.993  16.691  1.00  0.00    -0.295 N 
ATOM     38  H1  UNL     1       1.982  -1.301  16.906  1.00  0.00     0.187 HD
BRANCH  37  39
HETATM   39  N2  UNL     1       1.631  -3.117  15.966  1.00  0.00    -0.344 N 
ATOM     40  H22 UNL     1       0.882  -3.729  15.644  1.00  0.00     0.176 HD
ATOM     41  H21 UNL     1       2.599  -3.353  15.743  1.00  0.00     0.176 HD
ENDBRANCH  37  39
ENDBRANCH  33  35
ENDBRANCH   1  33
TORSDOF 8
ENDMDL
MODEL 4
REMARK VINA RESULT: -7.688930174      6.042      9.951
REMARK  8 active torsions:
REMARK  status: ('A' for Active; 'I' for Inactive)
REMARK    1  A    between atoms: C2_2  and  N3_8 
REMARK    2  A    between atoms: N1_3  and  N2_5 
REMARK    3  A    between atoms: N3_8  and  N4_10 
REMARK    4  A    between atoms: C3_12  and  C4_13 
REMARK    5  A    between atoms: C3_12  and  C7_25 
REMARK    6  A    between atoms: C5_16  and  N6_17 
REMARK    7  A    between atoms: C8_30  and  C9_31 
REMARK    8  A    between atoms: C12_34  and  O1_35 
ROOT
HETATM    1  N4  UNL     1       2.116  -2.585  19.608  1.00  0.00    -0.294 N 
ATOM      2  H4  UNL     1       1.538  -1.978  20.188  1.00  0.00     0.187 HD
HETATM    3  C3  UNL     1       1.720  -2.810  18.403  1.00  0.00     0.123 C 
ENDROOT
BRANCH   3   4
HETATM    4  C4  UNL     1       0.483  -2.164  18.013  1.00  0.00     0.104 A 
HETATM    5  N5  UNL     1      -0.431  -2.797  17.258  1.00  0.00    -0.342 N 
HETATM    6  C5  UNL     1      -1.555  -1.984  16.998  1.00  0.00     0.388 A 
ATOM      7  H5  UNL     1      -0.326  -3.752  16.915  1.00  0.00     0.163 HD
HETATM    8  N7  UNL     1      -1.281  -0.756  17.658  1.00  0.00    -0.333 N 
HETATM    9  C6  UNL     1      -0.105  -0.873  18.240  1.00  0.00     0.144 A 
ATOM     10  H7  UNL     1      -1.886   0.065  17.679  1.00  0.00     0.164 HD
HETATM   11  N8  UNL     1       0.429   0.214  18.981  1.00  0.00    -0.080 NA
BRANCH   6  12
HETATM   12  N6  UNL     1      -1.630  -1.705  15.555  1.00  0.00    -0.041 N 
ATOM     13  H63 UNL     1      -1.101  -2.380  15.003  1.00  0.00     0.279 HD
ATOM     14  H62 UNL     1      -2.556  -1.897  15.172  1.00  0.00     0.279 HD
ATOM     15  H61 UNL     1      -1.331  -0.745  15.381  1.00  0.00     0.279 HD
ENDBRANCH   6  12
ENDBRANCH   3   4
BRANCH   3  16
HETATM   16  C7  UNL     1       2.503  -3.656  17.550  1.00  0.00     0.152 A 
HETATM   17  N9  UNL     1       3.498  -3.166  16.730  1.00  0.00    -0.282 N 
HETATM   18  N10 UNL     1       4.046  -4.153  16.067  1.00  0.00    -0.282 N 
ATOM     19  H9  UNL     1       3.766  -2.184  16.652  1.00  0.00     0.188 HD
HETATM   20  C8  UNL     1       3.462  -5.317  16.401  1.00  0.00     0.148 A 
ATOM     21  H10 UNL     1       4.807  -4.054  15.394  1.00  0.00     0.188 HD
HETATM   22  N12 UNL     1       2.540  -4.959  17.297  1.00  0.00    -0.323 N 
ATOM     23  H12 UNL     1       1.917  -5.629  17.748  1.00  0.00     0.169 HD
BRANCH  20  24
HETATM   24  C9  UNL     1       3.782  -6.645  15.888  1.00  0.00     0.078 A 
HETATM   25  C10 UNL     1       5.078  -7.060  15.669  1.00  0.00     0.036 A 
HETATM   26  C11 UNL     1       5.384  -8.316  15.183  1.00  0.00     0.040 A 
HETATM   27  C12 UNL     1       4.370  -9.214  14.896  1.00  0.00     0.081 A 
HETATM   28  C13 UNL     1       3.081  -8.771  15.126  1.00  0.00     0.124 A 
HETATM   29  N11 UNL     1       2.813  -7.534  15.602  1.00  0.00    -0.360 N 
ATOM     30  H11 UNL     1       1.840  -7.265  15.750  1.00  0.00     0.165 HD
BRANCH  27  31
HETATM   31  O1  UNL     1       4.631 -10.488  14.406  1.00  0.00    -0.359 OA
ATOM     32  H1  UNL     1       4.502 -11.267  14.935  1.00  0.00     0.217 HD
ENDBRANCH  27  31
ENDBRANCH  20  24
ENDBRANCH   3  16
BRANCH   1  33
HETATM   33  N3  UNL     1       3.253  -3.098  20.167  1.00  0.00    -0.288 N 
ATOM     34  H3  UNL     1       4.166  -2.799  19.825  1.00  0.00     0.188 HD
BRANCH  33  35
HETATM   35  C2  UNL     1       3.172  -4.054  21.232  1.00  0.00     0.105 C 
HETATM   36  C1  UNL     1       2.108  -5.078  21.344  1.00  0.00     0.092 C 
HETATM   37  N1  UNL     1       4.077  -4.013  22.141  1.00  0.00    -0.295 N 
ATOM     38  H1  UNL     1       4.808  -3.306  22.061  1.00  0.00     0.187 HD
BRANCH  37  39
HETATM   39  N2  UNL     1       4.115  -4.877  23.226  1.00  0.00    -0.344 N 
ATOM     40  H22 UNL     1       3.800  -5.835  23.069  1.00  0.00     0.176 HD
ATOM     41  H21 UNL     1       4.438  -4.603  24.154  1.00  0.00     0.176 HD
ENDBRANCH  37  39
ENDBRANCH  33  35
ENDBRANCH   1  33
TORSDOF 8
ENDMDL
MODEL 5
REMARK VINA RESULT: -7.601081740      3.698      6.707
REMARK  8 active torsions:
REMARK  status: ('A' for Active; 'I' for Inactive)
REMARK    1  A    between atoms: C2_2  and  N3_8 
REMARK    2  A    between atoms: N1_3  and  N2_5 
REMARK    3  A    between atoms: N3_8  and  N4_10 
REMARK    4  A    between atoms: C3_12  and  C4_13 
REMARK    5  A    between atoms: C3_12  and  C7_25 
REMARK    6  A    between atoms: C5_16  and  N6_17 
REMARK    7  A    between atoms: C8_30  and  C9_31 
REMARK    8  A    between atoms: C12_34  and  O1_35 
ROOT
HETATM    1  N4  UNL     1       0.081   0.306  18.347  1.00  0.00    -0.294 N 
ATOM      2  H4  UNL     1       0.205   0.372  17.337  1.00  0.00     0.187 HD
HETATM    3  C3  UNL     1       0.338  -0.826  18.904  1.00  0.00     0.123 C 
ENDROOT
BRANCH   3   4
HETATM    4  C4  UNL     1       0.778  -1.884  18.017  1.00  0.00     0.104 A 
HETATM    5  N5  UNL     1       1.864  -2.625  18.293  1.00  0.00    -0.342 N 
HETATM    6  C5  UNL     1       2.110  -3.593  17.297  1.00  0.00     0.388 A 
ATOM      7  H5  UNL     1       2.442  -2.502  19.124  1.00  0.00     0.163 HD
HETATM    8  N7  UNL     1       1.074  -3.409  16.342  1.00  0.00    -0.333 N 
HETATM    9  C6  UNL     1       0.313  -2.422  16.768  1.00  0.00     0.144 A 
ATOM     10  H7  UNL     1       0.943  -3.944  15.483  1.00  0.00     0.164 HD
HETATM   11  N8  UNL     1      -0.812  -2.014  16.005  1.00  0.00    -0.080 NA
BRANCH   6  12
HETATM   12  N6  UNL     1       3.386  -3.293  16.630  1.00  0.00    -0.041 N 
ATOM     13  H63 UNL     1       3.277  -2.622  15.870  1.00  0.00     0.279 HD
ATOM     14  H62 UNL     1       4.011  -2.742  17.221  1.00  0.00     0.279 HD
ATOM     15  H61 UNL     1       3.817  -4.163  16.318  1.00  0.00     0.279 HD
ENDBRANCH   6  12
ENDBRANCH   3   4
BRANCH   3  16
HETATM   16  C7  UNL     1       0.179  -0.965  20.323  1.00  0.00     0.152 A 
HETATM   17  N9  UNL     1      -0.627  -1.932  20.888  1.00  0.00    -0.282 N 
HETATM   18  N10 UNL     1      -0.584  -1.830  22.193  1.00  0.00    -0.282 N 
ATOM     19  H9  UNL     1      -1.173  -2.620  20.369  1.00  0.00     0.188 HD
HETATM   20  C8  UNL     1       0.229  -0.821  22.553  1.00  0.00     0.148 A 
ATOM     21  H10 UNL     1      -1.093  -2.430  22.842  1.00  0.00     0.188 HD
HETATM   22  N12 UNL     1       0.661  -0.335  21.389  1.00  0.00    -0.323 N 
ATOM     23  H12 UNL     1       1.305   0.452  21.322  1.00  0.00     0.169 HD
BRANCH  20  24
HETATM   24  C9  UNL     1       0.545  -0.383  23.908  1.00  0.00     0.078 A 
HETATM   25  C10 UNL     1       0.482   0.940  24.292  1.00  0.00     0.036 A 
HETATM   26  C11 UNL     1       0.781   1.357  25.573  1.00  0.00     0.040 A 
HETATM   27  C12 UNL     1       1.162   0.433  26.532  1.00  0.00     0.081 A 
HETATM   28  C13 UNL     1       1.216  -0.884  26.120  1.00  0.00     0.124 A 
HETATM   29  N11 UNL     1       0.918  -1.263  24.856  1.00  0.00    -0.360 N 
ATOM     30  H11 UNL     1       0.978  -2.252  24.613  1.00  0.00     0.165 HD
BRANCH  27  31
HETATM   31  O1  UNL     1       1.472   0.809  27.834  1.00  0.00    -0.359 OA
ATOM     32  H1  UNL     1       0.825   0.791  28.530  1.00  0.00     0.217 HD
ENDBRANCH  27  31
ENDBRANCH  20  24
ENDBRANCH   3  16
BRANCH   1  33
HETATM   33  N3  UNL     1      -0.345   1.426  19.006  1.00  0.00    -0.288 N 
ATOM     34  H3  UNL     1       0.336   2.047  19.442  1.00  0.00     0.188 HD
BRANCH  33  35
HETATM   35  C2  UNL     1      -1.742   1.733  19.089  1.00  0.00     0.105 C 
HETATM   36  C1  UNL     1      -2.664   1.131  20.079  1.00  0.00     0.092 C 
HETATM   37  N1  UNL     1      -2.217   2.579  18.250  1.00  0.00    -0.295 N 
ATOM     38  H1  UNL     1      -1.580   2.992  17.568  1.00  0.00     0.187 HD
BRANCH  37  39
HETATM   39  N2  UNL     1      -3.550   2.964  18.218  1.00  0.00    -0.344 N 
ATOM     40  H22 UNL     1      -3.753   3.952  18.371  1.00  0.00     0.176 HD
ATOM     41  H21 UNL     1      -4.321   2.316  18.053  1.00  0.00     0.176 HD
ENDBRANCH  37  39
ENDBRANCH  33  35
ENDBRANCH   1  33
TORSDOF 8
ENDMDL
