MODEL 1
REMARK VINA RESULT: -10.121469921      0.000      0.000
REMARK  9 active torsions:
REMARK  status: ('A' for Active; 'I' for Inactive)
REMARK    1  A    between atoms: O1_2  and  C2_3 
REMARK    2  A    between atoms: C2_3  and  C3_5 
REMARK    3  A    between atoms: C6_8  and  N1_9 
REMARK    4  A    between atoms: C7_10  and  O3_11 
REMARK    5  A    between atoms: C10_15  and  O4_16 
REMARK    6  A    between atoms: C13_21  and  C14_22 
REMARK    7  A    between atoms: C14_22  and  C15_23 
REMARK    8  A    between atoms: C16_24  and  C17_25 
REMARK    9  A    between atoms: C17_25  and  C18_26 
ROOT
HETATM    1  N1  UNL     1      24.479 -29.111   2.971  1.00  0.00    -0.269 N 
HETATM    2  C7  UNL     1      25.353 -28.864   3.957  1.00  0.00     0.184 A 
HETATM    3  C8  UNL     1      25.945 -27.649   3.682  1.00  0.00     0.139 A 
HETATM    4  C9  UNL     1      25.428 -27.142   2.506  1.00  0.00     0.099 A 
HETATM    5  C10 UNL     1      24.506 -28.093   2.088  1.00  0.00     0.166 A 
HETATM    6  C11 UNL     1      25.884 -25.862   1.983  1.00  0.00     0.169 C 
HETATM    7  O5  UNL     1      25.277 -25.351   1.011  1.00  0.00    -0.292 OA
HETATM    8  C12 UNL     1      27.046 -25.195   2.604  1.00  0.00     0.117 C 
HETATM    9  C13 UNL     1      27.044 -25.518   4.097  1.00  0.00     0.140 C 
HETATM   10  O6  UNL     1      26.910 -26.887   4.329  1.00  0.00    -0.340 OA
ENDROOT
BRANCH   9  11
HETATM   11  C14 UNL     1      25.855 -24.745   4.681  1.00  0.00     0.059 C 
BRANCH  11  12
HETATM   12  C15 UNL     1      26.034 -24.739   6.134  1.00  0.00    -0.028 C 
HETATM   13  C16 UNL     1      25.510 -23.885   6.995  1.00  0.00    -0.030 C 
BRANCH  13  14
HETATM   14  C17 UNL     1      24.635 -22.772   6.609  1.00  0.00     0.031 C 
BRANCH  14  15
HETATM   15  C18 UNL     1      23.538 -22.609   7.654  1.00  0.00    -0.011 C 
HETATM   16  C19 UNL     1      23.934 -23.253   8.960  1.00  0.00     0.007 C 
HETATM   17  C20 UNL     1      22.700 -23.269   9.839  1.00  0.00     0.037 C 
HETATM   18  C21 UNL     1      22.056 -21.930   9.967  1.00  0.00     0.170 C 
HETATM   19  F1  UNL     1      20.731 -22.028   9.637  1.00  0.00    -0.249 F 
HETATM   20  C22 UNL     1      22.766 -20.829   9.240  1.00  0.00     0.037 C 
HETATM   21  C23 UNL     1      23.128 -21.170   7.825  1.00  0.00     0.007 C 
ENDBRANCH  14  15
ENDBRANCH  13  14
ENDBRANCH  11  12
ENDBRANCH   9  11
BRANCH   2  22
HETATM   22  O3  UNL     1      25.595 -29.695   5.041  1.00  0.00    -0.344 OA
ATOM     23  H3  UNL     1      26.171 -30.451   5.037  1.00  0.00     0.219 HD
ENDBRANCH   2  22
BRANCH   5  24
HETATM   24  O4  UNL     1      23.769 -27.927   0.918  1.00  0.00    -0.345 OA
ATOM     25  H4  UNL     1      24.067 -27.943   0.016  1.00  0.00     0.219 HD
ENDBRANCH   5  24
BRANCH   1  26
HETATM   26  C6  UNL     1      23.650 -30.255   2.854  1.00  0.00     0.043 A 
HETATM   27  C5  UNL     1      22.319 -30.233   3.216  1.00  0.00     0.031 A 
HETATM   28  C4  UNL     1      21.526 -31.369   3.091  1.00  0.00     0.020 A 
HETATM   29  C3  UNL     1      22.059 -32.532   2.604  1.00  0.00     0.039 A 
HETATM   30  C25 UNL     1      23.387 -32.556   2.242  1.00  0.00     0.020 A 
HETATM   31  C24 UNL     1      24.198 -31.437   2.356  1.00  0.00     0.031 A 
BRANCH  29  32
HETATM   32  C2  UNL     1      21.250 -33.753   2.458  1.00  0.00     0.292 C 
HETATM   33  O2  UNL     1      20.640 -33.981   1.407  1.00  0.00    -0.259 OA
BRANCH  32  34
HETATM   34  O1  UNL     1      21.157 -34.666   3.488  1.00  0.00    -0.323 OA
HETATM   35  C1  UNL     1      21.446 -34.292   4.829  1.00  0.00     0.213 C 
ENDBRANCH  32  34
ENDBRANCH  29  32
ENDBRANCH   1  26
TORSDOF 9
ENDMDL
MODEL 2
REMARK VINA RESULT: -9.861054201      2.657      3.672
REMARK  9 active torsions:
REMARK  status: ('A' for Active; 'I' for Inactive)
REMARK    1  A    between atoms: O1_2  and  C2_3 
REMARK    2  A    between atoms: C2_3  and  C3_5 
REMARK    3  A    between atoms: C6_8  and  N1_9 
REMARK    4  A    between atoms: C7_10  and  O3_11 
REMARK    5  A    between atoms: C10_15  and  O4_16 
REMARK    6  A    between atoms: C13_21  and  C14_22 
REMARK    7  A    between atoms: C14_22  and  C15_23 
REMARK    8  A    between atoms: C16_24  and  C17_25 
REMARK    9  A    between atoms: C17_25  and  C18_26 
ROOT
HETATM    1  N1  UNL     1      24.389 -29.776   1.284  1.00  0.00    -0.269 N 
HETATM    2  C7  UNL     1      25.724 -29.701   1.199  1.00  0.00     0.184 A 
HETATM    3  C8  UNL     1      26.026 -28.520   0.553  1.00  0.00     0.139 A 
HETATM    4  C9  UNL     1      24.856 -27.859   0.236  1.00  0.00     0.099 A 
HETATM    5  C10 UNL     1      23.845 -28.682   0.715  1.00  0.00     0.166 A 
HETATM    6  C11 UNL     1      24.889 -26.577  -0.454  1.00  0.00     0.169 C 
HETATM    7  O5  UNL     1      23.824 -25.924  -0.575  1.00  0.00    -0.292 OA
HETATM    8  C12 UNL     1      26.168 -26.075  -0.994  1.00  0.00     0.117 C 
HETATM    9  C13 UNL     1      27.294 -26.540  -0.074  1.00  0.00     0.140 C 
HETATM   10  O6  UNL     1      27.218 -27.910   0.184  1.00  0.00    -0.340 OA
ENDROOT
BRANCH   9  11
HETATM   11  C14 UNL     1      27.129 -25.730   1.218  1.00  0.00     0.059 C 
BRANCH  11  12
HETATM   12  C15 UNL     1      28.031 -26.327   2.204  1.00  0.00    -0.028 C 
HETATM   13  C16 UNL     1      28.619 -25.713   3.216  1.00  0.00    -0.030 C 
BRANCH  13  14
HETATM   14  C17 UNL     1      28.448 -24.287   3.514  1.00  0.00     0.031 C 
BRANCH  14  15
HETATM   15  C18 UNL     1      27.623 -24.136   4.787  1.00  0.00    -0.011 C 
HETATM   16  C19 UNL     1      26.166 -23.916   4.466  1.00  0.00     0.007 C 
HETATM   17  C20 UNL     1      25.481 -23.523   5.758  1.00  0.00     0.037 C 
HETATM   18  C21 UNL     1      25.742 -24.479   6.873  1.00  0.00     0.170 C 
HETATM   19  F1  UNL     1      26.218 -23.795   7.958  1.00  0.00    -0.249 F 
HETATM   20  C22 UNL     1      26.593 -25.653   6.495  1.00  0.00     0.037 C 
HETATM   21  C23 UNL     1      27.834 -25.285   5.737  1.00  0.00     0.007 C 
ENDBRANCH  14  15
ENDBRANCH  13  14
ENDBRANCH  11  12
ENDBRANCH   9  11
BRANCH   2  22
HETATM   22  O3  UNL     1      26.613 -30.652   1.679  1.00  0.00    -0.344 OA
ATOM     23  H3  UNL     1      27.553 -30.643   1.544  1.00  0.00     0.219 HD
ENDBRANCH   2  22
BRANCH   5  24
HETATM   24  O4  UNL     1      22.501 -28.342   0.576  1.00  0.00    -0.345 OA
ATOM     25  H4  UNL     1      21.923 -28.478  -0.165  1.00  0.00     0.219 HD
ENDBRANCH   5  24
BRANCH   1  26
HETATM   26  C6  UNL     1      23.645 -30.829   1.875  1.00  0.00     0.043 A 
HETATM   27  C5  UNL     1      22.694 -30.595   2.846  1.00  0.00     0.031 A 
HETATM   28  C4  UNL     1      21.977 -31.646   3.410  1.00  0.00     0.020 A 
HETATM   29  C3  UNL     1      22.207 -32.934   3.007  1.00  0.00     0.039 A 
HETATM   30  C25 UNL     1      23.157 -33.168   2.038  1.00  0.00     0.020 A 
HETATM   31  C24 UNL     1      23.884 -32.138   1.460  1.00  0.00     0.031 A 
BRANCH  29  32
HETATM   32  C2  UNL     1      21.468 -34.069   3.581  1.00  0.00     0.292 C 
HETATM   33  O2  UNL     1      20.982 -34.938   2.848  1.00  0.00    -0.259 OA
BRANCH  32  34
HETATM   34  O1  UNL     1      21.303 -34.187   4.946  1.00  0.00    -0.323 OA
HETATM   35  C1  UNL     1      22.410 -34.450   5.799  1.00  0.00     0.213 C 
ENDBRANCH  32  34
ENDBRANCH  29  32
ENDBRANCH   1  26
TORSDOF 9
ENDMDL
MODEL 3
REMARK VINA RESULT: -9.852950360      0.809      1.167
REMARK  9 active torsions:
REMARK  status: ('A' for Active; 'I' for Inactive)
REMARK    1  A    between atoms: O1_2  and  C2_3 
REMARK    2  A    between atoms: C2_3  and  C3_5 
REMARK    3  A    between atoms: C6_8  and  N1_9 
REMARK    4  A    between atoms: C7_10  and  O3_11 
REMARK    5  A    between atoms: C10_15  and  O4_16 
REMARK    6  A    between atoms: C13_21  and  C14_22 
REMARK    7  A    between atoms: C14_22  and  C15_23 
REMARK    8  A    between atoms: C16_24  and  C17_25 
REMARK    9  A    between atoms: C17_25  and  C18_26 
ROOT
HETATM    1  N1  UNL     1      25.030 -28.536   3.230  1.00  0.00    -0.269 N 
HETATM    2  C7  UNL     1      25.729 -28.248   4.336  1.00  0.00     0.184 A 
HETATM    3  C8  UNL     1      26.332 -27.025   4.132  1.00  0.00     0.139 A 
HETATM    4  C9  UNL     1      25.998 -26.553   2.877  1.00  0.00     0.099 A 
HETATM    5  C10 UNL     1      25.175 -27.534   2.340  1.00  0.00     0.166 A 
HETATM    6  C11 UNL     1      26.504 -25.272   2.405  1.00  0.00     0.169 C 
HETATM    7  O5  UNL     1      26.049 -24.794   1.337  1.00  0.00    -0.292 OA
HETATM    8  C12 UNL     1      27.537 -24.565   3.188  1.00  0.00     0.117 C 
HETATM    9  C13 UNL     1      27.304 -24.859   4.668  1.00  0.00     0.140 C 
HETATM   10  O6  UNL     1      27.165 -26.227   4.906  1.00  0.00    -0.340 OA
ENDROOT
BRANCH   9  11
HETATM   11  C14 UNL     1      26.021 -24.105   5.038  1.00  0.00     0.059 C 
BRANCH  11  12
HETATM   12  C15 UNL     1      25.794 -24.342   6.465  1.00  0.00    -0.028 C 
HETATM   13  C16 UNL     1      25.069 -23.604   7.287  1.00  0.00    -0.030 C 
BRANCH  13  14
HETATM   14  C17 UNL     1      24.354 -22.391   6.877  1.00  0.00     0.031 C 
BRANCH  14  15
HETATM   15  C18 UNL     1      23.164 -22.172   7.803  1.00  0.00    -0.011 C 
HETATM   16  C19 UNL     1      23.350 -22.905   9.108  1.00  0.00     0.007 C 
HETATM   17  C20 UNL     1      22.028 -22.844   9.844  1.00  0.00     0.037 C 
HETATM   18  C21 UNL     1      21.493 -21.457   9.972  1.00  0.00     0.170 C 
HETATM   19  F1  UNL     1      20.211 -21.418   9.494  1.00  0.00    -0.249 F 
HETATM   20  C22 UNL     1      22.374 -20.397   9.386  1.00  0.00     0.037 C 
HETATM   21  C23 UNL     1      22.864 -20.710   8.003  1.00  0.00     0.007 C 
ENDBRANCH  14  15
ENDBRANCH  13  14
ENDBRANCH  11  12
ENDBRANCH   9  11
BRANCH   2  22
HETATM   22  O3  UNL     1      25.813 -29.053   5.463  1.00  0.00    -0.344 OA
ATOM     23  H3  UNL     1      26.086 -28.763   6.326  1.00  0.00     0.219 HD
ENDBRANCH   2  22
BRANCH   5  24
HETATM   24  O4  UNL     1      24.631 -27.409   1.063  1.00  0.00    -0.345 OA
ATOM     25  H4  UNL     1      24.635 -28.033   0.348  1.00  0.00     0.219 HD
ENDBRANCH   5  24
BRANCH   1  26
HETATM   26  C6  UNL     1      24.255 -29.702   3.008  1.00  0.00     0.043 A 
HETATM   27  C5  UNL     1      24.660 -30.695   2.140  1.00  0.00     0.031 A 
HETATM   28  C4  UNL     1      23.881 -31.830   1.941  1.00  0.00     0.020 A 
HETATM   29  C3  UNL     1      22.695 -31.979   2.608  1.00  0.00     0.039 A 
HETATM   30  C25 UNL     1      22.290 -30.989   3.474  1.00  0.00     0.020 A 
HETATM   31  C24 UNL     1      23.048 -29.848   3.691  1.00  0.00     0.031 A 
BRANCH  29  32
HETATM   32  C2  UNL     1      21.846 -33.166   2.422  1.00  0.00     0.292 C 
HETATM   33  O2  UNL     1      21.953 -33.863   1.406  1.00  0.00    -0.259 OA
BRANCH  32  34
HETATM   34  O1  UNL     1      20.916 -33.526   3.375  1.00  0.00    -0.323 OA
HETATM   35  C1  UNL     1      21.306 -34.209   4.560  1.00  0.00     0.213 C 
ENDBRANCH  32  34
ENDBRANCH  29  32
ENDBRANCH   1  26
TORSDOF 9
ENDMDL
MODEL 4
REMARK VINA RESULT: -9.765444176      0.935      1.301
REMARK  9 active torsions:
REMARK  status: ('A' for Active; 'I' for Inactive)
REMARK    1  A    between atoms: O1_2  and  C2_3 
REMARK    2  A    between atoms: C2_3  and  C3_5 
REMARK    3  A    between atoms: C6_8  and  N1_9 
REMARK    4  A    between atoms: C7_10  and  O3_11 
REMARK    5  A    between atoms: C10_15  and  O4_16 
REMARK    6  A    between atoms: C13_21  and  C14_22 
REMARK    7  A    between atoms: C14_22  and  C15_23 
REMARK    8  A    between atoms: C16_24  and  C17_25 
REMARK    9  A    between atoms: C17_25  and  C18_26 
ROOT
HETATM    1  N1  UNL     1      25.010 -28.494   3.263  1.00  0.00    -0.269 N 
HETATM    2  C7  UNL     1      25.710 -28.221   4.372  1.00  0.00     0.184 A 
HETATM    3  C8  UNL     1      26.319 -26.998   4.180  1.00  0.00     0.139 A 
HETATM    4  C9  UNL     1      25.987 -26.512   2.931  1.00  0.00     0.099 A 
HETATM    5  C10 UNL     1      25.159 -27.484   2.384  1.00  0.00     0.166 A 
HETATM    6  C11 UNL     1      26.500 -25.229   2.471  1.00  0.00     0.169 C 
HETATM    7  O5  UNL     1      26.047 -24.739   1.408  1.00  0.00    -0.292 OA
HETATM    8  C12 UNL     1      27.536 -24.535   3.261  1.00  0.00     0.117 C 
HETATM    9  C13 UNL     1      27.301 -24.843   4.739  1.00  0.00     0.140 C 
HETATM   10  O6  UNL     1      27.155 -26.213   4.963  1.00  0.00    -0.340 OA
ENDROOT
BRANCH   9  11
HETATM   11  C14 UNL     1      26.022 -24.087   5.116  1.00  0.00     0.059 C 
BRANCH  11  12
HETATM   12  C15 UNL     1      25.697 -24.475   6.490  1.00  0.00    -0.028 C 
HETATM   13  C16 UNL     1      25.049 -23.753   7.386  1.00  0.00    -0.030 C 
BRANCH  13  14
HETATM   14  C17 UNL     1      24.537 -22.402   7.130  1.00  0.00     0.031 C 
BRANCH  14  15
HETATM   15  C18 UNL     1      23.654 -21.970   8.294  1.00  0.00    -0.011 C 
HETATM   16  C19 UNL     1      22.355 -21.381   7.801  1.00  0.00     0.007 C 
HETATM   17  C20 UNL     1      21.670 -20.753   8.996  1.00  0.00     0.037 C 
HETATM   18  C21 UNL     1      21.539 -21.686  10.153  1.00  0.00     0.170 C 
HETATM   19  F1  UNL     1      22.065 -21.101  11.272  1.00  0.00    -0.249 F 
HETATM   20  C22 UNL     1      22.072 -23.064   9.900  1.00  0.00     0.037 C 
HETATM   21  C23 UNL     1      23.440 -23.082   9.285  1.00  0.00     0.007 C 
ENDBRANCH  14  15
ENDBRANCH  13  14
ENDBRANCH  11  12
ENDBRANCH   9  11
BRANCH   2  22
HETATM   22  O3  UNL     1      25.789 -29.037   5.492  1.00  0.00    -0.344 OA
ATOM     23  H3  UNL     1      26.535 -29.095   6.078  1.00  0.00     0.219 HD
ENDBRANCH   2  22
BRANCH   5  24
HETATM   24  O4  UNL     1      24.616 -27.343   1.108  1.00  0.00    -0.345 OA
ATOM     25  H4  UNL     1      24.491 -28.002   0.436  1.00  0.00     0.219 HD
ENDBRANCH   5  24
BRANCH   1  26
HETATM   26  C6  UNL     1      24.228 -29.654   3.030  1.00  0.00     0.043 A 
HETATM   27  C5  UNL     1      22.852 -29.639   3.123  1.00  0.00     0.031 A 
HETATM   28  C4  UNL     1      22.108 -30.791   2.888  1.00  0.00     0.020 A 
HETATM   29  C3  UNL     1      22.736 -31.962   2.560  1.00  0.00     0.039 A 
HETATM   30  C25 UNL     1      24.109 -31.979   2.468  1.00  0.00     0.020 A 
HETATM   31  C24 UNL     1      24.873 -30.844   2.695  1.00  0.00     0.031 A 
BRANCH  29  32
HETATM   32  C2  UNL     1      21.981 -33.200   2.306  1.00  0.00     0.292 C 
HETATM   33  O2  UNL     1      22.218 -33.886   1.305  1.00  0.00    -0.259 OA
BRANCH  32  34
HETATM   34  O1  UNL     1      20.997 -33.619   3.177  1.00  0.00    -0.323 OA
HETATM   35  C1  UNL     1      21.323 -34.107   4.472  1.00  0.00     0.213 C 
ENDBRANCH  32  34
ENDBRANCH  29  32
ENDBRANCH   1  26
TORSDOF 9
ENDMDL
MODEL 5
REMARK VINA RESULT: -9.700401706      1.505      2.087
REMARK  9 active torsions:
REMARK  status: ('A' for Active; 'I' for Inactive)
REMARK    1  A    between atoms: O1_2  and  C2_3 
REMARK    2  A    between atoms: C2_3  and  C3_5 
REMARK    3  A    between atoms: C6_8  and  N1_9 
REMARK    4  A    between atoms: C7_10  and  O3_11 
REMARK    5  A    between atoms: C10_15  and  O4_16 
REMARK    6  A    between atoms: C13_21  and  C14_22 
REMARK    7  A    between atoms: C14_22  and  C15_23 
REMARK    8  A    between atoms: C16_24  and  C17_25 
REMARK    9  A    between atoms: C17_25  and  C18_26 
ROOT
HETATM    1  N1  UNL     1      24.307 -29.351   1.619  1.00  0.00    -0.269 N 
HETATM    2  C7  UNL     1      25.553 -29.095   2.042  1.00  0.00     0.184 A 
HETATM    3  C8  UNL     1      25.944 -27.906   1.462  1.00  0.00     0.139 A 
HETATM    4  C9  UNL     1      24.921 -27.425   0.668  1.00  0.00     0.099 A 
HETATM    5  C10 UNL     1      23.906 -28.364   0.795  1.00  0.00     0.166 A 
HETATM    6  C11 UNL     1      25.073 -26.176  -0.064  1.00  0.00     0.169 C 
HETATM    7  O5  UNL     1      24.071 -25.681  -0.637  1.00  0.00    -0.292 OA
HETATM    8  C12 UNL     1      26.395 -25.520  -0.118  1.00  0.00     0.117 C 
HETATM    9  C13 UNL     1      27.120 -25.792   1.198  1.00  0.00     0.140 C 
HETATM   10  O6  UNL     1      27.107 -27.149   1.523  1.00  0.00    -0.340 OA
ENDROOT
BRANCH   9  11
HETATM   11  C14 UNL     1      26.374 -24.969   2.255  1.00  0.00     0.059 C 
BRANCH  11  12
HETATM   12  C15 UNL     1      26.631 -25.613   3.545  1.00  0.00    -0.028 C 
HETATM   13  C16 UNL     1      26.746 -25.020   4.719  1.00  0.00    -0.030 C 
BRANCH  13  14
HETATM   14  C17 UNL     1      26.627 -23.571   4.916  1.00  0.00     0.031 C 
BRANCH  14  15
HETATM   15  C18 UNL     1      25.523 -23.290   5.928  1.00  0.00    -0.011 C 
HETATM   16  C19 UNL     1      25.730 -24.088   7.192  1.00  0.00     0.007 C 
HETATM   17  C20 UNL     1      24.469 -23.946   8.018  1.00  0.00     0.037 C 
HETATM   18  C21 UNL     1      24.065 -22.526   8.230  1.00  0.00     0.170 C 
HETATM   19  F1  UNL     1      22.763 -22.360   7.842  1.00  0.00    -0.249 F 
HETATM   20  C22 UNL     1      24.994 -21.520   7.621  1.00  0.00     0.037 C 
HETATM   21  C23 UNL     1      25.364 -21.818   6.198  1.00  0.00     0.007 C 
ENDBRANCH  14  15
ENDBRANCH  13  14
ENDBRANCH  11  12
ENDBRANCH   9  11
BRANCH   2  22
HETATM   22  O3  UNL     1      26.288 -29.896   2.904  1.00  0.00    -0.344 OA
ATOM     23  H3  UNL     1      26.841 -30.623   2.643  1.00  0.00     0.219 HD
ENDBRANCH   2  22
BRANCH   5  24
HETATM   24  O4  UNL     1      22.692 -28.218   0.127  1.00  0.00    -0.345 OA
ATOM     25  H4  UNL     1      21.899 -28.734   0.208  1.00  0.00     0.219 HD
ENDBRANCH   5  24
BRANCH   1  26
HETATM   26  C6  UNL     1      23.519 -30.476   1.971  1.00  0.00     0.043 A 
HETATM   27  C5  UNL     1      22.370 -30.356   2.726  1.00  0.00     0.031 A 
HETATM   28  C4  UNL     1      21.613 -31.476   3.056  1.00  0.00     0.020 A 
HETATM   29  C3  UNL     1      22.000 -32.719   2.634  1.00  0.00     0.039 A 
HETATM   30  C25 UNL     1      23.145 -32.840   1.881  1.00  0.00     0.020 A 
HETATM   31  C24 UNL     1      23.917 -31.740   1.537  1.00  0.00     0.031 A 
BRANCH  29  32
HETATM   32  C2  UNL     1      21.224 -33.925   2.965  1.00  0.00     0.292 C 
HETATM   33  O2  UNL     1      20.786 -34.656   2.069  1.00  0.00    -0.259 OA
BRANCH  32  34
HETATM   34  O1  UNL     1      20.969 -34.263   4.278  1.00  0.00    -0.323 OA
HETATM   35  C1  UNL     1      22.020 -34.338   5.234  1.00  0.00     0.213 C 
ENDBRANCH  32  34
ENDBRANCH  29  32
ENDBRANCH   1  26
TORSDOF 9
ENDMDL
