MODEL 1
REMARK VINA RESULT: -8.976423999      0.000      0.000
REMARK  8 active torsions:
REMARK  status: ('A' for Active; 'I' for Inactive)
REMARK    1  A    between atoms: C2_2  and  N1_5 
REMARK       I    between atoms: N1_5  and  C5_7 
REMARK    2  A    between atoms: C5_7  and  C6_9 
REMARK    3  A    between atoms: C6_9  and  S1_10 
REMARK    4  A    between atoms: S1_10  and  C7_11 
REMARK    5  A    between atoms: C9_16  and  S2_17 
REMARK    6  A    between atoms: S2_17  and  C10_18 
REMARK    7  A    between atoms: C16_24  and  O3_25 
REMARK    8  A    between atoms: N3_27  and  C17_28 
ROOT
HETATM    1  C7  UNL     1      25.655 -27.688   3.069  1.00  0.00     0.152 A 
HETATM    2  N2  UNL     1      25.769 -27.875   4.407  1.00  0.00    -0.302 N 
ATOM      3  H2  UNL     1      25.503 -28.777   4.802  1.00  0.00     0.171 HD
HETATM    4  C8  UNL     1      26.223 -26.911   5.232  1.00  0.00     0.268 A 
HETATM    5  O2  UNL     1      26.342 -27.052   6.473  1.00  0.00    -0.267 OA
HETATM    6  C9  UNL     1      26.564 -25.719   4.631  1.00  0.00     0.124 A 
HETATM    7  C16 UNL     1      26.436 -25.565   3.273  1.00  0.00     0.167 A 
HETATM    8  N3  UNL     1      25.975 -26.552   2.439  1.00  0.00    -0.302 N 
ENDROOT
BRANCH   1   9
HETATM    9  S1  UNL     1      25.096 -29.060   2.123  1.00  0.00    -0.084 SA
BRANCH   9  10
HETATM   10  C6  UNL     1      23.529 -29.672   2.771  1.00  0.00     0.185 C 
BRANCH  10  11
HETATM   11  C5  UNL     1      23.376 -31.141   2.584  1.00  0.00     0.228 C 
HETATM   12  N1  UNL     1      22.654 -31.927   3.517  1.00  0.00    -0.352 N 
ATOM     13  H1  UNL     1      22.234 -31.479   4.331  1.00  0.00     0.163 HD
HETATM   14  O1  UNL     1      23.905 -31.687   1.570  1.00  0.00    -0.273 OA
BRANCH  12  15
HETATM   15  C2  UNL     1      22.502 -33.365   3.331  1.00  0.00     0.022 C 
HETATM   16  C1  UNL     1      23.852 -34.017   3.521  1.00  0.00     0.037 C 
HETATM   17  C3  UNL     1      21.582 -33.910   4.430  1.00  0.00     0.037 C 
HETATM   18  C4  UNL     1      21.920 -33.736   1.998  1.00  0.00     0.037 C 
ENDBRANCH  12  15
ENDBRANCH  10  11
ENDBRANCH   9  10
ENDBRANCH   1   9
BRANCH   8  19
HETATM   19  C17 UNL     1      25.928 -26.283   1.057  1.00  0.00     0.094 C 
HETATM   20  C18 UNL     1      24.795 -26.720   0.233  1.00  0.00     0.026 C 
HETATM   21  C19 UNL     1      24.746 -25.816  -1.009  1.00  0.00     0.002 C 
HETATM   22  C20 UNL     1      25.961 -26.182  -1.812  1.00  0.00     0.000 C 
HETATM   23  C21 UNL     1      26.924 -27.066  -1.110  1.00  0.00     0.002 C 
HETATM   24  C22 UNL     1      27.197 -26.762   0.323  1.00  0.00     0.026 C 
ENDBRANCH   8  19
BRANCH   7  25
HETATM   25  O3  UNL     1      26.812 -24.313   2.770  1.00  0.00    -0.345 OA
ATOM     26  H3  UNL     1      26.137 -23.844   2.295  1.00  0.00     0.219 HD
ENDBRANCH   7  25
BRANCH   6  27
HETATM   27  S2  UNL     1      27.180 -24.413   5.690  1.00  0.00    -0.081 SA
BRANCH  27  28
HETATM   28  C10 UNL     1      25.842 -23.591   6.526  1.00  0.00     0.005 A 
HETATM   29  C11 UNL     1      25.404 -22.325   6.120  1.00  0.00     0.019 A 
HETATM   30  C12 UNL     1      24.361 -21.711   6.774  1.00  0.00     0.001 A 
HETATM   31  C13 UNL     1      23.736 -22.311   7.822  1.00  0.00     0.000 A 
HETATM   32  C14 UNL     1      24.137 -23.561   8.258  1.00  0.00     0.001 A 
HETATM   33  C15 UNL     1      25.180 -24.154   7.588  1.00  0.00     0.019 A 
ENDBRANCH  27  28
ENDBRANCH   6  27
TORSDOF 8
ENDMDL
MODEL 2
REMARK VINA RESULT: -8.929365446      0.885      1.052
REMARK  8 active torsions:
REMARK  status: ('A' for Active; 'I' for Inactive)
REMARK    1  A    between atoms: C2_2  and  N1_5 
REMARK       I    between atoms: N1_5  and  C5_7 
REMARK    2  A    between atoms: C5_7  and  C6_9 
REMARK    3  A    between atoms: C6_9  and  S1_10 
REMARK    4  A    between atoms: S1_10  and  C7_11 
REMARK    5  A    between atoms: C9_16  and  S2_17 
REMARK    6  A    between atoms: S2_17  and  C10_18 
REMARK    7  A    between atoms: C16_24  and  O3_25 
REMARK    8  A    between atoms: N3_27  and  C17_28 
ROOT
HETATM    1  C7  UNL     1      25.458 -27.881   2.738  1.00  0.00     0.152 A 
HETATM    2  N2  UNL     1      25.474 -28.163   4.063  1.00  0.00    -0.302 N 
ATOM      3  H2  UNL     1      25.068 -29.042   4.385  1.00  0.00     0.171 HD
HETATM    4  C8  UNL     1      26.009 -27.323   4.971  1.00  0.00     0.268 A 
HETATM    5  O2  UNL     1      26.041 -27.553   6.204  1.00  0.00    -0.267 OA
HETATM    6  C9  UNL     1      26.540 -26.155   4.467  1.00  0.00     0.124 A 
HETATM    7  C16 UNL     1      26.506 -25.902   3.118  1.00  0.00     0.167 A 
HETATM    8  N3  UNL     1      25.961 -26.764   2.200  1.00  0.00    -0.302 N 
ENDROOT
BRANCH   1   9
HETATM    9  S1  UNL     1      24.770 -29.103   1.677  1.00  0.00    -0.084 SA
BRANCH   9  10
HETATM   10  C6  UNL     1      24.952 -30.742   2.405  1.00  0.00     0.185 C 
BRANCH  10  11
HETATM   11  C5  UNL     1      23.674 -31.252   2.974  1.00  0.00     0.228 C 
HETATM   12  N1  UNL     1      23.029 -32.386   2.421  1.00  0.00    -0.352 N 
ATOM     13  H1  UNL     1      23.445 -32.860   1.619  1.00  0.00     0.163 HD
HETATM   14  O1  UNL     1      23.165 -30.654   3.968  1.00  0.00    -0.273 OA
BRANCH  12  15
HETATM   15  C2  UNL     1      21.779 -32.888   2.980  1.00  0.00     0.022 C 
HETATM   16  C1  UNL     1      21.272 -34.003   2.095  1.00  0.00     0.037 C 
HETATM   17  C3  UNL     1      22.066 -33.504   4.356  1.00  0.00     0.037 C 
HETATM   18  C4  UNL     1      20.731 -31.826   3.146  1.00  0.00     0.037 C 
ENDBRANCH  12  15
ENDBRANCH  10  11
ENDBRANCH   9  10
ENDBRANCH   1   9
BRANCH   8  19
HETATM   19  C17 UNL     1      26.024 -26.408   0.838  1.00  0.00     0.094 C 
HETATM   20  C18 UNL     1      24.875 -26.599  -0.054  1.00  0.00     0.026 C 
HETATM   21  C19 UNL     1      25.035 -25.626  -1.233  1.00  0.00     0.002 C 
HETATM   22  C20 UNL     1      26.209 -26.140  -2.014  1.00  0.00     0.000 C 
HETATM   23  C21 UNL     1      26.980 -27.213  -1.338  1.00  0.00     0.002 C 
HETATM   24  C22 UNL     1      27.231 -27.046   0.121  1.00  0.00     0.026 C 
ENDBRANCH   8  19
BRANCH   7  25
HETATM   25  O3  UNL     1      27.074 -24.687   2.718  1.00  0.00    -0.345 OA
ATOM     26  H3  UNL     1      26.486 -24.087   2.274  1.00  0.00     0.219 HD
ENDBRANCH   7  25
BRANCH   6  27
HETATM   27  S2  UNL     1      27.268 -25.013   5.638  1.00  0.00    -0.081 SA
BRANCH  27  28
HETATM   28  C10 UNL     1      26.021 -23.985   6.382  1.00  0.00     0.005 A 
HETATM   29  C11 UNL     1      25.710 -22.728   5.851  1.00  0.00     0.019 A 
HETATM   30  C12 UNL     1      24.735 -21.953   6.436  1.00  0.00     0.001 A 
HETATM   31  C13 UNL     1      24.057 -22.383   7.534  1.00  0.00     0.000 A 
HETATM   32  C14 UNL     1      24.334 -23.618   8.092  1.00  0.00     0.001 A 
HETATM   33  C15 UNL     1      25.311 -24.373   7.490  1.00  0.00     0.019 A 
ENDBRANCH  27  28
ENDBRANCH   6  27
TORSDOF 8
ENDMDL
MODEL 3
REMARK VINA RESULT: -8.806428503      0.738      1.169
REMARK  8 active torsions:
REMARK  status: ('A' for Active; 'I' for Inactive)
REMARK    1  A    between atoms: C2_2  and  N1_5 
REMARK       I    between atoms: N1_5  and  C5_7 
REMARK    2  A    between atoms: C5_7  and  C6_9 
REMARK    3  A    between atoms: C6_9  and  S1_10 
REMARK    4  A    between atoms: S1_10  and  C7_11 
REMARK    5  A    between atoms: C9_16  and  S2_17 
REMARK    6  A    between atoms: S2_17  and  C10_18 
REMARK    7  A    between atoms: C16_24  and  O3_25 
REMARK    8  A    between atoms: N3_27  and  C17_28 
ROOT
HETATM    1  C7  UNL     1      25.574 -28.063   3.102  1.00  0.00     0.152 A 
HETATM    2  N2  UNL     1      25.604 -28.108   4.456  1.00  0.00    -0.302 N 
ATOM      3  H2  UNL     1      25.203 -28.916   4.931  1.00  0.00     0.171 HD
HETATM    4  C8  UNL     1      26.146 -27.121   5.197  1.00  0.00     0.268 A 
HETATM    5  O2  UNL     1      26.191 -27.132   6.451  1.00  0.00    -0.267 OA
HETATM    6  C9  UNL     1      26.670 -26.060   4.491  1.00  0.00     0.124 A 
HETATM    7  C16 UNL     1      26.623 -26.048   3.119  1.00  0.00     0.167 A 
HETATM    8  N3  UNL     1      26.070 -27.057   2.372  1.00  0.00    -0.302 N 
ENDROOT
BRANCH   1   9
HETATM    9  S1  UNL     1      24.878 -29.451   2.279  1.00  0.00    -0.084 SA
BRANCH   9  10
HETATM   10  C6  UNL     1      23.334 -29.941   3.070  1.00  0.00     0.185 C 
BRANCH  10  11
HETATM   11  C5  UNL     1      23.164 -31.420   3.107  1.00  0.00     0.228 C 
HETATM   12  N1  UNL     1      23.127 -32.121   4.338  1.00  0.00    -0.352 N 
ATOM     13  H1  UNL     1      23.222 -31.606   5.213  1.00  0.00     0.163 HD
HETATM   14  O1  UNL     1      23.050 -32.050   2.014  1.00  0.00    -0.273 OA
BRANCH  12  15
HETATM   15  C2  UNL     1      22.956 -33.570   4.374  1.00  0.00     0.022 C 
HETATM   16  C1  UNL     1      23.986 -34.195   3.462  1.00  0.00     0.037 C 
HETATM   17  C3  UNL     1      23.254 -34.067   5.794  1.00  0.00     0.037 C 
HETATM   18  C4  UNL     1      21.575 -34.016   3.995  1.00  0.00     0.037 C 
ENDBRANCH  12  15
ENDBRANCH  10  11
ENDBRANCH   9  10
ENDBRANCH   1   9
BRANCH   8  19
HETATM   19  C17 UNL     1      26.120 -26.945   0.968  1.00  0.00     0.094 C 
HETATM   20  C18 UNL     1      27.395 -27.007   0.243  1.00  0.00     0.026 C 
HETATM   21  C19 UNL     1      27.089 -27.438  -1.200  1.00  0.00     0.002 C 
HETATM   22  C20 UNL     1      26.361 -26.277  -1.814  1.00  0.00     0.000 C 
HETATM   23  C21 UNL     1      25.952 -25.224  -0.851  1.00  0.00     0.002 C 
HETATM   24  C22 UNL     1      25.400 -25.682   0.455  1.00  0.00     0.026 C 
ENDBRANCH   8  19
BRANCH   7  25
HETATM   25  O3  UNL     1      27.184 -24.921   2.506  1.00  0.00    -0.345 OA
ATOM     26  H3  UNL     1      27.981 -24.593   2.906  1.00  0.00     0.219 HD
ENDBRANCH   7  25
BRANCH   6  27
HETATM   27  S2  UNL     1      27.408 -24.730   5.436  1.00  0.00    -0.081 SA
BRANCH  27  28
HETATM   28  C10 UNL     1      26.157 -23.747   6.233  1.00  0.00     0.005 A 
HETATM   29  C11 UNL     1      25.887 -22.440   5.812  1.00  0.00     0.019 A 
HETATM   30  C12 UNL     1      24.908 -21.700   6.435  1.00  0.00     0.001 A 
HETATM   31  C13 UNL     1      24.186 -22.215   7.466  1.00  0.00     0.000 A 
HETATM   32  C14 UNL     1      24.420 -23.502   7.915  1.00  0.00     0.001 A 
HETATM   33  C15 UNL     1      25.402 -24.220   7.277  1.00  0.00     0.019 A 
ENDBRANCH  27  28
ENDBRANCH   6  27
TORSDOF 8
ENDMDL
MODEL 4
REMARK VINA RESULT: -8.659509699      1.191      1.573
REMARK  8 active torsions:
REMARK  status: ('A' for Active; 'I' for Inactive)
REMARK    1  A    between atoms: C2_2  and  N1_5 
REMARK       I    between atoms: N1_5  and  C5_7 
REMARK    2  A    between atoms: C5_7  and  C6_9 
REMARK    3  A    between atoms: C6_9  and  S1_10 
REMARK    4  A    between atoms: S1_10  and  C7_11 
REMARK    5  A    between atoms: C9_16  and  S2_17 
REMARK    6  A    between atoms: S2_17  and  C10_18 
REMARK    7  A    between atoms: C16_24  and  O3_25 
REMARK    8  A    between atoms: N3_27  and  C17_28 
ROOT
HETATM    1  C7  UNL     1      25.101 -28.470   2.473  1.00  0.00     0.152 A 
HETATM    2  N2  UNL     1      25.033 -28.699   3.807  1.00  0.00    -0.302 N 
ATOM      3  H2  UNL     1      24.459 -29.470   4.146  1.00  0.00     0.171 HD
HETATM    4  C8  UNL     1      25.700 -27.942   4.702  1.00  0.00     0.268 A 
HETATM    5  O2  UNL     1      25.659 -28.127   5.942  1.00  0.00    -0.267 OA
HETATM    6  C9  UNL     1      26.455 -26.917   4.175  1.00  0.00     0.124 A 
HETATM    7  C16 UNL     1      26.501 -26.714   2.818  1.00  0.00     0.167 A 
HETATM    8  N3  UNL     1      25.821 -27.491   1.914  1.00  0.00    -0.302 N 
ENDROOT
BRANCH   1   9
HETATM    9  S1  UNL     1      24.215 -29.577   1.434  1.00  0.00    -0.084 SA
BRANCH   9  10
HETATM   10  C6  UNL     1      24.942 -31.226   1.509  1.00  0.00     0.185 C 
BRANCH  10  11
HETATM   11  C5  UNL     1      23.991 -32.238   2.046  1.00  0.00     0.228 C 
HETATM   12  N1  UNL     1      22.701 -31.862   2.498  1.00  0.00    -0.352 N 
ATOM     13  H1  UNL     1      22.420 -30.883   2.458  1.00  0.00     0.163 HD
HETATM   14  O1  UNL     1      24.352 -33.451   2.093  1.00  0.00    -0.273 OA
BRANCH  12  15
HETATM   15  C2  UNL     1      21.768 -32.855   3.020  1.00  0.00     0.022 C 
HETATM   16  C1  UNL     1      22.332 -33.410   4.307  1.00  0.00     0.037 C 
HETATM   17  C3  UNL     1      20.450 -32.156   3.372  1.00  0.00     0.037 C 
HETATM   18  C4  UNL     1      21.473 -33.963   2.051  1.00  0.00     0.037 C 
ENDBRANCH  12  15
ENDBRANCH  10  11
ENDBRANCH   9  10
ENDBRANCH   1   9
BRANCH   8  19
HETATM   19  C17 UNL     1      25.982 -27.206   0.543  1.00  0.00     0.094 C 
HETATM   20  C18 UNL     1      27.309 -26.952  -0.032  1.00  0.00     0.026 C 
HETATM   21  C19 UNL     1      27.229 -27.256  -1.537  1.00  0.00     0.002 C 
HETATM   22  C20 UNL     1      26.355 -26.179  -2.112  1.00  0.00     0.000 C 
HETATM   23  C21 UNL     1      25.664 -25.338  -1.103  1.00  0.00     0.002 C 
HETATM   24  C22 UNL     1      25.087 -26.040   0.078  1.00  0.00     0.026 C 
ENDBRANCH   8  19
BRANCH   7  25
HETATM   25  O3  UNL     1      27.300 -25.646   2.395  1.00  0.00    -0.345 OA
ATOM     26  H3  UNL     1      28.155 -25.884   2.056  1.00  0.00     0.219 HD
ENDBRANCH   7  25
BRANCH   6  27
HETATM   27  S2  UNL     1      27.363 -25.891   5.328  1.00  0.00    -0.081 SA
BRANCH  27  28
HETATM   28  C10 UNL     1      26.316 -24.628   6.015  1.00  0.00     0.005 A 
HETATM   29  C11 UNL     1      26.133 -23.405   5.359  1.00  0.00     0.019 A 
HETATM   30  C12 UNL     1      25.310 -22.445   5.903  1.00  0.00     0.001 A 
HETATM   31  C13 UNL     1      24.661 -22.657   7.078  1.00  0.00     0.000 A 
HETATM   32  C14 UNL     1      24.814 -23.851   7.761  1.00  0.00     0.001 A 
HETATM   33  C15 UNL     1      25.641 -24.793   7.198  1.00  0.00     0.019 A 
ENDBRANCH  27  28
ENDBRANCH   6  27
TORSDOF 8
ENDMDL
MODEL 5
REMARK VINA RESULT: -8.563402378      1.226      1.977
REMARK  8 active torsions:
REMARK  status: ('A' for Active; 'I' for Inactive)
REMARK    1  A    between atoms: C2_2  and  N1_5 
REMARK       I    between atoms: N1_5  and  C5_7 
REMARK    2  A    between atoms: C5_7  and  C6_9 
REMARK    3  A    between atoms: C6_9  and  S1_10 
REMARK    4  A    between atoms: S1_10  and  C7_11 
REMARK    5  A    between atoms: C9_16  and  S2_17 
REMARK    6  A    between atoms: S2_17  and  C10_18 
REMARK    7  A    between atoms: C16_24  and  O3_25 
REMARK    8  A    between atoms: N3_27  and  C17_28 
ROOT
HETATM    1  C7  UNL     1      25.059 -28.553   2.442  1.00  0.00     0.152 A 
HETATM    2  N2  UNL     1      24.989 -28.791   3.774  1.00  0.00    -0.302 N 
ATOM      3  H2  UNL     1      24.410 -29.561   4.107  1.00  0.00     0.171 HD
HETATM    4  C8  UNL     1      25.659 -28.044   4.675  1.00  0.00     0.268 A 
HETATM    5  O2  UNL     1      25.617 -28.237   5.914  1.00  0.00    -0.267 OA
HETATM    6  C9  UNL     1      26.421 -27.020   4.156  1.00  0.00     0.124 A 
HETATM    7  C16 UNL     1      26.469 -26.808   2.800  1.00  0.00     0.167 A 
HETATM    8  N3  UNL     1      25.785 -27.574   1.890  1.00  0.00    -0.302 N 
ENDROOT
BRANCH   1   9
HETATM    9  S1  UNL     1      24.167 -29.647   1.395  1.00  0.00    -0.084 SA
BRANCH   9  10
HETATM   10  C6  UNL     1      24.896 -31.295   1.442  1.00  0.00     0.185 C 
BRANCH  10  11
HETATM   11  C5  UNL     1      23.967 -32.307   2.015  1.00  0.00     0.228 C 
HETATM   12  N1  UNL     1      22.680 -31.938   2.480  1.00  0.00    -0.352 N 
ATOM     13  H1  UNL     1      22.386 -30.963   2.425  1.00  0.00     0.163 HD
HETATM   14  O1  UNL     1      24.343 -33.515   2.082  1.00  0.00    -0.273 OA
BRANCH  12  15
HETATM   15  C2  UNL     1      21.768 -32.931   3.038  1.00  0.00     0.022 C 
HETATM   16  C1  UNL     1      20.462 -32.249   3.369  1.00  0.00     0.037 C 
HETATM   17  C3  UNL     1      21.465 -33.982   1.962  1.00  0.00     0.037 C 
HETATM   18  C4  UNL     1      22.318 -33.634   4.245  1.00  0.00     0.037 C 
ENDBRANCH  12  15
ENDBRANCH  10  11
ENDBRANCH   9  10
ENDBRANCH   1   9
BRANCH   8  19
HETATM   19  C17 UNL     1      25.948 -27.280   0.521  1.00  0.00     0.094 C 
HETATM   20  C18 UNL     1      27.277 -27.037  -0.053  1.00  0.00     0.026 C 
HETATM   21  C19 UNL     1      27.193 -27.328  -1.560  1.00  0.00     0.002 C 
HETATM   22  C20 UNL     1      26.332 -26.236  -2.126  1.00  0.00     0.000 C 
HETATM   23  C21 UNL     1      25.651 -25.396  -1.110  1.00  0.00     0.002 C 
HETATM   24  C22 UNL     1      25.067 -26.100   0.066  1.00  0.00     0.026 C 
ENDBRANCH   8  19
BRANCH   7  25
HETATM   25  O3  UNL     1      27.274 -25.741   2.385  1.00  0.00    -0.345 OA
ATOM     26  H3  UNL     1      26.993 -25.301   1.591  1.00  0.00     0.219 HD
ENDBRANCH   7  25
BRANCH   6  27
HETATM   27  S2  UNL     1      27.334 -26.008   5.316  1.00  0.00    -0.081 SA
BRANCH  27  28
HETATM   28  C10 UNL     1      26.306 -24.717   5.980  1.00  0.00     0.005 A 
HETATM   29  C11 UNL     1      25.632 -24.882   7.195  1.00  0.00     0.019 A 
HETATM   30  C12 UNL     1      24.849 -23.866   7.696  1.00  0.00     0.001 A 
HETATM   31  C13 UNL     1      24.711 -22.690   7.028  1.00  0.00     0.000 A 
HETATM   32  C14 UNL     1      25.358 -22.484   5.823  1.00  0.00     0.001 A 
HETATM   33  C15 UNL     1      26.134 -23.513   5.345  1.00  0.00     0.019 A 
ENDBRANCH  27  28
ENDBRANCH   6  27
TORSDOF 8
ENDMDL
