MODEL 1
REMARK VINA RESULT: -5.870876411      0.000      0.000
REMARK  4 active torsions:
REMARK  status: ('A' for Active; 'I' for Inactive)
REMARK    1  A    between atoms: O1_2  and  C2_3 
REMARK       I    between atoms: C2_3  and  N1_5 
REMARK    2  A    between atoms: C9_20  and  N5_21 
REMARK    3  A    between atoms: N5_21  and  O5_23 
REMARK    4  A    between atoms: C10_25  and  N6_26 
ROOT
HETATM    1  C2  UNL     1      15.545 -23.217  -8.827  1.00  0.00     0.364 C 
HETATM    2  O2  UNL     1      15.524 -24.456  -8.592  1.00  0.00    -0.238 OA
HETATM    3  N1  UNL     1      15.773 -22.685 -10.122  1.00  0.00    -0.295 N 
ATOM      4  H1  UNL     1      14.994 -22.341 -10.683  1.00  0.00     0.171 HD
HETATM    5  C3  UNL     1      16.973 -22.643 -10.578  1.00  0.00     0.143 A 
HETATM    6  C4  UNL     1      18.193 -23.088  -9.916  1.00  0.00     0.318 A 
HETATM    7  O3  UNL     1      18.280 -23.601  -8.755  1.00  0.00    -0.257 OA
HETATM    8  O4  UNL     1      19.267 -22.847 -10.790  1.00  0.00    -0.265 OA
HETATM    9  C5  UNL     1      18.779 -22.274 -11.969  1.00  0.00     0.178 A 
HETATM   10  C6  UNL     1      17.414 -22.136 -11.881  1.00  0.00     0.121 A 
HETATM   11  N2  UNL     1      16.716 -21.607 -12.895  1.00  0.00    -0.185 N 
ATOM     12  H2  UNL     1      15.704 -21.504 -12.833  1.00  0.00     0.184 HD
HETATM   13  C7  UNL     1      17.380 -21.213 -14.001  1.00  0.00     0.695 A 
HETATM   14  N3  UNL     1      16.663 -20.679 -15.021  1.00  0.00    -0.175 N 
ATOM     15  H3  UNL     1      15.651 -20.588 -14.928  1.00  0.00     0.185 HD
HETATM   16  C8  UNL     1      17.261 -20.269 -16.146  1.00  0.00     0.164 A 
HETATM   17  N4  UNL     1      16.471 -19.709 -17.203  1.00  0.00    -0.080 NA
HETATM   18  C9  UNL     1      18.602 -20.391 -16.262  1.00  0.00     0.140 A 
HETATM   19  C10 UNL     1      19.395 -20.941 -15.230  1.00  0.00     0.158 A 
HETATM   20  N7  UNL     1      18.728 -21.335 -14.120  1.00  0.00    -0.091 N 
HETATM   21  C11 UNL     1      19.447 -21.864 -13.114  1.00  0.00     0.304 A 
HETATM   22  O6  UNL     1      20.711 -22.008 -13.159  1.00  0.00    -0.264 OA
ENDROOT
BRANCH   1  23
HETATM   23  O1  UNL     1      15.329 -22.377  -7.726  1.00  0.00    -0.309 OA
HETATM   24  C1  UNL     1      14.567 -21.212  -7.854  1.00  0.00     0.215 C 
ENDBRANCH   1  23
BRANCH  19  25
HETATM   25  N6  UNL     1      20.612 -20.998 -15.460  1.00  0.00    -0.383 N 
ATOM     26  H62 UNL     1      21.087 -21.039 -16.362  1.00  0.00     0.157 HD
ATOM     27  H61 UNL     1      21.217 -21.006 -14.639  1.00  0.00     0.157 HD
ENDBRANCH  19  25
BRANCH  18  28
HETATM   28  N5  UNL     1      19.220 -19.947 -17.471  1.00  0.00    -0.262 N 
ATOM     29  H5  UNL     1      19.596 -19.002 -17.537  1.00  0.00     0.194 HD
BRANCH  28  30
HETATM   30  O5  UNL     1      19.296 -20.732 -18.455  1.00  0.00    -0.289 OA
ATOM     31  H5  UNL     1      18.719 -20.607 -19.200  1.00  0.00     0.244 HD
ENDBRANCH  28  30
ENDBRANCH  18  28
TORSDOF 4
ENDMDL
MODEL 2
REMARK VINA RESULT: -5.801445749      7.640      9.327
REMARK  4 active torsions:
REMARK  status: ('A' for Active; 'I' for Inactive)
REMARK    1  A    between atoms: O1_2  and  C2_3 
REMARK       I    between atoms: C2_3  and  N1_5 
REMARK    2  A    between atoms: C9_20  and  N5_21 
REMARK    3  A    between atoms: N5_21  and  O5_23 
REMARK    4  A    between atoms: C10_25  and  N6_26 
ROOT
HETATM    1  C2  UNL     1      10.885 -17.971  -8.131  1.00  0.00     0.364 C 
HETATM    2  O2  UNL     1      10.627 -16.979  -7.397  1.00  0.00    -0.238 OA
HETATM    3  N1  UNL     1      11.491 -19.155  -7.636  1.00  0.00    -0.295 N 
ATOM      4  H1  UNL     1      10.929 -19.985  -7.451  1.00  0.00     0.171 HD
HETATM    5  C3  UNL     1      12.758 -19.166  -7.426  1.00  0.00     0.143 A 
HETATM    6  C4  UNL     1      13.705 -18.079  -7.635  1.00  0.00     0.318 A 
HETATM    7  O3  UNL     1      13.437 -16.914  -8.070  1.00  0.00    -0.257 OA
HETATM    8  O4  UNL     1      14.981 -18.546  -7.272  1.00  0.00    -0.265 OA
HETATM    9  C5  UNL     1      14.878 -19.873  -6.843  1.00  0.00     0.178 A 
HETATM   10  C6  UNL     1      13.567 -20.279  -6.920  1.00  0.00     0.121 A 
HETATM   11  N2  UNL     1      13.218 -21.522  -6.561  1.00  0.00    -0.185 N 
ATOM     12  H2  UNL     1      12.246 -21.826  -6.616  1.00  0.00     0.184 HD
HETATM   13  C7  UNL     1      14.177 -22.363  -6.123  1.00  0.00     0.695 A 
HETATM   14  N3  UNL     1      13.811 -23.618  -5.762  1.00  0.00    -0.175 N 
ATOM     15  H3  UNL     1      12.831 -23.893  -5.830  1.00  0.00     0.185 HD
HETATM   16  C8  UNL     1      14.714 -24.501  -5.319  1.00  0.00     0.164 A 
HETATM   17  N4  UNL     1      14.291 -25.819  -4.946  1.00  0.00    -0.080 NA
HETATM   18  C9  UNL     1      16.011 -24.130  -5.232  1.00  0.00     0.140 A 
HETATM   19  C10 UNL     1      16.445 -22.836  -5.595  1.00  0.00     0.158 A 
HETATM   20  N7  UNL     1      15.482 -21.992  -6.035  1.00  0.00    -0.091 N 
HETATM   21  C11 UNL     1      15.853 -20.750  -6.390  1.00  0.00     0.304 A 
HETATM   22  O6  UNL     1      17.056 -20.337  -6.332  1.00  0.00    -0.264 OA
ENDROOT
BRANCH   1  23
HETATM   23  O1  UNL     1      10.538 -17.846  -9.483  1.00  0.00    -0.309 OA
HETATM   24  C1  UNL     1      11.205 -18.587 -10.464  1.00  0.00     0.215 C 
ENDBRANCH   1  23
BRANCH  19  25
HETATM   25  N6  UNL     1      17.660 -22.621  -5.469  1.00  0.00    -0.383 N 
ATOM     26  H62 UNL     1      18.308 -23.021  -4.791  1.00  0.00     0.157 HD
ATOM     27  H61 UNL     1      18.062 -21.956  -6.130  1.00  0.00     0.157 HD
ENDBRANCH  19  25
BRANCH  18  28
HETATM   28  N5  UNL     1      16.958 -25.088  -4.757  1.00  0.00    -0.262 N 
ATOM     29  H5  UNL     1      17.105 -25.960  -5.265  1.00  0.00     0.194 HD
BRANCH  28  30
HETATM   30  O5  UNL     1      17.611 -24.848  -3.705  1.00  0.00    -0.289 OA
ATOM     31  H5  UNL     1      17.765 -25.547  -3.080  1.00  0.00     0.244 HD
ENDBRANCH  28  30
ENDBRANCH  18  28
TORSDOF 4
ENDMDL
MODEL 3
REMARK VINA RESULT: -5.672651091      6.041      9.468
REMARK  4 active torsions:
REMARK  status: ('A' for Active; 'I' for Inactive)
REMARK    1  A    between atoms: O1_2  and  C2_3 
REMARK       I    between atoms: C2_3  and  N1_5 
REMARK    2  A    between atoms: C9_20  and  N5_21 
REMARK    3  A    between atoms: N5_21  and  O5_23 
REMARK    4  A    between atoms: C10_25  and  N6_26 
ROOT
HETATM    1  C2  UNL     1      16.199 -23.206  -8.421  1.00  0.00     0.364 C 
HETATM    2  O2  UNL     1      17.378 -23.046  -8.839  1.00  0.00    -0.238 OA
HETATM    3  N1  UNL     1      15.316 -22.122  -8.181  1.00  0.00    -0.295 N 
ATOM      4  H1  UNL     1      14.585 -21.892  -8.854  1.00  0.00     0.171 HD
HETATM    5  C3  UNL     1      15.448 -21.436  -7.103  1.00  0.00     0.143 A 
HETATM    6  C4  UNL     1      16.428 -21.626  -6.041  1.00  0.00     0.318 A 
HETATM    7  O3  UNL     1      17.334 -22.517  -5.998  1.00  0.00    -0.257 OA
HETATM    8  O4  UNL     1      16.195 -20.643  -5.063  1.00  0.00    -0.265 OA
HETATM    9  C5  UNL     1      15.117 -19.847  -5.461  1.00  0.00     0.178 A 
HETATM   10  C6  UNL     1      14.644 -20.288  -6.674  1.00  0.00     0.121 A 
HETATM   11  N2  UNL     1      13.606 -19.677  -7.263  1.00  0.00    -0.185 N 
ATOM     12  H2  UNL     1      13.254 -20.002  -8.162  1.00  0.00     0.184 HD
HETATM   13  C7  UNL     1      13.038 -18.624  -6.641  1.00  0.00     0.695 A 
HETATM   14  N3  UNL     1      11.988 -18.015  -7.247  1.00  0.00    -0.175 N 
ATOM     15  H3  UNL     1      11.657 -18.364  -8.147  1.00  0.00     0.185 HD
HETATM   16  C8  UNL     1      11.379 -16.964  -6.683  1.00  0.00     0.164 A 
HETATM   17  N4  UNL     1      10.273 -16.345  -7.353  1.00  0.00    -0.080 NA
HETATM   18  C9  UNL     1      11.822 -16.508  -5.491  1.00  0.00     0.140 A 
HETATM   19  C10 UNL     1      12.911 -17.106  -4.819  1.00  0.00     0.158 A 
HETATM   20  N7  UNL     1      13.481 -18.163  -5.442  1.00  0.00    -0.091 N 
HETATM   21  C11 UNL     1      14.521 -18.761  -4.835  1.00  0.00     0.304 A 
HETATM   22  O6  UNL     1      14.987 -18.381  -3.713  1.00  0.00    -0.264 OA
ENDROOT
BRANCH   1  23
HETATM   23  O1  UNL     1      15.797 -24.531  -8.201  1.00  0.00    -0.309 OA
HETATM   24  C1  UNL     1      15.078 -24.879  -7.053  1.00  0.00     0.215 C 
ENDBRANCH   1  23
BRANCH  19  25
HETATM   25  N6  UNL     1      13.219 -16.592  -3.732  1.00  0.00    -0.383 N 
ATOM     26  H62 UNL     1      13.941 -15.899  -3.540  1.00  0.00     0.157 HD
ATOM     27  H61 UNL     1      12.679 -16.907  -2.926  1.00  0.00     0.157 HD
ENDBRANCH  19  25
BRANCH  18  28
HETATM   28  N5  UNL     1      11.158 -15.386  -4.908  1.00  0.00    -0.262 N 
ATOM     29  H5  UNL     1      10.192 -15.468  -4.593  1.00  0.00     0.194 HD
BRANCH  28  30
HETATM   30  O5  UNL     1      11.775 -14.292  -4.786  1.00  0.00    -0.289 OA
ATOM     31  H5  UNL     1      12.068 -14.013  -3.926  1.00  0.00     0.244 HD
ENDBRANCH  28  30
ENDBRANCH  18  28
TORSDOF 4
ENDMDL
MODEL 4
REMARK VINA RESULT: -5.617420039      6.871      7.639
REMARK  4 active torsions:
REMARK  status: ('A' for Active; 'I' for Inactive)
REMARK    1  A    between atoms: O1_2  and  C2_3 
REMARK       I    between atoms: C2_3  and  N1_5 
REMARK    2  A    between atoms: C9_20  and  N5_21 
REMARK    3  A    between atoms: N5_21  and  O5_23 
REMARK    4  A    between atoms: C10_25  and  N6_26 
ROOT
HETATM    1  C2  UNL     1      14.815 -27.112  -6.457  1.00  0.00     0.364 C 
HETATM    2  O2  UNL     1      15.888 -27.736  -6.680  1.00  0.00    -0.238 OA
HETATM    3  N1  UNL     1      14.567 -25.808  -6.959  1.00  0.00    -0.295 N 
ATOM      4  H1  UNL     1      13.970 -25.673  -7.775  1.00  0.00     0.171 HD
HETATM    5  C3  UNL     1      15.104 -24.800  -6.372  1.00  0.00     0.143 A 
HETATM    6  C4  UNL     1      15.975 -24.811  -5.203  1.00  0.00     0.318 A 
HETATM    7  O3  UNL     1      16.359 -25.835  -4.555  1.00  0.00    -0.257 OA
HETATM    8  O4  UNL     1      16.319 -23.479  -4.914  1.00  0.00    -0.265 OA
HETATM    9  C5  UNL     1      15.707 -22.634  -5.845  1.00  0.00     0.178 A 
HETATM   10  C6  UNL     1      14.973 -23.386  -6.732  1.00  0.00     0.121 A 
HETATM   11  N2  UNL     1      14.291 -22.794  -7.723  1.00  0.00    -0.185 N 
ATOM     12  H2  UNL     1      13.746 -23.349  -8.382  1.00  0.00     0.184 HD
HETATM   13  C7  UNL     1      14.341 -21.451  -7.831  1.00  0.00     0.695 A 
HETATM   14  N3  UNL     1      13.647 -20.865  -8.838  1.00  0.00    -0.175 N 
ATOM     15  H3  UNL     1      13.110 -21.446  -9.482  1.00  0.00     0.185 HD
HETATM   16  C8  UNL     1      13.655 -19.536  -9.001  1.00  0.00     0.164 A 
HETATM   17  N4  UNL     1      12.909 -18.951 -10.077  1.00  0.00    -0.080 NA
HETATM   18  C9  UNL     1      14.368 -18.771  -8.145  1.00  0.00     0.140 A 
HETATM   19  C10 UNL     1      15.108 -19.332  -7.080  1.00  0.00     0.158 A 
HETATM   20  N7  UNL     1      15.057 -20.680  -6.971  1.00  0.00    -0.091 N 
HETATM   21  C11 UNL     1      15.748 -21.253  -5.971  1.00  0.00     0.304 A 
HETATM   22  O6  UNL     1      16.440 -20.591  -5.130  1.00  0.00    -0.264 OA
ENDROOT
BRANCH   1  23
HETATM   23  O1  UNL     1      13.863 -27.780  -5.676  1.00  0.00    -0.309 OA
HETATM   24  C1  UNL     1      14.258 -28.696  -4.695  1.00  0.00     0.215 C 
ENDBRANCH   1  23
BRANCH  19  25
HETATM   25  N6  UNL     1      15.719 -18.522  -6.366  1.00  0.00    -0.383 N 
ATOM     26  H62 UNL     1      15.417 -17.601  -6.049  1.00  0.00     0.157 HD
ATOM     27  H61 UNL     1      16.645 -18.818  -6.057  1.00  0.00     0.157 HD
ENDBRANCH  19  25
BRANCH  18  28
HETATM   28  N5  UNL     1      14.362 -17.356  -8.337  1.00  0.00    -0.262 N 
ATOM     29  H5  UNL     1      15.142 -16.899  -8.810  1.00  0.00     0.194 HD
BRANCH  28  30
HETATM   30  O5  UNL     1      13.387 -16.675  -7.917  1.00  0.00    -0.289 OA
ATOM     31  H5  UNL     1      13.495 -15.742  -7.771  1.00  0.00     0.244 HD
ENDBRANCH  28  30
ENDBRANCH  18  28
TORSDOF 4
ENDMDL
MODEL 5
REMARK VINA RESULT: -5.590121993      6.594      9.196
REMARK  4 active torsions:
REMARK  status: ('A' for Active; 'I' for Inactive)
REMARK    1  A    between atoms: O1_2  and  C2_3 
REMARK       I    between atoms: C2_3  and  N1_5 
REMARK    2  A    between atoms: C9_20  and  N5_21 
REMARK    3  A    between atoms: N5_21  and  O5_23 
REMARK    4  A    between atoms: C10_25  and  N6_26 
ROOT
HETATM    1  C2  UNL     1      11.680 -17.239  -5.886  1.00  0.00     0.364 C 
HETATM    2  O2  UNL     1      12.452 -16.295  -5.565  1.00  0.00    -0.238 OA
HETATM    3  N1  UNL     1      12.039 -18.605  -5.750  1.00  0.00    -0.295 N 
ATOM      4  H1  UNL     1      11.687 -19.156  -4.969  1.00  0.00     0.171 HD
HETATM    5  C3  UNL     1      12.814 -19.136  -6.626  1.00  0.00     0.143 A 
HETATM    6  C4  UNL     1      13.404 -18.499  -7.797  1.00  0.00     0.318 A 
HETATM    7  O3  UNL     1      13.250 -17.290  -8.159  1.00  0.00    -0.257 OA
HETATM    8  O4  UNL     1      14.179 -19.464  -8.464  1.00  0.00    -0.265 OA
HETATM    9  C5  UNL     1      14.105 -20.674  -7.767  1.00  0.00     0.178 A 
HETATM   10  C6  UNL     1      13.300 -20.519  -6.663  1.00  0.00     0.121 A 
HETATM   11  N2  UNL     1      13.075 -21.548  -5.835  1.00  0.00    -0.185 N 
ATOM     12  H2  UNL     1      12.478 -21.436  -5.016  1.00  0.00     0.184 HD
HETATM   13  C7  UNL     1      13.654 -22.735  -6.106  1.00  0.00     0.695 A 
HETATM   14  N3  UNL     1      13.418 -23.769  -5.260  1.00  0.00    -0.175 N 
ATOM     15  H3  UNL     1      12.816 -23.626  -4.449  1.00  0.00     0.185 HD
HETATM   16  C8  UNL     1      13.963 -24.973  -5.472  1.00  0.00     0.164 A 
HETATM   17  N4  UNL     1      13.693 -26.043  -4.557  1.00  0.00    -0.080 NA
HETATM   18  C9  UNL     1      14.759 -25.156  -6.549  1.00  0.00     0.140 A 
HETATM   19  C10 UNL     1      15.036 -24.113  -7.460  1.00  0.00     0.158 A 
HETATM   20  N7  UNL     1      14.455 -22.922  -7.188  1.00  0.00    -0.091 N 
HETATM   21  C11 UNL     1      14.693 -21.902  -8.031  1.00  0.00     0.304 A 
HETATM   22  O6  UNL     1      15.433 -22.007  -9.063  1.00  0.00    -0.264 OA
ENDROOT
BRANCH   1  23
HETATM   23  O1  UNL     1      10.427 -16.867  -6.393  1.00  0.00    -0.309 OA
HETATM   24  C1  UNL     1      10.273 -15.686  -7.125  1.00  0.00     0.215 C 
ENDBRANCH   1  23
BRANCH  19  25
HETATM   25  N6  UNL     1      15.782 -24.410  -8.406  1.00  0.00    -0.383 N 
ATOM     26  H62 UNL     1      16.754 -24.143  -8.557  1.00  0.00     0.157 HD
ATOM     27  H61 UNL     1      15.365 -24.999  -9.128  1.00  0.00     0.157 HD
ENDBRANCH  19  25
BRANCH  18  28
HETATM   28  N5  UNL     1      15.330 -26.449  -6.756  1.00  0.00    -0.262 N 
ATOM     29  H5  UNL     1      16.258 -26.665  -6.391  1.00  0.00     0.194 HD
BRANCH  28  30
HETATM   30  O5  UNL     1      14.679 -27.321  -7.394  1.00  0.00    -0.289 OA
ATOM     31  H5  UNL     1      14.687 -28.223  -7.095  1.00  0.00     0.244 HD
ENDBRANCH  28  30
ENDBRANCH  18  28
TORSDOF 4
ENDMDL
