MODEL 1
REMARK VINA RESULT: -6.339203224      0.000      0.000
REMARK  3 active torsions:
REMARK  status: ('A' for Active; 'I' for Inactive)
REMARK    1  A    between atoms: C2_2  and  O1_3 
REMARK    2  A    between atoms: O1_3  and  C3_4 
REMARK    3  A    between atoms: C3_4  and  C4_6 
ROOT
HETATM    1  C4  UNL     1      14.266 -20.477  -8.544  1.00  0.00     0.130 A 
HETATM    2  C5  UNL     1      14.535 -19.492  -7.709  1.00  0.00     0.107 A 
HETATM    3  C6  UNL     1      14.032 -18.148  -7.939  1.00  0.00     0.104 C 
HETATM    4  N1  UNL     1      13.640 -17.066  -8.103  1.00  0.00    -0.191 NA
HETATM    5  C7  UNL     1      15.348 -19.685  -6.512  1.00  0.00     0.101 A 
HETATM    6  N2  UNL     1      15.595 -18.686  -5.704  1.00  0.00    -0.395 N 
ATOM      7  H21 UNL     1      16.163 -18.820  -4.867  1.00  0.00     0.156 HD
ATOM      8  H22 UNL     1      15.232 -17.750  -5.885  1.00  0.00     0.156 HD
HETATM    9  C8  UNL     1      15.866 -21.019  -6.254  1.00  0.00     0.237 A 
HETATM   10  O3  UNL     1      16.567 -21.219  -5.236  1.00  0.00    -0.285 OA
HETATM   11  C9  UNL     1      15.582 -22.118  -7.161  1.00  0.00     0.256 A 
HETATM   12  N3  UNL     1      14.778 -21.785  -8.286  1.00  0.00    -0.342 N 
ATOM     13  H3  UNL     1      14.554 -22.527  -8.951  1.00  0.00     0.163 HD
HETATM   14  O4  UNL     1      16.873 -22.661  -7.728  1.00  0.00    -0.234 OA
HETATM   15  N4  UNL     1      16.402 -23.834  -8.350  1.00  0.00    -0.249 N 
ATOM     16  H4  UNL     1      16.822 -24.257  -9.178  1.00  0.00     0.196 HD
HETATM   17  C10 UNL     1      15.366 -24.303  -7.732  1.00  0.00     0.132 A 
HETATM   18  N5  UNL     1      14.320 -25.245  -7.566  1.00  0.00    -0.320 N 
ATOM     19  H5  UNL     1      14.127 -26.057  -8.152  1.00  0.00     0.169 HD
HETATM   20  C11 UNL     1      13.602 -24.833  -6.430  1.00  0.00     0.186 A 
HETATM   21  C12 UNL     1      12.419 -25.509  -5.933  1.00  0.00     0.136 C 
HETATM   22  N6  UNL     1      11.469 -26.054  -5.546  1.00  0.00    -0.188 NA
HETATM   23  N7  UNL     1      14.112 -23.780  -5.872  1.00  0.00    -0.351 N 
ATOM     24  H7  UNL     1      13.723 -23.311  -5.054  1.00  0.00     0.162 HD
HETATM   25  C13 UNL     1      15.231 -23.389  -6.525  1.00  0.00     0.220 A 
ENDROOT
BRANCH   1  26
HETATM   26  C3  UNL     1      13.449 -20.266  -9.739  1.00  0.00     0.311 C 
HETATM   27  O2  UNL     1      13.981 -20.319 -10.901  1.00  0.00    -0.258 OA
BRANCH  26  28
HETATM   28  O1  UNL     1      12.112 -20.002  -9.758  1.00  0.00    -0.317 OA
BRANCH  28  29
HETATM   29  C2  UNL     1      11.459 -18.967 -10.401  1.00  0.00     0.175 C 
HETATM   30  C1  UNL     1      10.594 -18.109  -9.541  1.00  0.00     0.034 C 
ENDBRANCH  28  29
ENDBRANCH  26  28
ENDBRANCH   1  26
TORSDOF 3
ENDMDL
MODEL 2
REMARK VINA RESULT: -6.261106413      2.350      4.010
REMARK  3 active torsions:
REMARK  status: ('A' for Active; 'I' for Inactive)
REMARK    1  A    between atoms: C2_2  and  O1_3 
REMARK    2  A    between atoms: O1_3  and  C3_4 
REMARK    3  A    between atoms: C3_4  and  C4_6 
ROOT
HETATM    1  C4  UNL     1      13.483 -19.300  -9.269  1.00  0.00     0.130 A 
HETATM    2  C5  UNL     1      12.354 -18.636  -9.110  1.00  0.00     0.107 A 
HETATM    3  C6  UNL     1      11.397 -18.504 -10.197  1.00  0.00     0.104 C 
HETATM    4  N1  UNL     1      10.618 -18.386 -11.052  1.00  0.00    -0.191 NA
HETATM    5  C7  UNL     1      11.994 -17.999  -7.848  1.00  0.00     0.101 A 
HETATM    6  N2  UNL     1      10.865 -17.349  -7.725  1.00  0.00    -0.395 N 
ATOM      7  H21 UNL     1      10.613 -16.903  -6.843  1.00  0.00     0.156 HD
ATOM      8  H22 UNL     1      10.208 -17.268  -8.501  1.00  0.00     0.156 HD
HETATM    9  C8  UNL     1      12.931 -18.114  -6.742  1.00  0.00     0.237 A 
HETATM   10  O3  UNL     1      12.653 -17.578  -5.645  1.00  0.00    -0.285 OA
HETATM   11  C9  UNL     1      14.181 -18.839  -6.894  1.00  0.00     0.256 A 
HETATM   12  N3  UNL     1      14.400 -19.408  -8.179  1.00  0.00    -0.342 N 
ATOM     13  H3  UNL     1      15.266 -19.926  -8.331  1.00  0.00     0.163 HD
HETATM   14  O4  UNL     1      15.346 -17.907  -6.657  1.00  0.00    -0.234 OA
HETATM   15  N4  UNL     1      16.404 -18.835  -6.601  1.00  0.00    -0.249 N 
ATOM     16  H4  UNL     1      17.364 -18.633  -6.879  1.00  0.00     0.196 HD
HETATM   17  C10 UNL     1      15.996 -19.978  -6.149  1.00  0.00     0.132 A 
HETATM   18  N5  UNL     1      16.201 -21.330  -5.779  1.00  0.00    -0.320 N 
ATOM     19  H5  UNL     1      17.077 -21.852  -5.822  1.00  0.00     0.169 HD
HETATM   20  C11 UNL     1      14.955 -21.808  -5.340  1.00  0.00     0.186 A 
HETATM   21  C12 UNL     1      14.719 -23.171  -4.906  1.00  0.00     0.136 C 
HETATM   22  N6  UNL     1      14.539 -24.267  -4.565  1.00  0.00    -0.188 NA
HETATM   23  N7  UNL     1      14.033 -20.896  -5.367  1.00  0.00    -0.351 N 
ATOM     24  H7  UNL     1      13.057 -21.049  -5.114  1.00  0.00     0.162 HD
HETATM   25  C13 UNL     1      14.546 -19.712  -5.778  1.00  0.00     0.220 A 
ENDROOT
BRANCH   1  26
HETATM   26  C3  UNL     1      13.827 -19.933 -10.542  1.00  0.00     0.311 C 
HETATM   27  O2  UNL     1      13.923 -19.231 -11.606  1.00  0.00    -0.258 OA
BRANCH  26  28
HETATM   28  O1  UNL     1      14.071 -21.260 -10.735  1.00  0.00    -0.317 OA
BRANCH  28  29
HETATM   29  C2  UNL     1      15.278 -21.926 -10.629  1.00  0.00     0.175 C 
HETATM   30  C1  UNL     1      15.552 -22.571  -9.312  1.00  0.00     0.034 C 
ENDBRANCH  28  29
ENDBRANCH  26  28
ENDBRANCH   1  26
TORSDOF 3
ENDMDL
MODEL 3
REMARK VINA RESULT: -5.986192809      1.708      2.035
REMARK  3 active torsions:
REMARK  status: ('A' for Active; 'I' for Inactive)
REMARK    1  A    between atoms: C2_2  and  O1_3 
REMARK    2  A    between atoms: O1_3  and  C3_4 
REMARK    3  A    between atoms: C3_4  and  C4_6 
ROOT
HETATM    1  C4  UNL     1      13.943 -19.002  -7.645  1.00  0.00     0.130 A 
HETATM    2  C5  UNL     1      13.482 -18.177  -6.724  1.00  0.00     0.107 A 
HETATM    3  C6  UNL     1      12.661 -17.031  -7.079  1.00  0.00     0.104 C 
HETATM    4  N1  UNL     1      12.003 -16.109  -7.341  1.00  0.00    -0.191 NA
HETATM    5  C7  UNL     1      13.763 -18.358  -5.303  1.00  0.00     0.101 A 
HETATM    6  N2  UNL     1      13.289 -17.521  -4.416  1.00  0.00    -0.395 N 
ATOM      7  H21 UNL     1      13.485 -17.647  -3.423  1.00  0.00     0.156 HD
ATOM      8  H22 UNL     1      12.714 -16.723  -4.688  1.00  0.00     0.156 HD
HETATM    9  C8  UNL     1      14.582 -19.495  -4.915  1.00  0.00     0.237 A 
HETATM   10  O3  UNL     1      14.842 -19.679  -3.705  1.00  0.00    -0.285 OA
HETATM   11  C9  UNL     1      15.100 -20.417  -5.912  1.00  0.00     0.256 A 
HETATM   12  N3  UNL     1      14.748 -20.117  -7.257  1.00  0.00    -0.342 N 
ATOM     13  H3  UNL     1      15.091 -20.737  -7.991  1.00  0.00     0.163 HD
HETATM   14  O4  UNL     1      16.611 -20.413  -5.876  1.00  0.00    -0.234 OA
HETATM   15  N4  UNL     1      16.885 -21.518  -6.706  1.00  0.00    -0.249 N 
ATOM     16  H4  UNL     1      17.721 -21.613  -7.283  1.00  0.00     0.196 HD
HETATM   17  C10 UNL     1      15.937 -22.396  -6.638  1.00  0.00     0.132 A 
HETATM   18  N5  UNL     1      15.331 -23.624  -7.005  1.00  0.00    -0.320 N 
ATOM     19  H5  UNL     1      15.695 -24.317  -7.659  1.00  0.00     0.169 HD
HETATM   20  C11 UNL     1      14.126 -23.693  -6.285  1.00  0.00     0.186 A 
HETATM   21  C12 UNL     1      13.176 -24.783  -6.402  1.00  0.00     0.136 C 
HETATM   22  N6  UNL     1      12.419 -25.658  -6.507  1.00  0.00    -0.188 NA
HETATM   23  N7  UNL     1      13.953 -22.674  -5.502  1.00  0.00    -0.351 N 
ATOM     24  H7  UNL     1      13.130 -22.525  -4.917  1.00  0.00     0.162 HD
HETATM   25  C13 UNL     1      15.013 -21.836  -5.568  1.00  0.00     0.220 A 
ENDROOT
BRANCH   1  26
HETATM   26  C3  UNL     1      13.652 -18.806  -9.064  1.00  0.00     0.311 C 
HETATM   27  O2  UNL     1      14.153 -17.812  -9.694  1.00  0.00    -0.258 OA
BRANCH  26  28
HETATM   28  O1  UNL     1      12.861 -19.604  -9.836  1.00  0.00    -0.317 OA
BRANCH  28  29
HETATM   29  C2  UNL     1      11.481 -19.603  -9.924  1.00  0.00     0.175 C 
HETATM   30  C1  UNL     1      10.865 -18.358 -10.466  1.00  0.00     0.034 C 
ENDBRANCH  28  29
ENDBRANCH  26  28
ENDBRANCH   1  26
TORSDOF 3
ENDMDL
MODEL 4
REMARK VINA RESULT: -5.919528569      1.286      1.356
REMARK  3 active torsions:
REMARK  status: ('A' for Active; 'I' for Inactive)
REMARK    1  A    between atoms: C2_2  and  O1_3 
REMARK    2  A    between atoms: O1_3  and  C3_4 
REMARK    3  A    between atoms: C3_4  and  C4_6 
ROOT
HETATM    1  C4  UNL     1      14.375 -19.936  -7.445  1.00  0.00     0.130 A 
HETATM    2  C5  UNL     1      14.264 -19.216  -6.345  1.00  0.00     0.107 A 
HETATM    3  C6  UNL     1      13.507 -17.975  -6.328  1.00  0.00     0.104 C 
HETATM    4  N1  UNL     1      12.906 -16.980  -6.291  1.00  0.00    -0.191 NA
HETATM    5  C7  UNL     1      14.886 -19.614  -5.086  1.00  0.00     0.101 A 
HETATM    6  N2  UNL     1      14.755 -18.876  -4.013  1.00  0.00    -0.395 N 
ATOM      7  H21 UNL     1      15.190 -19.153  -3.134  1.00  0.00     0.156 HD
ATOM      8  H22 UNL     1      14.219 -18.008  -4.024  1.00  0.00     0.156 HD
HETATM    9  C8  UNL     1      15.650 -20.851  -5.071  1.00  0.00     0.237 A 
HETATM   10  O3  UNL     1      16.198 -21.220  -4.007  1.00  0.00    -0.285 OA
HETATM   11  C9  UNL     1      15.786 -21.659  -6.271  1.00  0.00     0.256 A 
HETATM   12  N3  UNL     1      15.128 -21.150  -7.424  1.00  0.00    -0.342 N 
ATOM     13  H3  UNL     1      15.197 -21.685  -8.290  1.00  0.00     0.163 HD
HETATM   14  O4  UNL     1      17.245 -21.771  -6.650  1.00  0.00    -0.234 OA
HETATM   15  N4  UNL     1      17.171 -22.766  -7.644  1.00  0.00    -0.249 N 
ATOM     16  H4  UNL     1      17.810 -22.841  -8.436  1.00  0.00     0.196 HD
HETATM   17  C10 UNL     1      16.184 -23.574  -7.420  1.00  0.00     0.132 A 
HETATM   18  N5  UNL     1      15.374 -24.691  -7.744  1.00  0.00    -0.320 N 
ATOM     19  H5  UNL     1      15.476 -25.310  -8.549  1.00  0.00     0.169 HD
HETATM   20  C11 UNL     1      14.400 -24.772  -6.734  1.00  0.00     0.186 A 
HETATM   21  C12 UNL     1      13.341 -25.762  -6.711  1.00  0.00     0.136 C 
HETATM   22  N6  UNL     1      12.493 -26.556  -6.704  1.00  0.00    -0.188 NA
HETATM   23  N7  UNL     1      14.550 -23.862  -5.823  1.00  0.00    -0.351 N 
ATOM     24  H7  UNL     1      13.931 -23.736  -5.022  1.00  0.00     0.162 HD
HETATM   25  C13 UNL     1      15.640 -23.103  -6.081  1.00  0.00     0.220 A 
ENDROOT
BRANCH   1  26
HETATM   26  C3  UNL     1      13.744 -19.523  -8.698  1.00  0.00     0.311 C 
HETATM   27  O2  UNL     1      14.318 -18.670  -9.459  1.00  0.00    -0.258 OA
BRANCH  26  28
HETATM   28  O1  UNL     1      12.546 -19.966  -9.174  1.00  0.00    -0.317 OA
BRANCH  28  29
HETATM   29  C2  UNL     1      11.345 -19.281  -9.223  1.00  0.00     0.175 C 
HETATM   30  C1  UNL     1      11.072 -18.538 -10.487  1.00  0.00     0.034 C 
ENDBRANCH  28  29
ENDBRANCH  26  28
ENDBRANCH   1  26
TORSDOF 3
ENDMDL
MODEL 5
REMARK VINA RESULT: -5.892285145      2.748      5.739
REMARK  3 active torsions:
REMARK  status: ('A' for Active; 'I' for Inactive)
REMARK    1  A    between atoms: C2_2  and  O1_3 
REMARK    2  A    between atoms: O1_3  and  C3_4 
REMARK    3  A    between atoms: C3_4  and  C4_6 
ROOT
HETATM    1  C4  UNL     1      15.066 -22.678  -6.118  1.00  0.00     0.130 A 
HETATM    2  C5  UNL     1      16.037 -22.349  -5.287  1.00  0.00     0.107 A 
HETATM    3  C6  UNL     1      17.185 -23.217  -5.086  1.00  0.00     0.104 C 
HETATM    4  N1  UNL     1      18.113 -23.896  -4.910  1.00  0.00    -0.191 NA
HETATM    5  C7  UNL     1      16.022 -21.106  -4.522  1.00  0.00     0.101 A 
HETATM    6  N2  UNL     1      17.001 -20.811  -3.707  1.00  0.00    -0.395 N 
ATOM      7  H21 UNL     1      16.991 -19.942  -3.173  1.00  0.00     0.156 HD
ATOM      8  H22 UNL     1      17.798 -21.435  -3.581  1.00  0.00     0.156 HD
HETATM    9  C8  UNL     1      14.886 -20.216  -4.702  1.00  0.00     0.237 A 
HETATM   10  O3  UNL     1      14.841 -19.142  -4.061  1.00  0.00    -0.285 OA
HETATM   11  C9  UNL     1      13.805 -20.558  -5.612  1.00  0.00     0.256 A 
HETATM   12  N3  UNL     1      13.952 -21.800  -6.289  1.00  0.00    -0.342 N 
ATOM     13  H3  UNL     1      13.216 -22.081  -6.938  1.00  0.00     0.163 HD
HETATM   14  O4  UNL     1      12.506 -20.662  -4.847  1.00  0.00    -0.234 OA
HETATM   15  N4  UNL     1      11.591 -20.742  -5.916  1.00  0.00    -0.249 N 
ATOM     16  H4  UNL     1      10.698 -21.234  -5.876  1.00  0.00     0.196 HD
HETATM   17  C10 UNL     1      12.033 -20.107  -6.954  1.00  0.00     0.132 A 
HETATM   18  N5  UNL     1      11.928 -19.661  -8.295  1.00  0.00    -0.320 N 
ATOM     19  H5  UNL     1      11.158 -19.838  -8.942  1.00  0.00     0.169 HD
HETATM   20  C11 UNL     1      13.097 -18.926  -8.555  1.00  0.00     0.186 A 
HETATM   21  C12 UNL     1      13.405 -18.324  -9.837  1.00  0.00     0.136 C 
HETATM   22  N6  UNL     1      13.645 -17.850 -10.871  1.00  0.00    -0.188 NA
HETATM   23  N7  UNL     1      13.875 -18.845  -7.521  1.00  0.00    -0.351 N 
ATOM     24  H7  UNL     1      14.782 -18.379  -7.512  1.00  0.00     0.162 HD
HETATM   25  C13 UNL     1      13.318 -19.466  -6.455  1.00  0.00     0.220 A 
ENDROOT
BRANCH   1  26
HETATM   26  C3  UNL     1      15.098 -23.928  -6.876  1.00  0.00     0.311 C 
HETATM   27  O2  UNL     1      14.580 -24.991  -6.389  1.00  0.00    -0.258 OA
BRANCH  26  28
HETATM   28  O1  UNL     1      15.648 -24.101  -8.112  1.00  0.00    -0.317 OA
BRANCH  28  29
HETATM   29  C2  UNL     1      15.964 -23.129  -9.044  1.00  0.00     0.175 C 
HETATM   30  C1  UNL     1      17.059 -23.474  -9.996  1.00  0.00     0.034 C 
ENDBRANCH  28  29
ENDBRANCH  26  28
ENDBRANCH   1  26
TORSDOF 3
ENDMDL
