MODEL 1
REMARK VINA RESULT: -6.185987554      0.000      0.000
REMARK  3 active torsions:
REMARK  status: ('A' for Active; 'I' for Inactive)
REMARK    1  A    between atoms: C2_5  and  C3_6 
REMARK    2  A    between atoms: N6_19  and  O3_20 
REMARK    3  A    between atoms: C10_22  and  N7_23 
ROOT
HETATM    1  C3  UNL     1      15.725 -23.123  -8.427  1.00  0.00     0.099 A 
HETATM    2  N3  UNL     1      16.290 -23.252  -9.657  1.00  0.00    -0.294 N 
ATOM      3  H3  UNL     1      16.993 -23.955  -9.886  1.00  0.00     0.187 HD
HETATM    4  N4  UNL     1      15.835 -22.380 -10.509  1.00  0.00    -0.278 N 
HETATM    5  C4  UNL     1      16.236 -22.256 -11.898  1.00  0.00     0.179 C 
HETATM    6  C5  UNL     1      14.931 -21.609  -9.893  1.00  0.00     0.172 A 
HETATM    7  C6  UNL     1      14.856 -22.070  -8.582  1.00  0.00     0.111 A 
HETATM    8  C7  UNL     1      13.982 -21.420  -7.757  1.00  0.00     0.267 A 
HETATM    9  O1  UNL     1      13.857 -21.771  -6.574  1.00  0.00    -0.267 OA
HETATM   10  N5  UNL     1      13.223 -20.375  -8.192  1.00  0.00    -0.268 N 
HETATM   11  C8  UNL     1      12.334 -19.762  -7.240  1.00  0.00     0.164 C 
HETATM   12  C9  UNL     1      13.325 -19.962  -9.462  1.00  0.00     0.357 A 
HETATM   13  O2  UNL     1      12.612 -18.991  -9.845  1.00  0.00    -0.244 OA
HETATM   14  N6  UNL     1      14.171 -20.585 -10.276  1.00  0.00    -0.153 N 
ENDROOT
BRANCH   1  15
HETATM   15  C2  UNL     1      16.013 -23.935  -7.261  1.00  0.00     0.121 A 
HETATM   16  N2  UNL     1      15.550 -25.162  -7.033  1.00  0.00    -0.291 N 
HETATM   17  N1  UNL     1      15.808 -25.906  -5.977  1.00  0.00    -0.271 N 
ATOM     18  H2  UNL     1      14.938 -25.564  -7.744  1.00  0.00     0.187 HD
HETATM   19  C1  UNL     1      15.228 -27.235  -5.862  1.00  0.00     0.180 C 
HETATM   20  C11 UNL     1      16.614 -25.423  -5.002  1.00  0.00     0.194 A 
HETATM   21  N8  UNL     1      17.118 -24.216  -5.142  1.00  0.00    -0.316 N 
HETATM   22  S1  UNL     1      16.909 -26.377  -3.705  1.00  0.00    -0.039 SA
HETATM   23  C10 UNL     1      16.845 -23.454  -6.241  1.00  0.00     0.132 A 
ATOM     24  H8  UNL     1      17.727 -23.841  -4.414  1.00  0.00     0.170 HD
BRANCH  23  25
HETATM   25  N7  UNL     1      17.387 -22.331  -6.248  1.00  0.00    -0.383 N 
ATOM     26  H72 UNL     1      18.387 -22.337  -6.043  1.00  0.00     0.157 HD
ATOM     27  H71 UNL     1      16.897 -21.458  -6.441  1.00  0.00     0.157 HD
ENDBRANCH  23  25
ENDBRANCH   1  15
BRANCH  14  28
HETATM   28  O3  UNL     1      14.255 -20.139 -11.570  1.00  0.00    -0.277 OA
ATOM     29  H3  UNL     1      15.111 -20.027 -11.966  1.00  0.00     0.245 HD
ENDBRANCH  14  28
TORSDOF 3
ENDMDL
MODEL 2
REMARK VINA RESULT: -6.086986804      6.462      9.756
REMARK  3 active torsions:
REMARK  status: ('A' for Active; 'I' for Inactive)
REMARK    1  A    between atoms: C2_5  and  C3_6 
REMARK    2  A    between atoms: N6_19  and  O3_20 
REMARK    3  A    between atoms: C10_22  and  N7_23 
ROOT
HETATM    1  C3  UNL     1      17.919 -20.846 -14.208  1.00  0.00     0.099 A 
HETATM    2  N3  UNL     1      16.689 -21.217 -13.762  1.00  0.00    -0.294 N 
ATOM      3  H3  UNL     1      15.817 -20.964 -14.228  1.00  0.00     0.187 HD
HETATM    4  N4  UNL     1      16.747 -21.929 -12.675  1.00  0.00    -0.278 N 
HETATM    5  C4  UNL     1      15.614 -22.476 -11.952  1.00  0.00     0.179 C 
HETATM    6  C5  UNL     1      18.031 -22.078 -12.326  1.00  0.00     0.172 A 
HETATM    7  C6  UNL     1      18.775 -21.399 -13.287  1.00  0.00     0.111 A 
HETATM    8  C7  UNL     1      20.132 -21.417 -13.131  1.00  0.00     0.267 A 
HETATM    9  O1  UNL     1      20.865 -20.836 -13.945  1.00  0.00    -0.267 OA
HETATM   10  N5  UNL     1      20.729 -22.065 -12.090  1.00  0.00    -0.268 N 
HETATM   11  C8  UNL     1      22.166 -22.021 -12.020  1.00  0.00     0.164 C 
HETATM   12  C9  UNL     1      19.976 -22.706 -11.186  1.00  0.00     0.357 A 
HETATM   13  O2  UNL     1      20.549 -23.301 -10.229  1.00  0.00    -0.244 OA
HETATM   14  N6  UNL     1      18.654 -22.697 -11.326  1.00  0.00    -0.153 N 
ENDROOT
BRANCH   1  15
HETATM   15  C2  UNL     1      18.200 -20.052 -15.389  1.00  0.00     0.121 A 
HETATM   16  N2  UNL     1      18.497 -20.528 -16.595  1.00  0.00    -0.291 N 
HETATM   17  N1  UNL     1      18.753 -19.812 -17.672  1.00  0.00    -0.271 N 
ATOM     18  H2  UNL     1      18.530 -21.543 -16.696  1.00  0.00     0.187 HD
HETATM   19  C1  UNL     1      19.065 -20.473 -18.929  1.00  0.00     0.180 C 
HETATM   20  C11 UNL     1      18.723 -18.460 -17.595  1.00  0.00     0.194 A 
HETATM   21  N8  UNL     1      18.438 -17.901 -16.439  1.00  0.00    -0.316 N 
HETATM   22  S1  UNL     1      19.048 -17.607 -18.954  1.00  0.00    -0.039 SA
HETATM   23  C10 UNL     1      18.175 -18.652 -15.331  1.00  0.00     0.132 A 
ATOM     24  H8  UNL     1      18.413 -16.883 -16.370  1.00  0.00     0.170 HD
BRANCH  23  25
HETATM   25  N7  UNL     1      17.918 -17.996 -14.302  1.00  0.00    -0.383 N 
ATOM     26  H72 UNL     1      17.065 -18.275 -13.817  1.00  0.00     0.157 HD
ATOM     27  H71 UNL     1      18.497 -17.235 -13.947  1.00  0.00     0.157 HD
ENDBRANCH  23  25
ENDBRANCH   1  15
BRANCH  14  28
HETATM   28  O3  UNL     1      17.910 -23.362 -10.386  1.00  0.00    -0.277 OA
ATOM     29  H3  UNL     1      18.200 -23.360  -9.481  1.00  0.00     0.245 HD
ENDBRANCH  14  28
TORSDOF 3
ENDMDL
MODEL 3
REMARK VINA RESULT: -5.892985629      2.184      3.578
REMARK  3 active torsions:
REMARK  status: ('A' for Active; 'I' for Inactive)
REMARK    1  A    between atoms: C2_5  and  C3_6 
REMARK    2  A    between atoms: N6_19  and  O3_20 
REMARK    3  A    between atoms: C10_22  and  N7_23 
ROOT
HETATM    1  C3  UNL     1      14.709 -20.866  -5.682  1.00  0.00     0.099 A 
HETATM    2  N3  UNL     1      14.599 -19.812  -4.830  1.00  0.00    -0.294 N 
ATOM      3  H3  UNL     1      14.786 -19.870  -3.829  1.00  0.00     0.187 HD
HETATM    4  N4  UNL     1      14.230 -18.719  -5.435  1.00  0.00    -0.278 N 
HETATM    5  C4  UNL     1      14.024 -17.427  -4.808  1.00  0.00     0.179 C 
HETATM    6  C5  UNL     1      14.069 -18.982  -6.737  1.00  0.00     0.172 A 
HETATM    7  C6  UNL     1      14.369 -20.331  -6.901  1.00  0.00     0.111 A 
HETATM    8  C7  UNL     1      14.271 -20.828  -8.170  1.00  0.00     0.267 A 
HETATM    9  O1  UNL     1      14.521 -22.021  -8.399  1.00  0.00    -0.267 OA
HETATM   10  N5  UNL     1      13.899 -20.044  -9.222  1.00  0.00    -0.268 N 
HETATM   11  C8  UNL     1      13.827 -20.668 -10.518  1.00  0.00     0.164 C 
HETATM   12  C9  UNL     1      13.619 -18.750  -9.021  1.00  0.00     0.357 A 
HETATM   13  O2  UNL     1      13.276 -18.041 -10.011  1.00  0.00    -0.244 OA
HETATM   14  N6  UNL     1      13.711 -18.254  -7.792  1.00  0.00    -0.153 N 
ENDROOT
BRANCH   1  15
HETATM   15  C2  UNL     1      15.098 -22.218  -5.327  1.00  0.00     0.121 A 
HETATM   16  N2  UNL     1      14.300 -23.146  -4.805  1.00  0.00    -0.291 N 
HETATM   17  N1  UNL     1      14.646 -24.375  -4.481  1.00  0.00    -0.271 N 
ATOM     18  H2  UNL     1      13.329 -22.880  -4.640  1.00  0.00     0.187 HD
HETATM   19  C1  UNL     1      13.662 -25.285  -3.916  1.00  0.00     0.180 C 
HETATM   20  C11 UNL     1      15.924 -24.782  -4.679  1.00  0.00     0.194 A 
HETATM   21  N8  UNL     1      16.783 -23.929  -5.192  1.00  0.00    -0.316 N 
HETATM   22  S1  UNL     1      16.314 -26.316  -4.263  1.00  0.00    -0.039 SA
HETATM   23  C10 UNL     1      16.413 -22.658  -5.523  1.00  0.00     0.132 A 
ATOM     24  H8  UNL     1      17.748 -24.224  -5.345  1.00  0.00     0.170 HD
BRANCH  23  25
HETATM   25  N7  UNL     1      17.326 -21.954  -6.001  1.00  0.00    -0.383 N 
ATOM     26  H72 UNL     1      17.038 -21.020  -6.293  1.00  0.00     0.157 HD
ATOM     27  H71 UNL     1      18.293 -22.260  -6.104  1.00  0.00     0.157 HD
ENDBRANCH  23  25
ENDBRANCH   1  15
BRANCH  14  28
HETATM   28  O3  UNL     1      13.417 -16.926  -7.617  1.00  0.00    -0.277 OA
ATOM     29  H3  UNL     1      13.448 -16.557  -6.743  1.00  0.00     0.245 HD
ENDBRANCH  14  28
TORSDOF 3
ENDMDL
MODEL 4
REMARK VINA RESULT: -5.830994351      1.980      2.533
REMARK  3 active torsions:
REMARK  status: ('A' for Active; 'I' for Inactive)
REMARK    1  A    between atoms: C2_5  and  C3_6 
REMARK    2  A    between atoms: N6_19  and  O3_20 
REMARK    3  A    between atoms: C10_22  and  N7_23 
ROOT
HETATM    1  C3  UNL     1      14.749 -21.727  -7.160  1.00  0.00     0.099 A 
HETATM    2  N3  UNL     1      14.560 -21.813  -8.504  1.00  0.00    -0.294 N 
ATOM      3  H3  UNL     1      14.792 -22.638  -9.058  1.00  0.00     0.187 HD
HETATM    4  N4  UNL     1      14.049 -20.726  -9.007  1.00  0.00    -0.278 N 
HETATM    5  C4  UNL     1      13.729 -20.502 -10.404  1.00  0.00     0.179 C 
HETATM    6  C5  UNL     1      13.865 -19.842  -8.019  1.00  0.00     0.172 A 
HETATM    7  C6  UNL     1      14.303 -20.464  -6.854  1.00  0.00     0.111 A 
HETATM    8  C7  UNL     1      14.208 -19.736  -5.702  1.00  0.00     0.267 A 
HETATM    9  O1  UNL     1      14.577 -20.220  -4.621  1.00  0.00    -0.267 OA
HETATM   10  N5  UNL     1      13.711 -18.466  -5.691  1.00  0.00    -0.268 N 
HETATM   11  C8  UNL     1      13.655 -17.788  -4.423  1.00  0.00     0.164 C 
HETATM   12  C9  UNL     1      13.300 -17.904  -6.836  1.00  0.00     0.357 A 
HETATM   13  O2  UNL     1      12.843 -16.726  -6.804  1.00  0.00    -0.244 OA
HETATM   14  N6  UNL     1      13.387 -18.601  -7.964  1.00  0.00    -0.153 N 
ENDROOT
BRANCH   1  15
HETATM   15  C2  UNL     1      15.297 -22.760  -6.304  1.00  0.00     0.121 A 
HETATM   16  N2  UNL     1      14.606 -23.736  -5.720  1.00  0.00    -0.291 N 
HETATM   17  N1  UNL     1      15.097 -24.678  -4.940  1.00  0.00    -0.271 N 
ATOM     18  H2  UNL     1      13.600 -23.756  -5.892  1.00  0.00     0.187 HD
HETATM   19  C1  UNL     1      14.217 -25.684  -4.369  1.00  0.00     0.180 C 
HETATM   20  C11 UNL     1      16.426 -24.699  -4.678  1.00  0.00     0.194 A 
HETATM   21  N8  UNL     1      17.189 -23.771  -5.214  1.00  0.00    -0.316 N 
HETATM   22  S1  UNL     1      16.998 -25.885  -3.705  1.00  0.00    -0.039 SA
HETATM   23  C10 UNL     1      16.669 -22.801  -6.019  1.00  0.00     0.132 A 
ATOM     24  H8  UNL     1      18.191 -23.777  -5.023  1.00  0.00     0.170 HD
BRANCH  23  25
HETATM   25  N7  UNL     1      17.502 -21.984  -6.461  1.00  0.00    -0.383 N 
ATOM     26  H72 UNL     1      17.504 -21.078  -5.992  1.00  0.00     0.157 HD
ATOM     27  H71 UNL     1      18.144 -22.178  -7.229  1.00  0.00     0.157 HD
ENDBRANCH  23  25
ENDBRANCH   1  15
BRANCH  14  28
HETATM   28  O3  UNL     1      12.959 -17.998  -9.119  1.00  0.00    -0.277 OA
ATOM     29  H3  UNL     1      13.066 -18.454  -9.945  1.00  0.00     0.245 HD
ENDBRANCH  14  28
TORSDOF 3
ENDMDL
MODEL 5
REMARK VINA RESULT: -5.570904887      3.161      4.517
REMARK  3 active torsions:
REMARK  status: ('A' for Active; 'I' for Inactive)
REMARK    1  A    between atoms: C2_5  and  C3_6 
REMARK    2  A    between atoms: N6_19  and  O3_20 
REMARK    3  A    between atoms: C10_22  and  N7_23 
ROOT
HETATM    1  C3  UNL     1      13.567 -19.727  -7.245  1.00  0.00     0.099 A 
HETATM    2  N3  UNL     1      13.007 -19.759  -8.484  1.00  0.00    -0.294 N 
ATOM      3  H3  UNL     1      13.243 -20.452  -9.195  1.00  0.00     0.187 HD
HETATM    4  N4  UNL     1      12.136 -18.808  -8.663  1.00  0.00    -0.278 N 
HETATM    5  C4  UNL     1      11.369 -18.572  -9.872  1.00  0.00     0.179 C 
HETATM    6  C5  UNL     1      12.062 -18.078  -7.545  1.00  0.00     0.172 A 
HETATM    7  C6  UNL     1      12.959 -18.649  -6.647  1.00  0.00     0.111 A 
HETATM    8  C7  UNL     1      13.053 -18.059  -5.419  1.00  0.00     0.267 A 
HETATM    9  O1  UNL     1      13.829 -18.509  -4.563  1.00  0.00    -0.267 OA
HETATM   10  N5  UNL     1      12.307 -16.967  -5.087  1.00  0.00    -0.268 N 
HETATM   11  C8  UNL     1      12.483 -16.422  -3.766  1.00  0.00     0.164 C 
HETATM   12  C9  UNL     1      11.455 -16.446  -5.980  1.00  0.00     0.357 A 
HETATM   13  O2  UNL     1      10.774 -15.433  -5.653  1.00  0.00    -0.244 OA
HETATM   14  N6  UNL     1      11.354 -17.011  -7.179  1.00  0.00    -0.153 N 
ENDROOT
BRANCH   1  15
HETATM   15  C2  UNL     1      14.566 -20.643  -6.732  1.00  0.00     0.121 A 
HETATM   16  N2  UNL     1      14.379 -21.935  -6.474  1.00  0.00    -0.291 N 
HETATM   17  N1  UNL     1      15.283 -22.773  -6.007  1.00  0.00    -0.271 N 
ATOM     18  H2  UNL     1      13.448 -22.312  -6.653  1.00  0.00     0.187 HD
HETATM   19  C1  UNL     1      14.933 -24.165  -5.772  1.00  0.00     0.180 C 
HETATM   20  C11 UNL     1      16.536 -22.327  -5.750  1.00  0.00     0.194 A 
HETATM   21  N8  UNL     1      16.812 -21.061  -5.977  1.00  0.00    -0.316 N 
HETATM   22  S1  UNL     1      17.629 -23.398  -5.171  1.00  0.00    -0.039 SA
HETATM   23  C10 UNL     1      15.868 -20.202  -6.459  1.00  0.00     0.132 A 
ATOM     24  H8  UNL     1      17.752 -20.714  -5.787  1.00  0.00     0.170 HD
BRANCH  23  25
HETATM   25  N7  UNL     1      16.263 -19.031  -6.629  1.00  0.00    -0.383 N 
ATOM     26  H72 UNL     1      17.009 -18.735  -5.999  1.00  0.00     0.157 HD
ATOM     27  H71 UNL     1      15.889 -18.395  -7.333  1.00  0.00     0.157 HD
ENDBRANCH  23  25
ENDBRANCH   1  15
BRANCH  14  28
HETATM   28  O3  UNL     1      10.475 -16.456  -8.072  1.00  0.00    -0.277 OA
ATOM     29  H3  UNL     1       9.844 -15.817  -7.764  1.00  0.00     0.245 HD
ENDBRANCH  14  28
TORSDOF 3
ENDMDL
