MODEL 1
REMARK VINA RESULT: -7.361860218      0.000      0.000
REMARK  5 active torsions:
REMARK  status: ('A' for Active; 'I' for Inactive)
REMARK    1  A    between atoms: N1_1  and  C1_4 
REMARK    2  A    between atoms: C2_10  and  C3_11 
REMARK    3  A    between atoms: C3_11  and  C4_12 
REMARK    4  A    between atoms: C6_17  and  C7_18 
REMARK    5  A    between atoms: C7_18  and  C8_19 
ROOT
HETATM    1  C4  UNL     1     -42.849  14.500   3.267  1.00  0.00     0.110 A 
HETATM    2  N4  UNL     1     -43.600  15.473   2.673  1.00  0.00    -0.308 N 
ATOM      3  H4  UNL     1     -43.674  16.438   2.998  1.00  0.00     0.170 HD
HETATM    4  C5  UNL     1     -44.225  14.971   1.596  1.00  0.00     0.273 A 
HETATM    5  O2  UNL     1     -44.999  15.570   0.803  1.00  0.00    -0.266 OA
HETATM    6  C6  UNL     1     -43.831  13.631   1.540  1.00  0.00     0.103 A 
HETATM    7  N5  UNL     1     -42.998  13.368   2.562  1.00  0.00    -0.338 N 
ATOM      8  H5  UNL     1     -42.559  12.470   2.765  1.00  0.00     0.167 HD
ENDROOT
BRANCH   1   9
HETATM    9  C3  UNL     1     -42.108  14.655   4.349  1.00  0.00     0.084 C 
BRANCH   9  10
HETATM   10  C2  UNL     1     -41.462  15.911   4.689  1.00  0.00     0.105 A 
HETATM   11  C1  UNL     1     -42.039  17.017   5.277  1.00  0.00     0.150 A 
HETATM   12  N2  UNL     1     -41.097  17.967   5.421  1.00  0.00    -0.224 N 
HETATM   13  O1  UNL     1     -39.980  17.480   4.946  1.00  0.00    -0.155 OA
ATOM     14  H2  UNL     1     -41.229  18.894   5.825  1.00  0.00     0.198 HD
HETATM   15  N3  UNL     1     -40.159  16.272   4.507  1.00  0.00    -0.238 N 
ATOM     16  H3  UNL     1     -39.438  15.684   4.090  1.00  0.00     0.197 HD
BRANCH  11  17
HETATM   17  N1  UNL     1     -43.287  17.084   5.618  1.00  0.00    -0.382 N 
ATOM     18  H12 UNL     1     -43.866  16.268   5.813  1.00  0.00     0.157 HD
ATOM     19  H11 UNL     1     -43.855  17.922   5.736  1.00  0.00     0.157 HD
ENDBRANCH  11  17
ENDBRANCH   9  10
ENDBRANCH   1   9
BRANCH   6  20
HETATM   20  C7  UNL     1     -44.237  12.789   0.613  1.00  0.00     0.046 C 
BRANCH  20  21
HETATM   21  C8  UNL     1     -43.602  12.712  -0.688  1.00  0.00    -0.034 A 
HETATM   22  C9  UNL     1     -42.409  12.015  -0.830  1.00  0.00     0.011 A 
HETATM   23  C10 UNL     1     -41.776  11.924  -2.063  1.00  0.00     0.001 A 
HETATM   24  C11 UNL     1     -42.325  12.528  -3.168  1.00  0.00     0.000 A 
HETATM   25  C12 UNL     1     -43.518  13.234  -3.059  1.00  0.00     0.001 A 
HETATM   26  C13 UNL     1     -44.128  13.309  -1.815  1.00  0.00     0.011 A 
ENDBRANCH  20  21
ENDBRANCH   6  20
TORSDOF 5
ENDMDL
MODEL 2
REMARK VINA RESULT: -7.183037933      4.429      6.836
REMARK  5 active torsions:
REMARK  status: ('A' for Active; 'I' for Inactive)
REMARK    1  A    between atoms: N1_1  and  C1_4 
REMARK    2  A    between atoms: C2_10  and  C3_11 
REMARK    3  A    between atoms: C3_11  and  C4_12 
REMARK    4  A    between atoms: C6_17  and  C7_18 
REMARK    5  A    between atoms: C7_18  and  C8_19 
ROOT
HETATM    1  C4  UNL     1     -40.289  10.450  -0.101  1.00  0.00     0.110 A 
HETATM    2  N4  UNL     1     -40.883  11.183  -1.088  1.00  0.00    -0.308 N 
ATOM      3  H4  UNL     1     -40.524  11.290  -2.036  1.00  0.00     0.170 HD
HETATM    4  C5  UNL     1     -42.012  11.740  -0.622  1.00  0.00     0.273 A 
HETATM    5  O2  UNL     1     -42.822  12.479  -1.243  1.00  0.00    -0.266 OA
HETATM    6  C6  UNL     1     -42.102  11.321   0.709  1.00  0.00     0.103 A 
HETATM    7  N5  UNL     1     -41.047  10.541   1.002  1.00  0.00    -0.338 N 
ATOM      8  H5  UNL     1     -40.857  10.098   1.902  1.00  0.00     0.167 HD
ENDROOT
BRANCH   1   9
HETATM    9  C3  UNL     1     -39.162   9.771  -0.221  1.00  0.00     0.084 C 
BRANCH   9  10
HETATM   10  C2  UNL     1     -38.447   9.223   0.919  1.00  0.00     0.105 A 
HETATM   11  C1  UNL     1     -38.717   8.048   1.590  1.00  0.00     0.150 A 
HETATM   12  N2  UNL     1     -37.820   7.906   2.583  1.00  0.00    -0.224 N 
HETATM   13  O1  UNL     1     -37.025   8.943   2.538  1.00  0.00    -0.155 OA
ATOM     14  H2  UNL     1     -37.771   7.134   3.248  1.00  0.00     0.198 HD
HETATM   15  N3  UNL     1     -37.365   9.738   1.571  1.00  0.00    -0.238 N 
ATOM     16  H3  UNL     1     -36.897  10.612   1.335  1.00  0.00     0.197 HD
BRANCH  11  17
HETATM   17  N1  UNL     1     -39.685   7.246   1.278  1.00  0.00    -0.382 N 
ATOM     18  H12 UNL     1     -40.671   7.471   1.404  1.00  0.00     0.157 HD
ATOM     19  H11 UNL     1     -39.613   6.310   0.879  1.00  0.00     0.157 HD
ENDBRANCH  11  17
ENDBRANCH   9  10
ENDBRANCH   1   9
BRANCH   6  20
HETATM   20  C7  UNL     1     -43.084  11.661   1.517  1.00  0.00     0.046 C 
BRANCH  20  21
HETATM   21  C8  UNL     1     -43.100  12.930   2.217  1.00  0.00    -0.034 A 
HETATM   22  C9  UNL     1     -42.194  13.159   3.245  1.00  0.00     0.011 A 
HETATM   23  C10 UNL     1     -42.185  14.363   3.935  1.00  0.00     0.001 A 
HETATM   24  C11 UNL     1     -43.079  15.354   3.609  1.00  0.00     0.000 A 
HETATM   25  C12 UNL     1     -43.999  15.156   2.586  1.00  0.00     0.001 A 
HETATM   26  C13 UNL     1     -43.986  13.943   1.913  1.00  0.00     0.011 A 
ENDBRANCH  20  21
ENDBRANCH   6  20
TORSDOF 5
ENDMDL
MODEL 3
REMARK VINA RESULT: -7.177419898      4.447      6.949
REMARK  5 active torsions:
REMARK  status: ('A' for Active; 'I' for Inactive)
REMARK    1  A    between atoms: N1_1  and  C1_4 
REMARK    2  A    between atoms: C2_10  and  C3_11 
REMARK    3  A    between atoms: C3_11  and  C4_12 
REMARK    4  A    between atoms: C6_17  and  C7_18 
REMARK    5  A    between atoms: C7_18  and  C8_19 
ROOT
HETATM    1  C4  UNL     1     -40.277  10.443  -0.120  1.00  0.00     0.110 A 
HETATM    2  N4  UNL     1     -40.843  11.203  -1.102  1.00  0.00    -0.308 N 
ATOM      3  H4  UNL     1     -40.467  11.320  -2.043  1.00  0.00     0.170 HD
HETATM    4  C5  UNL     1     -41.968  11.774  -0.644  1.00  0.00     0.273 A 
HETATM    5  O2  UNL     1     -42.755  12.539  -1.263  1.00  0.00    -0.266 OA
HETATM    6  C6  UNL     1     -42.086  11.334   0.679  1.00  0.00     0.103 A 
HETATM    7  N5  UNL     1     -41.050  10.530   0.974  1.00  0.00    -0.338 N 
ATOM      8  H5  UNL     1     -40.882  10.068   1.869  1.00  0.00     0.167 HD
ENDROOT
BRANCH   1   9
HETATM    9  C3  UNL     1     -39.162   9.745  -0.234  1.00  0.00     0.084 C 
BRANCH   9  10
HETATM   10  C2  UNL     1     -38.475   9.163   0.907  1.00  0.00     0.105 A 
HETATM   11  C1  UNL     1     -38.757   7.968   1.533  1.00  0.00     0.150 A 
HETATM   12  N2  UNL     1     -37.887   7.797   2.545  1.00  0.00    -0.224 N 
HETATM   13  O1  UNL     1     -37.094   8.838   2.552  1.00  0.00    -0.155 OA
ATOM     14  H2  UNL     1     -37.851   7.005   3.186  1.00  0.00     0.198 HD
HETATM   15  N3  UNL     1     -37.412   9.661   1.602  1.00  0.00    -0.238 N 
ATOM     16  H3  UNL     1     -36.941  10.544   1.406  1.00  0.00     0.197 HD
BRANCH  11  17
HETATM   17  N1  UNL     1     -39.714   7.173   1.171  1.00  0.00    -0.382 N 
ATOM     18  H12 UNL     1     -40.653   7.487   0.931  1.00  0.00     0.157 HD
ATOM     19  H11 UNL     1     -39.677   6.158   1.076  1.00  0.00     0.157 HD
ENDBRANCH  11  17
ENDBRANCH   9  10
ENDBRANCH   1   9
BRANCH   6  20
HETATM   20  C7  UNL     1     -43.073  11.679   1.478  1.00  0.00     0.046 C 
BRANCH  20  21
HETATM   21  C8  UNL     1     -43.065  12.926   2.218  1.00  0.00    -0.034 A 
HETATM   22  C9  UNL     1     -43.977  13.922   1.897  1.00  0.00     0.011 A 
HETATM   23  C10 UNL     1     -43.993  15.127   2.587  1.00  0.00     0.001 A 
HETATM   24  C11 UNL     1     -43.100  15.352   3.606  1.00  0.00     0.000 A 
HETATM   25  C12 UNL     1     -42.173  14.375   3.952  1.00  0.00     0.001 A 
HETATM   26  C13 UNL     1     -42.179  13.181   3.245  1.00  0.00     0.011 A 
ENDBRANCH  20  21
ENDBRANCH   6  20
TORSDOF 5
ENDMDL
MODEL 4
REMARK VINA RESULT: -7.164476127      1.793      2.530
REMARK  5 active torsions:
REMARK  status: ('A' for Active; 'I' for Inactive)
REMARK    1  A    between atoms: N1_1  and  C1_4 
REMARK    2  A    between atoms: C2_10  and  C3_11 
REMARK    3  A    between atoms: C3_11  and  C4_12 
REMARK    4  A    between atoms: C6_17  and  C7_18 
REMARK    5  A    between atoms: C7_18  and  C8_19 
ROOT
HETATM    1  C4  UNL     1     -42.273  13.536   3.380  1.00  0.00     0.110 A 
HETATM    2  N4  UNL     1     -42.046  12.229   3.058  1.00  0.00    -0.308 N 
ATOM      3  H4  UNL     1     -41.401  11.608   3.547  1.00  0.00     0.170 HD
HETATM    4  C5  UNL     1     -42.800  11.883   2.003  1.00  0.00     0.273 A 
HETATM    5  O2  UNL     1     -42.858  10.763   1.428  1.00  0.00    -0.266 OA
HETATM    6  C6  UNL     1     -43.515  13.039   1.674  1.00  0.00     0.103 A 
HETATM    7  N5  UNL     1     -43.180  14.027   2.520  1.00  0.00    -0.338 N 
ATOM      8  H5  UNL     1     -43.548  14.978   2.512  1.00  0.00     0.167 HD
ENDROOT
BRANCH   1   9
HETATM    9  C3  UNL     1     -41.694  14.196   4.367  1.00  0.00     0.084 C 
BRANCH   9  10
HETATM   10  C2  UNL     1     -42.148  15.503   4.813  1.00  0.00     0.105 A 
HETATM   11  C1  UNL     1     -41.387  16.640   4.983  1.00  0.00     0.150 A 
HETATM   12  N2  UNL     1     -42.189  17.634   5.408  1.00  0.00    -0.224 N 
HETATM   13  O1  UNL     1     -43.398  17.142   5.499  1.00  0.00    -0.155 OA
ATOM     14  H2  UNL     1     -41.907  18.591   5.619  1.00  0.00     0.198 HD
HETATM   15  N3  UNL     1     -43.410  15.892   5.157  1.00  0.00    -0.238 N 
ATOM     16  H3  UNL     1     -44.234  15.291   5.146  1.00  0.00     0.197 HD
BRANCH  11  17
HETATM   17  N1  UNL     1     -40.113  16.695   4.759  1.00  0.00    -0.382 N 
ATOM     18  H12 UNL     1     -39.469  17.284   5.286  1.00  0.00     0.157 HD
ATOM     19  H11 UNL     1     -39.582  16.183   4.055  1.00  0.00     0.157 HD
ENDBRANCH  11  17
ENDBRANCH   9  10
ENDBRANCH   1   9
BRANCH   6  20
HETATM   20  C7  UNL     1     -44.375  13.106   0.679  1.00  0.00     0.046 C 
BRANCH  20  21
HETATM   21  C8  UNL     1     -43.984  13.536  -0.649  1.00  0.00    -0.034 A 
HETATM   22  C9  UNL     1     -44.524  14.699  -1.182  1.00  0.00     0.011 A 
HETATM   23  C10 UNL     1     -44.170  15.137  -2.451  1.00  0.00     0.001 A 
HETATM   24  C11 UNL     1     -43.273  14.419  -3.204  1.00  0.00     0.000 A 
HETATM   25  C12 UNL     1     -42.714  13.249  -2.700  1.00  0.00     0.001 A 
HETATM   26  C13 UNL     1     -43.087  12.836  -1.429  1.00  0.00     0.011 A 
ENDBRANCH  20  21
ENDBRANCH   6  20
TORSDOF 5
ENDMDL
MODEL 5
REMARK VINA RESULT: -7.164103849      4.561      8.009
REMARK  5 active torsions:
REMARK  status: ('A' for Active; 'I' for Inactive)
REMARK    1  A    between atoms: N1_1  and  C1_4 
REMARK    2  A    between atoms: C2_10  and  C3_11 
REMARK    3  A    between atoms: C3_11  and  C4_12 
REMARK    4  A    between atoms: C6_17  and  C7_18 
REMARK    5  A    between atoms: C7_18  and  C8_19 
ROOT
HETATM    1  C4  UNL     1     -43.683  10.833  -1.618  1.00  0.00     0.110 A 
HETATM    2  N4  UNL     1     -42.346  11.111  -1.595  1.00  0.00    -0.308 N 
ATOM      3  H4  UNL     1     -41.731  11.105  -2.409  1.00  0.00     0.170 HD
HETATM    4  C5  UNL     1     -41.963  11.394  -0.340  1.00  0.00     0.273 A 
HETATM    5  O2  UNL     1     -40.809  11.697   0.066  1.00  0.00    -0.266 OA
HETATM    6  C6  UNL     1     -43.126  11.281   0.429  1.00  0.00     0.103 A 
HETATM    7  N5  UNL     1     -44.154  10.940  -0.366  1.00  0.00    -0.338 N 
ATOM      8  H5  UNL     1     -45.119  10.790  -0.072  1.00  0.00     0.167 HD
ENDROOT
BRANCH   1   9
HETATM    9  C3  UNL     1     -44.382  10.513  -2.692  1.00  0.00     0.084 C 
BRANCH   9  10
HETATM   10  C2  UNL     1     -45.699   9.901  -2.622  1.00  0.00     0.105 A 
HETATM   11  C1  UNL     1     -46.882  10.402  -3.120  1.00  0.00     0.150 A 
HETATM   12  N2  UNL     1     -47.868   9.527  -2.847  1.00  0.00    -0.224 N 
HETATM   13  O1  UNL     1     -47.326   8.523  -2.206  1.00  0.00    -0.155 OA
ATOM     14  H2  UNL     1     -48.852   9.628  -3.092  1.00  0.00     0.198 HD
HETATM   15  N3  UNL     1     -46.052   8.710  -2.057  1.00  0.00    -0.238 N 
ATOM     16  H3  UNL     1     -45.412   8.068  -1.589  1.00  0.00     0.197 HD
BRANCH  11  17
HETATM   17  N1  UNL     1     -46.982  11.533  -3.742  1.00  0.00    -0.382 N 
ATOM     18  H12 UNL     1     -46.603  11.704  -4.673  1.00  0.00     0.157 HD
ATOM     19  H11 UNL     1     -47.431  12.387  -3.413  1.00  0.00     0.157 HD
ENDBRANCH  11  17
ENDBRANCH   9  10
ENDBRANCH   1   9
BRANCH   6  20
HETATM   20  C7  UNL     1     -43.164  11.485   1.729  1.00  0.00     0.046 C 
BRANCH  20  21
HETATM   21  C8  UNL     1     -43.144  12.818   2.299  1.00  0.00    -0.034 A 
HETATM   22  C9  UNL     1     -42.220  13.129   3.289  1.00  0.00     0.011 A 
HETATM   23  C10 UNL     1     -42.177  14.395   3.855  1.00  0.00     0.001 A 
HETATM   24  C11 UNL     1     -43.055  15.368   3.442  1.00  0.00     0.000 A 
HETATM   25  C12 UNL     1     -43.993  15.089   2.454  1.00  0.00     0.001 A 
HETATM   26  C13 UNL     1     -44.014  13.815   1.905  1.00  0.00     0.011 A 
ENDBRANCH  20  21
ENDBRANCH   6  20
TORSDOF 5
ENDMDL
