MODEL 1
REMARK VINA RESULT: -7.061959845      0.000      0.000
REMARK  4 active torsions:
REMARK  status: ('A' for Active; 'I' for Inactive)
REMARK    1  A    between atoms: N2_5  and  C3_6 
REMARK    2  A    between atoms: C10_14  and  C11_15 
REMARK    3  A    between atoms: C11_15  and  C12_16 
REMARK    4  A    between atoms: C14_22  and  N5_23 
ROOT
HETATM    1  C1  UNL     1     -42.036  10.830   2.098  1.00  0.00     0.045 C 
HETATM    2  C2  UNL     1     -42.515  12.048   2.248  1.00  0.00     0.055 A 
HETATM    3  N1  UNL     1     -42.096  12.941   3.184  1.00  0.00    -0.291 N 
ATOM      4  H1  UNL     1     -41.362  12.739   3.862  1.00  0.00     0.187 HD
HETATM    5  N2  UNL     1     -42.728  14.082   3.127  1.00  0.00    -0.220 N 
HETATM    6  C9  UNL     1     -43.586  13.967   2.145  1.00  0.00     0.279 A 
HETATM    7  O1  UNL     1     -44.381  14.834   1.763  1.00  0.00    -0.265 OA
HETATM    8  C10 UNL     1     -43.504  12.686   1.535  1.00  0.00     0.062 A 
ENDROOT
BRANCH   8   9
HETATM    9  C11 UNL     1     -44.248  12.308   0.530  1.00  0.00     0.036 C 
BRANCH   9  10
HETATM   10  C12 UNL     1     -44.009  12.491  -0.859  1.00  0.00     0.027 A 
HETATM   11  C13 UNL     1     -44.086  13.697  -1.573  1.00  0.00     0.122 A 
HETATM   12  N3  UNL     1     -43.835  13.425  -2.855  1.00  0.00    -0.309 N 
HETATM   13  N4  UNL     1     -43.603  12.147  -3.027  1.00  0.00    -0.285 N 
ATOM     14  H3  UNL     1     -43.824  14.121  -3.602  1.00  0.00     0.186 HD
HETATM   15  C14 UNL     1     -43.698  11.536  -1.838  1.00  0.00     0.125 A 
ATOM     16  H4  UNL     1     -43.387  11.694  -3.915  1.00  0.00     0.188 HD
BRANCH  15  17
HETATM   17  N5  UNL     1     -43.539  10.295  -1.586  1.00  0.00    -0.384 N 
ATOM     18  H52 UNL     1     -44.094   9.712  -0.959  1.00  0.00     0.157 HD
ATOM     19  H51 UNL     1     -42.805   9.725  -2.006  1.00  0.00     0.157 HD
ENDBRANCH  15  17
ENDBRANCH   9  10
ENDBRANCH   8   9
BRANCH   5  20
HETATM   20  C3  UNL     1     -42.466  15.176   4.004  1.00  0.00     0.060 A 
HETATM   21  C4  UNL     1     -43.463  15.803   4.720  1.00  0.00     0.031 A 
HETATM   22  C5  UNL     1     -43.229  16.854   5.566  1.00  0.00     0.002 A 
HETATM   23  C6  UNL     1     -41.926  17.302   5.700  1.00  0.00     0.000 A 
HETATM   24  C7  UNL     1     -40.891  16.712   5.008  1.00  0.00     0.002 A 
HETATM   25  C8  UNL     1     -41.180  15.656   4.169  1.00  0.00     0.031 A 
ENDBRANCH   5  20
TORSDOF 4
ENDMDL
MODEL 2
REMARK VINA RESULT: -7.056462394      0.506      1.283
REMARK  4 active torsions:
REMARK  status: ('A' for Active; 'I' for Inactive)
REMARK    1  A    between atoms: N2_5  and  C3_6 
REMARK    2  A    between atoms: C10_14  and  C11_15 
REMARK    3  A    between atoms: C11_15  and  C12_16 
REMARK    4  A    between atoms: C14_22  and  N5_23 
ROOT
HETATM    1  C1  UNL     1     -42.020  10.751   2.169  1.00  0.00     0.045 C 
HETATM    2  C2  UNL     1     -42.496  11.973   2.299  1.00  0.00     0.055 A 
HETATM    3  N1  UNL     1     -42.074  12.880   3.219  1.00  0.00    -0.291 N 
ATOM      4  H1  UNL     1     -41.338  12.688   3.900  1.00  0.00     0.187 HD
HETATM    5  N2  UNL     1     -42.703  14.021   3.144  1.00  0.00    -0.220 N 
HETATM    6  C9  UNL     1     -43.563  13.892   2.166  1.00  0.00     0.279 A 
HETATM    7  O1  UNL     1     -44.357  14.754   1.771  1.00  0.00    -0.265 OA
HETATM    8  C10 UNL     1     -43.485  12.601   1.577  1.00  0.00     0.062 A 
ENDROOT
BRANCH   8   9
HETATM    9  C11 UNL     1     -44.231  12.208   0.580  1.00  0.00     0.036 C 
BRANCH   9  10
HETATM   10  C12 UNL     1     -43.975  12.332  -0.812  1.00  0.00     0.027 A 
HETATM   11  C13 UNL     1     -43.397  11.364  -1.650  1.00  0.00     0.122 A 
HETATM   12  N3  UNL     1     -43.292  11.894  -2.869  1.00  0.00    -0.309 N 
HETATM   13  N4  UNL     1     -43.751  13.121  -2.888  1.00  0.00    -0.285 N 
ATOM     14  H3  UNL     1     -42.905  11.409  -3.679  1.00  0.00     0.186 HD
HETATM   15  C14 UNL     1     -44.179  13.432  -1.657  1.00  0.00     0.125 A 
ATOM     16  H4  UNL     1     -43.778  13.736  -3.703  1.00  0.00     0.188 HD
BRANCH  15  17
HETATM   17  N5  UNL     1     -44.695  14.533  -1.267  1.00  0.00    -0.384 N 
ATOM     18  H52 UNL     1     -45.356  14.674  -0.504  1.00  0.00     0.157 HD
ATOM     19  H51 UNL     1     -44.489  15.434  -1.698  1.00  0.00     0.157 HD
ENDBRANCH  15  17
ENDBRANCH   9  10
ENDBRANCH   8   9
BRANCH   5  20
HETATM   20  C3  UNL     1     -42.438  15.130   4.003  1.00  0.00     0.060 A 
HETATM   21  C4  UNL     1     -43.431  15.767   4.714  1.00  0.00     0.031 A 
HETATM   22  C5  UNL     1     -43.194  16.832   5.542  1.00  0.00     0.002 A 
HETATM   23  C6  UNL     1     -41.891  17.282   5.663  1.00  0.00     0.000 A 
HETATM   24  C7  UNL     1     -40.859  16.682   4.975  1.00  0.00     0.002 A 
HETATM   25  C8  UNL     1     -41.151  15.613   4.154  1.00  0.00     0.031 A 
ENDBRANCH   5  20
TORSDOF 4
ENDMDL
MODEL 3
REMARK VINA RESULT: -7.040754401      0.503      1.667
REMARK  4 active torsions:
REMARK  status: ('A' for Active; 'I' for Inactive)
REMARK    1  A    between atoms: N2_5  and  C3_6 
REMARK    2  A    between atoms: C10_14  and  C11_15 
REMARK    3  A    between atoms: C11_15  and  C12_16 
REMARK    4  A    between atoms: C14_22  and  N5_23 
ROOT
HETATM    1  C1  UNL     1     -42.034  10.748   2.161  1.00  0.00     0.045 C 
HETATM    2  C2  UNL     1     -42.507  11.971   2.290  1.00  0.00     0.055 A 
HETATM    3  N1  UNL     1     -42.084  12.878   3.210  1.00  0.00    -0.291 N 
ATOM      4  H1  UNL     1     -41.351  12.684   3.892  1.00  0.00     0.187 HD
HETATM    5  N2  UNL     1     -42.710  14.021   3.133  1.00  0.00    -0.220 N 
HETATM    6  C9  UNL     1     -43.569  13.893   2.153  1.00  0.00     0.279 A 
HETATM    7  O1  UNL     1     -44.359  14.757   1.756  1.00  0.00    -0.265 OA
HETATM    8  C10 UNL     1     -43.493  12.601   1.565  1.00  0.00     0.062 A 
ENDROOT
BRANCH   8   9
HETATM    9  C11 UNL     1     -44.239  12.210   0.567  1.00  0.00     0.036 C 
BRANCH   9  10
HETATM   10  C12 UNL     1     -43.979  12.332  -0.825  1.00  0.00     0.027 A 
HETATM   11  C13 UNL     1     -43.402  11.362  -1.660  1.00  0.00     0.122 A 
HETATM   12  N3  UNL     1     -43.292  11.891  -2.880  1.00  0.00    -0.309 N 
HETATM   13  N4  UNL     1     -43.750  13.119  -2.901  1.00  0.00    -0.285 N 
ATOM     14  H3  UNL     1     -42.904  11.404  -3.688  1.00  0.00     0.186 HD
HETATM   15  C14 UNL     1     -44.179  13.432  -1.672  1.00  0.00     0.125 A 
ATOM     16  H4  UNL     1     -43.774  13.732  -3.716  1.00  0.00     0.188 HD
BRANCH  15  17
HETATM   17  N5  UNL     1     -44.694  14.534  -1.284  1.00  0.00    -0.384 N 
ATOM     18  H52 UNL     1     -45.685  14.761  -1.198  1.00  0.00     0.157 HD
ATOM     19  H51 UNL     1     -44.143  15.345  -1.005  1.00  0.00     0.157 HD
ENDBRANCH  15  17
ENDBRANCH   9  10
ENDBRANCH   8   9
BRANCH   5  20
HETATM   20  C3  UNL     1     -42.443  15.129   3.992  1.00  0.00     0.060 A 
HETATM   21  C4  UNL     1     -41.173  15.633   4.172  1.00  0.00     0.031 A 
HETATM   22  C5  UNL     1     -40.899  16.695   4.991  1.00  0.00     0.002 A 
HETATM   23  C6  UNL     1     -41.954  17.282   5.668  1.00  0.00     0.000 A 
HETATM   24  C7  UNL     1     -43.243  16.818   5.525  1.00  0.00     0.002 A 
HETATM   25  C8  UNL     1     -43.467  15.745   4.687  1.00  0.00     0.031 A 
ENDBRANCH   5  20
TORSDOF 4
ENDMDL
MODEL 4
REMARK VINA RESULT: -6.537431572      1.714      2.533
REMARK  4 active torsions:
REMARK  status: ('A' for Active; 'I' for Inactive)
REMARK    1  A    between atoms: N2_5  and  C3_6 
REMARK    2  A    between atoms: C10_14  and  C11_15 
REMARK    3  A    between atoms: C11_15  and  C12_16 
REMARK    4  A    between atoms: C14_22  and  N5_23 
ROOT
HETATM    1  C1  UNL     1     -44.929  14.425  -0.938  1.00  0.00     0.045 C 
HETATM    2  C2  UNL     1     -44.381  14.147   0.228  1.00  0.00     0.055 A 
HETATM    3  N1  UNL     1     -44.112  15.059   1.200  1.00  0.00    -0.291 N 
ATOM      4  H1  UNL     1     -44.313  16.054   1.106  1.00  0.00     0.187 HD
HETATM    5  N2  UNL     1     -43.569  14.533   2.264  1.00  0.00    -0.220 N 
HETATM    6  C9  UNL     1     -43.467  13.251   2.017  1.00  0.00     0.279 A 
HETATM    7  O1  UNL     1     -43.002  12.395   2.778  1.00  0.00    -0.265 OA
HETATM    8  C10 UNL     1     -43.970  12.932   0.726  1.00  0.00     0.062 A 
ENDROOT
BRANCH   8   9
HETATM    9  C11 UNL     1     -43.989  11.724   0.230  1.00  0.00     0.036 C 
BRANCH   9  10
HETATM   10  C12 UNL     1     -43.065  11.130  -0.672  1.00  0.00     0.027 A 
HETATM   11  C13 UNL     1     -43.363  10.528  -1.905  1.00  0.00     0.122 A 
HETATM   12  N3  UNL     1     -42.223  10.056  -2.412  1.00  0.00    -0.309 N 
HETATM   13  N4  UNL     1     -41.216  10.304  -1.610  1.00  0.00    -0.285 N 
ATOM     14  H3  UNL     1     -42.145   9.569  -3.304  1.00  0.00     0.186 HD
HETATM   15  C14 UNL     1     -41.680  10.957  -0.537  1.00  0.00     0.125 A 
ATOM     16  H4  UNL     1     -40.243  10.043  -1.776  1.00  0.00     0.188 HD
BRANCH  15  17
HETATM   17  N5  UNL     1     -41.014  11.374   0.469  1.00  0.00    -0.384 N 
ATOM     18  H52 UNL     1     -41.019  12.311   0.873  1.00  0.00     0.157 HD
ATOM     19  H51 UNL     1     -40.374  10.787   1.003  1.00  0.00     0.157 HD
ENDBRANCH  15  17
ENDBRANCH   9  10
ENDBRANCH   8   9
BRANCH   5  20
HETATM   20  C3  UNL     1     -43.195  15.286   3.417  1.00  0.00     0.060 A 
HETATM   21  C4  UNL     1     -44.101  16.036   4.133  1.00  0.00     0.031 A 
HETATM   22  C5  UNL     1     -43.760  16.765   5.242  1.00  0.00     0.002 A 
HETATM   23  C6  UNL     1     -42.439  16.741   5.652  1.00  0.00     0.000 A 
HETATM   24  C7  UNL     1     -41.490  16.009   4.972  1.00  0.00     0.002 A 
HETATM   25  C8  UNL     1     -41.886  15.292   3.862  1.00  0.00     0.031 A 
ENDBRANCH   5  20
TORSDOF 4
ENDMDL
MODEL 5
REMARK VINA RESULT: -6.533515028      1.709      2.744
REMARK  4 active torsions:
REMARK  status: ('A' for Active; 'I' for Inactive)
REMARK    1  A    between atoms: N2_5  and  C3_6 
REMARK    2  A    between atoms: C10_14  and  C11_15 
REMARK    3  A    between atoms: C11_15  and  C12_16 
REMARK    4  A    between atoms: C14_22  and  N5_23 
ROOT
HETATM    1  C1  UNL     1     -44.945  14.446  -0.941  1.00  0.00     0.045 C 
HETATM    2  C2  UNL     1     -44.397  14.162   0.223  1.00  0.00     0.055 A 
HETATM    3  N1  UNL     1     -44.118  15.070   1.195  1.00  0.00    -0.291 N 
ATOM      4  H1  UNL     1     -44.312  16.068   1.103  1.00  0.00     0.187 HD
HETATM    5  N2  UNL     1     -43.576  14.539   2.257  1.00  0.00    -0.220 N 
HETATM    6  C9  UNL     1     -43.485  13.256   2.008  1.00  0.00     0.279 A 
HETATM    7  O1  UNL     1     -43.024  12.396   2.766  1.00  0.00    -0.265 OA
HETATM    8  C10 UNL     1     -43.994  12.943   0.718  1.00  0.00     0.062 A 
ENDROOT
BRANCH   8   9
HETATM    9  C11 UNL     1     -44.023  11.736   0.220  1.00  0.00     0.036 C 
BRANCH   9  10
HETATM   10  C12 UNL     1     -43.092  11.128  -0.664  1.00  0.00     0.027 A 
HETATM   11  C13 UNL     1     -43.371  10.555  -1.915  1.00  0.00     0.122 A 
HETATM   12  N3  UNL     1     -42.232  10.056  -2.396  1.00  0.00    -0.309 N 
HETATM   13  N4  UNL     1     -41.242  10.258  -1.561  1.00  0.00    -0.285 N 
ATOM     14  H3  UNL     1     -42.143   9.580  -3.295  1.00  0.00     0.186 HD
HETATM   15  C14 UNL     1     -41.718  10.908  -0.491  1.00  0.00     0.125 A 
ATOM     16  H4  UNL     1     -40.274   9.969  -1.703  1.00  0.00     0.188 HD
BRANCH  15  17
HETATM   17  N5  UNL     1     -41.069  11.288   0.541  1.00  0.00    -0.384 N 
ATOM     18  H52 UNL     1     -40.480  12.115   0.635  1.00  0.00     0.157 HD
ATOM     19  H51 UNL     1     -41.071  10.780   1.425  1.00  0.00     0.157 HD
ENDBRANCH  15  17
ENDBRANCH   9  10
ENDBRANCH   8   9
BRANCH   5  20
HETATM   20  C3  UNL     1     -43.194  15.288   3.410  1.00  0.00     0.060 A 
HETATM   21  C4  UNL     1     -41.894  15.328   3.866  1.00  0.00     0.031 A 
HETATM   22  C5  UNL     1     -41.510  16.041   4.970  1.00  0.00     0.002 A 
HETATM   23  C6  UNL     1     -42.481  16.751   5.654  1.00  0.00     0.000 A 
HETATM   24  C7  UNL     1     -43.796  16.746   5.242  1.00  0.00     0.002 A 
HETATM   25  C8  UNL     1     -44.131  16.011   4.124  1.00  0.00     0.031 A 
ENDBRANCH   5  20
TORSDOF 4
ENDMDL
