MODEL 1
REMARK VINA RESULT: -6.036330753      0.000      0.000
REMARK  7 active torsions:
REMARK  status: ('A' for Active; 'I' for Inactive)
REMARK    1  A    between atoms: C2_2  and  C4_4 
REMARK    2  A    between atoms: C4_4  and  N1_5 
REMARK    3  A    between atoms: C4_4  and  C5_9 
REMARK    4  A    between atoms: C6_12  and  C7_13 
REMARK    5  A    between atoms: C8_14  and  C9_15 
REMARK    6  A    between atoms: C13_21  and  O1_22 
REMARK    7  A    between atoms: C14_24  and  O2_25 
ROOT
HETATM    1  C5  UNL     1      34.818 -28.362  -5.011  1.00  0.00     0.144 C 
HETATM    2  N2  UNL     1      35.460 -27.224  -4.412  1.00  0.00    -0.375 N 
ATOM      3  H2  UNL     1      35.255 -26.873  -3.477  1.00  0.00     0.160 HD
HETATM    4  C6  UNL     1      36.326 -26.704  -5.208  1.00  0.00     0.092 C 
HETATM    5  C13 UNL     1      36.366 -27.483  -6.499  1.00  0.00     0.207 C 
HETATM    6  C14 UNL     1      35.847 -28.822  -6.017  1.00  0.00     0.178 C 
ENDROOT
BRANCH   1   7
HETATM    7  C4  UNL     1      34.470 -29.435  -4.020  1.00  0.00     0.212 C 
BRANCH   7   8
HETATM    8  C2  UNL     1      34.872 -29.089  -2.619  1.00  0.00     0.010 C 
HETATM    9  C1  UNL     1      35.862 -30.082  -2.042  1.00  0.00     0.011 C 
HETATM   10  C3  UNL     1      33.720 -28.937  -1.663  1.00  0.00     0.011 C 
ENDBRANCH   7   8
BRANCH   7  11
HETATM   11  N1  UNL     1      33.009 -29.618  -3.988  1.00  0.00    -0.073 N 
ATOM     12  H13 UNL     1      32.722 -30.560  -3.719  1.00  0.00     0.274 HD
ATOM     13  H12 UNL     1      32.553 -29.126  -3.219  1.00  0.00     0.274 HD
ATOM     14  H11 UNL     1      32.672 -29.337  -4.908  1.00  0.00     0.274 HD
ENDBRANCH   7  11
ENDBRANCH   1   7
BRANCH   6  15
HETATM   15  O2  UNL     1      36.894 -29.487  -5.423  1.00  0.00    -0.390 OA
ATOM     16  H2  UNL     1      37.687 -29.450  -5.947  1.00  0.00     0.210 HD
ENDBRANCH   6  15
BRANCH   4  17
HETATM   17  C7  UNL     1      37.133 -25.549  -4.887  1.00  0.00    -0.045 C 
HETATM   18  C8  UNL     1      37.789 -24.572  -4.617  1.00  0.00    -0.059 C 
BRANCH  18  19
HETATM   19  C9  UNL     1      38.551 -23.409  -4.278  1.00  0.00     0.034 A 
HETATM   20  C10 UNL     1      38.184 -22.303  -3.541  1.00  0.00     0.039 A 
HETATM   21  C11 UNL     1      39.238 -21.420  -3.463  1.00  0.00     0.089 A 
HETATM   22  N3  UNL     1      40.249 -21.964  -4.141  1.00  0.00    -0.374 N 
HETATM   23  C12 UNL     1      39.858 -23.167  -4.643  1.00  0.00     0.108 A 
ATOM     24  H3  UNL     1      41.171 -21.545  -4.265  1.00  0.00     0.164 HD
ENDBRANCH  18  19
ENDBRANCH   4  17
BRANCH   5  25
HETATM   25  O1  UNL     1      37.630 -27.544  -7.029  1.00  0.00    -0.386 OA
ATOM     26  H1  UNL     1      37.709 -28.222  -7.691  1.00  0.00     0.210 HD
ENDBRANCH   5  25
TORSDOF 7
ENDMDL
MODEL 2
REMARK VINA RESULT: -6.019941283      1.967      7.097
REMARK  7 active torsions:
REMARK  status: ('A' for Active; 'I' for Inactive)
REMARK    1  A    between atoms: C2_2  and  C4_4 
REMARK    2  A    between atoms: C4_4  and  N1_5 
REMARK    3  A    between atoms: C4_4  and  C5_9 
REMARK    4  A    between atoms: C6_12  and  C7_13 
REMARK    5  A    between atoms: C8_14  and  C9_15 
REMARK    6  A    between atoms: C13_21  and  O1_22 
REMARK    7  A    between atoms: C14_24  and  O2_25 
ROOT
HETATM    1  C5  UNL     1      37.825 -26.254  -4.948  1.00  0.00     0.144 C 
HETATM    2  N2  UNL     1      37.148 -26.980  -3.908  1.00  0.00    -0.375 N 
ATOM      3  H2  UNL     1      37.299 -26.831  -2.910  1.00  0.00     0.160 HD
HETATM    4  C6  UNL     1      36.328 -27.841  -4.397  1.00  0.00     0.092 C 
HETATM    5  C13 UNL     1      36.364 -27.782  -5.904  1.00  0.00     0.207 C 
HETATM    6  C14 UNL     1      36.856 -26.363  -6.102  1.00  0.00     0.178 C 
ENDROOT
BRANCH   1   7
HETATM    7  C4  UNL     1      38.117 -24.828  -4.581  1.00  0.00     0.212 C 
BRANCH   7   8
HETATM    8  C2  UNL     1      39.362 -24.678  -3.760  1.00  0.00     0.010 C 
HETATM    9  C1  UNL     1      39.105 -23.957  -2.451  1.00  0.00     0.011 C 
HETATM   10  C3  UNL     1      40.499 -24.001  -4.476  1.00  0.00     0.011 C 
ENDBRANCH   7   8
BRANCH   7  11
HETATM   11  N1  UNL     1      38.344 -24.042  -5.806  1.00  0.00    -0.073 N 
ATOM     12  H13 UNL     1      39.229 -23.535  -5.806  1.00  0.00     0.274 HD
ATOM     13  H12 UNL     1      38.529 -24.615  -6.629  1.00  0.00     0.274 HD
ATOM     14  H11 UNL     1      37.528 -23.438  -5.905  1.00  0.00     0.274 HD
ENDBRANCH   7  11
ENDBRANCH   1   7
BRANCH   6  15
HETATM   15  O2  UNL     1      35.777 -25.523  -5.957  1.00  0.00    -0.390 OA
ATOM     16  H2  UNL     1      35.789 -24.810  -6.585  1.00  0.00     0.210 HD
ENDBRANCH   6  15
BRANCH   4  17
HETATM   17  C7  UNL     1      35.503 -28.721  -3.601  1.00  0.00    -0.045 C 
HETATM   18  C8  UNL     1      34.814 -29.442  -2.920  1.00  0.00    -0.059 C 
BRANCH  18  19
HETATM   19  C9  UNL     1      33.983 -30.276  -2.107  1.00  0.00     0.034 A 
HETATM   20  C10 UNL     1      34.211 -30.776  -0.843  1.00  0.00     0.039 A 
HETATM   21  C11 UNL     1      33.136 -31.537  -0.439  1.00  0.00     0.089 A 
HETATM   22  N3  UNL     1      32.250 -31.514  -1.435  1.00  0.00    -0.374 N 
HETATM   23  C12 UNL     1      32.740 -30.758  -2.454  1.00  0.00     0.108 A 
ATOM     24  H3  UNL     1      31.347 -31.989  -1.433  1.00  0.00     0.164 HD
ENDBRANCH  18  19
ENDBRANCH   4  17
BRANCH   5  25
HETATM   25  O1  UNL     1      35.133 -28.017  -6.462  1.00  0.00    -0.386 OA
ATOM     26  H1  UNL     1      35.007 -28.933  -6.682  1.00  0.00     0.210 HD
ENDBRANCH   5  25
TORSDOF 7
ENDMDL
MODEL 3
REMARK VINA RESULT: -5.907030944      2.315      7.278
REMARK  7 active torsions:
REMARK  status: ('A' for Active; 'I' for Inactive)
REMARK    1  A    between atoms: C2_2  and  C4_4 
REMARK    2  A    between atoms: C4_4  and  N1_5 
REMARK    3  A    between atoms: C4_4  and  C5_9 
REMARK    4  A    between atoms: C6_12  and  C7_13 
REMARK    5  A    between atoms: C8_14  and  C9_15 
REMARK    6  A    between atoms: C13_21  and  O1_22 
REMARK    7  A    between atoms: C14_24  and  O2_25 
ROOT
HETATM    1  C5  UNL     1      39.079 -23.530  -3.160  1.00  0.00     0.144 C 
HETATM    2  N2  UNL     1      37.883 -24.321  -3.273  1.00  0.00    -0.375 N 
ATOM      3  H2  UNL     1      36.955 -23.938  -3.452  1.00  0.00     0.160 HD
HETATM    4  C6  UNL     1      38.135 -25.572  -3.119  1.00  0.00     0.092 C 
HETATM    5  C13 UNL     1      39.611 -25.770  -2.877  1.00  0.00     0.207 C 
HETATM    6  C14 UNL     1      40.158 -24.520  -3.534  1.00  0.00     0.178 C 
ENDROOT
BRANCH   1   7
HETATM    7  C4  UNL     1      39.077 -22.323  -4.054  1.00  0.00     0.212 C 
BRANCH   7   8
HETATM    8  C2  UNL     1      38.302 -21.174  -3.486  1.00  0.00     0.010 C 
HETATM    9  C1  UNL     1      38.295 -21.178  -1.969  1.00  0.00     0.011 C 
HETATM   10  C3  UNL     1      36.884 -21.078  -3.980  1.00  0.00     0.011 C 
ENDBRANCH   7   8
BRANCH   7  11
HETATM   11  N1  UNL     1      40.457 -21.836  -4.223  1.00  0.00    -0.073 N 
ATOM     12  H13 UNL     1      40.585 -21.253  -5.050  1.00  0.00     0.274 HD
ATOM     13  H12 UNL     1      40.728 -21.134  -3.534  1.00  0.00     0.274 HD
ATOM     14  H11 UNL     1      41.049 -22.666  -4.214  1.00  0.00     0.274 HD
ENDBRANCH   7  11
ENDBRANCH   1   7
BRANCH   6  15
HETATM   15  O2  UNL     1      40.209 -24.747  -4.889  1.00  0.00    -0.390 OA
ATOM     16  H2  UNL     1      40.937 -24.298  -5.302  1.00  0.00     0.210 HD
ENDBRANCH   6  15
BRANCH   4  17
HETATM   17  C7  UNL     1      37.136 -26.614  -3.179  1.00  0.00    -0.045 C 
HETATM   18  C8  UNL     1      36.295 -27.480  -3.210  1.00  0.00    -0.059 C 
BRANCH  18  19
HETATM   19  C9  UNL     1      35.280 -28.489  -3.237  1.00  0.00     0.034 A 
HETATM   20  C10 UNL     1      34.047 -28.478  -3.853  1.00  0.00     0.039 A 
HETATM   21  C11 UNL     1      33.394 -29.668  -3.618  1.00  0.00     0.089 A 
HETATM   22  N3  UNL     1      34.205 -30.412  -2.865  1.00  0.00    -0.374 N 
HETATM   23  C12 UNL     1      35.352 -29.720  -2.623  1.00  0.00     0.108 A 
ATOM     24  H3  UNL     1      33.999 -31.351  -2.525  1.00  0.00     0.164 HD
ENDBRANCH  18  19
ENDBRANCH   4  17
BRANCH   5  25
HETATM   25  O1  UNL     1      40.077 -26.932  -3.439  1.00  0.00    -0.386 OA
ATOM     26  H1  UNL     1      40.998 -26.876  -3.667  1.00  0.00     0.210 HD
ENDBRANCH   5  25
TORSDOF 7
ENDMDL
MODEL 4
REMARK VINA RESULT: -5.899659848      1.821      6.937
REMARK  7 active torsions:
REMARK  status: ('A' for Active; 'I' for Inactive)
REMARK    1  A    between atoms: C2_2  and  C4_4 
REMARK    2  A    between atoms: C4_4  and  N1_5 
REMARK    3  A    between atoms: C4_4  and  C5_9 
REMARK    4  A    between atoms: C6_12  and  C7_13 
REMARK    5  A    between atoms: C8_14  and  C9_15 
REMARK    6  A    between atoms: C13_21  and  O1_22 
REMARK    7  A    between atoms: C14_24  and  O2_25 
ROOT
HETATM    1  C5  UNL     1      37.701 -26.112  -5.171  1.00  0.00     0.144 C 
HETATM    2  N2  UNL     1      36.901 -26.759  -4.166  1.00  0.00    -0.375 N 
ATOM      3  H2  UNL     1      36.835 -26.449  -3.196  1.00  0.00     0.160 HD
HETATM    4  C6  UNL     1      36.280 -27.776  -4.646  1.00  0.00     0.092 C 
HETATM    5  C13 UNL     1      36.610 -27.932  -6.110  1.00  0.00     0.207 C 
HETATM    6  C14 UNL     1      36.996 -26.506  -6.447  1.00  0.00     0.178 C 
ENDROOT
BRANCH   1   7
HETATM    7  C4  UNL     1      37.778 -24.623  -4.998  1.00  0.00     0.212 C 
BRANCH   7   8
HETATM    8  C2  UNL     1      37.177 -24.151  -3.709  1.00  0.00     0.010 C 
HETATM    9  C1  UNL     1      35.998 -23.224  -3.928  1.00  0.00     0.011 C 
HETATM   10  C3  UNL     1      38.154 -23.488  -2.776  1.00  0.00     0.011 C 
ENDBRANCH   7   8
BRANCH   7  11
HETATM   11  N1  UNL     1      39.190 -24.205  -4.963  1.00  0.00    -0.073 N 
ATOM     12  H13 UNL     1      39.356 -23.293  -5.388  1.00  0.00     0.274 HD
ATOM     13  H12 UNL     1      39.521 -23.968  -4.027  1.00  0.00     0.274 HD
ATOM     14  H11 UNL     1      39.716 -24.961  -5.402  1.00  0.00     0.274 HD
ENDBRANCH   7  11
ENDBRANCH   1   7
BRANCH   6  15
HETATM   15  O2  UNL     1      35.836 -25.795  -6.643  1.00  0.00    -0.390 OA
ATOM     16  H2  UNL     1      35.196 -26.281  -7.150  1.00  0.00     0.210 HD
ENDBRANCH   6  15
BRANCH   4  17
HETATM   17  C7  UNL     1      35.399 -28.627  -3.878  1.00  0.00    -0.045 C 
HETATM   18  C8  UNL     1      34.670 -29.329  -3.220  1.00  0.00    -0.059 C 
BRANCH  18  19
HETATM   19  C9  UNL     1      33.800 -30.141  -2.425  1.00  0.00     0.034 A 
HETATM   20  C10 UNL     1      34.092 -30.939  -1.341  1.00  0.00     0.039 A 
HETATM   21  C11 UNL     1      32.943 -31.544  -0.880  1.00  0.00     0.089 A 
HETATM   22  N3  UNL     1      31.947 -31.130  -1.664  1.00  0.00    -0.374 N 
HETATM   23  C12 UNL     1      32.441 -30.281  -2.606  1.00  0.00     0.108 A 
ATOM     24  H3  UNL     1      30.970 -31.407  -1.573  1.00  0.00     0.164 HD
ENDBRANCH  18  19
ENDBRANCH   4  17
BRANCH   5  25
HETATM   25  O1  UNL     1      35.542 -28.396  -6.836  1.00  0.00    -0.386 OA
ATOM     26  H1  UNL     1      34.749 -27.904  -6.662  1.00  0.00     0.210 HD
ENDBRANCH   5  25
TORSDOF 7
ENDMDL
MODEL 5
REMARK VINA RESULT: -5.615486489      2.438      7.379
REMARK  7 active torsions:
REMARK  status: ('A' for Active; 'I' for Inactive)
REMARK    1  A    between atoms: C2_2  and  C4_4 
REMARK    2  A    between atoms: C4_4  and  N1_5 
REMARK    3  A    between atoms: C4_4  and  C5_9 
REMARK    4  A    between atoms: C6_12  and  C7_13 
REMARK    5  A    between atoms: C8_14  and  C9_15 
REMARK    6  A    between atoms: C13_21  and  O1_22 
REMARK    7  A    between atoms: C14_24  and  O2_25 
ROOT
HETATM    1  C5  UNL     1      39.152 -24.490  -3.016  1.00  0.00     0.144 C 
HETATM    2  N2  UNL     1      37.960 -25.205  -3.386  1.00  0.00    -0.375 N 
ATOM      3  H2  UNL     1      37.285 -24.878  -4.078  1.00  0.00     0.160 HD
HETATM    4  C6  UNL     1      37.854 -26.307  -2.733  1.00  0.00     0.092 C 
HETATM    5  C13 UNL     1      39.032 -26.465  -1.803  1.00  0.00     0.207 C 
HETATM    6  C14 UNL     1      40.049 -25.598  -2.515  1.00  0.00     0.178 C 
ENDROOT
BRANCH   1   7
HETATM    7  C4  UNL     1      39.765 -23.731  -4.157  1.00  0.00     0.212 C 
BRANCH   7   8
HETATM    8  C2  UNL     1      39.283 -22.315  -4.244  1.00  0.00     0.010 C 
HETATM    9  C1  UNL     1      38.850 -21.770  -2.897  1.00  0.00     0.011 C 
HETATM   10  C3  UNL     1      38.174 -22.098  -5.237  1.00  0.00     0.011 C 
ENDBRANCH   7   8
BRANCH   7  11
HETATM   11  N1  UNL     1      41.223 -23.650  -3.965  1.00  0.00    -0.073 N 
ATOM     12  H13 UNL     1      41.755 -23.769  -4.827  1.00  0.00     0.274 HD
ATOM     13  H12 UNL     1      41.553 -22.710  -3.745  1.00  0.00     0.274 HD
ATOM     14  H11 UNL     1      41.449 -24.339  -3.248  1.00  0.00     0.274 HD
ENDBRANCH   7  11
ENDBRANCH   1   7
BRANCH   6  15
HETATM   15  O2  UNL     1      40.584 -26.339  -3.542  1.00  0.00    -0.390 OA
ATOM     16  H2  UNL     1      41.191 -27.001  -3.231  1.00  0.00     0.210 HD
ENDBRANCH   6  15
BRANCH   4  17
HETATM   17  C7  UNL     1      36.762 -27.240  -2.888  1.00  0.00    -0.045 C 
HETATM   18  C8  UNL     1      35.856 -28.031  -3.000  1.00  0.00    -0.059 C 
BRANCH  18  19
HETATM   19  C9  UNL     1      34.778 -28.966  -3.108  1.00  0.00     0.034 A 
HETATM   20  C10 UNL     1      34.558 -30.136  -2.414  1.00  0.00     0.039 A 
HETATM   21  C11 UNL     1      33.388 -30.723  -2.843  1.00  0.00     0.089 A 
HETATM   22  N3  UNL     1      32.884 -29.933  -3.791  1.00  0.00    -0.374 N 
HETATM   23  C12 UNL     1      33.706 -28.864  -3.969  1.00  0.00     0.108 A 
ATOM     24  H3  UNL     1      32.018 -30.103  -4.303  1.00  0.00     0.164 HD
ENDBRANCH  18  19
ENDBRANCH   4  17
BRANCH   5  25
HETATM   25  O1  UNL     1      39.421 -27.774  -1.677  1.00  0.00    -0.386 OA
ATOM     26  H1  UNL     1      39.996 -28.047  -2.383  1.00  0.00     0.210 HD
ENDBRANCH   5  25
TORSDOF 7
ENDMDL
