MODEL 1
REMARK VINA RESULT: -7.169183375      0.000      0.000
REMARK  6 active torsions:
REMARK  status: ('A' for Active; 'I' for Inactive)
REMARK    1  A    between atoms: O1_1  and  C1_3 
REMARK    2  A    between atoms: C1_3  and  C2_4 
REMARK    3  A    between atoms: C3_6  and  N1_7 
REMARK    4  A    between atoms: C7_11  and  C8_12 
REMARK    5  A    between atoms: C13_19  and  O3_20 
REMARK    6  A    between atoms: C14_22  and  O4_23 
ROOT
HETATM    1  C2  UNL     1      40.045 -24.172  -3.920  1.00  0.00     0.179 C 
HETATM    2  O2  UNL     1      39.350 -25.038  -4.759  1.00  0.00    -0.354 OA
HETATM    3  C3  UNL     1      38.744 -25.960  -3.914  1.00  0.00     0.259 C 
HETATM    4  C13 UNL     1      38.353 -25.211  -2.657  1.00  0.00     0.198 C 
HETATM    5  C14 UNL     1      39.023 -23.881  -2.855  1.00  0.00     0.182 C 
ENDROOT
BRANCH   3   6
HETATM    6  N1  UNL     1      37.544 -26.522  -4.484  1.00  0.00    -0.336 N 
HETATM    7  C4  UNL     1      37.169 -26.073  -5.696  1.00  0.00     0.093 A 
HETATM    8  C5  UNL     1      36.039 -26.532  -6.346  1.00  0.00     0.018 A 
HETATM    9  C6  UNL     1      35.299 -27.494  -5.676  1.00  0.00     0.016 A 
HETATM   10  C7  UNL     1      35.653 -27.977  -4.433  1.00  0.00     0.006 A 
HETATM   11  C12 UNL     1      36.799 -27.454  -3.869  1.00  0.00     0.107 A 
BRANCH  10  12
HETATM   12  C8  UNL     1      34.859 -28.990  -3.746  1.00  0.00     0.043 A 
HETATM   13  C9  UNL     1      35.308 -29.934  -2.862  1.00  0.00     0.031 A 
HETATM   14  C10 UNL     1      34.248 -30.720  -2.421  1.00  0.00     0.019 A 
HETATM   15  C11 UNL     1      33.139 -30.203  -3.082  1.00  0.00     0.088 A 
HETATM   16  N2  UNL     1      33.533 -29.175  -3.864  1.00  0.00    -0.365 N 
ATOM     17  H2  UNL     1      32.915 -28.621  -4.456  1.00  0.00     0.165 HD
ENDBRANCH  10  12
ENDBRANCH   3   6
BRANCH   4  18
HETATM   18  O3  UNL     1      38.785 -25.828  -1.504  1.00  0.00    -0.388 OA
ATOM     19  H3  UNL     1      38.220 -25.661  -0.758  1.00  0.00     0.210 HD
ENDBRANCH   4  18
BRANCH   1  20
HETATM   20  C1  UNL     1      41.298 -24.817  -3.370  1.00  0.00     0.198 C 
BRANCH  20  21
HETATM   21  O1  UNL     1      42.325 -24.629  -4.265  1.00  0.00    -0.398 OA
ATOM     22  H1  UNL     1      42.630 -25.477  -4.566  1.00  0.00     0.209 HD
ENDBRANCH  20  21
ENDBRANCH   1  20
BRANCH   5  23
HETATM   23  O4  UNL     1      39.540 -23.332  -1.713  1.00  0.00    -0.390 OA
ATOM     24  H4  UNL     1      40.046 -23.935  -1.181  1.00  0.00     0.210 HD
ENDBRANCH   5  23
TORSDOF 6
ENDMDL
MODEL 2
REMARK VINA RESULT: -7.099090689      1.495      1.777
REMARK  6 active torsions:
REMARK  status: ('A' for Active; 'I' for Inactive)
REMARK    1  A    between atoms: O1_1  and  C1_3 
REMARK    2  A    between atoms: C1_3  and  C2_4 
REMARK    3  A    between atoms: C3_6  and  N1_7 
REMARK    4  A    between atoms: C7_11  and  C8_12 
REMARK    5  A    between atoms: C13_19  and  O3_20 
REMARK    6  A    between atoms: C14_22  and  O4_23 
ROOT
HETATM    1  C2  UNL     1      38.607 -23.431  -3.841  1.00  0.00     0.179 C 
HETATM    2  O2  UNL     1      37.770 -24.223  -4.622  1.00  0.00    -0.354 OA
HETATM    3  C3  UNL     1      38.399 -25.461  -4.695  1.00  0.00     0.259 C 
HETATM    4  C13 UNL     1      39.078 -25.686  -3.360  1.00  0.00     0.198 C 
HETATM    5  C14 UNL     1      38.924 -24.349  -2.692  1.00  0.00     0.182 C 
ENDROOT
BRANCH   3   6
HETATM    6  N1  UNL     1      37.466 -26.540  -4.903  1.00  0.00    -0.336 N 
HETATM    7  C4  UNL     1      37.001 -26.720  -6.154  1.00  0.00     0.093 A 
HETATM    8  C5  UNL     1      36.104 -27.719  -6.480  1.00  0.00     0.018 A 
HETATM    9  C6  UNL     1      35.700 -28.539  -5.439  1.00  0.00     0.016 A 
HETATM   10  C7  UNL     1      36.155 -28.385  -4.146  1.00  0.00     0.006 A 
HETATM   11  C12 UNL     1      37.049 -27.357  -3.924  1.00  0.00     0.107 A 
BRANCH  10  12
HETATM   12  C8  UNL     1      35.715 -29.260  -3.065  1.00  0.00     0.043 A 
HETATM   13  C9  UNL     1      34.576 -30.019  -3.027  1.00  0.00     0.031 A 
HETATM   14  C10 UNL     1      34.507 -30.718  -1.826  1.00  0.00     0.019 A 
HETATM   15  C11 UNL     1      35.659 -30.344  -1.143  1.00  0.00     0.088 A 
HETATM   16  N2  UNL     1      36.358 -29.475  -1.905  1.00  0.00    -0.365 N 
ATOM     17  H2  UNL     1      37.244 -29.046  -1.639  1.00  0.00     0.165 HD
ENDBRANCH  10  12
ENDBRANCH   3   6
BRANCH   4  18
HETATM   18  O3  UNL     1      40.403 -26.041  -3.481  1.00  0.00    -0.388 OA
ATOM     19  H3  UNL     1      40.771 -26.386  -2.675  1.00  0.00     0.210 HD
ENDBRANCH   4  18
BRANCH   1  20
HETATM   20  C1  UNL     1      39.839 -23.002  -4.606  1.00  0.00     0.198 C 
BRANCH  20  21
HETATM   21  O1  UNL     1      40.274 -21.795  -4.109  1.00  0.00    -0.398 OA
ATOM     22  H1  UNL     1      41.140 -21.615  -4.455  1.00  0.00     0.209 HD
ENDBRANCH  20  21
ENDBRANCH   1  20
BRANCH   5  23
HETATM   23  O4  UNL     1      40.001 -23.963  -1.942  1.00  0.00    -0.390 OA
ATOM     24  H4  UNL     1      40.465 -24.680  -1.524  1.00  0.00     0.210 HD
ENDBRANCH   5  23
TORSDOF 6
ENDMDL
MODEL 3
REMARK VINA RESULT: -7.000219252      1.906      2.448
REMARK  6 active torsions:
REMARK  status: ('A' for Active; 'I' for Inactive)
REMARK    1  A    between atoms: O1_1  and  C1_3 
REMARK    2  A    between atoms: C1_3  and  C2_4 
REMARK    3  A    between atoms: C3_6  and  N1_7 
REMARK    4  A    between atoms: C7_11  and  C8_12 
REMARK    5  A    between atoms: C13_19  and  O3_20 
REMARK    6  A    between atoms: C14_22  and  O4_23 
ROOT
HETATM    1  C2  UNL     1      39.697 -23.955  -4.949  1.00  0.00     0.179 C 
HETATM    2  O2  UNL     1      39.403 -25.271  -4.602  1.00  0.00    -0.354 OA
HETATM    3  C3  UNL     1      38.057 -25.267  -4.255  1.00  0.00     0.259 C 
HETATM    4  C13 UNL     1      37.374 -24.266  -5.163  1.00  0.00     0.198 C 
HETATM    5  C14 UNL     1      38.539 -23.601  -5.841  1.00  0.00     0.182 C 
ENDROOT
BRANCH   3   6
HETATM    6  N1  UNL     1      37.431 -26.549  -4.464  1.00  0.00    -0.336 N 
HETATM    7  C4  UNL     1      37.300 -26.970  -5.736  1.00  0.00     0.093 A 
HETATM    8  C5  UNL     1      36.718 -28.180  -6.066  1.00  0.00     0.018 A 
HETATM    9  C6  UNL     1      36.269 -28.950  -5.005  1.00  0.00     0.016 A 
HETATM   10  C7  UNL     1      36.387 -28.551  -3.690  1.00  0.00     0.006 A 
HETATM   11  C12 UNL     1      36.983 -27.327  -3.466  1.00  0.00     0.107 A 
BRANCH  10  12
HETATM   12  C8  UNL     1      35.907 -29.378  -2.588  1.00  0.00     0.043 A 
HETATM   13  C9  UNL     1      34.763 -30.130  -2.556  1.00  0.00     0.031 A 
HETATM   14  C10 UNL     1      34.650 -30.778  -1.329  1.00  0.00     0.019 A 
HETATM   15  C11 UNL     1      35.781 -30.380  -0.626  1.00  0.00     0.088 A 
HETATM   16  N2  UNL     1      36.511 -29.548  -1.399  1.00  0.00    -0.365 N 
ATOM     17  H2  UNL     1      37.390 -29.112  -1.122  1.00  0.00     0.165 HD
ENDBRANCH  10  12
ENDBRANCH   3   6
BRANCH   4  18
HETATM   18  O3  UNL     1      36.601 -23.354  -4.479  1.00  0.00    -0.388 OA
ATOM     19  H3  UNL     1      36.820 -22.453  -4.682  1.00  0.00     0.210 HD
ENDBRANCH   4  18
BRANCH   1  20
HETATM   20  C1  UNL     1      39.790 -23.067  -3.729  1.00  0.00     0.198 C 
BRANCH  20  21
HETATM   21  O1  UNL     1      40.311 -21.850  -4.103  1.00  0.00    -0.398 OA
ATOM     22  H1  UNL     1      41.203 -21.787  -3.783  1.00  0.00     0.209 HD
ENDBRANCH  20  21
ENDBRANCH   1  20
BRANCH   5  23
HETATM   23  O4  UNL     1      38.380 -22.258  -6.053  1.00  0.00    -0.390 OA
ATOM     24  H4  UNL     1      37.612 -21.884  -5.638  1.00  0.00     0.210 HD
ENDBRANCH   5  23
TORSDOF 6
ENDMDL
MODEL 4
REMARK VINA RESULT: -6.943050960      1.537      2.461
REMARK  6 active torsions:
REMARK  status: ('A' for Active; 'I' for Inactive)
REMARK    1  A    between atoms: O1_1  and  C1_3 
REMARK    2  A    between atoms: C1_3  and  C2_4 
REMARK    3  A    between atoms: C3_6  and  N1_7 
REMARK    4  A    between atoms: C7_11  and  C8_12 
REMARK    5  A    between atoms: C13_19  and  O3_20 
REMARK    6  A    between atoms: C14_22  and  O4_23 
ROOT
HETATM    1  C2  UNL     1      38.838 -23.642  -3.103  1.00  0.00     0.179 C 
HETATM    2  O2  UNL     1      37.882 -24.646  -3.232  1.00  0.00    -0.354 OA
HETATM    3  C3  UNL     1      37.421 -24.548  -4.540  1.00  0.00     0.259 C 
HETATM    4  C13 UNL     1      38.606 -24.139  -5.391  1.00  0.00     0.198 C 
HETATM    5  C14 UNL     1      39.648 -23.819  -4.358  1.00  0.00     0.182 C 
ENDROOT
BRANCH   3   6
HETATM    6  N1  UNL     1      36.929 -25.806  -5.045  1.00  0.00    -0.336 N 
HETATM    7  C4  UNL     1      37.229 -26.117  -6.319  1.00  0.00     0.093 A 
HETATM    8  C5  UNL     1      36.815 -27.293  -6.918  1.00  0.00     0.018 A 
HETATM    9  C6  UNL     1      36.064 -28.148  -6.127  1.00  0.00     0.016 A 
HETATM   10  C7  UNL     1      35.738 -27.861  -4.818  1.00  0.00     0.006 A 
HETATM   11  C12 UNL     1      36.199 -26.663  -4.314  1.00  0.00     0.107 A 
BRANCH  10  12
HETATM   12  C8  UNL     1      34.946 -28.776  -4.004  1.00  0.00     0.043 A 
HETATM   13  C9  UNL     1      33.615 -29.068  -4.146  1.00  0.00     0.031 A 
HETATM   14  C10 UNL     1      33.221 -29.987  -3.177  1.00  0.00     0.019 A 
HETATM   15  C11 UNL     1      34.378 -30.234  -2.447  1.00  0.00     0.088 A 
HETATM   16  N2  UNL     1      35.388 -29.500  -2.961  1.00  0.00    -0.365 N 
ATOM     17  H2  UNL     1      36.346 -29.496  -2.610  1.00  0.00     0.165 HD
ENDBRANCH  10  12
ENDBRANCH   3   6
BRANCH   4  18
HETATM   18  O3  UNL     1      38.342 -23.054  -6.198  1.00  0.00    -0.388 OA
ATOM     19  H3  UNL     1      38.503 -23.226  -7.118  1.00  0.00     0.210 HD
ENDBRANCH   4  18
BRANCH   1  20
HETATM   20  C1  UNL     1      38.198 -22.275  -3.005  1.00  0.00     0.198 C 
BRANCH  20  21
HETATM   21  O1  UNL     1      39.174 -21.346  -2.726  1.00  0.00    -0.398 OA
ATOM     22  H1  UNL     1      39.496 -20.984  -3.543  1.00  0.00     0.209 HD
ENDBRANCH  20  21
ENDBRANCH   1  20
BRANCH   5  23
HETATM   23  O4  UNL     1      40.445 -22.750  -4.671  1.00  0.00    -0.390 OA
ATOM     24  H4  UNL     1      40.004 -22.059  -5.150  1.00  0.00     0.210 HD
ENDBRANCH   5  23
TORSDOF 6
ENDMDL
MODEL 5
REMARK VINA RESULT: -6.869956489      1.542      2.045
REMARK  6 active torsions:
REMARK  status: ('A' for Active; 'I' for Inactive)
REMARK    1  A    between atoms: O1_1  and  C1_3 
REMARK    2  A    between atoms: C1_3  and  C2_4 
REMARK    3  A    between atoms: C3_6  and  N1_7 
REMARK    4  A    between atoms: C7_11  and  C8_12 
REMARK    5  A    between atoms: C13_19  and  O3_20 
REMARK    6  A    between atoms: C14_22  and  O4_23 
ROOT
HETATM    1  C2  UNL     1      39.598 -24.186  -4.769  1.00  0.00     0.179 C 
HETATM    2  O2  UNL     1      39.162 -25.494  -4.578  1.00  0.00    -0.354 OA
HETATM    3  C3  UNL     1      37.792 -25.397  -4.361  1.00  0.00     0.259 C 
HETATM    4  C13 UNL     1      37.292 -24.262  -5.231  1.00  0.00     0.198 C 
HETATM    5  C14 UNL     1      38.571 -23.651  -5.729  1.00  0.00     0.182 C 
ENDROOT
BRANCH   3   6
HETATM    6  N1  UNL     1      37.088 -26.593  -4.750  1.00  0.00    -0.336 N 
HETATM    7  C4  UNL     1      37.113 -26.927  -6.053  1.00  0.00     0.093 A 
HETATM    8  C5  UNL     1      36.477 -28.049  -6.550  1.00  0.00     0.018 A 
HETATM    9  C6  UNL     1      35.801 -28.826  -5.623  1.00  0.00     0.016 A 
HETATM   10  C7  UNL     1      35.754 -28.516  -4.280  1.00  0.00     0.006 A 
HETATM   11  C12 UNL     1      36.421 -27.374  -3.885  1.00  0.00     0.107 A 
BRANCH  10  12
HETATM   12  C8  UNL     1      35.035 -29.348  -3.322  1.00  0.00     0.043 A 
HETATM   13  C9  UNL     1      35.577 -30.131  -2.337  1.00  0.00     0.031 A 
HETATM   14  C10 UNL     1      34.566 -30.776  -1.629  1.00  0.00     0.019 A 
HETATM   15  C11 UNL     1      33.392 -30.343  -2.234  1.00  0.00     0.088 A 
HETATM   16  N2  UNL     1      33.702 -29.495  -3.238  1.00  0.00    -0.365 N 
ATOM     17  H2  UNL     1      33.023 -29.032  -3.843  1.00  0.00     0.165 HD
ENDBRANCH  10  12
ENDBRANCH   3   6
BRANCH   4  18
HETATM   18  O3  UNL     1      36.530 -23.346  -4.539  1.00  0.00    -0.388 OA
ATOM     19  H3  UNL     1      36.061 -23.729  -3.807  1.00  0.00     0.210 HD
ENDBRANCH   4  18
BRANCH   1  20
HETATM   20  C1  UNL     1      39.639 -23.418  -3.466  1.00  0.00     0.198 C 
BRANCH  20  21
HETATM   21  O1  UNL     1      40.218 -22.191  -3.691  1.00  0.00    -0.398 OA
ATOM     22  H1  UNL     1      40.564 -21.860  -2.870  1.00  0.00     0.209 HD
ENDBRANCH  20  21
ENDBRANCH   1  20
BRANCH   5  23
HETATM   23  O4  UNL     1      38.546 -22.286  -5.827  1.00  0.00    -0.390 OA
ATOM     24  H4  UNL     1      37.932 -21.950  -6.469  1.00  0.00     0.210 HD
ENDBRANCH   5  23
TORSDOF 6
ENDMDL
