MODEL 1
REMARK VINA RESULT: -4.697374719      0.000      0.000
REMARK  3 active torsions:
REMARK  status: ('A' for Active; 'I' for Inactive)
REMARK    1  A    between atoms: C2_4  and  C3_5 
REMARK    2  A    between atoms: C8_13  and  C9_14 
REMARK    3  A    between atoms: N3_18  and  O1_19 
ROOT
HETATM    1  C3  UNL     1      59.977  30.787  13.287  1.00  0.00     0.068 C 
HETATM    2  C4  UNL     1      60.213  30.381  11.891  1.00  0.00     0.289 C 
HETATM    3  N2  UNL     1      60.923  31.321  11.067  1.00  0.00    -0.041 N 
ATOM      4  H21 UNL     1      60.664  32.276  11.316  1.00  0.00     0.280 HD
ATOM      5  H22 UNL     1      60.572  31.288  10.110  1.00  0.00     0.280 HD
HETATM    6  C5  UNL     1      62.345  31.174  11.080  1.00  0.00     0.308 C 
HETATM    7  C6  UNL     1      62.850  31.747  12.382  1.00  0.00     0.053 C 
HETATM    8  C7  UNL     1      62.481  31.006  13.585  1.00  0.00     0.009 C 
HETATM    9  C8  UNL     1      61.109  31.184  14.131  1.00  0.00     0.004 C 
HETATM   10  N3  UNL     1      62.837  29.877  10.780  1.00  0.00    -0.073 NA
HETATM   11  N4  UNL     1      62.059  28.830  11.221  1.00  0.00    -0.263 N 
ATOM     12  H4  UNL     1      62.438  27.885  11.161  1.00  0.00     0.186 HD
HETATM   13  C13 UNL     1      60.767  29.002  11.749  1.00  0.00     0.265 C 
HETATM   14  O2  UNL     1      60.120  27.978  12.086  1.00  0.00    -0.270 OA
ENDROOT
BRANCH   1  15
HETATM   15  C2  UNL     1      59.101  29.708  13.887  1.00  0.00     0.062 C 
HETATM   16  N1  UNL     1      59.476  29.145  14.972  1.00  0.00    -0.406 N 
HETATM   17  C1  UNL     1      58.724  28.129  15.605  1.00  0.00     0.145 C 
ATOM     18  H1  UNL     1      60.355  29.441  15.398  1.00  0.00     0.158 HD
ENDBRANCH   1  15
BRANCH   9  19
HETATM   19  C9  UNL     1      60.918  32.504  14.863  1.00  0.00    -0.047 C 
HETATM   20  C10 UNL     1      60.141  32.247  16.141  1.00  0.00     0.015 C 
HETATM   21  C11 UNL     1      62.137  33.256  15.169  1.00  0.00     0.015 C 
HETATM   22  C12 UNL     1      60.005  33.361  13.987  1.00  0.00     0.015 C 
ENDBRANCH   9  19
BRANCH  10  23
HETATM   23  O1  UNL     1      64.121  29.794  11.239  1.00  0.00    -0.292 OA
ATOM     24  H1  UNL     1      64.299  28.887  11.458  1.00  0.00     0.239 HD
ENDBRANCH  10  23
TORSDOF 3
ENDMDL
MODEL 2
REMARK VINA RESULT: -4.675833926      2.182      3.903
REMARK  3 active torsions:
REMARK  status: ('A' for Active; 'I' for Inactive)
REMARK    1  A    between atoms: C2_4  and  C3_5 
REMARK    2  A    between atoms: C8_13  and  C9_14 
REMARK    3  A    between atoms: N3_18  and  O1_19 
ROOT
HETATM    1  C3  UNL     1      61.043  31.441  12.871  1.00  0.00     0.068 C 
HETATM    2  C4  UNL     1      59.671  30.912  12.950  1.00  0.00     0.289 C 
HETATM    3  N2  UNL     1      59.069  30.521  11.706  1.00  0.00    -0.041 N 
ATOM      4  H21 UNL     1      59.364  31.147  10.957  1.00  0.00     0.280 HD
ATOM      5  H22 UNL     1      58.069  30.721  11.718  1.00  0.00     0.280 HD
HETATM    6  C5  UNL     1      59.297  29.160  11.332  1.00  0.00     0.308 C 
HETATM    7  C6  UNL     1      60.713  29.060  10.819  1.00  0.00     0.053 C 
HETATM    8  C7  UNL     1      61.763  29.257  11.814  1.00  0.00     0.009 C 
HETATM    9  C8  UNL     1      62.094  30.647  12.227  1.00  0.00     0.004 C 
HETATM   10  N3  UNL     1      58.956  28.183  12.304  1.00  0.00    -0.073 NA
HETATM   11  N4  UNL     1      59.161  28.553  13.614  1.00  0.00    -0.263 N 
ATOM     12  H4  UNL     1      59.072  27.842  14.339  1.00  0.00     0.186 HD
HETATM   13  C13 UNL     1      59.487  29.866  14.001  1.00  0.00     0.265 C 
HETATM   14  O2  UNL     1      59.614  30.112  15.227  1.00  0.00    -0.270 OA
ENDROOT
BRANCH   1  15
HETATM   15  C2  UNL     1      61.386  31.907  14.270  1.00  0.00     0.062 C 
HETATM   16  N1  UNL     1      62.402  31.398  14.856  1.00  0.00    -0.406 N 
HETATM   17  C1  UNL     1      62.798  31.771  16.161  1.00  0.00     0.145 C 
ATOM     18  H1  UNL     1      62.949  30.693  14.362  1.00  0.00     0.158 HD
ENDBRANCH   1  15
BRANCH   9  19
HETATM   19  C9  UNL     1      62.911  31.405  11.189  1.00  0.00    -0.047 C 
HETATM   20  C10 UNL     1      64.124  32.009  11.870  1.00  0.00     0.015 C 
HETATM   21  C11 UNL     1      63.333  30.640  10.014  1.00  0.00     0.015 C 
HETATM   22  C12 UNL     1      62.055  32.588  10.739  1.00  0.00     0.015 C 
ENDBRANCH   9  19
BRANCH  10  23
HETATM   23  O1  UNL     1      59.607  27.024  11.987  1.00  0.00    -0.292 OA
ATOM     24  H1  UNL     1      59.582  26.455  12.747  1.00  0.00     0.239 HD
ENDBRANCH  10  23
TORSDOF 3
ENDMDL
MODEL 3
REMARK VINA RESULT: -4.549921637      4.530      6.052
REMARK  3 active torsions:
REMARK  status: ('A' for Active; 'I' for Inactive)
REMARK    1  A    between atoms: C2_4  and  C3_5 
REMARK    2  A    between atoms: C8_13  and  C9_14 
REMARK    3  A    between atoms: N3_18  and  O1_19 
ROOT
HETATM    1  C3  UNL     1      64.018  28.784   9.521  1.00  0.00     0.068 C 
HETATM    2  C4  UNL     1      64.184  28.252   8.157  1.00  0.00     0.289 C 
HETATM    3  N2  UNL     1      65.528  27.936   7.758  1.00  0.00    -0.041 N 
ATOM      4  H21 UNL     1      66.184  28.606   8.160  1.00  0.00     0.280 HD
ATOM      5  H22 UNL     1      65.659  28.136   6.767  1.00  0.00     0.280 HD
HETATM    6  C5  UNL     1      65.941  26.600   8.053  1.00  0.00     0.308 C 
HETATM    7  C6  UNL     1      66.234  26.531   9.532  1.00  0.00     0.053 C 
HETATM    8  C7  UNL     1      65.078  26.667  10.414  1.00  0.00     0.009 C 
HETATM    9  C8  UNL     1      64.538  28.029  10.666  1.00  0.00     0.004 C 
HETATM   10  N3  UNL     1      65.093  25.567   7.575  1.00  0.00    -0.073 NA
HETATM   11  N4  UNL     1      63.748  25.858   7.571  1.00  0.00    -0.263 N 
ATOM     12  H4  UNL     1      63.089  25.105   7.377  1.00  0.00     0.186 HD
HETATM   13  C13 UNL     1      63.239  27.146   7.823  1.00  0.00     0.265 C 
HETATM   14  O2  UNL     1      61.995  27.318   7.756  1.00  0.00    -0.270 OA
ENDROOT
BRANCH   1  15
HETATM   15  C2  UNL     1      62.558  29.166   9.639  1.00  0.00     0.062 C 
HETATM   16  N1  UNL     1      61.849  28.612  10.548  1.00  0.00    -0.406 N 
HETATM   17  C1  UNL     1      60.479  28.906  10.734  1.00  0.00     0.145 C 
ATOM     18  H1  UNL     1      62.292  27.930  11.165  1.00  0.00     0.158 HD
ENDBRANCH   1  15
BRANCH   9  19
HETATM   19  C9  UNL     1      65.390  28.847  11.626  1.00  0.00    -0.047 C 
HETATM   20  C10 UNL     1      64.479  29.747  12.441  1.00  0.00     0.015 C 
HETATM   21  C11 UNL     1      66.264  28.088  12.522  1.00  0.00     0.015 C 
HETATM   22  C12 UNL     1      66.239  29.783  10.768  1.00  0.00     0.015 C 
ENDBRANCH   9  19
BRANCH  10  23
HETATM   23  O1  UNL     1      65.373  24.429   8.276  1.00  0.00    -0.292 OA
ATOM     24  H1  UNL     1      66.245  24.516   8.645  1.00  0.00     0.239 HD
ENDBRANCH  10  23
TORSDOF 3
ENDMDL
MODEL 4
REMARK VINA RESULT: -4.497719548      2.220      4.502
REMARK  3 active torsions:
REMARK  status: ('A' for Active; 'I' for Inactive)
REMARK    1  A    between atoms: C2_4  and  C3_5 
REMARK    2  A    between atoms: C8_13  and  C9_14 
REMARK    3  A    between atoms: N3_18  and  O1_19 
ROOT
HETATM    1  C3  UNL     1      61.057  30.342  11.558  1.00  0.00     0.068 C 
HETATM    2  C4  UNL     1      61.357  31.774  11.379  1.00  0.00     0.289 C 
HETATM    3  N2  UNL     1      60.361  32.695  11.854  1.00  0.00    -0.041 N 
ATOM      4  H21 UNL     1      59.427  32.316  11.703  1.00  0.00     0.280 HD
ATOM      5  H22 UNL     1      60.319  33.513  11.247  1.00  0.00     0.280 HD
HETATM    6  C5  UNL     1      60.520  33.097  13.216  1.00  0.00     0.308 C 
HETATM    7  C6  UNL     1      60.052  31.954  14.085  1.00  0.00     0.053 C 
HETATM    8  C7  UNL     1      60.880  30.752  14.050  1.00  0.00     0.009 C 
HETATM    9  C8  UNL     1      60.735  29.828  12.894  1.00  0.00     0.004 C 
HETATM   10  N3  UNL     1      61.794  33.616  13.567  1.00  0.00    -0.073 NA
HETATM   11  N4  UNL     1      62.865  33.049  12.915  1.00  0.00    -0.263 N 
ATOM     12  H4  UNL     1      63.805  33.281  13.235  1.00  0.00     0.186 HD
HETATM   13  C13 UNL     1      62.725  32.164  11.830  1.00  0.00     0.265 C 
HETATM   14  O2  UNL     1      63.767  31.732  11.276  1.00  0.00    -0.270 OA
ENDROOT
BRANCH   1  15
HETATM   15  C2  UNL     1      62.172  29.597  10.857  1.00  0.00     0.062 C 
HETATM   16  N1  UNL     1      62.192  29.581   9.579  1.00  0.00    -0.406 N 
HETATM   17  C1  UNL     1      63.194  28.913   8.838  1.00  0.00     0.145 C 
ATOM     18  H1  UNL     1      61.454  30.071   9.072  1.00  0.00     0.158 HD
ENDBRANCH   1  15
BRANCH   9  19
HETATM   19  C9  UNL     1      59.473  28.979  12.955  1.00  0.00    -0.047 C 
HETATM   20  C10 UNL     1      59.775  27.611  12.373  1.00  0.00     0.015 C 
HETATM   21  C11 UNL     1      58.857  28.830  14.275  1.00  0.00     0.015 C 
HETATM   22  C12 UNL     1      58.467  29.623  12.001  1.00  0.00     0.015 C 
ENDBRANCH   9  19
BRANCH  10  23
HETATM   23  O1  UNL     1      61.920  33.547  14.926  1.00  0.00    -0.292 OA
ATOM     24  H1  UNL     1      62.824  33.740  15.148  1.00  0.00     0.239 HD
ENDBRANCH  10  23
TORSDOF 3
ENDMDL
MODEL 5
REMARK VINA RESULT: -4.304309405      6.988      8.708
REMARK  3 active torsions:
REMARK  status: ('A' for Active; 'I' for Inactive)
REMARK    1  A    between atoms: C2_4  and  C3_5 
REMARK    2  A    between atoms: C8_13  and  C9_14 
REMARK    3  A    between atoms: N3_18  and  O1_19 
ROOT
HETATM    1  C3  UNL     1      64.816  30.088  20.115  1.00  0.00     0.068 C 
HETATM    2  C4  UNL     1      64.238  30.779  21.282  1.00  0.00     0.289 C 
HETATM    3  N2  UNL     1      64.112  32.207  21.176  1.00  0.00    -0.041 N 
ATOM      4  H21 UNL     1      64.896  32.594  20.652  1.00  0.00     0.280 HD
ATOM      5  H22 UNL     1      64.273  32.644  22.082  1.00  0.00     0.280 HD
HETATM    6  C5  UNL     1      62.874  32.658  20.620  1.00  0.00     0.308 C 
HETATM    7  C6  UNL     1      62.935  32.430  19.129  1.00  0.00     0.053 C 
HETATM    8  C7  UNL     1      62.941  31.033  18.701  1.00  0.00     0.009 C 
HETATM    9  C8  UNL     1      64.216  30.273  18.790  1.00  0.00     0.004 C 
HETATM   10  N3  UNL     1      61.697  32.163  21.241  1.00  0.00    -0.073 NA
HETATM   11  N4  UNL     1      61.777  30.876  21.722  1.00  0.00    -0.263 N 
ATOM     12  H4  UNL     1      60.921  30.424  22.043  1.00  0.00     0.186 HD
HETATM   13  C13 UNL     1      62.982  30.153  21.792  1.00  0.00     0.265 C 
HETATM   14  O2  UNL     1      62.957  28.998  22.286  1.00  0.00    -0.270 OA
ENDROOT
BRANCH   1  15
HETATM   15  C2  UNL     1      64.973  28.641  20.531  1.00  0.00     0.062 C 
HETATM   16  N1  UNL     1      66.031  28.294  21.160  1.00  0.00    -0.406 N 
HETATM   17  C1  UNL     1      66.264  26.967  21.587  1.00  0.00     0.145 C 
ATOM     18  H1  UNL     1      66.735  29.004  21.361  1.00  0.00     0.158 HD
ENDBRANCH   1  15
BRANCH   9  19
HETATM   19  C9  UNL     1      65.209  30.632  17.693  1.00  0.00    -0.047 C 
HETATM   20  C10 UNL     1      66.067  29.417  17.394  1.00  0.00     0.015 C 
HETATM   21  C11 UNL     1      64.638  31.152  16.449  1.00  0.00     0.015 C 
HETATM   22  C12 UNL     1      66.156  31.674  18.286  1.00  0.00     0.015 C 
ENDBRANCH   9  19
BRANCH  10  23
HETATM   23  O1  UNL     1      60.658  32.325  20.370  1.00  0.00    -0.292 OA
ATOM     24  H1  UNL     1      60.116  31.545  20.408  1.00  0.00     0.239 HD
ENDBRANCH  10  23
TORSDOF 3
ENDMDL
