MODEL 1
REMARK VINA RESULT: -8.053012577      0.000      0.000
REMARK  2 active torsions:
REMARK  status: ('A' for Active; 'I' for Inactive)
REMARK    1  A    between atoms: C6_6  and  C8_8 
REMARK       I    between atoms: C8_8  and  N1_10 
REMARK    2  A    between atoms: N1_10  and  C9_12 
ROOT
HETATM    1  C8  UNL     1     -11.711  -4.117  -3.340  1.00  0.00     0.231 C 
HETATM    2  O1  UNL     1     -10.627  -3.594  -3.580  1.00  0.00    -0.272 OA
HETATM    3  N1  UNL     1     -12.310  -5.117  -4.101  1.00  0.00    -0.324 N 
ATOM      4  H1  UNL     1     -13.215  -5.463  -3.785  1.00  0.00     0.169 HD
ENDROOT
BRANCH   3   5
HETATM    5  C9  UNL     1     -11.756  -5.709  -5.305  1.00  0.00     0.069 A 
HETATM    6  C10 UNL     1     -10.425  -6.010  -5.358  1.00  0.00     0.082 A 
HETATM    7  S1  UNL     1     -10.240  -6.671  -6.943  1.00  0.00    -0.102 SA
HETATM    8  C11 UNL     1     -11.845  -6.538  -7.465  1.00  0.00     0.011 A 
HETATM    9  C12 UNL     1     -12.491  -5.984  -6.400  1.00  0.00     0.069 A 
HETATM   10  C16 UNL     1     -12.271  -6.984  -8.826  1.00  0.00     0.048 C 
HETATM   11  N2  UNL     1     -13.920  -5.713  -6.475  1.00  0.00    -0.387 N 
HETATM   12  C13 UNL     1     -14.764  -5.356  -7.593  1.00  0.00     0.120 C 
ATOM     13  H2  UNL     1     -14.410  -5.787  -5.584  1.00  0.00     0.159 HD
HETATM   14  C14 UNL     1     -14.547  -6.171  -8.825  1.00  0.00     0.020 C 
HETATM   15  C15 UNL     1     -13.168  -5.899  -9.385  1.00  0.00     0.007 C 
ENDBRANCH   3   5
BRANCH   1  16
HETATM   16  C6  UNL     1     -12.434  -3.636  -2.134  1.00  0.00     0.042 C 
HETATM   17  C5  UNL     1     -11.731  -2.525  -1.439  1.00  0.00     0.019 C 
HETATM   18  C4  UNL     1     -12.429  -1.254  -1.200  1.00  0.00     0.002 C 
HETATM   19  C3  UNL     1     -13.825  -1.081  -1.733  1.00  0.00     0.010 C 
HETATM   20  C2  UNL     1     -13.939  -1.969  -2.913  1.00  0.00    -0.039 A 
HETATM   21  C1  UNL     1     -12.983  -1.538  -3.982  1.00  0.00     0.015 C 
HETATM   22  C17 UNL     1     -13.845  -3.359  -2.236  1.00  0.00     0.012 A 
HETATM   23  C18 UNL     1     -14.780  -3.059  -3.246  1.00  0.00     0.016 A 
HETATM   24  C7  UNL     1     -12.290  -4.876  -1.206  1.00  0.00     0.026 C 
ENDBRANCH   1  16
TORSDOF 2
ENDMDL
MODEL 2
REMARK VINA RESULT: -7.368422861      2.847      4.298
REMARK  2 active torsions:
REMARK  status: ('A' for Active; 'I' for Inactive)
REMARK    1  A    between atoms: C6_6  and  C8_8 
REMARK       I    between atoms: C8_8  and  N1_10 
REMARK    2  A    between atoms: N1_10  and  C9_12 
ROOT
HETATM    1  C8  UNL     1     -14.800  -2.518  -4.339  1.00  0.00     0.231 C 
HETATM    2  O1  UNL     1     -15.587  -2.979  -3.519  1.00  0.00    -0.272 OA
HETATM    3  N1  UNL     1     -14.990  -2.498  -5.717  1.00  0.00    -0.324 N 
ATOM      4  H1  UNL     1     -14.251  -2.082  -6.283  1.00  0.00     0.169 HD
ENDROOT
BRANCH   3   5
HETATM    5  C9  UNL     1     -16.150  -3.018  -6.418  1.00  0.00     0.069 A 
HETATM    6  C10 UNL     1     -17.383  -2.487  -6.168  1.00  0.00     0.082 A 
HETATM    7  S1  UNL     1     -18.418  -3.404  -7.203  1.00  0.00    -0.102 SA
HETATM    8  C11 UNL     1     -17.251  -4.413  -7.901  1.00  0.00     0.011 A 
HETATM    9  C12 UNL     1     -16.085  -4.018  -7.318  1.00  0.00     0.069 A 
HETATM   10  C16 UNL     1     -17.612  -5.448  -8.918  1.00  0.00     0.048 C 
HETATM   11  N2  UNL     1     -14.833  -4.672  -7.676  1.00  0.00    -0.387 N 
HETATM   12  C13 UNL     1     -14.552  -6.028  -8.090  1.00  0.00     0.120 C 
ATOM     13  H2  UNL     1     -14.013  -4.068  -7.626  1.00  0.00     0.159 HD
HETATM   14  C14 UNL     1     -15.482  -6.573  -9.123  1.00  0.00     0.020 C 
HETATM   15  C15 UNL     1     -16.871  -6.714  -8.539  1.00  0.00     0.007 C 
ENDBRANCH   3   5
BRANCH   1  16
HETATM   16  C6  UNL     1     -13.542  -1.935  -3.804  1.00  0.00     0.042 C 
HETATM   17  C5  UNL     1     -13.726  -1.257  -2.494  1.00  0.00     0.019 C 
HETATM   18  C4  UNL     1     -12.913  -1.663  -1.338  1.00  0.00     0.002 C 
HETATM   19  C3  UNL     1     -11.956  -2.813  -1.493  1.00  0.00     0.010 C 
HETATM   20  C2  UNL     1     -12.505  -3.678  -2.562  1.00  0.00    -0.039 A 
HETATM   21  C1  UNL     1     -13.832  -4.237  -2.149  1.00  0.00     0.015 C 
HETATM   22  C17 UNL     1     -12.350  -2.748  -3.792  1.00  0.00     0.012 A 
HETATM   23  C18 UNL     1     -12.020  -4.117  -3.819  1.00  0.00     0.016 A 
HETATM   24  C7  UNL     1     -13.295  -0.800  -4.839  1.00  0.00     0.026 C 
ENDBRANCH   1  16
TORSDOF 2
ENDMDL
MODEL 3
REMARK VINA RESULT: -7.351203470      3.018      6.939
REMARK  2 active torsions:
REMARK  status: ('A' for Active; 'I' for Inactive)
REMARK    1  A    between atoms: C6_6  and  C8_8 
REMARK       I    between atoms: C8_8  and  N1_10 
REMARK    2  A    between atoms: N1_10  and  C9_12 
ROOT
HETATM    1  C8  UNL     1     -11.509  -5.449  -3.428  1.00  0.00     0.231 C 
HETATM    2  O1  UNL     1     -10.712  -4.717  -4.006  1.00  0.00    -0.272 OA
HETATM    3  N1  UNL     1     -12.577  -5.019  -2.646  1.00  0.00    -0.324 N 
ATOM      4  H1  UNL     1     -13.163  -5.738  -2.222  1.00  0.00     0.169 HD
ENDROOT
BRANCH   3   5
HETATM    5  C9  UNL     1     -12.929  -3.636  -2.382  1.00  0.00     0.069 A 
HETATM    6  C10 UNL     1     -13.868  -3.019  -3.159  1.00  0.00     0.082 A 
HETATM    7  S1  UNL     1     -13.944  -1.430  -2.486  1.00  0.00    -0.102 SA
HETATM    8  C11 UNL     1     -12.792  -1.615  -1.260  1.00  0.00     0.011 A 
HETATM    9  C12 UNL     1     -12.373  -2.904  -1.397  1.00  0.00     0.069 A 
HETATM   10  C16 UNL     1     -12.446  -0.499  -0.329  1.00  0.00     0.048 C 
HETATM   11  N2  UNL     1     -11.360  -3.441  -0.497  1.00  0.00    -0.387 N 
HETATM   12  C13 UNL     1     -10.251  -2.804   0.177  1.00  0.00     0.120 C 
ATOM     13  H2  UNL     1     -11.449  -4.439  -0.310  1.00  0.00     0.159 HD
HETATM   14  C14 UNL     1     -10.582  -1.506   0.835  1.00  0.00     0.020 C 
HETATM   15  C15 UNL     1     -10.936  -0.474  -0.213  1.00  0.00     0.007 C 
ENDBRANCH   3   5
BRANCH   1  16
HETATM   16  C6  UNL     1     -11.307  -6.913  -3.583  1.00  0.00     0.042 C 
HETATM   17  C5  UNL     1     -10.024  -7.256  -4.250  1.00  0.00     0.019 C 
HETATM   18  C4  UNL     1      -9.070  -8.154  -3.585  1.00  0.00     0.002 C 
HETATM   19  C3  UNL     1      -9.387  -8.651  -2.201  1.00  0.00     0.010 C 
HETATM   20  C2  UNL     1     -10.257  -7.631  -1.574  1.00  0.00    -0.039 A 
HETATM   21  C1  UNL     1      -9.522  -6.333  -1.439  1.00  0.00     0.015 C 
HETATM   22  C17 UNL     1     -11.533  -7.768  -2.444  1.00  0.00     0.012 A 
HETATM   23  C18 UNL     1     -11.570  -7.651  -1.041  1.00  0.00     0.016 A 
HETATM   24  C7  UNL     1     -12.425  -7.243  -4.614  1.00  0.00     0.026 C 
ENDBRANCH   1  16
TORSDOF 2
ENDMDL
MODEL 4
REMARK VINA RESULT: -7.347440930      4.783      8.888
REMARK  2 active torsions:
REMARK  status: ('A' for Active; 'I' for Inactive)
REMARK    1  A    between atoms: C6_6  and  C8_8 
REMARK       I    between atoms: C8_8  and  N1_10 
REMARK    2  A    between atoms: N1_10  and  C9_12 
ROOT
HETATM    1  C8  UNL     1      -9.950  -2.930  -0.695  1.00  0.00     0.231 C 
HETATM    2  O1  UNL     1      -9.734  -2.241  -1.687  1.00  0.00    -0.272 OA
HETATM    3  N1  UNL     1     -10.396  -2.454   0.535  1.00  0.00    -0.324 N 
ATOM      4  H1  UNL     1     -10.535  -3.140   1.277  1.00  0.00     0.169 HD
ENDROOT
BRANCH   3   5
HETATM    5  C9  UNL     1     -10.679  -1.066   0.853  1.00  0.00     0.069 A 
HETATM    6  C10 UNL     1     -11.753  -0.449   0.277  1.00  0.00     0.082 A 
HETATM    7  S1  UNL     1     -11.682   1.146   0.937  1.00  0.00    -0.102 SA
HETATM    8  C11 UNL     1     -10.306   0.961   1.905  1.00  0.00     0.011 A 
HETATM    9  C12 UNL     1      -9.930  -0.331   1.697  1.00  0.00     0.069 A 
HETATM   10  C16 UNL     1      -9.771   2.083   2.736  1.00  0.00     0.048 C 
HETATM   11  N2  UNL     1      -8.758  -0.868   2.376  1.00  0.00    -0.387 N 
HETATM   12  C13 UNL     1      -7.532  -0.234   2.804  1.00  0.00     0.120 C 
ATOM     13  H2  UNL     1      -8.813  -1.864   2.587  1.00  0.00     0.159 HD
HETATM   14  C14 UNL     1      -7.714   1.071   3.505  1.00  0.00     0.020 C 
HETATM   15  C15 UNL     1      -8.269   2.098   2.541  1.00  0.00     0.007 C 
ENDBRANCH   3   5
BRANCH   1  16
HETATM   16  C6  UNL     1      -9.714  -4.391  -0.830  1.00  0.00     0.042 C 
HETATM   17  C5  UNL     1     -10.303  -5.181   0.284  1.00  0.00     0.019 C 
HETATM   18  C4  UNL     1     -11.248  -6.268  -0.010  1.00  0.00     0.002 C 
HETATM   19  C3  UNL     1     -11.655  -6.509  -1.438  1.00  0.00     0.010 C 
HETATM   20  C2  UNL     1     -11.520  -5.212  -2.140  1.00  0.00    -0.039 A 
HETATM   21  C1  UNL     1     -12.463  -4.205  -1.559  1.00  0.00     0.015 C 
HETATM   22  C17 UNL     1      -9.982  -5.022  -2.098  1.00  0.00     0.012 A 
HETATM   23  C18 UNL     1     -10.755  -4.768  -3.248  1.00  0.00     0.016 A 
HETATM   24  C7  UNL     1      -8.173  -4.447  -0.622  1.00  0.00     0.026 C 
ENDBRANCH   1  16
TORSDOF 2
ENDMDL
MODEL 5
REMARK VINA RESULT: -7.331681384      3.107      7.121
REMARK  2 active torsions:
REMARK  status: ('A' for Active; 'I' for Inactive)
REMARK    1  A    between atoms: C6_6  and  C8_8 
REMARK       I    between atoms: C8_8  and  N1_10 
REMARK    2  A    between atoms: N1_10  and  C9_12 
ROOT
HETATM    1  C8  UNL     1     -10.717  -5.233  -2.609  1.00  0.00     0.231 C 
HETATM    2  O1  UNL     1     -10.045  -4.490  -3.316  1.00  0.00    -0.272 OA
HETATM    3  N1  UNL     1     -11.831  -4.851  -1.867  1.00  0.00    -0.324 N 
ATOM      4  H1  UNL     1     -12.298  -5.575  -1.321  1.00  0.00     0.169 HD
ENDROOT
BRANCH   3   5
HETATM    5  C9  UNL     1     -12.385  -3.511  -1.803  1.00  0.00     0.069 A 
HETATM    6  C10 UNL     1     -13.340  -3.133  -2.704  1.00  0.00     0.082 A 
HETATM    7  S1  UNL     1     -13.679  -1.502  -2.247  1.00  0.00    -0.102 SA
HETATM    8  C11 UNL     1     -12.604  -1.372  -0.946  1.00  0.00     0.011 A 
HETATM    9  C12 UNL     1     -12.005  -2.594  -0.892  1.00  0.00     0.069 A 
HETATM   10  C16 UNL     1     -12.480  -0.114  -0.149  1.00  0.00     0.048 C 
HETATM   11  N2  UNL     1     -10.997  -2.869   0.124  1.00  0.00    -0.387 N 
HETATM   12  C13 UNL     1     -10.036  -2.003   0.769  1.00  0.00     0.120 C 
ATOM     13  H2  UNL     1     -10.964  -3.840   0.433  1.00  0.00     0.159 HD
HETATM   14  C14 UNL     1     -10.586  -0.696   1.236  1.00  0.00     0.020 C 
HETATM   15  C15 UNL     1     -11.000   0.141   0.045  1.00  0.00     0.007 C 
ENDBRANCH   3   5
BRANCH   1  16
HETATM   16  C6  UNL     1     -10.299  -6.658  -2.548  1.00  0.00     0.042 C 
HETATM   17  C5  UNL     1     -11.256  -7.514  -1.799  1.00  0.00     0.019 C 
HETATM   18  C4  UNL     1     -11.838  -8.699  -2.446  1.00  0.00     0.002 C 
HETATM   19  C3  UNL     1     -11.504  -8.978  -3.886  1.00  0.00     0.010 C 
HETATM   20  C2  UNL     1     -11.189  -7.671  -4.506  1.00  0.00    -0.039 A 
HETATM   21  C1  UNL     1     -12.391  -6.778  -4.479  1.00  0.00     0.015 C 
HETATM   22  C17 UNL     1      -9.877  -7.309  -3.764  1.00  0.00     0.012 A 
HETATM   23  C18 UNL     1     -10.045  -7.138  -5.152  1.00  0.00     0.016 A 
HETATM   24  C7  UNL     1      -9.036  -6.542  -1.646  1.00  0.00     0.026 C 
ENDBRANCH   1  16
TORSDOF 2
ENDMDL
