MODEL 1
REMARK VINA RESULT: -6.833723936      0.000      0.000
REMARK  16 active torsions:
REMARK  status: ('A' for Active; 'I' for Inactive)
REMARK    1  A    between atoms: C2_2  and  C3_3 
REMARK    2  A    between atoms: C2_2  and  N3_29 
REMARK    3  A    between atoms: C3_3  and  O1_4 
REMARK    4  A    between atoms: O1_4  and  C4_5 
REMARK    5  A    between atoms: C4_5  and  C5_6 
REMARK    6  A    between atoms: C5_6  and  O2_7 
REMARK    7  A    between atoms: O2_7  and  C6_8 
REMARK    8  A    between atoms: C6_8  and  C7_9 
REMARK    9  A    between atoms: C7_9  and  O3_10 
REMARK   10  A    between atoms: C7_9  and  N1_12 
REMARK   11  A    between atoms: N1_12  and  C8_14 
REMARK   12  A    between atoms: C8_14  and  C9_15 
REMARK   13  A    between atoms: C9_15  and  C11_17 
REMARK   14  A    between atoms: C11_17  and  C12_18 
REMARK   15  A    between atoms: C12_18  and  C13_19 
REMARK   16  A    between atoms: N2_25  and  C19_27 
ROOT
HETATM    1  N1  UNL     1     -38.846   4.128 -32.509  1.00  0.00    -0.374 N 
ATOM      2  H1  UNL     1     -39.317   4.818 -31.925  1.00  0.00     0.161 HD
ENDROOT
BRANCH   1   3
HETATM    3  C7  UNL     1     -39.550   3.490 -33.548  1.00  0.00     0.241 C 
BRANCH   3   4
HETATM    4  C6  UNL     1     -41.013   3.880 -33.631  1.00  0.00     0.221 C 
BRANCH   4   5
HETATM    5  O2  UNL     1     -41.676   3.361 -34.706  1.00  0.00    -0.385 OA
BRANCH   5   6
HETATM    6  C5  UNL     1     -42.282   2.149 -34.539  1.00  0.00     0.194 C 
BRANCH   6   7
HETATM    7  C4  UNL     1     -43.570   1.977 -35.309  1.00  0.00     0.193 C 
BRANCH   7   8
HETATM    8  O1  UNL     1     -44.118   0.724 -35.143  1.00  0.00    -0.387 OA
BRANCH   8   9
HETATM    9  C3  UNL     1     -43.355  -0.140 -34.377  1.00  0.00     0.192 C 
BRANCH   9  10
HETATM   10  C2  UNL     1     -43.694  -1.601 -34.609  1.00  0.00     0.103 C 
HETATM   11  C1  UNL     1     -44.774  -1.609 -35.698  1.00  0.00     0.034 C 
BRANCH  10  12
HETATM   12  N3  UNL     1     -44.251  -2.201 -33.424  1.00  0.00    -0.361 N 
HETATM   13  C20 UNL     1     -43.567  -2.951 -32.639  1.00  0.00     0.197 C 
HETATM   14  N4  UNL     1     -44.239  -3.488 -31.488  1.00  0.00    -0.067 NA
HETATM   15  N5  UNL     1     -42.207  -3.234 -32.901  1.00  0.00    -0.067 NA
ATOM     16  H3  UNL     1     -45.231  -2.022 -33.199  1.00  0.00     0.162 HD
ENDBRANCH  10  12
ENDBRANCH   9  10
ENDBRANCH   8   9
ENDBRANCH   7   8
ENDBRANCH   6   7
ENDBRANCH   5   6
ENDBRANCH   4   5
ENDBRANCH   3   4
BRANCH   3  17
HETATM   17  O3  UNL     1     -38.999   3.674 -34.791  1.00  0.00    -0.375 OA
ATOM     18  H3  UNL     1     -38.127   3.299 -34.777  1.00  0.00     0.212 HD
ENDBRANCH   3  17
ENDBRANCH   1   3
BRANCH   1  19
HETATM   19  C8  UNL     1     -37.495   3.815 -32.277  1.00  0.00     0.068 C 
BRANCH  19  20
HETATM   20  C9  UNL     1     -36.488   4.916 -32.312  1.00  0.00     0.066 C 
HETATM   21  C10 UNL     1     -36.733   5.835 -31.138  1.00  0.00     0.022 C 
BRANCH  20  22
HETATM   22  C11 UNL     1     -35.096   4.469 -32.331  1.00  0.00     0.002 C 
HETATM   23  N2  UNL     1     -34.765   3.583 -33.247  1.00  0.00    -0.341 N 
ATOM     24  H2  UNL     1     -35.503   3.269 -33.879  1.00  0.00     0.167 HD
BRANCH  22  25
HETATM   25  C12 UNL     1     -34.018   4.914 -31.462  1.00  0.00     0.091 C 
BRANCH  25  26
HETATM   26  C13 UNL     1     -33.503   6.262 -31.617  1.00  0.00    -0.053 A 
HETATM   27  C14 UNL     1     -33.307   6.820 -32.854  1.00  0.00     0.007 A 
HETATM   28  C15 UNL     1     -32.824   8.129 -32.989  1.00  0.00     0.001 A 
HETATM   29  C16 UNL     1     -32.536   8.876 -31.865  1.00  0.00     0.000 A 
HETATM   30  C17 UNL     1     -32.732   8.316 -30.607  1.00  0.00     0.001 A 
HETATM   31  C18 UNL     1     -33.210   7.028 -30.514  1.00  0.00     0.007 A 
ENDBRANCH  25  26
ENDBRANCH  22  25
BRANCH  23  32
HETATM   32  C19 UNL     1     -33.502   3.037 -33.429  1.00  0.00     0.352 C 
HETATM   33  O4  UNL     1     -33.202   2.546 -34.569  1.00  0.00    -0.283 OA
ENDBRANCH  23  32
ENDBRANCH  20  22
ENDBRANCH  19  20
ENDBRANCH   1  19
TORSDOF 16
ENDMDL
MODEL 2
REMARK VINA RESULT: -6.829551844      4.443      7.757
REMARK  16 active torsions:
REMARK  status: ('A' for Active; 'I' for Inactive)
REMARK    1  A    between atoms: C2_2  and  C3_3 
REMARK    2  A    between atoms: C2_2  and  N3_29 
REMARK    3  A    between atoms: C3_3  and  O1_4 
REMARK    4  A    between atoms: O1_4  and  C4_5 
REMARK    5  A    between atoms: C4_5  and  C5_6 
REMARK    6  A    between atoms: C5_6  and  O2_7 
REMARK    7  A    between atoms: O2_7  and  C6_8 
REMARK    8  A    between atoms: C6_8  and  C7_9 
REMARK    9  A    between atoms: C7_9  and  O3_10 
REMARK   10  A    between atoms: C7_9  and  N1_12 
REMARK   11  A    between atoms: N1_12  and  C8_14 
REMARK   12  A    between atoms: C8_14  and  C9_15 
REMARK   13  A    between atoms: C9_15  and  C11_17 
REMARK   14  A    between atoms: C11_17  and  C12_18 
REMARK   15  A    between atoms: C12_18  and  C13_19 
REMARK   16  A    between atoms: N2_25  and  C19_27 
ROOT
HETATM    1  N1  UNL     1     -40.543   5.109 -33.313  1.00  0.00    -0.374 N 
ATOM      2  H1  UNL     1     -40.405   5.933 -33.898  1.00  0.00     0.161 HD
ENDROOT
BRANCH   1   3
HETATM    3  C7  UNL     1     -39.572   4.092 -33.293  1.00  0.00     0.241 C 
BRANCH   3   4
HETATM    4  C6  UNL     1     -39.997   2.847 -32.538  1.00  0.00     0.221 C 
BRANCH   4   5
HETATM    5  O2  UNL     1     -40.303   1.780 -33.333  1.00  0.00    -0.385 OA
BRANCH   5   6
HETATM    6  C5  UNL     1     -41.606   1.373 -33.357  1.00  0.00     0.194 C 
BRANCH   6   7
HETATM    7  C4  UNL     1     -42.394   1.849 -34.553  1.00  0.00     0.193 C 
BRANCH   7   8
HETATM    8  O1  UNL     1     -43.243   0.882 -35.043  1.00  0.00    -0.387 OA
BRANCH   8   9
HETATM    9  C3  UNL     1     -43.797   0.060 -34.075  1.00  0.00     0.192 C 
BRANCH   9  10
HETATM   10  C2  UNL     1     -43.737  -1.413 -34.437  1.00  0.00     0.103 C 
HETATM   11  C1  UNL     1     -44.622  -1.572 -35.678  1.00  0.00     0.034 C 
BRANCH  10  12
HETATM   12  N3  UNL     1     -44.289  -2.230 -33.386  1.00  0.00    -0.361 N 
HETATM   13  C20 UNL     1     -43.568  -2.752 -32.462  1.00  0.00     0.197 C 
HETATM   14  N4  UNL     1     -44.240  -3.546 -31.471  1.00  0.00    -0.067 NA
HETATM   15  N5  UNL     1     -42.169  -2.551 -32.426  1.00  0.00    -0.067 NA
ATOM     16  H3  UNL     1     -45.296  -2.399 -33.376  1.00  0.00     0.162 HD
ENDBRANCH  10  12
ENDBRANCH   9  10
ENDBRANCH   8   9
ENDBRANCH   7   8
ENDBRANCH   6   7
ENDBRANCH   5   6
ENDBRANCH   4   5
ENDBRANCH   3   4
BRANCH   3  17
HETATM   17  O3  UNL     1     -39.148   3.698 -34.537  1.00  0.00    -0.375 OA
ATOM     18  H3  UNL     1     -39.460   4.341 -35.163  1.00  0.00     0.212 HD
ENDBRANCH   3  17
ENDBRANCH   1   3
BRANCH   1  19
HETATM   19  C8  UNL     1     -41.704   4.991 -32.529  1.00  0.00     0.068 C 
BRANCH  19  20
HETATM   20  C9  UNL     1     -42.606   6.173 -32.401  1.00  0.00     0.066 C 
HETATM   21  C10 UNL     1     -41.761   7.423 -32.330  1.00  0.00     0.022 C 
BRANCH  20  22
HETATM   22  C11 UNL     1     -43.609   6.292 -33.460  1.00  0.00     0.002 C 
HETATM   23  N2  UNL     1     -43.858   5.212 -34.171  1.00  0.00    -0.341 N 
ATOM     24  H2  UNL     1     -43.335   4.368 -33.935  1.00  0.00     0.167 HD
BRANCH  22  25
HETATM   25  C12 UNL     1     -44.389   7.471 -33.803  1.00  0.00     0.091 C 
BRANCH  25  26
HETATM   26  C13 UNL     1     -45.338   7.990 -32.837  1.00  0.00    -0.053 A 
HETATM   27  C14 UNL     1     -45.380   9.321 -32.513  1.00  0.00     0.007 A 
HETATM   28  C15 UNL     1     -46.312   9.813 -31.589  1.00  0.00     0.001 A 
HETATM   29  C16 UNL     1     -47.206   8.949 -30.988  1.00  0.00     0.000 A 
HETATM   30  C17 UNL     1     -47.169   7.597 -31.311  1.00  0.00     0.001 A 
HETATM   31  C18 UNL     1     -46.240   7.152 -32.225  1.00  0.00     0.007 A 
ENDBRANCH  25  26
ENDBRANCH  22  25
BRANCH  23  32
HETATM   32  C19 UNL     1     -44.771   5.120 -35.212  1.00  0.00     0.352 C 
HETATM   33  O4  UNL     1     -44.762   4.076 -35.948  1.00  0.00    -0.283 OA
ENDBRANCH  23  32
ENDBRANCH  20  22
ENDBRANCH  19  20
ENDBRANCH   1  19
TORSDOF 16
ENDMDL
MODEL 3
REMARK VINA RESULT: -6.802740744      5.344      9.889
REMARK  16 active torsions:
REMARK  status: ('A' for Active; 'I' for Inactive)
REMARK    1  A    between atoms: C2_2  and  C3_3 
REMARK    2  A    between atoms: C2_2  and  N3_29 
REMARK    3  A    between atoms: C3_3  and  O1_4 
REMARK    4  A    between atoms: O1_4  and  C4_5 
REMARK    5  A    between atoms: C4_5  and  C5_6 
REMARK    6  A    between atoms: C5_6  and  O2_7 
REMARK    7  A    between atoms: O2_7  and  C6_8 
REMARK    8  A    between atoms: C6_8  and  C7_9 
REMARK    9  A    between atoms: C7_9  and  O3_10 
REMARK   10  A    between atoms: C7_9  and  N1_12 
REMARK   11  A    between atoms: N1_12  and  C8_14 
REMARK   12  A    between atoms: C8_14  and  C9_15 
REMARK   13  A    between atoms: C9_15  and  C11_17 
REMARK   14  A    between atoms: C11_17  and  C12_18 
REMARK   15  A    between atoms: C12_18  and  C13_19 
REMARK   16  A    between atoms: N2_25  and  C19_27 
ROOT
HETATM    1  N1  UNL     1     -40.854   1.523 -32.084  1.00  0.00    -0.374 N 
ATOM      2  H1  UNL     1     -41.018   2.238 -31.376  1.00  0.00     0.161 HD
ENDROOT
BRANCH   1   3
HETATM    3  C7  UNL     1     -40.403   1.892 -33.365  1.00  0.00     0.241 C 
BRANCH   3   4
HETATM    4  C6  UNL     1     -41.250   2.958 -34.033  1.00  0.00     0.221 C 
BRANCH   4   5
HETATM    5  O2  UNL     1     -40.644   4.177 -34.141  1.00  0.00    -0.385 OA
BRANCH   5   6
HETATM    6  C5  UNL     1     -41.336   5.260 -33.682  1.00  0.00     0.194 C 
BRANCH   6   7
HETATM    7  C4  UNL     1     -41.994   5.065 -32.337  1.00  0.00     0.193 C 
BRANCH   7   8
HETATM    8  O1  UNL     1     -43.211   5.703 -32.248  1.00  0.00    -0.387 OA
BRANCH   8   9
HETATM    9  C3  UNL     1     -44.270   4.999 -32.794  1.00  0.00     0.192 C 
BRANCH   9  10
HETATM   10  C2  UNL     1     -45.244   5.879 -33.556  1.00  0.00     0.103 C 
HETATM   11  C1  UNL     1     -44.986   5.594 -35.040  1.00  0.00     0.034 C 
BRANCH  10  12
HETATM   12  N3  UNL     1     -44.980   7.275 -33.317  1.00  0.00    -0.361 N 
HETATM   13  C20 UNL     1     -45.703   7.993 -32.535  1.00  0.00     0.197 C 
HETATM   14  N4  UNL     1     -45.334   9.373 -32.381  1.00  0.00    -0.067 NA
HETATM   15  N5  UNL     1     -46.815   7.442 -31.858  1.00  0.00    -0.067 NA
ATOM     16  H3  UNL     1     -44.187   7.711 -33.787  1.00  0.00     0.162 HD
ENDBRANCH  10  12
ENDBRANCH   9  10
ENDBRANCH   8   9
ENDBRANCH   7   8
ENDBRANCH   6   7
ENDBRANCH   5   6
ENDBRANCH   4   5
ENDBRANCH   3   4
BRANCH   3  17
HETATM   17  O3  UNL     1     -39.099   2.318 -33.397  1.00  0.00    -0.375 OA
ATOM     18  H3  UNL     1     -38.753   2.119 -34.259  1.00  0.00     0.212 HD
ENDBRANCH   3  17
ENDBRANCH   1   3
BRANCH   1  19
HETATM   19  C8  UNL     1     -41.078   0.169 -31.779  1.00  0.00     0.068 C 
BRANCH  19  20
HETATM   20  C9  UNL     1     -41.028  -0.833 -32.884  1.00  0.00     0.066 C 
HETATM   21  C10 UNL     1     -39.899  -1.799 -32.613  1.00  0.00     0.022 C 
BRANCH  20  22
HETATM   22  C11 UNL     1     -42.280  -1.558 -33.107  1.00  0.00     0.002 C 
HETATM   23  N2  UNL     1     -42.971  -1.898 -32.039  1.00  0.00    -0.341 N 
ATOM     24  H2  UNL     1     -42.587  -1.635 -31.131  1.00  0.00     0.167 HD
BRANCH  22  25
HETATM   25  C12 UNL     1     -42.866  -1.925 -34.385  1.00  0.00     0.091 C 
BRANCH  25  26
HETATM   26  C13 UNL     1     -43.867  -1.054 -34.975  1.00  0.00    -0.053 A 
HETATM   27  C14 UNL     1     -44.926  -1.554 -35.686  1.00  0.00     0.007 A 
HETATM   28  C15 UNL     1     -45.894  -0.702 -36.237  1.00  0.00     0.001 A 
HETATM   29  C16 UNL     1     -45.786   0.663 -36.067  1.00  0.00     0.000 A 
HETATM   30  C17 UNL     1     -44.714   1.177 -35.346  1.00  0.00     0.001 A 
HETATM   31  C18 UNL     1     -43.784   0.309 -34.819  1.00  0.00     0.007 A 
ENDBRANCH  25  26
ENDBRANCH  22  25
BRANCH  23  32
HETATM   32  C19 UNL     1     -44.178  -2.585 -32.039  1.00  0.00     0.352 C 
HETATM   33  O4  UNL     1     -44.271  -3.666 -31.366  1.00  0.00    -0.283 OA
ENDBRANCH  23  32
ENDBRANCH  20  22
ENDBRANCH  19  20
ENDBRANCH   1  19
TORSDOF 16
ENDMDL
MODEL 4
REMARK VINA RESULT: -6.782380934      4.555      7.930
REMARK  16 active torsions:
REMARK  status: ('A' for Active; 'I' for Inactive)
REMARK    1  A    between atoms: C2_2  and  C3_3 
REMARK    2  A    between atoms: C2_2  and  N3_29 
REMARK    3  A    between atoms: C3_3  and  O1_4 
REMARK    4  A    between atoms: O1_4  and  C4_5 
REMARK    5  A    between atoms: C4_5  and  C5_6 
REMARK    6  A    between atoms: C5_6  and  O2_7 
REMARK    7  A    between atoms: O2_7  and  C6_8 
REMARK    8  A    between atoms: C6_8  and  C7_9 
REMARK    9  A    between atoms: C7_9  and  O3_10 
REMARK   10  A    between atoms: C7_9  and  N1_12 
REMARK   11  A    between atoms: N1_12  and  C8_14 
REMARK   12  A    between atoms: C8_14  and  C9_15 
REMARK   13  A    between atoms: C9_15  and  C11_17 
REMARK   14  A    between atoms: C11_17  and  C12_18 
REMARK   15  A    between atoms: C12_18  and  C13_19 
REMARK   16  A    between atoms: N2_25  and  C19_27 
ROOT
HETATM    1  N1  UNL     1     -40.322   4.105 -32.788  1.00  0.00    -0.374 N 
ATOM      2  H1  UNL     1     -40.760   3.766 -31.932  1.00  0.00     0.161 HD
ENDROOT
BRANCH   1   3
HETATM    3  C7  UNL     1     -39.131   3.516 -33.248  1.00  0.00     0.241 C 
BRANCH   3   4
HETATM    4  C6  UNL     1     -38.656   2.346 -32.407  1.00  0.00     0.221 C 
BRANCH   4   5
HETATM    5  O2  UNL     1     -38.992   1.119 -32.904  1.00  0.00    -0.385 OA
BRANCH   5   6
HETATM    6  C5  UNL     1     -39.442   0.187 -32.013  1.00  0.00     0.194 C 
BRANCH   6   7
HETATM    7  C4  UNL     1     -39.506  -1.221 -32.554  1.00  0.00     0.193 C 
BRANCH   7   8
HETATM    8  O1  UNL     1     -40.752  -1.539 -33.047  1.00  0.00    -0.387 OA
BRANCH   8   9
HETATM    9  C3  UNL     1     -41.792  -1.329 -32.158  1.00  0.00     0.192 C 
BRANCH   9  10
HETATM   10  C2  UNL     1     -43.001  -0.671 -32.798  1.00  0.00     0.103 C 
HETATM   11  C1  UNL     1     -43.831  -1.815 -33.392  1.00  0.00     0.034 C 
BRANCH  10  12
HETATM   12  N3  UNL     1     -42.609   0.202 -33.876  1.00  0.00    -0.361 N 
HETATM   13  C20 UNL     1     -42.468   1.469 -33.725  1.00  0.00     0.197 C 
HETATM   14  N4  UNL     1     -42.072   2.229 -34.878  1.00  0.00    -0.067 NA
HETATM   15  N5  UNL     1     -42.696   2.085 -32.474  1.00  0.00    -0.067 NA
ATOM     16  H3  UNL     1     -42.435  -0.204 -34.796  1.00  0.00     0.162 HD
ENDBRANCH  10  12
ENDBRANCH   9  10
ENDBRANCH   8   9
ENDBRANCH   7   8
ENDBRANCH   6   7
ENDBRANCH   5   6
ENDBRANCH   4   5
ENDBRANCH   3   4
BRANCH   3  17
HETATM   17  O3  UNL     1     -39.183   3.094 -34.554  1.00  0.00    -0.375 OA
ATOM     18  H3  UNL     1     -39.912   3.538 -34.969  1.00  0.00     0.212 HD
ENDBRANCH   3  17
ENDBRANCH   1   3
BRANCH   1  19
HETATM   19  C8  UNL     1     -40.911   5.159 -33.508  1.00  0.00     0.068 C 
BRANCH  19  20
HETATM   20  C9  UNL     1     -42.026   5.924 -32.875  1.00  0.00     0.066 C 
HETATM   21  C10 UNL     1     -41.776   7.401 -33.074  1.00  0.00     0.022 C 
BRANCH  20  22
HETATM   22  C11 UNL     1     -43.361   5.562 -33.349  1.00  0.00     0.002 C 
HETATM   23  N2  UNL     1     -43.481   5.264 -34.627  1.00  0.00    -0.341 N 
ATOM     24  H2  UNL     1     -42.636   5.308 -35.196  1.00  0.00     0.167 HD
BRANCH  22  25
HETATM   25  C12 UNL     1     -44.578   5.465 -32.559  1.00  0.00     0.091 C 
BRANCH  25  26
HETATM   26  C13 UNL     1     -45.136   6.673 -31.980  1.00  0.00    -0.053 A 
HETATM   27  C14 UNL     1     -45.388   6.777 -30.637  1.00  0.00     0.007 A 
HETATM   28  C15 UNL     1     -45.913   7.955 -30.088  1.00  0.00     0.001 A 
HETATM   29  C16 UNL     1     -46.185   9.034 -30.906  1.00  0.00     0.000 A 
HETATM   30  C17 UNL     1     -45.932   8.936 -32.270  1.00  0.00     0.001 A 
HETATM   31  C18 UNL     1     -45.415   7.762 -32.771  1.00  0.00     0.007 A 
ENDBRANCH  25  26
ENDBRANCH  22  25
BRANCH  23  32
HETATM   32  C19 UNL     1     -44.656   4.896 -35.266  1.00  0.00     0.352 C 
HETATM   33  O4  UNL     1     -44.649   3.871 -36.027  1.00  0.00    -0.283 OA
ENDBRANCH  23  32
ENDBRANCH  20  22
ENDBRANCH  19  20
ENDBRANCH   1  19
TORSDOF 16
ENDMDL
MODEL 5
REMARK VINA RESULT: -6.757944467      1.809      2.454
REMARK  16 active torsions:
REMARK  status: ('A' for Active; 'I' for Inactive)
REMARK    1  A    between atoms: C2_2  and  C3_3 
REMARK    2  A    between atoms: C2_2  and  N3_29 
REMARK    3  A    between atoms: C3_3  and  O1_4 
REMARK    4  A    between atoms: O1_4  and  C4_5 
REMARK    5  A    between atoms: C4_5  and  C5_6 
REMARK    6  A    between atoms: C5_6  and  O2_7 
REMARK    7  A    between atoms: O2_7  and  C6_8 
REMARK    8  A    between atoms: C6_8  and  C7_9 
REMARK    9  A    between atoms: C7_9  and  O3_10 
REMARK   10  A    between atoms: C7_9  and  N1_12 
REMARK   11  A    between atoms: N1_12  and  C8_14 
REMARK   12  A    between atoms: C8_14  and  C9_15 
REMARK   13  A    between atoms: C9_15  and  C11_17 
REMARK   14  A    between atoms: C11_17  and  C12_18 
REMARK   15  A    between atoms: C12_18  and  C13_19 
REMARK   16  A    between atoms: N2_25  and  C19_27 
ROOT
HETATM    1  N1  UNL     1     -38.443   3.637 -33.672  1.00  0.00    -0.374 N 
ATOM      2  H1  UNL     1     -38.049   3.628 -34.612  1.00  0.00     0.161 HD
ENDROOT
BRANCH   1   3
HETATM    3  C7  UNL     1     -39.838   3.595 -33.496  1.00  0.00     0.241 C 
BRANCH   3   4
HETATM    4  C6  UNL     1     -40.464   4.945 -33.201  1.00  0.00     0.221 C 
BRANCH   4   5
HETATM    5  O2  UNL     1     -41.145   5.493 -34.250  1.00  0.00    -0.385 OA
BRANCH   5   6
HETATM    6  C5  UNL     1     -42.353   6.067 -33.977  1.00  0.00     0.194 C 
BRANCH   6   7
HETATM    7  C4  UNL     1     -43.526   5.437 -34.689  1.00  0.00     0.193 C 
BRANCH   7   8
HETATM    8  O1  UNL     1     -43.326   4.099 -34.950  1.00  0.00    -0.387 OA
BRANCH   8   9
HETATM    9  C3  UNL     1     -44.486   3.375 -35.164  1.00  0.00     0.192 C 
BRANCH   9  10
HETATM   10  C2  UNL     1     -44.593   2.144 -34.283  1.00  0.00     0.103 C 
HETATM   11  C1  UNL     1     -45.500   2.547 -33.114  1.00  0.00     0.034 C 
BRANCH  10  12
HETATM   12  N3  UNL     1     -43.308   1.776 -33.745  1.00  0.00    -0.361 N 
HETATM   13  C20 UNL     1     -42.843   0.582 -33.815  1.00  0.00     0.197 C 
HETATM   14  N4  UNL     1     -41.548   0.344 -33.240  1.00  0.00    -0.067 NA
HETATM   15  N5  UNL     1     -43.580  -0.453 -34.435  1.00  0.00    -0.067 NA
ATOM     16  H3  UNL     1     -42.745   2.494 -33.288  1.00  0.00     0.162 HD
ENDBRANCH  10  12
ENDBRANCH   9  10
ENDBRANCH   8   9
ENDBRANCH   7   8
ENDBRANCH   6   7
ENDBRANCH   5   6
ENDBRANCH   4   5
ENDBRANCH   3   4
BRANCH   3  17
HETATM   17  O3  UNL     1     -40.519   3.044 -34.552  1.00  0.00    -0.375 OA
ATOM     18  H3  UNL     1     -39.904   2.942 -35.268  1.00  0.00     0.212 HD
ENDBRANCH   3  17
ENDBRANCH   1   3
BRANCH   1  19
HETATM   19  C8  UNL     1     -37.592   3.692 -32.554  1.00  0.00     0.068 C 
BRANCH  19  20
HETATM   20  C9  UNL     1     -36.622   4.821 -32.447  1.00  0.00     0.066 C 
HETATM   21  C10 UNL     1     -36.927   5.605 -31.193  1.00  0.00     0.022 C 
BRANCH  20  22
HETATM   22  C11 UNL     1     -35.215   4.420 -32.471  1.00  0.00     0.002 C 
HETATM   23  N2  UNL     1     -34.848   3.584 -33.420  1.00  0.00    -0.341 N 
ATOM     24  H2  UNL     1     -35.569   3.274 -34.071  1.00  0.00     0.167 HD
BRANCH  22  25
HETATM   25  C12 UNL     1     -34.160   4.864 -31.574  1.00  0.00     0.091 C 
BRANCH  25  26
HETATM   26  C13 UNL     1     -33.667   6.224 -31.688  1.00  0.00    -0.053 A 
HETATM   27  C14 UNL     1     -33.371   6.782 -32.905  1.00  0.00     0.007 A 
HETATM   28  C15 UNL     1     -32.910   8.102 -33.002  1.00  0.00     0.001 A 
HETATM   29  C16 UNL     1     -32.747   8.860 -31.860  1.00  0.00     0.000 A 
HETATM   30  C17 UNL     1     -33.045   8.301 -30.623  1.00  0.00     0.001 A 
HETATM   31  C18 UNL     1     -33.497   7.001 -30.567  1.00  0.00     0.007 A 
ENDBRANCH  25  26
ENDBRANCH  22  25
BRANCH  23  32
HETATM   32  C19 UNL     1     -33.566   3.088 -33.612  1.00  0.00     0.352 C 
HETATM   33  O4  UNL     1     -33.426   1.903 -34.064  1.00  0.00    -0.283 OA
ENDBRANCH  23  32
ENDBRANCH  20  22
ENDBRANCH  19  20
ENDBRANCH   1  19
TORSDOF 16
ENDMDL
