MODEL 1
REMARK VINA RESULT: -6.651927566      0.000      0.000
REMARK  10 active torsions:
REMARK  status: ('A' for Active; 'I' for Inactive)
REMARK       I    between atoms: C1_2  and  N1_3 
REMARK    1  A    between atoms: C1_2  and  C8_13 
REMARK    2  A    between atoms: N1_3  and  C2_5 
REMARK    3  A    between atoms: C2_5  and  C3_6 
REMARK    4  A    between atoms: C12_17  and  N3_18 
REMARK    5  A    between atoms: N3_18  and  C13_20 
REMARK    6  A    between atoms: C14_23  and  N5_24 
REMARK    7  A    between atoms: N5_24  and  C15_26 
REMARK    8  A    between atoms: C15_26  and  C16_27 
REMARK    9  A    between atoms: C22_35  and  N7_36 
REMARK   10  A    between atoms: N7_36  and  C23_38 
ROOT
HETATM    1  C13 UNL     1      -2.228  10.685  -4.075  1.00  0.00     0.711 A 
HETATM    2  N4  UNL     1      -1.409  11.526  -3.443  1.00  0.00    -0.021 N 
ATOM      3  H4  UNL     1      -0.755  11.183  -2.739  1.00  0.00     0.203 HD
HETATM    4  C14 UNL     1      -1.462  12.843  -3.752  1.00  0.00     0.707 A 
HETATM    5  N6  UNL     1      -2.318  13.291  -4.674  1.00  0.00    -0.021 N 
ATOM      6  H6  UNL     1      -2.333  14.289  -4.885  1.00  0.00     0.203 HD
HETATM    7  C22 UNL     1      -3.166  12.473  -5.340  1.00  0.00     0.711 A 
HETATM    8  N8  UNL     1      -3.102  11.184  -5.023  1.00  0.00    -0.021 N 
ATOM      9  H8  UNL     1      -3.724  10.533  -5.501  1.00  0.00     0.203 HD
ENDROOT
BRANCH   1  10
HETATM   10  N3  UNL     1      -2.235   9.449  -3.851  1.00  0.00    -0.191 N 
ATOM     11  H3  UNL     1      -1.513   8.962  -4.381  1.00  0.00     0.184 HD
BRANCH  10  12
HETATM   12  C12 UNL     1      -2.968   8.587  -3.073  1.00  0.00     0.050 A 
HETATM   13  C11 UNL     1      -3.372   7.341  -3.548  1.00  0.00     0.030 A 
HETATM   14  C10 UNL     1      -4.131   6.507  -2.762  1.00  0.00     0.003 A 
HETATM   15  C9  UNL     1      -4.506   6.885  -1.493  1.00  0.00     0.017 A 
HETATM   16  C8  UNL     1      -4.127   8.106  -0.988  1.00  0.00     0.034 A 
HETATM   17  C29 UNL     1      -3.373   8.931  -1.771  1.00  0.00     0.047 A 
BRANCH  16  18
HETATM   18  C1  UNL     1      -4.512   8.568   0.359  1.00  0.00     0.252 C 
HETATM   19  O1  UNL     1      -5.067   7.764   1.154  1.00  0.00    -0.268 OA
HETATM   20  N1  UNL     1      -4.269   9.905   0.784  1.00  0.00    -0.351 N 
ATOM     21  H1  UNL     1      -3.818  10.580   0.166  1.00  0.00     0.163 HD
BRANCH  20  22
HETATM   22  C2  UNL     1      -4.685  10.280   2.132  1.00  0.00     0.179 C 
BRANCH  22  23
HETATM   23  C3  UNL     1      -3.605  10.771   2.979  1.00  0.00     0.026 A 
HETATM   24  C4  UNL     1      -2.292  10.645   2.602  1.00  0.00     0.027 A 
HETATM   25  C5  UNL     1      -1.262  11.121   3.424  1.00  0.00     0.003 A 
HETATM   26  C6  UNL     1      -1.580  11.721   4.620  1.00  0.00     0.017 A 
HETATM   27  C7  UNL     1      -2.907  11.837   4.977  1.00  0.00     0.088 A 
HETATM   28  N2  UNL     1      -3.875  11.369   4.165  1.00  0.00    -0.368 N 
ATOM     29  H2  UNL     1      -4.848  11.467   4.454  1.00  0.00     0.165 HD
ENDBRANCH  22  23
ENDBRANCH  20  22
ENDBRANCH  16  18
ENDBRANCH  10  12
ENDBRANCH   1  10
BRANCH   4  30
HETATM   30  N5  UNL     1      -0.667  13.611  -3.127  1.00  0.00    -0.221 N 
ATOM     31  H5  UNL     1       0.316  13.337  -3.157  1.00  0.00     0.178 HD
BRANCH  30  32
HETATM   32  C15 UNL     1      -0.945  14.796  -2.391  1.00  0.00     0.176 C 
BRANCH  32  33
HETATM   33  C16 UNL     1      -0.279  14.694  -1.044  1.00  0.00    -0.040 A 
HETATM   34  C17 UNL     1      -0.369  13.510  -0.325  1.00  0.00     0.009 A 
HETATM   35  C18 UNL     1       0.248  13.405   0.911  1.00  0.00     0.001 A 
HETATM   36  C19 UNL     1       0.960  14.452   1.462  1.00  0.00     0.000 A 
HETATM   37  C20 UNL     1       1.041  15.615   0.741  1.00  0.00     0.001 A 
HETATM   38  C21 UNL     1       0.429  15.731  -0.494  1.00  0.00     0.009 A 
ENDBRANCH  32  33
ENDBRANCH  30  32
ENDBRANCH   4  30
BRANCH   7  39
HETATM   39  N7  UNL     1      -3.937  12.971  -6.189  1.00  0.00    -0.191 N 
ATOM     40  H7  UNL     1      -4.887  13.118  -5.847  1.00  0.00     0.184 HD
BRANCH  39  41
HETATM   41  C23 UNL     1      -3.752  13.363  -7.508  1.00  0.00     0.049 A 
HETATM   42  C24 UNL     1      -4.707  14.129  -8.147  1.00  0.00     0.030 A 
HETATM   43  C25 UNL     1      -4.583  14.547  -9.461  1.00  0.00     0.002 A 
HETATM   44  C26 UNL     1      -3.453  14.183 -10.164  1.00  0.00     0.000 A 
HETATM   45  C27 UNL     1      -2.465  13.416  -9.567  1.00  0.00     0.002 A 
HETATM   46  C28 UNL     1      -2.631  13.021  -8.255  1.00  0.00     0.030 A 
ENDBRANCH  39  41
ENDBRANCH   7  39
TORSDOF 10
ENDMDL
MODEL 2
REMARK VINA RESULT: -6.606386799      2.584      4.907
REMARK  10 active torsions:
REMARK  status: ('A' for Active; 'I' for Inactive)
REMARK       I    between atoms: C1_2  and  N1_3 
REMARK    1  A    between atoms: C1_2  and  C8_13 
REMARK    2  A    between atoms: N1_3  and  C2_5 
REMARK    3  A    between atoms: C2_5  and  C3_6 
REMARK    4  A    between atoms: C12_17  and  N3_18 
REMARK    5  A    between atoms: N3_18  and  C13_20 
REMARK    6  A    between atoms: C14_23  and  N5_24 
REMARK    7  A    between atoms: N5_24  and  C15_26 
REMARK    8  A    between atoms: C15_26  and  C16_27 
REMARK    9  A    between atoms: C22_35  and  N7_36 
REMARK   10  A    between atoms: N7_36  and  C23_38 
ROOT
HETATM    1  C13 UNL     1      -1.947  14.317  -4.118  1.00  0.00     0.711 A 
HETATM    2  N4  UNL     1      -1.944  15.634  -3.906  1.00  0.00    -0.021 N 
ATOM      3  H4  UNL     1      -1.354  16.042  -3.182  1.00  0.00     0.203 HD
HETATM    4  C14 UNL     1      -2.740  16.418  -4.671  1.00  0.00     0.707 A 
HETATM    5  N6  UNL     1      -3.512  15.883  -5.620  1.00  0.00    -0.021 N 
ATOM      6  H6  UNL     1      -4.100  16.501  -6.181  1.00  0.00     0.203 HD
HETATM    7  C22 UNL     1      -3.546  14.553  -5.868  1.00  0.00     0.711 A 
HETATM    8  N8  UNL     1      -2.759  13.798  -5.108  1.00  0.00    -0.021 N 
ATOM      9  H8  UNL     1      -2.755  12.790  -5.262  1.00  0.00     0.203 HD
ENDROOT
BRANCH   1  10
HETATM   10  N3  UNL     1      -1.232  13.523  -3.456  1.00  0.00    -0.191 N 
ATOM     11  H3  UNL     1      -0.699  12.898  -4.060  1.00  0.00     0.184 HD
BRANCH  10  12
HETATM   12  C12 UNL     1      -0.986  13.285  -2.127  1.00  0.00     0.050 A 
HETATM   13  C11 UNL     1      -0.157  14.119  -1.379  1.00  0.00     0.030 A 
HETATM   14  C10 UNL     1       0.099  13.844  -0.056  1.00  0.00     0.003 A 
HETATM   15  C9  UNL     1      -0.455  12.742   0.554  1.00  0.00     0.017 A 
HETATM   16  C8  UNL     1      -1.278  11.895  -0.151  1.00  0.00     0.034 A 
HETATM   17  C29 UNL     1      -1.531  12.172  -1.463  1.00  0.00     0.047 A 
BRANCH  16  18
HETATM   18  C1  UNL     1      -1.887  10.692   0.447  1.00  0.00     0.252 C 
HETATM   19  O1  UNL     1      -1.145   9.758   0.851  1.00  0.00    -0.268 OA
HETATM   20  N1  UNL     1      -3.299  10.563   0.584  1.00  0.00    -0.351 N 
ATOM     21  H1  UNL     1      -3.927  11.304   0.271  1.00  0.00     0.163 HD
BRANCH  20  22
HETATM   22  C2  UNL     1      -3.818   9.338   1.183  1.00  0.00     0.179 C 
BRANCH  22  23
HETATM   23  C3  UNL     1      -4.194   8.311   0.220  1.00  0.00     0.026 A 
HETATM   24  C4  UNL     1      -4.145   6.979   0.545  1.00  0.00     0.027 A 
HETATM   25  C5  UNL     1      -4.508   6.000  -0.389  1.00  0.00     0.003 A 
HETATM   26  C6  UNL     1      -4.919   6.387  -1.644  1.00  0.00     0.017 A 
HETATM   27  C7  UNL     1      -4.961   7.732  -1.947  1.00  0.00     0.088 A 
HETATM   28  N2  UNL     1      -4.604   8.650  -1.026  1.00  0.00    -0.368 N 
ATOM     29  H2  UNL     1      -4.644   9.637  -1.278  1.00  0.00     0.165 HD
ENDBRANCH  22  23
ENDBRANCH  20  22
ENDBRANCH  16  18
ENDBRANCH  10  12
ENDBRANCH   1  10
BRANCH   4  30
HETATM   30  N5  UNL     1      -2.709  17.666  -4.438  1.00  0.00    -0.221 N 
ATOM     31  H5  UNL     1      -3.620  18.123  -4.391  1.00  0.00     0.178 HD
BRANCH  30  32
HETATM   32  C15 UNL     1      -1.591  18.520  -4.232  1.00  0.00     0.176 C 
BRANCH  32  33
HETATM   33  C16 UNL     1      -1.637  19.041  -2.820  1.00  0.00    -0.040 A 
HETATM   34  C17 UNL     1      -0.686  18.616  -1.902  1.00  0.00     0.009 A 
HETATM   35  C18 UNL     1      -0.717  19.098  -0.604  1.00  0.00     0.001 A 
HETATM   36  C19 UNL     1      -1.673  20.000  -0.183  1.00  0.00     0.000 A 
HETATM   37  C20 UNL     1      -2.606  20.412  -1.099  1.00  0.00     0.001 A 
HETATM   38  C21 UNL     1      -2.585  19.938  -2.399  1.00  0.00     0.009 A 
ENDBRANCH  32  33
ENDBRANCH  30  32
ENDBRANCH   4  30
BRANCH   7  39
HETATM   39  N7  UNL     1      -4.296  14.131  -6.776  1.00  0.00    -0.191 N 
ATOM     40  H7  UNL     1      -5.191  13.777  -6.437  1.00  0.00     0.184 HD
BRANCH  39  41
HETATM   41  C23 UNL     1      -4.147  14.049  -8.154  1.00  0.00     0.049 A 
HETATM   42  C24 UNL     1      -2.994  13.518  -8.698  1.00  0.00     0.030 A 
HETATM   43  C25 UNL     1      -2.785  13.414 -10.063  1.00  0.00     0.002 A 
HETATM   44  C26 UNL     1      -3.773  13.859 -10.917  1.00  0.00     0.000 A 
HETATM   45  C27 UNL     1      -4.948  14.399 -10.419  1.00  0.00     0.002 A 
HETATM   46  C28 UNL     1      -5.114  14.484  -9.052  1.00  0.00     0.030 A 
ENDBRANCH  39  41
ENDBRANCH   7  39
TORSDOF 10
ENDMDL
MODEL 3
REMARK VINA RESULT: -6.581564636      0.344      1.139
REMARK  10 active torsions:
REMARK  status: ('A' for Active; 'I' for Inactive)
REMARK       I    between atoms: C1_2  and  N1_3 
REMARK    1  A    between atoms: C1_2  and  C8_13 
REMARK    2  A    between atoms: N1_3  and  C2_5 
REMARK    3  A    between atoms: C2_5  and  C3_6 
REMARK    4  A    between atoms: C12_17  and  N3_18 
REMARK    5  A    between atoms: N3_18  and  C13_20 
REMARK    6  A    between atoms: C14_23  and  N5_24 
REMARK    7  A    between atoms: N5_24  and  C15_26 
REMARK    8  A    between atoms: C15_26  and  C16_27 
REMARK    9  A    between atoms: C22_35  and  N7_36 
REMARK   10  A    between atoms: N7_36  and  C23_38 
ROOT
HETATM    1  C13 UNL     1      -2.240  10.694  -3.802  1.00  0.00     0.711 A 
HETATM    2  N4  UNL     1      -1.387  11.520  -3.196  1.00  0.00    -0.021 N 
ATOM      3  H4  UNL     1      -0.744  11.173  -2.485  1.00  0.00     0.203 HD
HETATM    4  C14 UNL     1      -1.391  12.829  -3.542  1.00  0.00     0.707 A 
HETATM    5  N6  UNL     1      -2.233  13.283  -4.474  1.00  0.00    -0.021 N 
ATOM      6  H6  UNL     1      -2.211  14.275  -4.713  1.00  0.00     0.203 HD
HETATM    7  C22 UNL     1      -3.114  12.480  -5.114  1.00  0.00     0.711 A 
HETATM    8  N8  UNL     1      -3.097  11.198  -4.761  1.00  0.00    -0.021 N 
ATOM      9  H8  UNL     1      -3.746  10.558  -5.219  1.00  0.00     0.203 HD
ENDROOT
BRANCH   1  10
HETATM   10  N3  UNL     1      -2.293   9.465  -3.543  1.00  0.00    -0.191 N 
ATOM     11  H3  UNL     1      -1.589   8.937  -4.058  1.00  0.00     0.184 HD
BRANCH  10  12
HETATM   12  C12 UNL     1      -3.057   8.654  -2.742  1.00  0.00     0.050 A 
HETATM   13  C11 UNL     1      -3.514   7.414  -3.186  1.00  0.00     0.030 A 
HETATM   14  C10 UNL     1      -4.303   6.631  -2.377  1.00  0.00     0.003 A 
HETATM   15  C9  UNL     1      -4.658   7.055  -1.116  1.00  0.00     0.017 A 
HETATM   16  C8  UNL     1      -4.227   8.271  -0.643  1.00  0.00     0.034 A 
HETATM   17  C29 UNL     1      -3.443   9.045  -1.448  1.00  0.00     0.047 A 
BRANCH  16  18
HETATM   18  C1  UNL     1      -4.588   8.782   0.693  1.00  0.00     0.252 C 
HETATM   19  O1  UNL     1      -5.211   8.035   1.494  1.00  0.00    -0.268 OA
HETATM   20  N1  UNL     1      -4.245  10.102   1.102  1.00  0.00    -0.351 N 
ATOM     21  H1  UNL     1      -3.737  10.730   0.480  1.00  0.00     0.163 HD
BRANCH  20  22
HETATM   22  C2  UNL     1      -4.644  10.528   2.440  1.00  0.00     0.179 C 
BRANCH  22  23
HETATM   23  C3  UNL     1      -3.542  10.982   3.279  1.00  0.00     0.026 A 
HETATM   24  C4  UNL     1      -2.238  10.723   2.941  1.00  0.00     0.027 A 
HETATM   25  C5  UNL     1      -1.186  11.165   3.755  1.00  0.00     0.003 A 
HETATM   26  C6  UNL     1      -1.473  11.865   4.904  1.00  0.00     0.017 A 
HETATM   27  C7  UNL     1      -2.792  12.113   5.222  1.00  0.00     0.088 A 
HETATM   28  N2  UNL     1      -3.781  11.675   4.419  1.00  0.00    -0.368 N 
ATOM     29  H2  UNL     1      -4.747  11.872   4.679  1.00  0.00     0.165 HD
ENDBRANCH  22  23
ENDBRANCH  20  22
ENDBRANCH  16  18
ENDBRANCH  10  12
ENDBRANCH   1  10
BRANCH   4  30
HETATM   30  N5  UNL     1      -0.565  13.583  -2.941  1.00  0.00    -0.221 N 
ATOM     31  H5  UNL     1       0.417  13.329  -3.053  1.00  0.00     0.178 HD
BRANCH  30  32
HETATM   32  C15 UNL     1      -0.807  14.730  -2.135  1.00  0.00     0.176 C 
BRANCH  32  33
HETATM   33  C16 UNL     1      -0.181  14.508  -0.783  1.00  0.00    -0.040 A 
HETATM   34  C17 UNL     1       0.519  15.541  -0.176  1.00  0.00     0.009 A 
HETATM   35  C18 UNL     1       1.090  15.347   1.072  1.00  0.00     0.001 A 
HETATM   36  C19 UNL     1       0.986  14.145   1.743  1.00  0.00     0.000 A 
HETATM   37  C20 UNL     1       0.291  13.134   1.132  1.00  0.00     0.001 A 
HETATM   38  C21 UNL     1      -0.283  13.315  -0.113  1.00  0.00     0.009 A 
ENDBRANCH  32  33
ENDBRANCH  30  32
ENDBRANCH   4  30
BRANCH   7  39
HETATM   39  N7  UNL     1      -3.869  12.983  -5.975  1.00  0.00    -0.191 N 
ATOM     40  H7  UNL     1      -4.797  13.217  -5.621  1.00  0.00     0.184 HD
BRANCH  39  41
HETATM   41  C23 UNL     1      -3.689  13.284  -7.318  1.00  0.00     0.049 A 
HETATM   42  C24 UNL     1      -2.561  12.848  -7.984  1.00  0.00     0.030 A 
HETATM   43  C25 UNL     1      -2.323  13.119  -9.321  1.00  0.00     0.002 A 
HETATM   44  C26 UNL     1      -3.256  13.859 -10.019  1.00  0.00     0.000 A 
HETATM   45  C27 UNL     1      -4.404  14.319  -9.395  1.00  0.00     0.002 A 
HETATM   46  C28 UNL     1      -4.601  14.026  -8.061  1.00  0.00     0.030 A 
ENDBRANCH  39  41
ENDBRANCH   7  39
TORSDOF 10
ENDMDL
MODEL 4
REMARK VINA RESULT: -6.560615139      0.941      5.748
REMARK  10 active torsions:
REMARK  status: ('A' for Active; 'I' for Inactive)
REMARK       I    between atoms: C1_2  and  N1_3 
REMARK    1  A    between atoms: C1_2  and  C8_13 
REMARK    2  A    between atoms: N1_3  and  C2_5 
REMARK    3  A    between atoms: C2_5  and  C3_6 
REMARK    4  A    between atoms: C12_17  and  N3_18 
REMARK    5  A    between atoms: N3_18  and  C13_20 
REMARK    6  A    between atoms: C14_23  and  N5_24 
REMARK    7  A    between atoms: N5_24  and  C15_26 
REMARK    8  A    between atoms: C15_26  and  C16_27 
REMARK    9  A    between atoms: C22_35  and  N7_36 
REMARK   10  A    between atoms: N7_36  and  C23_38 
ROOT
HETATM    1  C13 UNL     1      -2.493  10.647  -3.758  1.00  0.00     0.711 A 
HETATM    2  N4  UNL     1      -2.977  10.947  -4.963  1.00  0.00    -0.021 N 
ATOM      3  H4  UNL     1      -3.320  10.213  -5.583  1.00  0.00     0.203 HD
HETATM    4  C14 UNL     1      -3.004  12.244  -5.350  1.00  0.00     0.707 A 
HETATM    5  N6  UNL     1      -2.556  13.205  -4.538  1.00  0.00    -0.021 N 
ATOM      6  H6  UNL     1      -2.591  14.173  -4.858  1.00  0.00     0.203 HD
HETATM    7  C22 UNL     1      -2.058  12.945  -3.307  1.00  0.00     0.711 A 
HETATM    8  N8  UNL     1      -2.038  11.667  -2.944  1.00  0.00    -0.021 N 
ATOM      9  H8  UNL     1      -1.670  11.427  -2.024  1.00  0.00     0.203 HD
ENDROOT
BRANCH   1  10
HETATM   10  N3  UNL     1      -2.441   9.469  -3.322  1.00  0.00    -0.191 N 
ATOM     11  H3  UNL     1      -1.623   8.970  -3.672  1.00  0.00     0.184 HD
BRANCH  10  12
HETATM   12  C12 UNL     1      -3.206   8.684  -2.496  1.00  0.00     0.050 A 
HETATM   13  C11 UNL     1      -3.727   7.465  -2.925  1.00  0.00     0.030 A 
HETATM   14  C10 UNL     1      -4.514   6.709  -2.090  1.00  0.00     0.003 A 
HETATM   15  C9  UNL     1      -4.805   7.140  -0.815  1.00  0.00     0.017 A 
HETATM   16  C8  UNL     1      -4.310   8.337  -0.355  1.00  0.00     0.034 A 
HETATM   17  C29 UNL     1      -3.527   9.084  -1.187  1.00  0.00     0.047 A 
BRANCH  16  18
HETATM   18  C1  UNL     1      -4.599   8.855   0.996  1.00  0.00     0.252 C 
HETATM   19  O1  UNL     1      -5.184   8.114   1.830  1.00  0.00    -0.268 OA
HETATM   20  N1  UNL     1      -4.231  10.175   1.381  1.00  0.00    -0.351 N 
ATOM     21  H1  UNL     1      -3.753  10.799   0.730  1.00  0.00     0.163 HD
BRANCH  20  22
HETATM   22  C2  UNL     1      -4.559  10.609   2.735  1.00  0.00     0.179 C 
BRANCH  22  23
HETATM   23  C3  UNL     1      -3.422  11.111   3.497  1.00  0.00     0.026 A 
HETATM   24  C4  UNL     1      -2.135  10.920   3.062  1.00  0.00     0.027 A 
HETATM   25  C5  UNL     1      -1.049  11.407   3.802  1.00  0.00     0.003 A 
HETATM   26  C6  UNL     1      -1.285  12.083   4.977  1.00  0.00     0.017 A 
HETATM   27  C7  UNL     1      -2.588  12.262   5.393  1.00  0.00     0.088 A 
HETATM   28  N2  UNL     1      -3.610  11.781   4.659  1.00  0.00    -0.368 N 
ATOM     29  H2  UNL     1      -4.564  11.928   4.991  1.00  0.00     0.165 HD
ENDBRANCH  22  23
ENDBRANCH  20  22
ENDBRANCH  16  18
ENDBRANCH  10  12
ENDBRANCH   1  10
BRANCH   4  30
HETATM   30  N5  UNL     1      -3.471  12.488  -6.505  1.00  0.00    -0.221 N 
ATOM     31  H5  UNL     1      -2.952  12.075  -7.281  1.00  0.00     0.178 HD
BRANCH  30  32
HETATM   32  C15 UNL     1      -4.612  13.252  -6.877  1.00  0.00     0.176 C 
BRANCH  32  33
HETATM   33  C16 UNL     1      -4.171  14.355  -7.803  1.00  0.00    -0.040 A 
HETATM   34  C17 UNL     1      -4.524  14.305  -9.145  1.00  0.00     0.009 A 
HETATM   35  C18 UNL     1      -4.130  15.321 -10.000  1.00  0.00     0.001 A 
HETATM   36  C19 UNL     1      -3.387  16.398  -9.560  1.00  0.00     0.000 A 
HETATM   37  C20 UNL     1      -3.046  16.435  -8.233  1.00  0.00     0.001 A 
HETATM   38  C21 UNL     1      -3.434  15.427  -7.369  1.00  0.00     0.009 A 
ENDBRANCH  32  33
ENDBRANCH  30  32
ENDBRANCH   4  30
BRANCH   7  39
HETATM   39  N7  UNL     1      -1.659  13.902  -2.607  1.00  0.00    -0.191 N 
ATOM     40  H7  UNL     1      -1.963  14.814  -2.948  1.00  0.00     0.184 HD
BRANCH  39  41
HETATM   41  C23 UNL     1      -0.882  13.964  -1.458  1.00  0.00     0.049 A 
HETATM   42  C24 UNL     1      -0.811  12.879  -0.607  1.00  0.00     0.030 A 
HETATM   43  C25 UNL     1      -0.059  12.881   0.555  1.00  0.00     0.002 A 
HETATM   44  C26 UNL     1       0.653  14.018   0.877  1.00  0.00     0.000 A 
HETATM   45  C27 UNL     1       0.614  15.133   0.055  1.00  0.00     0.002 A 
HETATM   46  C28 UNL     1      -0.150  15.088  -1.093  1.00  0.00     0.030 A 
ENDBRANCH  39  41
ENDBRANCH   7  39
TORSDOF 10
ENDMDL
MODEL 5
REMARK VINA RESULT: -6.535477891      3.571      8.738
REMARK  10 active torsions:
REMARK  status: ('A' for Active; 'I' for Inactive)
REMARK       I    between atoms: C1_2  and  N1_3 
REMARK    1  A    between atoms: C1_2  and  C8_13 
REMARK    2  A    between atoms: N1_3  and  C2_5 
REMARK    3  A    between atoms: C2_5  and  C3_6 
REMARK    4  A    between atoms: C12_17  and  N3_18 
REMARK    5  A    between atoms: N3_18  and  C13_20 
REMARK    6  A    between atoms: C14_23  and  N5_24 
REMARK    7  A    between atoms: N5_24  and  C15_26 
REMARK    8  A    between atoms: C15_26  and  C16_27 
REMARK    9  A    between atoms: C22_35  and  N7_36 
REMARK   10  A    between atoms: N7_36  and  C23_38 
ROOT
HETATM    1  C13 UNL     1      -2.628  11.040  -3.489  1.00  0.00     0.711 A 
HETATM    2  N4  UNL     1      -3.087   9.935  -2.902  1.00  0.00    -0.021 N 
ATOM      3  H4  UNL     1      -3.654   9.266  -3.423  1.00  0.00     0.203 HD
HETATM    4  C14 UNL     1      -2.787   9.717  -1.599  1.00  0.00     0.707 A 
HETATM    5  N6  UNL     1      -2.045  10.592  -0.917  1.00  0.00    -0.021 N 
ATOM      6  H6  UNL     1      -1.836  10.399   0.063  1.00  0.00     0.203 HD
HETATM    7  C22 UNL     1      -1.559  11.726  -1.474  1.00  0.00     0.711 A 
HETATM    8  N8  UNL     1      -1.863  11.924  -2.753  1.00  0.00    -0.021 N 
ATOM      9  H8  UNL     1      -1.517  12.766  -3.211  1.00  0.00     0.203 HD
ENDROOT
BRANCH   1  10
HETATM   10  N3  UNL     1      -2.856  11.310  -4.695  1.00  0.00    -0.191 N 
ATOM     11  H3  UNL     1      -2.780  10.486  -5.291  1.00  0.00     0.184 HD
BRANCH  10  12
HETATM   12  C12 UNL     1      -3.181  12.433  -5.414  1.00  0.00     0.050 A 
HETATM   13  C11 UNL     1      -4.159  12.405  -6.406  1.00  0.00     0.030 A 
HETATM   14  C10 UNL     1      -4.448  13.535  -7.134  1.00  0.00     0.003 A 
HETATM   15  C9  UNL     1      -3.776  14.714  -6.900  1.00  0.00     0.017 A 
HETATM   16  C8  UNL     1      -2.804  14.781  -5.930  1.00  0.00     0.034 A 
HETATM   17  C29 UNL     1      -2.522  13.658  -5.209  1.00  0.00     0.047 A 
BRANCH  16  18
HETATM   18  C1  UNL     1      -2.044  16.013  -5.646  1.00  0.00     0.252 C 
HETATM   19  O1  UNL     1      -0.817  16.062  -5.928  1.00  0.00    -0.268 OA
HETATM   20  N1  UNL     1      -2.666  17.153  -5.061  1.00  0.00    -0.351 N 
ATOM     21  H1  UNL     1      -3.658  17.147  -4.825  1.00  0.00     0.163 HD
BRANCH  20  22
HETATM   22  C2  UNL     1      -1.839  18.329  -4.810  1.00  0.00     0.179 C 
BRANCH  22  23
HETATM   23  C3  UNL     1      -2.416  19.277  -3.865  1.00  0.00     0.026 A 
HETATM   24  C4  UNL     1      -1.983  19.339  -2.565  1.00  0.00     0.027 A 
HETATM   25  C5  UNL     1      -2.545  20.254  -1.665  1.00  0.00     0.003 A 
HETATM   26  C6  UNL     1      -3.541  21.099  -2.100  1.00  0.00     0.017 A 
HETATM   27  C7  UNL     1      -3.959  21.018  -3.412  1.00  0.00     0.088 A 
HETATM   28  N2  UNL     1      -3.398  20.127  -4.252  1.00  0.00    -0.368 N 
ATOM     29  H2  UNL     1      -3.727  20.089  -5.217  1.00  0.00     0.165 HD
ENDBRANCH  22  23
ENDBRANCH  20  22
ENDBRANCH  16  18
ENDBRANCH  10  12
ENDBRANCH   1  10
BRANCH   4  30
HETATM   30  N5  UNL     1      -3.244   8.654  -1.076  1.00  0.00    -0.221 N 
ATOM     31  H5  UNL     1      -2.540   7.977  -0.781  1.00  0.00     0.178 HD
BRANCH  30  32
HETATM   32  C15 UNL     1      -4.593   8.268  -0.841  1.00  0.00     0.176 C 
BRANCH  32  33
HETATM   33  C16 UNL     1      -4.640   6.776  -0.645  1.00  0.00    -0.040 A 
HETATM   34  C17 UNL     1      -4.791   5.945  -1.746  1.00  0.00     0.009 A 
HETATM   35  C18 UNL     1      -4.826   4.571  -1.574  1.00  0.00     0.001 A 
HETATM   36  C19 UNL     1      -4.714   3.989  -0.327  1.00  0.00     0.000 A 
HETATM   37  C20 UNL     1      -4.565   4.821   0.752  1.00  0.00     0.001 A 
HETATM   38  C21 UNL     1      -4.529   6.194   0.593  1.00  0.00     0.009 A 
ENDBRANCH  32  33
ENDBRANCH  30  32
ENDBRANCH   4  30
BRANCH   7  39
HETATM   39  N7  UNL     1      -0.871  12.494  -0.767  1.00  0.00    -0.191 N 
ATOM     40  H7  UNL     1      -0.507  12.057   0.080  1.00  0.00     0.184 HD
BRANCH  39  41
HETATM   41  C23 UNL     1      -0.505  13.826  -0.911  1.00  0.00     0.049 A 
HETATM   42  C24 UNL     1       0.251  14.448   0.063  1.00  0.00     0.030 A 
HETATM   43  C25 UNL     1       0.643  15.773  -0.019  1.00  0.00     0.002 A 
HETATM   44  C26 UNL     1       0.263  16.505  -1.126  1.00  0.00     0.000 A 
HETATM   45  C27 UNL     1      -0.496  15.925  -2.130  1.00  0.00     0.002 A 
HETATM   46  C28 UNL     1      -0.865  14.601  -2.006  1.00  0.00     0.030 A 
ENDBRANCH  39  41
ENDBRANCH   7  39
TORSDOF 10
ENDMDL
