MODEL 1
REMARK VINA RESULT: -5.631862082      0.000      0.000
REMARK  8 active torsions:
REMARK  status: ('A' for Active; 'I' for Inactive)
REMARK       I    between atoms: N1_2  and  C2_4 
REMARK    1  A    between atoms: C2_4  and  C3_6 
REMARK    2  A    between atoms: C4_7  and  C5_8 
REMARK    3  A    between atoms: C6_9  and  N2_10 
REMARK    4  A    between atoms: N2_10  and  C7_12 
REMARK    5  A    between atoms: C7_12  and  C8_13 
REMARK    6  A    between atoms: C11_18  and  C12_19 
REMARK    7  A    between atoms: N7_30  and  C17_31 
REMARK    8  A    between atoms: C20_34  and  C21_35 
ROOT
HETATM    1  C5  UNL     1      -3.677   7.323  -0.480  1.00  0.00     0.037 A 
HETATM    2  C6  UNL     1      -4.326   6.145  -0.136  1.00  0.00     0.114 A 
HETATM    3  N5  UNL     1      -4.654   5.197  -1.049  1.00  0.00    -0.351 N 
ATOM      4  H5  UNL     1      -5.130   4.352  -0.735  1.00  0.00     0.166 HD
HETATM    5  C13 UNL     1      -4.376   5.336  -2.341  1.00  0.00     0.105 A 
HETATM    6  C14 UNL     1      -3.740   6.468  -2.752  1.00  0.00     0.033 A 
HETATM    7  C15 UNL     1      -3.317   6.870  -3.994  1.00  0.00     0.036 A 
HETATM    8  C16 UNL     1      -3.497   6.103  -5.244  1.00  0.00     0.070 C 
HETATM    9  N6  UNL     1      -2.741   8.028  -3.856  1.00  0.00    -0.297 N 
ATOM     10  H6  UNL     1      -2.330   8.568  -4.617  1.00  0.00     0.187 HD
HETATM   11  N7  UNL     1      -2.766   8.420  -2.542  1.00  0.00    -0.255 N 
HETATM   12  C29 UNL     1      -3.377   7.479  -1.845  1.00  0.00     0.084 A 
ENDROOT
BRANCH   2  13
HETATM   13  N2  UNL     1      -4.696   5.902   1.084  1.00  0.00    -0.371 N 
ATOM     14  H2  UNL     1      -5.320   6.559   1.552  1.00  0.00     0.161 HD
BRANCH  13  15
HETATM   15  C7  UNL     1      -4.256   4.736   1.792  1.00  0.00     0.162 C 
BRANCH  15  16
HETATM   16  C8  UNL     1      -2.785   4.739   2.053  1.00  0.00    -0.007 A 
HETATM   17  C9  UNL     1      -1.824   4.094   1.325  1.00  0.00     0.028 A 
HETATM   18  C10 UNL     1      -0.616   4.375   1.921  1.00  0.00     0.089 A 
HETATM   19  N3  UNL     1      -0.854   5.166   2.976  1.00  0.00    -0.361 N 
HETATM   20  C11 UNL     1      -2.152   5.401   3.076  1.00  0.00     0.105 A 
ATOM     21  H3  UNL     1      -0.142   5.533   3.607  1.00  0.00     0.165 HD
BRANCH  20  22
HETATM   22  C12 UNL     1      -2.820   6.229   4.108  1.00  0.00     0.282 C 
HETATM   23  N4  UNL     1      -2.866   5.722   5.435  1.00  0.00    -0.056 NA
HETATM   24  O2  UNL     1      -3.301   7.319   3.766  1.00  0.00    -0.269 OA
ENDBRANCH  20  22
ENDBRANCH  15  16
ENDBRANCH  13  15
ENDBRANCH   2  13
BRANCH   1  25
HETATM   25  C4  UNL     1      -3.272   8.301   0.491  1.00  0.00     0.023 C 
HETATM   26  C3  UNL     1      -4.029   9.288   0.931  1.00  0.00     0.075 C 
BRANCH  26  27
HETATM   27  C2  UNL     1      -3.451  10.213   1.934  1.00  0.00     0.240 C 
HETATM   28  N1  UNL     1      -4.068  10.425   3.183  1.00  0.00    -0.362 N 
HETATM   29  C1  UNL     1      -3.520  11.329   4.187  1.00  0.00     0.149 C 
ATOM     30  H1  UNL     1      -4.932   9.927   3.393  1.00  0.00     0.162 HD
HETATM   31  O1  UNL     1      -2.399  10.803   1.650  1.00  0.00    -0.269 OA
ENDBRANCH  26  27
ENDBRANCH   1  25
BRANCH  11  32
HETATM   32  C17 UNL     1      -2.168   9.633  -2.135  1.00  0.00     0.057 A 
HETATM   33  C18 UNL     1      -0.900   9.691  -1.550  1.00  0.00     0.032 A 
HETATM   34  C19 UNL     1      -0.333  10.857  -1.091  1.00  0.00     0.014 A 
HETATM   35  C20 UNL     1      -1.004  12.060  -1.188  1.00  0.00    -0.026 A 
HETATM   36  C27 UNL     1      -2.258  12.029  -1.762  1.00  0.00     0.014 A 
HETATM   37  C28 UNL     1      -2.829  10.865  -2.221  1.00  0.00     0.032 A 
BRANCH  35  38
HETATM   38  C21 UNL     1      -0.405  13.303  -0.704  1.00  0.00    -0.026 A 
HETATM   39  C22 UNL     1       0.239  13.377   0.519  1.00  0.00     0.012 A 
HETATM   40  C23 UNL     1       0.803  14.547   0.977  1.00  0.00     0.001 A 
HETATM   41  C24 UNL     1       0.729  15.676   0.206  1.00  0.00     0.000 A 
HETATM   42  C25 UNL     1       0.092  15.638  -1.024  1.00  0.00     0.001 A 
HETATM   43  C26 UNL     1      -0.464  14.451  -1.457  1.00  0.00     0.012 A 
ENDBRANCH  35  38
ENDBRANCH  11  32
TORSDOF 8
ENDMDL
MODEL 2
REMARK VINA RESULT: -5.573680289      7.733     12.064
REMARK  8 active torsions:
REMARK  status: ('A' for Active; 'I' for Inactive)
REMARK       I    between atoms: N1_2  and  C2_4 
REMARK    1  A    between atoms: C2_4  and  C3_6 
REMARK    2  A    between atoms: C4_7  and  C5_8 
REMARK    3  A    between atoms: C6_9  and  N2_10 
REMARK    4  A    between atoms: N2_10  and  C7_12 
REMARK    5  A    between atoms: C7_12  and  C8_13 
REMARK    6  A    between atoms: C11_18  and  C12_19 
REMARK    7  A    between atoms: N7_30  and  C17_31 
REMARK    8  A    between atoms: C20_34  and  C21_35 
ROOT
HETATM    1  C5  UNL     1      -2.164  15.454  -8.682  1.00  0.00     0.037 A 
HETATM    2  C6  UNL     1      -2.243  15.557 -10.064  1.00  0.00     0.114 A 
HETATM    3  N5  UNL     1      -2.322  16.751 -10.704  1.00  0.00    -0.351 N 
ATOM      4  H5  UNL     1      -2.377  16.762 -11.722  1.00  0.00     0.166 HD
HETATM    5  C13 UNL     1      -2.331  17.905 -10.046  1.00  0.00     0.105 A 
HETATM    6  C14 UNL     1      -2.256  17.881  -8.687  1.00  0.00     0.033 A 
HETATM    7  C15 UNL     1      -2.227  18.894  -7.762  1.00  0.00     0.036 A 
HETATM    8  C16 UNL     1      -2.296  20.336  -8.077  1.00  0.00     0.070 C 
HETATM    9  N6  UNL     1      -2.130  18.348  -6.585  1.00  0.00    -0.297 N 
ATOM     10  H6  UNL     1      -2.087  18.863  -5.706  1.00  0.00     0.187 HD
HETATM   11  N7  UNL     1      -2.093  16.981  -6.694  1.00  0.00    -0.255 N 
HETATM   12  C29 UNL     1      -2.171  16.671  -7.976  1.00  0.00     0.084 A 
ENDROOT
BRANCH   2  13
HETATM   13  N2  UNL     1      -2.290  14.508 -10.824  1.00  0.00    -0.371 N 
ATOM     14  H2  UNL     1      -2.128  13.589 -10.412  1.00  0.00     0.161 HD
BRANCH  13  15
HETATM   15  C7  UNL     1      -2.564  14.601 -12.228  1.00  0.00     0.162 C 
BRANCH  15  16
HETATM   16  C8  UNL     1      -3.574  13.603 -12.689  1.00  0.00    -0.007 A 
HETATM   17  C9  UNL     1      -3.345  12.514 -13.483  1.00  0.00     0.028 A 
HETATM   18  C10 UNL     1      -4.555  11.878 -13.647  1.00  0.00     0.089 A 
HETATM   19  N3  UNL     1      -5.478  12.572 -12.968  1.00  0.00    -0.361 N 
HETATM   20  C11 UNL     1      -4.913  13.614 -12.382  1.00  0.00     0.105 A 
ATOM     21  H3  UNL     1      -6.468  12.333 -12.912  1.00  0.00     0.165 HD
BRANCH  20  22
HETATM   22  C12 UNL     1      -5.594  14.626 -11.539  1.00  0.00     0.282 C 
HETATM   23  N4  UNL     1      -5.543  14.455 -10.129  1.00  0.00    -0.056 NA
HETATM   24  O2  UNL     1      -6.170  15.567 -12.102  1.00  0.00    -0.269 OA
ENDBRANCH  20  22
ENDBRANCH  15  16
ENDBRANCH  13  15
ENDBRANCH   2  13
BRANCH   1  25
HETATM   25  C4  UNL     1      -2.018  14.197  -8.003  1.00  0.00     0.023 C 
HETATM   26  C3  UNL     1      -3.015  13.403  -7.658  1.00  0.00     0.075 C 
BRANCH  26  27
HETATM   27  C2  UNL     1      -2.687  12.139  -6.958  1.00  0.00     0.240 C 
HETATM   28  N1  UNL     1      -1.884  11.151  -7.558  1.00  0.00    -0.362 N 
HETATM   29  C1  UNL     1      -1.546   9.900  -6.890  1.00  0.00     0.149 C 
ATOM     30  H1  UNL     1      -1.524  11.316  -8.498  1.00  0.00     0.162 HD
HETATM   31  O1  UNL     1      -3.138  11.968  -5.815  1.00  0.00    -0.269 OA
ENDBRANCH  26  27
ENDBRANCH   1  25
BRANCH  11  32
HETATM   32  C17 UNL     1      -1.953  16.165  -5.550  1.00  0.00     0.057 A 
HETATM   33  C18 UNL     1      -0.709  15.760  -5.060  1.00  0.00     0.032 A 
HETATM   34  C19 UNL     1      -0.561  14.914  -3.985  1.00  0.00     0.014 A 
HETATM   35  C20 UNL     1      -1.660  14.410  -3.321  1.00  0.00    -0.026 A 
HETATM   36  C27 UNL     1      -2.900  14.795  -3.786  1.00  0.00     0.014 A 
HETATM   37  C28 UNL     1      -3.053  15.640  -4.861  1.00  0.00     0.032 A 
BRANCH  35  38
HETATM   38  C21 UNL     1      -1.509  13.511  -2.177  1.00  0.00    -0.026 A 
HETATM   39  C22 UNL     1      -2.248  12.348  -2.058  1.00  0.00     0.012 A 
HETATM   40  C23 UNL     1      -2.107  11.500  -0.981  1.00  0.00     0.001 A 
HETATM   41  C24 UNL     1      -1.211  11.811   0.006  1.00  0.00     0.000 A 
HETATM   42  C25 UNL     1      -0.452  12.967  -0.082  1.00  0.00     0.001 A 
HETATM   43  C26 UNL     1      -0.615  13.797  -1.172  1.00  0.00     0.012 A 
ENDBRANCH  35  38
ENDBRANCH  11  32
TORSDOF 8
ENDMDL
MODEL 3
REMARK VINA RESULT: -5.513184592      3.356      7.455
REMARK  8 active torsions:
REMARK  status: ('A' for Active; 'I' for Inactive)
REMARK       I    between atoms: N1_2  and  C2_4 
REMARK    1  A    between atoms: C2_4  and  C3_6 
REMARK    2  A    between atoms: C4_7  and  C5_8 
REMARK    3  A    between atoms: C6_9  and  N2_10 
REMARK    4  A    between atoms: N2_10  and  C7_12 
REMARK    5  A    between atoms: C7_12  and  C8_13 
REMARK    6  A    between atoms: C11_18  and  C12_19 
REMARK    7  A    between atoms: N7_30  and  C17_31 
REMARK    8  A    between atoms: C20_34  and  C21_35 
ROOT
HETATM    1  C5  UNL     1      -3.785   6.243  -3.000  1.00  0.00     0.037 A 
HETATM    2  C6  UNL     1      -3.910   5.739  -4.287  1.00  0.00     0.114 A 
HETATM    3  N5  UNL     1      -4.054   4.414  -4.542  1.00  0.00    -0.351 N 
ATOM      4  H5  UNL     1      -4.142   4.104  -5.510  1.00  0.00     0.166 HD
HETATM    5  C13 UNL     1      -4.085   3.508  -3.571  1.00  0.00     0.105 A 
HETATM    6  C14 UNL     1      -3.968   3.931  -2.282  1.00  0.00     0.033 A 
HETATM    7  C15 UNL     1      -3.983   3.240  -1.097  1.00  0.00     0.036 A 
HETATM    8  C16 UNL     1      -4.121   1.775  -0.967  1.00  0.00     0.070 C 
HETATM    9  N6  UNL     1      -3.855   4.108  -0.136  1.00  0.00    -0.297 N 
ATOM     10  H6  UNL     1      -3.833   3.878   0.858  1.00  0.00     0.187 HD
HETATM   11  N7  UNL     1      -3.753   5.376  -0.648  1.00  0.00    -0.255 N 
HETATM   12  C29 UNL     1      -3.817   5.292  -1.965  1.00  0.00     0.084 A 
ENDROOT
BRANCH   2  13
HETATM   13  N2  UNL     1      -3.851   6.508  -5.330  1.00  0.00    -0.371 N 
ATOM     14  H2  UNL     1      -3.275   7.350  -5.293  1.00  0.00     0.161 HD
BRANCH  13  15
HETATM   15  C7  UNL     1      -4.571   6.210  -6.533  1.00  0.00     0.162 C 
BRANCH  15  16
HETATM   16  C8  UNL     1      -3.990   6.879  -7.735  1.00  0.00    -0.007 A 
HETATM   17  C9  UNL     1      -2.811   7.567  -7.799  1.00  0.00     0.028 A 
HETATM   18  C10 UNL     1      -2.674   8.006  -9.097  1.00  0.00     0.089 A 
HETATM   19  N3  UNL     1      -3.746   7.590  -9.784  1.00  0.00    -0.361 N 
HETATM   20  C11 UNL     1      -4.553   6.908  -8.988  1.00  0.00     0.105 A 
ATOM     21  H3  UNL     1      -3.915   7.771 -10.774  1.00  0.00     0.165 HD
BRANCH  20  22
HETATM   22  C12 UNL     1      -5.841   6.281  -9.368  1.00  0.00     0.282 C 
HETATM   23  N4  UNL     1      -6.941   7.141  -9.636  1.00  0.00    -0.056 NA
HETATM   24  O2  UNL     1      -5.896   5.045  -9.434  1.00  0.00    -0.269 OA
ENDBRANCH  20  22
ENDBRANCH  15  16
ENDBRANCH  13  15
ENDBRANCH   2  13
BRANCH   1  25
HETATM   25  C4  UNL     1      -3.694   7.650  -2.721  1.00  0.00     0.023 C 
HETATM   26  C3  UNL     1      -2.571   8.343  -2.691  1.00  0.00     0.075 C 
BRANCH  26  27
HETATM   27  C2  UNL     1      -2.657   9.790  -2.382  1.00  0.00     0.240 C 
HETATM   28  N1  UNL     1      -2.710  10.760  -3.402  1.00  0.00    -0.362 N 
HETATM   29  C1  UNL     1      -2.794  12.188  -3.124  1.00  0.00     0.149 C 
ATOM     30  H1  UNL     1      -2.688  10.450  -4.373  1.00  0.00     0.162 HD
HETATM   31  O1  UNL     1      -2.682  10.135  -1.191  1.00  0.00    -0.269 OA
ENDBRANCH  26  27
ENDBRANCH   1  25
BRANCH  11  32
HETATM   32  C17 UNL     1      -3.641   6.497   0.205  1.00  0.00     0.057 A 
HETATM   33  C18 UNL     1      -2.424   6.912   0.750  1.00  0.00     0.032 A 
HETATM   34  C19 UNL     1      -2.311   7.963   1.631  1.00  0.00     0.014 A 
HETATM   35  C20 UNL     1      -3.422   8.678   2.030  1.00  0.00    -0.026 A 
HETATM   36  C27 UNL     1      -4.636   8.287   1.505  1.00  0.00     0.014 A 
HETATM   37  C28 UNL     1      -4.754   7.236   0.625  1.00  0.00     0.032 A 
BRANCH  35  38
HETATM   38  C21 UNL     1      -3.307   9.796   2.965  1.00  0.00    -0.026 A 
HETATM   39  C22 UNL     1      -2.081  10.320   3.332  1.00  0.00     0.012 A 
HETATM   40  C23 UNL     1      -1.971  11.374   4.213  1.00  0.00     0.001 A 
HETATM   41  C24 UNL     1      -3.105  11.924   4.746  1.00  0.00     0.000 A 
HETATM   42  C25 UNL     1      -4.350  11.426   4.400  1.00  0.00     0.001 A 
HETATM   43  C26 UNL     1      -4.429  10.370   3.515  1.00  0.00     0.012 A 
ENDBRANCH  35  38
ENDBRANCH  11  32
TORSDOF 8
ENDMDL
MODEL 4
REMARK VINA RESULT: -5.510094431      1.347      1.784
REMARK  8 active torsions:
REMARK  status: ('A' for Active; 'I' for Inactive)
REMARK       I    between atoms: N1_2  and  C2_4 
REMARK    1  A    between atoms: C2_4  and  C3_6 
REMARK    2  A    between atoms: C4_7  and  C5_8 
REMARK    3  A    between atoms: C6_9  and  N2_10 
REMARK    4  A    between atoms: N2_10  and  C7_12 
REMARK    5  A    between atoms: C7_12  and  C8_13 
REMARK    6  A    between atoms: C11_18  and  C12_19 
REMARK    7  A    between atoms: N7_30  and  C17_31 
REMARK    8  A    between atoms: C20_34  and  C21_35 
ROOT
HETATM    1  C5  UNL     1      -3.738   7.350  -0.488  1.00  0.00     0.037 A 
HETATM    2  C6  UNL     1      -4.377   6.150  -0.206  1.00  0.00     0.114 A 
HETATM    3  N5  UNL     1      -4.639   5.221  -1.158  1.00  0.00    -0.351 N 
ATOM      4  H5  UNL     1      -5.112   4.358  -0.890  1.00  0.00     0.166 HD
HETATM    5  C13 UNL     1      -4.299   5.399  -2.431  1.00  0.00     0.105 A 
HETATM    6  C14 UNL     1      -3.668   6.553  -2.780  1.00  0.00     0.033 A 
HETATM    7  C15 UNL     1      -3.192   6.995  -3.989  1.00  0.00     0.036 A 
HETATM    8  C16 UNL     1      -3.292   6.258  -5.265  1.00  0.00     0.070 C 
HETATM    9  N6  UNL     1      -2.649   8.162  -3.792  1.00  0.00    -0.297 N 
ATOM     10  H6  UNL     1      -2.211   8.729  -4.518  1.00  0.00     0.187 HD
HETATM   11  N7  UNL     1      -2.748   8.519  -2.472  1.00  0.00    -0.255 N 
HETATM   12  C29 UNL     1      -3.373   7.547  -1.831  1.00  0.00     0.084 A 
ENDROOT
BRANCH   2  13
HETATM   13  N2  UNL     1      -4.804   5.869   0.987  1.00  0.00    -0.371 N 
ATOM     14  H2  UNL     1      -5.391   6.544   1.475  1.00  0.00     0.161 HD
BRANCH  13  15
HETATM   15  C7  UNL     1      -4.474   4.635   1.637  1.00  0.00     0.162 C 
BRANCH  15  16
HETATM   16  C8  UNL     1      -3.736   4.836   2.920  1.00  0.00    -0.007 A 
HETATM   17  C9  UNL     1      -2.724   5.725   3.150  1.00  0.00     0.028 A 
HETATM   18  C10 UNL     1      -2.347   5.569   4.465  1.00  0.00     0.089 A 
HETATM   19  N3  UNL     1      -3.115   4.610   5.000  1.00  0.00    -0.361 N 
HETATM   20  C11 UNL     1      -3.960   4.153   4.090  1.00  0.00     0.105 A 
ATOM     21  H3  UNL     1      -3.057   4.281   5.964  1.00  0.00     0.165 HD
BRANCH  20  22
HETATM   22  C12 UNL     1      -4.975   3.091   4.287  1.00  0.00     0.282 C 
HETATM   23  N4  UNL     1      -6.270   3.485   4.721  1.00  0.00    -0.056 NA
HETATM   24  O2  UNL     1      -4.647   1.917   4.063  1.00  0.00    -0.269 OA
ENDBRANCH  20  22
ENDBRANCH  15  16
ENDBRANCH  13  15
ENDBRANCH   2  13
BRANCH   1  25
HETATM   25  C4  UNL     1      -3.403   8.310   0.527  1.00  0.00     0.023 C 
HETATM   26  C3  UNL     1      -4.185   9.299   0.920  1.00  0.00     0.075 C 
BRANCH  26  27
HETATM   27  C2  UNL     1      -3.682  10.204   1.979  1.00  0.00     0.240 C 
HETATM   28  N1  UNL     1      -4.478  10.558   3.086  1.00  0.00    -0.362 N 
HETATM   29  C1  UNL     1      -4.006  11.446   4.141  1.00  0.00     0.149 C 
ATOM     30  H1  UNL     1      -5.422  10.179   3.151  1.00  0.00     0.162 HD
HETATM   31  O1  UNL     1      -2.529  10.648   1.872  1.00  0.00    -0.269 OA
ENDBRANCH  26  27
ENDBRANCH   1  25
BRANCH  11  32
HETATM   32  C17 UNL     1      -2.197   9.733  -2.005  1.00  0.00     0.057 A 
HETATM   33  C18 UNL     1      -2.795  10.973  -2.241  1.00  0.00     0.032 A 
HETATM   34  C19 UNL     1      -2.237  12.167  -1.846  1.00  0.00     0.014 A 
HETATM   35  C20 UNL     1      -1.029  12.201  -1.180  1.00  0.00    -0.026 A 
HETATM   36  C27 UNL     1      -0.419  10.988  -0.935  1.00  0.00     0.014 A 
HETATM   37  C28 UNL     1      -0.973   9.792  -1.329  1.00  0.00     0.032 A 
BRANCH  35  38
HETATM   38  C21 UNL     1      -0.432  13.467  -0.757  1.00  0.00    -0.026 A 
HETATM   39  C22 UNL     1       0.240  13.593   0.446  1.00  0.00     0.012 A 
HETATM   40  C23 UNL     1       0.803  14.785   0.847  1.00  0.00     0.001 A 
HETATM   41  C24 UNL     1       0.699  15.883   0.035  1.00  0.00     0.000 A 
HETATM   42  C25 UNL     1       0.034  15.793  -1.177  1.00  0.00     0.001 A 
HETATM   43  C26 UNL     1      -0.520  14.586  -1.552  1.00  0.00     0.012 A 
ENDBRANCH  35  38
ENDBRANCH  11  32
TORSDOF 8
ENDMDL
MODEL 5
REMARK VINA RESULT: -5.483072481      2.229      7.168
REMARK  8 active torsions:
REMARK  status: ('A' for Active; 'I' for Inactive)
REMARK       I    between atoms: N1_2  and  C2_4 
REMARK    1  A    between atoms: C2_4  and  C3_6 
REMARK    2  A    between atoms: C4_7  and  C5_8 
REMARK    3  A    between atoms: C6_9  and  N2_10 
REMARK    4  A    between atoms: N2_10  and  C7_12 
REMARK    5  A    between atoms: C7_12  and  C8_13 
REMARK    6  A    between atoms: C11_18  and  C12_19 
REMARK    7  A    between atoms: N7_30  and  C17_31 
REMARK    8  A    between atoms: C20_34  and  C21_35 
ROOT
HETATM    1  C5  UNL     1      -1.779   9.917   0.394  1.00  0.00     0.037 A 
HETATM    2  C6  UNL     1      -1.140  10.962   1.048  1.00  0.00     0.114 A 
HETATM    3  N5  UNL     1      -0.916  12.163   0.459  1.00  0.00    -0.351 N 
ATOM      4  H5  UNL     1      -0.442  12.893   0.991  1.00  0.00     0.166 HD
HETATM    5  C13 UNL     1      -1.295  12.419  -0.789  1.00  0.00     0.105 A 
HETATM    6  C14 UNL     1      -1.927  11.440  -1.491  1.00  0.00     0.033 A 
HETATM    7  C15 UNL     1      -2.438  11.423  -2.764  1.00  0.00     0.036 A 
HETATM    8  C16 UNL     1      -2.383  12.550  -3.718  1.00  0.00     0.070 C 
HETATM    9  N6  UNL     1      -2.965  10.249  -2.960  1.00  0.00    -0.297 N 
ATOM     10  H6  UNL     1      -3.421   9.952  -3.822  1.00  0.00     0.187 HD
HETATM   11  N7  UNL     1      -2.822   9.469  -1.842  1.00  0.00    -0.255 N 
HETATM   12  C29 UNL     1      -2.185  10.178  -0.926  1.00  0.00     0.084 A 
ENDROOT
BRANCH   2  13
HETATM   13  N2  UNL     1      -0.679  10.831   2.253  1.00  0.00    -0.371 N 
ATOM     14  H2  UNL     1       0.081  10.173   2.425  1.00  0.00     0.161 HD
BRANCH  13  15
HETATM   15  C7  UNL     1      -1.205  11.587   3.351  1.00  0.00     0.162 C 
BRANCH  15  16
HETATM   16  C8  UNL     1      -2.377  10.927   4.000  1.00  0.00    -0.007 A 
HETATM   17  C9  UNL     1      -3.682  11.327   3.932  1.00  0.00     0.028 A 
HETATM   18  C10 UNL     1      -4.415  10.427   4.672  1.00  0.00     0.089 A 
HETATM   19  N3  UNL     1      -3.565   9.517   5.167  1.00  0.00    -0.361 N 
HETATM   20  C11 UNL     1      -2.333   9.795   4.777  1.00  0.00     0.105 A 
ATOM     21  H3  UNL     1      -3.829   8.728   5.758  1.00  0.00     0.165 HD
BRANCH  20  22
HETATM   22  C12 UNL     1      -1.109   9.029   5.112  1.00  0.00     0.282 C 
HETATM   23  N4  UNL     1      -0.562   9.193   6.413  1.00  0.00    -0.056 NA
HETATM   24  O2  UNL     1      -0.626   8.285   4.247  1.00  0.00    -0.269 OA
ENDBRANCH  20  22
ENDBRANCH  15  16
ENDBRANCH  13  15
ENDBRANCH   2  13
BRANCH   1  25
HETATM   25  C4  UNL     1      -2.074   8.664   1.033  1.00  0.00     0.023 C 
HETATM   26  C3  UNL     1      -3.221   8.361   1.612  1.00  0.00     0.075 C 
BRANCH  26  27
HETATM   27  C2  UNL     1      -3.356   7.021   2.229  1.00  0.00     0.240 C 
HETATM   28  N1  UNL     1      -2.986   5.851   1.538  1.00  0.00    -0.362 N 
HETATM   29  C1  UNL     1      -3.108   4.521   2.122  1.00  0.00     0.149 C 
ATOM     30  H1  UNL     1      -2.619   5.938   0.591  1.00  0.00     0.162 HD
HETATM   31  O1  UNL     1      -3.805   6.949   3.383  1.00  0.00    -0.269 OA
ENDBRANCH  26  27
ENDBRANCH   1  25
BRANCH  11  32
HETATM   32  C17 UNL     1      -3.348   8.159  -1.798  1.00  0.00     0.057 A 
HETATM   33  C18 UNL     1      -2.573   7.025  -2.058  1.00  0.00     0.032 A 
HETATM   34  C19 UNL     1      -3.088   5.749  -2.080  1.00  0.00     0.014 A 
HETATM   35  C20 UNL     1      -4.427   5.519  -1.840  1.00  0.00    -0.026 A 
HETATM   36  C27 UNL     1      -5.212   6.622  -1.580  1.00  0.00     0.014 A 
HETATM   37  C28 UNL     1      -4.703   7.900  -1.558  1.00  0.00     0.032 A 
BRANCH  35  38
HETATM   38  C21 UNL     1      -4.978   4.164  -1.862  1.00  0.00    -0.026 A 
HETATM   39  C22 UNL     1      -5.352   3.509  -0.703  1.00  0.00     0.012 A 
HETATM   40  C23 UNL     1      -5.872   2.233  -0.720  1.00  0.00     0.001 A 
HETATM   41  C24 UNL     1      -6.026   1.587  -1.918  1.00  0.00     0.000 A 
HETATM   42  C25 UNL     1      -5.662   2.214  -3.099  1.00  0.00     0.001 A 
HETATM   43  C26 UNL     1      -5.145   3.492  -3.050  1.00  0.00     0.012 A 
ENDBRANCH  35  38
ENDBRANCH  11  32
TORSDOF 8
ENDMDL
