MODEL 1
REMARK VINA RESULT: -6.337617495      0.000      0.000
REMARK  10 active torsions:
REMARK  status: ('A' for Active; 'I' for Inactive)
REMARK    1  A    between atoms: N1_2  and  C2_4 
REMARK    2  A    between atoms: C3_7  and  N3_8 
REMARK    3  A    between atoms: N3_8  and  N4_10 
REMARK    4  A    between atoms: C4_12  and  C5_13 
REMARK    5  A    between atoms: C8_16  and  N5_17 
REMARK    6  A    between atoms: C13_24  and  N7_25 
REMARK    7  A    between atoms: N7_25  and  C14_27 
REMARK    8  A    between atoms: C14_27  and  C15_28 
REMARK    9  A    between atoms: C14_27  and  C22_35 
REMARK   10  A    between atoms: C15_28  and  C16_29 
ROOT
HETATM    1  C2  UNL     1      -2.614  13.330  -4.381  1.00  0.00     0.706 A 
HETATM    2  N2  UNL     1      -2.600  12.527  -5.476  1.00  0.00    -0.020 N 
ATOM      3  H2  UNL     1      -2.588  12.942  -6.408  1.00  0.00     0.203 HD
HETATM    4  C3  UNL     1      -2.601  11.190  -5.343  1.00  0.00     0.726 A 
HETATM    5  N6  UNL     1      -2.619  10.637  -4.101  1.00  0.00    -0.020 N 
ATOM      6  H6  UNL     1      -2.621   9.622  -4.006  1.00  0.00     0.203 HD
HETATM    7  C13 UNL     1      -2.633  11.420  -2.970  1.00  0.00     0.707 A 
HETATM    8  N9  UNL     1      -2.631  12.735  -3.183  1.00  0.00    -0.022 N 
ATOM      9  H9  UNL     1      -2.643  13.341  -2.363  1.00  0.00     0.203 HD
ENDROOT
BRANCH   7  10
HETATM   10  N7  UNL     1      -2.636  10.870  -1.909  1.00  0.00    -0.216 N 
ATOM     11  H7  UNL     1      -2.354  11.610  -1.265  1.00  0.00     0.178 HD
BRANCH  10  12
HETATM   12  C14 UNL     1      -2.813   9.779  -1.072  1.00  0.00     0.139 C 
BRANCH  12  13
HETATM   13  C15 UNL     1      -2.032   8.537  -1.475  1.00  0.00     0.069 C 
BRANCH  13  14
HETATM   14  C16 UNL     1      -2.937   7.365  -1.548  1.00  0.00    -0.056 A 
HETATM   15  C17 UNL     1      -3.391   6.979  -2.822  1.00  0.00     0.007 A 
HETATM   16  C18 UNL     1      -4.192   5.887  -3.017  1.00  0.00     0.001 A 
HETATM   17  C19 UNL     1      -4.571   5.135  -1.941  1.00  0.00     0.000 A 
HETATM   18  C20 UNL     1      -4.153   5.468  -0.663  1.00  0.00     0.001 A 
HETATM   19  C21 UNL     1      -3.333   6.593  -0.509  1.00  0.00     0.007 A 
ENDBRANCH  13  14
ENDBRANCH  12  13
BRANCH  12  20
HETATM   20  C22 UNL     1      -2.480  10.207   0.349  1.00  0.00    -0.007 A 
HETATM   21  C23 UNL     1      -1.429  10.914   0.841  1.00  0.00     0.098 A 
HETATM   22  N8  UNL     1      -1.629  11.150   2.177  1.00  0.00    -0.365 N 
HETATM   23  C24 UNL     1      -2.791  10.606   2.552  1.00  0.00     0.043 A 
ATOM     24  H8  UNL     1      -0.991  11.660   2.789  1.00  0.00     0.165 HD
HETATM   25  C25 UNL     1      -3.471  10.535   3.756  1.00  0.00     0.030 A 
HETATM   26  C29 UNL     1      -3.324  10.024   1.439  1.00  0.00     0.000 A 
HETATM   27  C26 UNL     1      -4.702   9.874   3.850  1.00  0.00     0.002 A 
HETATM   28  C27 UNL     1      -5.220   9.294   2.709  1.00  0.00     0.001 A 
HETATM   29  C28 UNL     1      -4.529   9.367   1.495  1.00  0.00     0.014 A 
ENDBRANCH  12  20
ENDBRANCH  10  12
ENDBRANCH   7  10
BRANCH   4  30
HETATM   30  N3  UNL     1      -2.576  10.457  -6.377  1.00  0.00    -0.131 N 
ATOM     31  H3  UNL     1      -1.839  10.738  -7.023  1.00  0.00     0.205 HD
BRANCH  30  32
HETATM   32  N4  UNL     1      -3.264   9.416  -6.834  1.00  0.00    -0.297 N 
HETATM   33  C4  UNL     1      -2.992   8.169  -6.824  1.00  0.00     0.119 C 
ATOM     34  H4  UNL     1      -4.159   9.653  -7.264  1.00  0.00     0.186 HD
BRANCH  33  35
HETATM   35  C5  UNL     1      -3.844   7.122  -7.362  1.00  0.00    -0.019 A 
HETATM   36  C6  UNL     1      -4.140   5.985  -6.607  1.00  0.00     0.015 A 
HETATM   37  C7  UNL     1      -4.958   4.980  -7.078  1.00  0.00     0.030 A 
HETATM   38  C8  UNL     1      -5.530   5.065  -8.343  1.00  0.00     0.029 A 
HETATM   39  C11 UNL     1      -5.246   6.178  -9.098  1.00  0.00     0.030 A 
HETATM   40  C12 UNL     1      -4.413   7.195  -8.614  1.00  0.00     0.015 A 
BRANCH  38  41
HETATM   41  N5  UNL     1      -6.380   4.011  -8.786  1.00  0.00    -0.390 N 
HETATM   42  C9  UNL     1      -7.834   4.171  -8.774  1.00  0.00     0.149 C 
HETATM   43  C10 UNL     1      -5.825   2.753  -9.237  1.00  0.00     0.149 C 
ENDBRANCH  38  41
ENDBRANCH  33  35
ENDBRANCH  30  32
ENDBRANCH   4  30
BRANCH   1  44
HETATM   44  N1  UNL     1      -2.609  14.591  -4.576  1.00  0.00    -0.229 N 
HETATM   45  C1  UNL     1      -3.776  15.421  -4.616  1.00  0.00     0.165 C 
ATOM     46  H1  UNL     1      -1.705  15.043  -4.715  1.00  0.00     0.177 HD
ENDBRANCH   1  44
TORSDOF 10
ENDMDL
MODEL 2
REMARK VINA RESULT: -6.260128294      4.368      9.094
REMARK  10 active torsions:
REMARK  status: ('A' for Active; 'I' for Inactive)
REMARK    1  A    between atoms: N1_2  and  C2_4 
REMARK    2  A    between atoms: C3_7  and  N3_8 
REMARK    3  A    between atoms: N3_8  and  N4_10 
REMARK    4  A    between atoms: C4_12  and  C5_13 
REMARK    5  A    between atoms: C8_16  and  N5_17 
REMARK    6  A    between atoms: C13_24  and  N7_25 
REMARK    7  A    between atoms: N7_25  and  C14_27 
REMARK    8  A    between atoms: C14_27  and  C15_28 
REMARK    9  A    between atoms: C14_27  and  C22_35 
REMARK   10  A    between atoms: C15_28  and  C16_29 
ROOT
HETATM    1  C2  UNL     1      -4.552  13.991  -6.952  1.00  0.00     0.706 A 
HETATM    2  N2  UNL     1      -4.135  12.798  -6.456  1.00  0.00    -0.020 N 
ATOM      3  H2  UNL     1      -4.434  11.931  -6.904  1.00  0.00     0.203 HD
HETATM    4  C3  UNL     1      -3.331  12.748  -5.380  1.00  0.00     0.726 A 
HETATM    5  N6  UNL     1      -2.934  13.903  -4.783  1.00  0.00    -0.020 N 
ATOM      6  H6  UNL     1      -2.326  13.859  -3.966  1.00  0.00     0.203 HD
HETATM    7  C13 UNL     1      -3.338  15.130  -5.258  1.00  0.00     0.707 A 
HETATM    8  N9  UNL     1      -4.133  15.097  -6.326  1.00  0.00    -0.022 N 
ATOM      9  H9  UNL     1      -4.450  15.992  -6.700  1.00  0.00     0.203 HD
ENDROOT
BRANCH   7  10
HETATM   10  N7  UNL     1      -2.943  16.107  -4.693  1.00  0.00    -0.216 N 
ATOM     11  H7  UNL     1      -3.724  16.757  -4.785  1.00  0.00     0.178 HD
BRANCH  10  12
HETATM   12  C14 UNL     1      -2.007  16.841  -3.982  1.00  0.00     0.139 C 
BRANCH  12  13
HETATM   13  C15 UNL     1      -0.624  16.209  -3.913  1.00  0.00     0.069 C 
BRANCH  13  14
HETATM   14  C16 UNL     1      -0.313  15.811  -2.519  1.00  0.00    -0.056 A 
HETATM   15  C17 UNL     1      -0.703  14.521  -2.115  1.00  0.00     0.007 A 
HETATM   16  C18 UNL     1      -0.428  14.028  -0.869  1.00  0.00     0.001 A 
HETATM   17  C19 UNL     1       0.250  14.808   0.026  1.00  0.00     0.000 A 
HETATM   18  C20 UNL     1       0.659  16.085  -0.319  1.00  0.00     0.001 A 
HETATM   19  C21 UNL     1       0.358  16.551  -1.605  1.00  0.00     0.007 A 
ENDBRANCH  13  14
ENDBRANCH  12  13
BRANCH  12  20
HETATM   20  C22 UNL     1      -1.949  18.241  -4.571  1.00  0.00    -0.007 A 
HETATM   21  C23 UNL     1      -1.840  18.659  -5.860  1.00  0.00     0.098 A 
HETATM   22  N8  UNL     1      -1.946  20.026  -5.903  1.00  0.00    -0.365 N 
HETATM   23  C24 UNL     1      -2.121  20.493  -4.663  1.00  0.00     0.043 A 
ATOM     24  H8  UNL     1      -1.899  20.596  -6.747  1.00  0.00     0.165 HD
HETATM   25  C25 UNL     1      -2.277  21.761  -4.131  1.00  0.00     0.030 A 
HETATM   26  C29 UNL     1      -2.125  19.408  -3.836  1.00  0.00     0.000 A 
HETATM   27  C26 UNL     1      -2.440  21.950  -2.753  1.00  0.00     0.002 A 
HETATM   28  C27 UNL     1      -2.440  20.835  -1.938  1.00  0.00     0.001 A 
HETATM   29  C28 UNL     1      -2.282  19.555  -2.480  1.00  0.00     0.014 A 
ENDBRANCH  12  20
ENDBRANCH  10  12
ENDBRANCH   7  10
BRANCH   4  30
HETATM   30  N3  UNL     1      -2.942  11.626  -4.940  1.00  0.00    -0.131 N 
ATOM     31  H3  UNL     1      -2.450  11.088  -5.653  1.00  0.00     0.205 HD
BRANCH  30  32
HETATM   32  N4  UNL     1      -3.012  10.969  -3.786  1.00  0.00    -0.297 N 
HETATM   33  C4  UNL     1      -2.372  11.135  -2.694  1.00  0.00     0.119 C 
ATOM     34  H4  UNL     1      -3.690  10.207  -3.771  1.00  0.00     0.186 HD
BRANCH  33  35
HETATM   35  C5  UNL     1      -2.549  10.339  -1.492  1.00  0.00    -0.019 A 
HETATM   36  C6  UNL     1      -2.276  10.879  -0.232  1.00  0.00     0.015 A 
HETATM   37  C7  UNL     1      -2.450  10.160   0.931  1.00  0.00     0.030 A 
HETATM   38  C8  UNL     1      -2.911   8.848   0.892  1.00  0.00     0.029 A 
HETATM   39  C11 UNL     1      -3.182   8.303  -0.341  1.00  0.00     0.030 A 
HETATM   40  C12 UNL     1      -3.004   9.039  -1.519  1.00  0.00     0.015 A 
BRANCH  38  41
HETATM   41  N5  UNL     1      -3.089   8.145   2.119  1.00  0.00    -0.390 N 
HETATM   42  C9  UNL     1      -3.714   6.823   2.137  1.00  0.00     0.149 C 
HETATM   43  C10 UNL     1      -2.672   8.731   3.374  1.00  0.00     0.149 C 
ENDBRANCH  38  41
ENDBRANCH  33  35
ENDBRANCH  30  32
ENDBRANCH   4  30
BRANCH   1  44
HETATM   44  N1  UNL     1      -5.312  13.969  -7.976  1.00  0.00    -0.229 N 
HETATM   45  C1  UNL     1      -4.931  14.387  -9.292  1.00  0.00     0.165 C 
ATOM     46  H1  UNL     1      -6.266  13.628  -7.849  1.00  0.00     0.177 HD
ENDBRANCH   1  44
TORSDOF 10
ENDMDL
MODEL 3
REMARK VINA RESULT: -6.191318152      2.295      4.582
REMARK  10 active torsions:
REMARK  status: ('A' for Active; 'I' for Inactive)
REMARK    1  A    between atoms: N1_2  and  C2_4 
REMARK    2  A    between atoms: C3_7  and  N3_8 
REMARK    3  A    between atoms: N3_8  and  N4_10 
REMARK    4  A    between atoms: C4_12  and  C5_13 
REMARK    5  A    between atoms: C8_16  and  N5_17 
REMARK    6  A    between atoms: C13_24  and  N7_25 
REMARK    7  A    between atoms: N7_25  and  C14_27 
REMARK    8  A    between atoms: C14_27  and  C15_28 
REMARK    9  A    between atoms: C14_27  and  C22_35 
REMARK   10  A    between atoms: C15_28  and  C16_29 
ROOT
HETATM    1  C2  UNL     1       0.331   9.283  -5.834  1.00  0.00     0.706 A 
HETATM    2  N2  UNL     1      -0.725   9.101  -6.667  1.00  0.00    -0.020 N 
ATOM      3  H2  UNL     1      -0.563   8.924  -7.658  1.00  0.00     0.203 HD
HETATM    4  C3  UNL     1      -1.983   9.151  -6.197  1.00  0.00     0.726 A 
HETATM    5  N6  UNL     1      -2.199   9.389  -4.876  1.00  0.00    -0.020 N 
ATOM      6  H6  UNL     1      -3.156   9.428  -4.526  1.00  0.00     0.203 HD
HETATM    7  C13 UNL     1      -1.152   9.578  -4.003  1.00  0.00     0.707 A 
HETATM    8  N9  UNL     1       0.063   9.513  -4.543  1.00  0.00    -0.022 N 
ATOM      9  H9  UNL     1       0.859   9.652  -3.920  1.00  0.00     0.203 HD
ENDROOT
BRANCH   7  10
HETATM   10  N7  UNL     1      -1.412   9.771  -2.852  1.00  0.00    -0.216 N 
ATOM     11  H7  UNL     1      -1.009   8.958  -2.386  1.00  0.00     0.178 HD
BRANCH  10  12
HETATM   12  C14 UNL     1      -1.959  10.493  -1.803  1.00  0.00     0.139 C 
BRANCH  12  13
HETATM   13  C15 UNL     1      -2.467  11.877  -2.182  1.00  0.00     0.069 C 
BRANCH  13  14
HETATM   14  C16 UNL     1      -1.564  12.919  -1.638  1.00  0.00    -0.056 A 
HETATM   15  C17 UNL     1      -0.861  12.613  -0.459  1.00  0.00     0.007 A 
HETATM   16  C18 UNL     1       0.034  13.479   0.108  1.00  0.00     0.001 A 
HETATM   17  C19 UNL     1       0.262  14.690  -0.483  1.00  0.00     0.000 A 
HETATM   18  C20 UNL     1      -0.403  15.043  -1.646  1.00  0.00     0.001 A 
HETATM   19  C21 UNL     1      -1.309  14.128  -2.194  1.00  0.00     0.007 A 
ENDBRANCH  13  14
ENDBRANCH  12  13
BRANCH  12  20
HETATM   20  C22 UNL     1      -3.055   9.655  -1.166  1.00  0.00    -0.007 A 
HETATM   21  C23 UNL     1      -3.857   8.692  -1.692  1.00  0.00     0.098 A 
HETATM   22  N8  UNL     1      -4.616   8.139  -0.692  1.00  0.00    -0.365 N 
HETATM   23  C24 UNL     1      -4.315   8.731   0.468  1.00  0.00     0.043 A 
ATOM     24  H8  UNL     1      -5.301   7.393  -0.814  1.00  0.00     0.165 HD
HETATM   25  C25 UNL     1      -4.768   8.577   1.767  1.00  0.00     0.030 A 
HETATM   26  C29 UNL     1      -3.358   9.663   0.192  1.00  0.00     0.000 A 
HETATM   27  C26 UNL     1      -4.258   9.366   2.806  1.00  0.00     0.002 A 
HETATM   28  C27 UNL     1      -3.291  10.303   2.499  1.00  0.00     0.001 A 
HETATM   29  C28 UNL     1      -2.837  10.454   1.185  1.00  0.00     0.014 A 
ENDBRANCH  12  20
ENDBRANCH  10  12
ENDBRANCH   7  10
BRANCH   4  30
HETATM   30  N3  UNL     1      -2.955   8.967  -6.988  1.00  0.00    -0.131 N 
ATOM     31  H3  UNL     1      -3.028   9.713  -7.680  1.00  0.00     0.205 HD
BRANCH  30  32
HETATM   32  N4  UNL     1      -3.904   8.050  -7.147  1.00  0.00    -0.297 N 
HETATM   33  C4  UNL     1      -3.909   6.964  -7.819  1.00  0.00     0.119 C 
ATOM     34  H4  UNL     1      -4.773   8.246  -6.650  1.00  0.00     0.186 HD
BRANCH  33  35
HETATM   35  C5  UNL     1      -5.026   6.040  -7.907  1.00  0.00    -0.019 A 
HETATM   36  C6  UNL     1      -5.071   4.896  -7.106  1.00  0.00     0.015 A 
HETATM   37  C7  UNL     1      -6.123   4.006  -7.149  1.00  0.00     0.030 A 
HETATM   38  C8  UNL     1      -7.197   4.220  -8.007  1.00  0.00     0.029 A 
HETATM   39  C11 UNL     1      -7.166   5.340  -8.803  1.00  0.00     0.030 A 
HETATM   40  C12 UNL     1      -6.094   6.240  -8.753  1.00  0.00     0.015 A 
BRANCH  38  41
HETATM   41  N5  UNL     1      -8.271   3.282  -8.011  1.00  0.00    -0.390 N 
HETATM   42  C9  UNL     1      -8.981   2.956  -6.774  1.00  0.00     0.149 C 
HETATM   43  C10 UNL     1      -8.668   2.618  -9.233  1.00  0.00     0.149 C 
ENDBRANCH  38  41
ENDBRANCH  33  35
ENDBRANCH  30  32
ENDBRANCH   4  30
BRANCH   1  44
HETATM   44  N1  UNL     1       1.500   9.221  -6.342  1.00  0.00    -0.229 N 
HETATM   45  C1  UNL     1       2.723   9.380  -5.614  1.00  0.00     0.165 C 
ATOM     46  H1  UNL     1       1.568   9.044  -7.345  1.00  0.00     0.177 HD
ENDBRANCH   1  44
TORSDOF 10
ENDMDL
MODEL 4
REMARK VINA RESULT: -6.155351301      6.352      9.657
REMARK  10 active torsions:
REMARK  status: ('A' for Active; 'I' for Inactive)
REMARK    1  A    between atoms: N1_2  and  C2_4 
REMARK    2  A    between atoms: C3_7  and  N3_8 
REMARK    3  A    between atoms: N3_8  and  N4_10 
REMARK    4  A    between atoms: C4_12  and  C5_13 
REMARK    5  A    between atoms: C8_16  and  N5_17 
REMARK    6  A    between atoms: C13_24  and  N7_25 
REMARK    7  A    between atoms: N7_25  and  C14_27 
REMARK    8  A    between atoms: C14_27  and  C15_28 
REMARK    9  A    between atoms: C14_27  and  C22_35 
REMARK   10  A    between atoms: C15_28  and  C16_29 
ROOT
HETATM    1  C2  UNL     1      -3.808  21.228  -3.398  1.00  0.00     0.706 A 
HETATM    2  N2  UNL     1      -3.685  20.151  -4.215  1.00  0.00    -0.020 N 
ATOM      3  H2  UNL     1      -4.258  20.086  -5.057  1.00  0.00     0.203 HD
HETATM    4  C3  UNL     1      -2.816  19.168  -3.924  1.00  0.00     0.726 A 
HETATM    5  N6  UNL     1      -2.055  19.254  -2.801  1.00  0.00    -0.020 N 
ATOM      6  H6  UNL     1      -1.398  18.504  -2.585  1.00  0.00     0.203 HD
HETATM    7  C13 UNL     1      -2.152  20.331  -1.951  1.00  0.00     0.707 A 
HETATM    8  N9  UNL     1      -3.035  21.263  -2.307  1.00  0.00    -0.022 N 
ATOM      9  H9  UNL     1      -3.131  22.073  -1.694  1.00  0.00     0.203 HD
ENDROOT
BRANCH   7  10
HETATM   10  N7  UNL     1      -1.446  20.350  -0.987  1.00  0.00    -0.216 N 
ATOM     11  H7  UNL     1      -1.146  21.323  -0.940  1.00  0.00     0.178 HD
BRANCH  10  12
HETATM   12  C14 UNL     1      -0.810  19.774   0.102  1.00  0.00     0.139 C 
BRANCH  12  13
HETATM   13  C15 UNL     1       0.566  19.197  -0.198  1.00  0.00     0.069 C 
BRANCH  13  14
HETATM   14  C16 UNL     1       0.528  17.717  -0.118  1.00  0.00    -0.056 A 
HETATM   15  C17 UNL     1       0.024  17.024  -1.233  1.00  0.00     0.007 A 
HETATM   16  C18 UNL     1      -0.017  15.657  -1.292  1.00  0.00     0.001 A 
HETATM   17  C19 UNL     1       0.447  14.928  -0.233  1.00  0.00     0.000 A 
HETATM   18  C20 UNL     1       0.955  15.558   0.890  1.00  0.00     0.001 A 
HETATM   19  C21 UNL     1       0.980  16.958   0.908  1.00  0.00     0.007 A 
ENDBRANCH  13  14
ENDBRANCH  12  13
BRANCH  12  20
HETATM   20  C22 UNL     1      -0.747  20.804   1.218  1.00  0.00    -0.007 A 
HETATM   21  C23 UNL     1      -0.565  22.151   1.177  1.00  0.00     0.098 A 
HETATM   22  N8  UNL     1      -0.701  22.665   2.441  1.00  0.00    -0.365 N 
HETATM   23  C24 UNL     1      -0.968  21.672   3.294  1.00  0.00     0.043 A 
ATOM     24  H8  UNL     1      -0.613  23.650   2.691  1.00  0.00     0.165 HD
HETATM   25  C25 UNL     1      -1.189  21.616   4.660  1.00  0.00     0.030 A 
HETATM   26  C29 UNL     1      -0.999  20.524   2.557  1.00  0.00     0.000 A 
HETATM   27  C26 UNL     1      -1.446  20.397   5.299  1.00  0.00     0.002 A 
HETATM   28  C27 UNL     1      -1.472  19.250   4.530  1.00  0.00     0.001 A 
HETATM   29  C28 UNL     1      -1.248  19.311   3.151  1.00  0.00     0.014 A 
ENDBRANCH  12  20
ENDBRANCH  10  12
ENDBRANCH   7  10
BRANCH   4  30
HETATM   30  N3  UNL     1      -2.707  18.176  -4.705  1.00  0.00    -0.131 N 
ATOM     31  H3  UNL     1      -2.733  18.460  -5.684  1.00  0.00     0.205 HD
BRANCH  30  32
HETATM   32  N4  UNL     1      -2.569  16.860  -4.574  1.00  0.00    -0.297 N 
HETATM   33  C4  UNL     1      -3.444  15.933  -4.511  1.00  0.00     0.119 C 
ATOM     34  H4  UNL     1      -1.603  16.538  -4.514  1.00  0.00     0.186 HD
BRANCH  33  35
HETATM   35  C5  UNL     1      -3.154  14.517  -4.368  1.00  0.00    -0.019 A 
HETATM   36  C6  UNL     1      -2.910  13.963  -3.109  1.00  0.00     0.015 A 
HETATM   37  C7  UNL     1      -2.649  12.621  -2.933  1.00  0.00     0.030 A 
HETATM   38  C8  UNL     1      -2.620  11.755  -4.021  1.00  0.00     0.029 A 
HETATM   39  C11 UNL     1      -2.858  12.286  -5.266  1.00  0.00     0.030 A 
HETATM   40  C12 UNL     1      -3.122  13.651  -5.438  1.00  0.00     0.015 A 
BRANCH  38  41
HETATM   41  N5  UNL     1      -2.360  10.372  -3.793  1.00  0.00    -0.390 N 
HETATM   42  C9  UNL     1      -2.752   9.737  -2.534  1.00  0.00     0.149 C 
HETATM   43  C10 UNL     1      -1.685   9.572  -4.792  1.00  0.00     0.149 C 
ENDBRANCH  38  41
ENDBRANCH  33  35
ENDBRANCH  30  32
ENDBRANCH   4  30
BRANCH   1  44
HETATM   44  N1  UNL     1      -4.649  22.127  -3.733  1.00  0.00    -0.229 N 
HETATM   45  C1  UNL     1      -5.180  22.308  -5.051  1.00  0.00     0.165 C 
ATOM     46  H1  UNL     1      -4.969  22.767  -3.005  1.00  0.00     0.177 HD
ENDBRANCH   1  44
TORSDOF 10
ENDMDL
MODEL 5
REMARK VINA RESULT: -6.114534871      2.540      6.654
REMARK  10 active torsions:
REMARK  status: ('A' for Active; 'I' for Inactive)
REMARK    1  A    between atoms: N1_2  and  C2_4 
REMARK    2  A    between atoms: C3_7  and  N3_8 
REMARK    3  A    between atoms: N3_8  and  N4_10 
REMARK    4  A    between atoms: C4_12  and  C5_13 
REMARK    5  A    between atoms: C8_16  and  N5_17 
REMARK    6  A    between atoms: C13_24  and  N7_25 
REMARK    7  A    between atoms: N7_25  and  C14_27 
REMARK    8  A    between atoms: C14_27  and  C15_28 
REMARK    9  A    between atoms: C14_27  and  C22_35 
REMARK   10  A    between atoms: C15_28  and  C16_29 
ROOT
HETATM    1  C2  UNL     1      -4.221   9.657   1.104  1.00  0.00     0.706 A 
HETATM    2  N2  UNL     1      -4.682   8.623   0.355  1.00  0.00    -0.020 N 
ATOM      3  H2  UNL     1      -5.365   7.977   0.750  1.00  0.00     0.203 HD
HETATM    4  C3  UNL     1      -4.246   8.442  -0.903  1.00  0.00     0.726 A 
HETATM    5  N6  UNL     1      -3.334   9.302  -1.429  1.00  0.00    -0.020 N 
ATOM      6  H6  UNL     1      -3.005   9.159  -2.383  1.00  0.00     0.203 HD
HETATM    7  C13 UNL     1      -2.845  10.361  -0.699  1.00  0.00     0.707 A 
HETATM    8  N9  UNL     1      -3.324  10.473   0.539  1.00  0.00    -0.022 N 
ATOM      9  H9  UNL     1      -2.979  11.249   1.104  1.00  0.00     0.203 HD
ENDROOT
BRANCH   7  10
HETATM   10  N7  UNL     1      -2.054  11.086  -1.225  1.00  0.00    -0.216 N 
ATOM     11  H7  UNL     1      -1.172  10.588  -1.108  1.00  0.00     0.178 HD
BRANCH  10  12
HETATM   12  C14 UNL     1      -1.677  12.233  -1.907  1.00  0.00     0.139 C 
BRANCH  12  13
HETATM   13  C15 UNL     1      -0.185  12.534  -1.867  1.00  0.00     0.069 C 
BRANCH  13  14
HETATM   14  C16 UNL     1       0.056  13.834  -1.198  1.00  0.00    -0.056 A 
HETATM   15  C17 UNL     1       0.488  13.800   0.140  1.00  0.00     0.007 A 
HETATM   16  C18 UNL     1       0.787  14.935   0.844  1.00  0.00     0.001 A 
HETATM   17  C19 UNL     1       0.665  16.153   0.236  1.00  0.00     0.000 A 
HETATM   18  C20 UNL     1       0.244  16.244  -1.081  1.00  0.00     0.001 A 
HETATM   19  C21 UNL     1      -0.050  15.059  -1.766  1.00  0.00     0.007 A 
ENDBRANCH  13  14
ENDBRANCH  12  13
BRANCH  12  20
HETATM   20  C22 UNL     1      -2.183  12.128  -3.337  1.00  0.00    -0.007 A 
HETATM   21  C23 UNL     1      -2.285  11.056  -4.167  1.00  0.00     0.098 A 
HETATM   22  N8  UNL     1      -2.913  11.439  -5.324  1.00  0.00    -0.365 N 
HETATM   23  C24 UNL     1      -3.216  12.739  -5.252  1.00  0.00     0.043 A 
ATOM     24  H8  UNL     1      -3.117  10.829  -6.116  1.00  0.00     0.165 HD
HETATM   25  C25 UNL     1      -3.834  13.628  -6.115  1.00  0.00     0.030 A 
HETATM   26  C29 UNL     1      -2.774  13.174  -4.037  1.00  0.00     0.000 A 
HETATM   27  C26 UNL     1      -4.014  14.970  -5.759  1.00  0.00     0.002 A 
HETATM   28  C27 UNL     1      -3.557  15.385  -4.524  1.00  0.00     0.001 A 
HETATM   29  C28 UNL     1      -2.933  14.483  -3.655  1.00  0.00     0.014 A 
ENDBRANCH  12  20
ENDBRANCH  10  12
ENDBRANCH   7  10
BRANCH   4  30
HETATM   30  N3  UNL     1      -4.697   7.478  -1.590  1.00  0.00    -0.131 N 
ATOM     31  H3  UNL     1      -5.233   6.825  -1.021  1.00  0.00     0.205 HD
BRANCH  30  32
HETATM   32  N4  UNL     1      -4.649   7.101  -2.864  1.00  0.00    -0.297 N 
HETATM   33  C4  UNL     1      -3.859   6.299  -3.466  1.00  0.00     0.119 C 
ATOM     34  H4  UNL     1      -5.363   7.521  -3.459  1.00  0.00     0.186 HD
BRANCH  33  35
HETATM   35  C5  UNL     1      -3.919   5.969  -4.880  1.00  0.00    -0.019 A 
HETATM   36  C6  UNL     1      -4.351   4.709  -5.300  1.00  0.00     0.015 A 
HETATM   37  C7  UNL     1      -4.438   4.366  -6.633  1.00  0.00     0.030 A 
HETATM   38  C8  UNL     1      -4.094   5.280  -7.624  1.00  0.00     0.029 A 
HETATM   39  C11 UNL     1      -3.666   6.524  -7.225  1.00  0.00     0.030 A 
HETATM   40  C12 UNL     1      -3.580   6.865  -5.869  1.00  0.00     0.015 A 
BRANCH  38  41
HETATM   41  N5  UNL     1      -4.212   4.890  -8.990  1.00  0.00    -0.390 N 
HETATM   42  C9  UNL     1      -4.726   3.567  -9.345  1.00  0.00     0.149 C 
HETATM   43  C10 UNL     1      -3.807   5.785 -10.052  1.00  0.00     0.149 C 
ENDBRANCH  38  41
ENDBRANCH  33  35
ENDBRANCH  30  32
ENDBRANCH   4  30
BRANCH   1  44
HETATM   44  N1  UNL     1      -4.677   9.774   2.290  1.00  0.00    -0.229 N 
HETATM   45  C1  UNL     1      -4.193  10.701   3.269  1.00  0.00     0.165 C 
ATOM     46  H1  UNL     1      -5.445   9.159   2.562  1.00  0.00     0.177 HD
ENDBRANCH   1  44
TORSDOF 10
ENDMDL
