MODEL 1
REMARK VINA RESULT: -5.487500314      0.000      0.000
REMARK  3 active torsions:
REMARK  status: ('A' for Active; 'I' for Inactive)
REMARK    1  A    between atoms: C2_2  and  O1_5 
REMARK    2  A    between atoms: O1_5  and  N1_6 
REMARK    3  A    between atoms: C4_8  and  C5_9 
ROOT
HETATM    1  C5  UNL     1       2.260   3.918   6.951  1.00  0.00     0.019 A 
HETATM    2  C6  UNL     1       3.094   4.969   6.646  1.00  0.00     0.017 A 
HETATM    3  C7  UNL     1       4.325   5.057   7.260  1.00  0.00     0.018 A 
HETATM    4  C8  UNL     1       4.678   4.079   8.166  1.00  0.00     0.089 A 
HETATM    5  N2  UNL     1       3.868   3.040   8.474  1.00  0.00    -0.356 N 
ATOM      6  H2  UNL     1       4.156   2.332   9.148  1.00  0.00     0.166 HD
HETATM    7  C9  UNL     1       2.668   2.969   7.865  1.00  0.00     0.112 A 
HETATM    8  S1  UNL     1       1.686   1.731   8.223  1.00  0.00    -0.059 SA
ENDROOT
BRANCH   1   9
HETATM    9  C4  UNL     1       0.969   3.829   6.303  1.00  0.00     0.128 C 
HETATM   10  N1  UNL     1       0.853   4.167   5.079  1.00  0.00    -0.275 N 
ATOM     11  H1  UNL     1       1.682   4.495   4.583  1.00  0.00     0.193 HD
BRANCH  10  12
HETATM   12  O1  UNL     1      -0.321   4.110   4.409  1.00  0.00    -0.254 OA
BRANCH  12  13
HETATM   13  C2  UNL     1      -0.482   4.639   3.105  1.00  0.00     0.157 C 
HETATM   14  C1  UNL     1       0.451   5.808   2.980  1.00  0.00     0.066 C 
HETATM   15  C3  UNL     1      -1.927   5.024   2.950  1.00  0.00     0.066 C 
HETATM   16 CL1  UNL     1      -0.135   3.386   1.876  1.00  0.00    -0.086 Cl
ENDBRANCH  12  13
ENDBRANCH  10  12
ENDBRANCH   1   9
TORSDOF 3
ENDMDL
MODEL 2
REMARK VINA RESULT: -5.460781727      0.889      1.209
REMARK  3 active torsions:
REMARK  status: ('A' for Active; 'I' for Inactive)
REMARK    1  A    between atoms: C2_2  and  O1_5 
REMARK    2  A    between atoms: O1_5  and  N1_6 
REMARK    3  A    between atoms: C4_8  and  C5_9 
ROOT
HETATM    1  C5  UNL     1       2.241   3.914   6.911  1.00  0.00     0.019 A 
HETATM    2  C6  UNL     1       3.066   4.967   6.589  1.00  0.00     0.017 A 
HETATM    3  C7  UNL     1       4.297   5.076   7.200  1.00  0.00     0.018 A 
HETATM    4  C8  UNL     1       4.659   4.115   8.120  1.00  0.00     0.089 A 
HETATM    5  N2  UNL     1       3.858   3.074   8.446  1.00  0.00    -0.356 N 
ATOM      6  H2  UNL     1       4.153   2.379   9.131  1.00  0.00     0.166 HD
HETATM    7  C9  UNL     1       2.658   2.983   7.839  1.00  0.00     0.112 A 
HETATM    8  S1  UNL     1       1.687   1.744   8.218  1.00  0.00    -0.059 SA
ENDROOT
BRANCH   1   9
HETATM    9  C4  UNL     1       0.950   3.805   6.267  1.00  0.00     0.128 C 
HETATM   10  N1  UNL     1       0.813   4.191   5.059  1.00  0.00    -0.275 N 
ATOM     11  H1  UNL     1       1.626   4.571   4.574  1.00  0.00     0.193 HD
BRANCH  10  12
HETATM   12  O1  UNL     1      -0.362   4.119   4.393  1.00  0.00    -0.254 OA
BRANCH  12  13
HETATM   13  C2  UNL     1      -0.560   4.718   3.126  1.00  0.00     0.157 C 
HETATM   14  C1  UNL     1      -1.983   5.192   3.074  1.00  0.00     0.066 C 
HETATM   15  C3  UNL     1      -0.249   3.680   2.083  1.00  0.00     0.066 C 
HETATM   16 CL1  UNL     1       0.591   6.067   2.887  1.00  0.00    -0.086 Cl
ENDBRANCH  12  13
ENDBRANCH  10  12
ENDBRANCH   1   9
TORSDOF 3
ENDMDL
MODEL 3
REMARK VINA RESULT: -5.459525328      0.911      1.249
REMARK  3 active torsions:
REMARK  status: ('A' for Active; 'I' for Inactive)
REMARK    1  A    between atoms: C2_2  and  O1_5 
REMARK    2  A    between atoms: O1_5  and  N1_6 
REMARK    3  A    between atoms: C4_8  and  C5_9 
ROOT
HETATM    1  C5  UNL     1       2.211   3.958   6.893  1.00  0.00     0.019 A 
HETATM    2  C6  UNL     1       3.069   4.991   6.593  1.00  0.00     0.017 A 
HETATM    3  C7  UNL     1       4.292   5.060   7.223  1.00  0.00     0.018 A 
HETATM    4  C8  UNL     1       4.614   4.082   8.141  1.00  0.00     0.089 A 
HETATM    5  N2  UNL     1       3.779   3.062   8.445  1.00  0.00    -0.356 N 
ATOM      6  H2  UNL     1       4.045   2.353   9.128  1.00  0.00     0.166 HD
HETATM    7  C9  UNL     1       2.587   3.008   7.819  1.00  0.00     0.112 A 
HETATM    8  S1  UNL     1       1.577   1.793   8.172  1.00  0.00    -0.059 SA
ENDROOT
BRANCH   1   9
HETATM    9  C4  UNL     1       0.927   3.889   6.228  1.00  0.00     0.128 C 
HETATM   10  N1  UNL     1       0.850   4.135   4.979  1.00  0.00    -0.275 N 
ATOM     11  H1  UNL     1       1.705   4.376   4.476  1.00  0.00     0.193 HD
BRANCH  10  12
HETATM   12  O1  UNL     1      -0.314   4.090   4.291  1.00  0.00    -0.254 OA
BRANCH  12  13
HETATM   13  C2  UNL     1      -0.490   4.739   3.045  1.00  0.00     0.157 C 
HETATM   14  C1  UNL     1      -0.248   3.717   1.972  1.00  0.00     0.066 C 
HETATM   15  C3  UNL     1       0.482   5.885   2.992  1.00  0.00     0.066 C 
HETATM   16 CL1  UNL     1      -2.135   5.435   2.931  1.00  0.00    -0.086 Cl
ENDBRANCH  12  13
ENDBRANCH  10  12
ENDBRANCH   1   9
TORSDOF 3
ENDMDL
MODEL 4
REMARK VINA RESULT: -5.391139516      2.852      3.405
REMARK  3 active torsions:
REMARK  status: ('A' for Active; 'I' for Inactive)
REMARK    1  A    between atoms: C2_2  and  O1_5 
REMARK    2  A    between atoms: O1_5  and  N1_6 
REMARK    3  A    between atoms: C4_8  and  C5_9 
ROOT
HETATM    1  C5  UNL     1      -0.028   3.339   6.865  1.00  0.00     0.019 A 
HETATM    2  C6  UNL     1       1.135   2.697   7.223  1.00  0.00     0.017 A 
HETATM    3  C7  UNL     1       1.090   1.690   8.163  1.00  0.00     0.018 A 
HETATM    4  C8  UNL     1      -0.130   1.361   8.714  1.00  0.00     0.089 A 
HETATM    5  N2  UNL     1      -1.280   1.985   8.371  1.00  0.00    -0.356 N 
ATOM      6  H2  UNL     1      -2.168   1.720   8.797  1.00  0.00     0.166 HD
HETATM    7  C9  UNL     1      -1.219   2.967   7.450  1.00  0.00     0.112 A 
HETATM    8  S1  UNL     1      -2.587   3.724   7.028  1.00  0.00    -0.059 SA
ENDROOT
BRANCH   1   9
HETATM    9  C4  UNL     1       0.024   4.396   5.877  1.00  0.00     0.128 C 
HETATM   10  N1  UNL     1       0.496   4.152   4.717  1.00  0.00    -0.275 N 
ATOM     11  H1  UNL     1       0.828   3.209   4.514  1.00  0.00     0.193 HD
BRANCH  10  12
HETATM   12  O1  UNL     1       0.575   5.089   3.744  1.00  0.00    -0.254 OA
BRANCH  12  13
HETATM   13  C2  UNL     1      -0.184   5.017   2.551  1.00  0.00     0.157 C 
HETATM   14  C1  UNL     1      -0.129   3.595   2.073  1.00  0.00     0.066 C 
HETATM   15  C3  UNL     1       0.420   5.988   1.574  1.00  0.00     0.066 C 
HETATM   16 CL1  UNL     1      -1.867   5.546   2.850  1.00  0.00    -0.086 Cl
ENDBRANCH  12  13
ENDBRANCH  10  12
ENDBRANCH   1   9
TORSDOF 3
ENDMDL
MODEL 5
REMARK VINA RESULT: -5.269226471      2.741      3.304
REMARK  3 active torsions:
REMARK  status: ('A' for Active; 'I' for Inactive)
REMARK    1  A    between atoms: C2_2  and  O1_5 
REMARK    2  A    between atoms: O1_5  and  N1_6 
REMARK    3  A    between atoms: C4_8  and  C5_9 
ROOT
HETATM    1  C5  UNL     1       0.339   3.448   6.730  1.00  0.00     0.019 A 
HETATM    2  C6  UNL     1       1.395   2.717   7.222  1.00  0.00     0.017 A 
HETATM    3  C7  UNL     1       1.161   1.735   8.160  1.00  0.00     0.018 A 
HETATM    4  C8  UNL     1      -0.136   1.520   8.574  1.00  0.00     0.089 A 
HETATM    5  N2  UNL     1      -1.184   2.231   8.099  1.00  0.00    -0.356 N 
ATOM      6  H2  UNL     1      -2.133   2.049   8.425  1.00  0.00     0.166 HD
HETATM    7  C9  UNL     1      -0.938   3.188   7.182  1.00  0.00     0.112 A 
HETATM    8  S1  UNL     1      -2.181   4.048   6.603  1.00  0.00    -0.059 SA
ENDROOT
BRANCH   1   9
HETATM    9  C4  UNL     1       0.590   4.479   5.745  1.00  0.00     0.128 C 
HETATM   10  N1  UNL     1       0.544   4.189   4.504  1.00  0.00    -0.275 N 
ATOM     11  H1  UNL     1       0.331   3.228   4.235  1.00  0.00     0.193 HD
BRANCH  10  12
HETATM   12  O1  UNL     1       0.768   5.099   3.528  1.00  0.00    -0.254 OA
BRANCH  12  13
HETATM   13  C2  UNL     1      -0.002   5.149   2.340  1.00  0.00     0.157 C 
HETATM   14  C1  UNL     1      -1.407   5.503   2.735  1.00  0.00     0.066 C 
HETATM   15  C3  UNL     1       0.099   3.801   1.681  1.00  0.00     0.066 C 
HETATM   16 CL1  UNL     1       0.683   6.347   1.203  1.00  0.00    -0.086 Cl
ENDBRANCH  12  13
ENDBRANCH  10  12
ENDBRANCH   1   9
TORSDOF 3
ENDMDL
