MODEL 1
REMARK VINA RESULT: -6.508429161      0.000      0.000
REMARK  4 active torsions:
REMARK  status: ('A' for Active; 'I' for Inactive)
REMARK    1  A    between atoms: C4_4  and  C5_5 
REMARK    2  A    between atoms: C5_5  and  N1_6 
REMARK    3  A    between atoms: C5_5  and  N2_15 
REMARK    4  A    between atoms: N1_6  and  C6_8 
ROOT
HETATM    1  C5  UNL     1      -0.695   3.990   6.555  1.00  0.00     0.193 C 
ENDROOT
BRANCH   1   2
HETATM    2  C4  UNL     1      -1.125   4.553   5.218  1.00  0.00     0.033 A 
HETATM    3  C2  UNL     1      -0.168   4.380   4.070  1.00  0.00    -0.010 A 
HETATM    4  C1  UNL     1      -0.767   4.136   2.696  1.00  0.00     0.010 C 
HETATM    5  C3  UNL     1      -0.466   5.762   4.671  1.00  0.00     0.013 A 
ENDBRANCH   1   2
BRANCH   1   6
HETATM    6  N1  UNL     1       0.403   3.063   6.390  1.00  0.00    -0.368 N 
ATOM      7  H1  UNL     1       0.263   2.270   5.764  1.00  0.00     0.161 HD
BRANCH   6   8
HETATM    8  C6  UNL     1       1.658   3.178   7.034  1.00  0.00     0.029 A 
HETATM    9  C7  UNL     1       2.199   2.103   7.705  1.00  0.00     0.032 A 
HETATM   10  C8  UNL     1       3.418   2.206   8.347  1.00  0.00     0.044 A 
HETATM   11  C9  UNL     1       4.139   3.383   8.345  1.00  0.00     0.116 A 
HETATM   12  F1  UNL     1       5.318   3.512   8.957  1.00  0.00    -0.206 F 
HETATM   13  C10 UNL     1       3.598   4.461   7.674  1.00  0.00     0.044 A 
HETATM   14  C11 UNL     1       2.385   4.363   7.032  1.00  0.00     0.032 A 
ENDBRANCH   6   8
ENDBRANCH   1   6
BRANCH   1  15
HETATM   15  N2  UNL     1      -1.768   3.402   7.289  1.00  0.00    -0.330 N 
HETATM   16  C12 UNL     1      -3.040   3.848   7.330  1.00  0.00     0.111 A 
HETATM   17  C13 UNL     1      -3.759   3.015   8.143  1.00  0.00     0.106 A 
HETATM   18  N3  UNL     1      -2.945   2.065   8.601  1.00  0.00    -0.361 N 
HETATM   19  C14 UNL     1      -1.726   2.308   8.075  1.00  0.00     0.184 A 
ATOM     20  H3  UNL     1      -3.193   1.301   9.229  1.00  0.00     0.166 HD
ENDBRANCH   1  15
TORSDOF 4
ENDMDL
MODEL 2
REMARK VINA RESULT: -6.338837724      1.299      1.613
REMARK  4 active torsions:
REMARK  status: ('A' for Active; 'I' for Inactive)
REMARK    1  A    between atoms: C4_4  and  C5_5 
REMARK    2  A    between atoms: C5_5  and  N1_6 
REMARK    3  A    between atoms: C5_5  and  N2_15 
REMARK    4  A    between atoms: N1_6  and  C6_8 
ROOT
HETATM    1  C5  UNL     1      -0.558   4.795   5.647  1.00  0.00     0.193 C 
ENDROOT
BRANCH   1   2
HETATM    2  C4  UNL     1      -0.599   5.041   4.154  1.00  0.00     0.033 A 
HETATM    3  C2  UNL     1       0.331   4.217   3.306  1.00  0.00    -0.010 A 
HETATM    4  C1  UNL     1      -0.171   3.790   1.938  1.00  0.00     0.010 C 
HETATM    5  C3  UNL     1       0.527   5.730   3.481  1.00  0.00     0.013 A 
ENDBRANCH   1   2
BRANCH   1   6
HETATM    6  N1  UNL     1       0.171   3.581   5.945  1.00  0.00    -0.368 N 
ATOM      7  H1  UNL     1      -0.199   2.705   5.576  1.00  0.00     0.161 HD
BRANCH   6   8
HETATM    8  C6  UNL     1       1.359   3.522   6.713  1.00  0.00     0.029 A 
HETATM    9  C7  UNL     1       1.608   2.441   7.529  1.00  0.00     0.032 A 
HETATM   10  C8  UNL     1       2.759   2.376   8.292  1.00  0.00     0.044 A 
HETATM   11  C9  UNL     1       3.699   3.387   8.268  1.00  0.00     0.116 A 
HETATM   12  F1  UNL     1       4.818   3.354   8.994  1.00  0.00    -0.206 F 
HETATM   13  C10 UNL     1       3.449   4.472   7.452  1.00  0.00     0.044 A 
HETATM   14  C11 UNL     1       2.305   4.540   6.690  1.00  0.00     0.032 A 
ENDBRANCH   6   8
ENDBRANCH   1   6
BRANCH   1  15
HETATM   15  N2  UNL     1      -1.850   4.791   6.252  1.00  0.00    -0.330 N 
HETATM   16  C12 UNL     1      -2.364   3.809   7.018  1.00  0.00     0.111 A 
HETATM   17  C13 UNL     1      -3.624   4.182   7.404  1.00  0.00     0.106 A 
HETATM   18  N3  UNL     1      -3.887   5.380   6.884  1.00  0.00    -0.361 N 
HETATM   19  C14 UNL     1      -2.797   5.748   6.179  1.00  0.00     0.184 A 
ATOM     20  H3  UNL     1      -4.747   5.916   6.996  1.00  0.00     0.166 HD
ENDBRANCH   1  15
TORSDOF 4
ENDMDL
MODEL 3
REMARK VINA RESULT: -6.325278193      1.290      1.947
REMARK  4 active torsions:
REMARK  status: ('A' for Active; 'I' for Inactive)
REMARK    1  A    between atoms: C4_4  and  C5_5 
REMARK    2  A    between atoms: C5_5  and  N1_6 
REMARK    3  A    between atoms: C5_5  and  N2_15 
REMARK    4  A    between atoms: N1_6  and  C6_8 
ROOT
HETATM    1  C5  UNL     1      -0.555   4.779   5.641  1.00  0.00     0.193 C 
ENDROOT
BRANCH   1   2
HETATM    2  C4  UNL     1      -0.599   5.025   4.148  1.00  0.00     0.033 A 
HETATM    3  C2  UNL     1       0.326   4.198   3.297  1.00  0.00    -0.010 A 
HETATM    4  C1  UNL     1      -0.182   3.773   1.930  1.00  0.00     0.010 C 
HETATM    5  C3  UNL     1       0.528   5.711   3.472  1.00  0.00     0.013 A 
ENDBRANCH   1   2
BRANCH   1   6
HETATM    6  N1  UNL     1       0.176   3.566   5.937  1.00  0.00    -0.368 N 
ATOM      7  H1  UNL     1      -0.185   2.691   5.556  1.00  0.00     0.161 HD
BRANCH   6   8
HETATM    8  C6  UNL     1       1.354   3.506   6.719  1.00  0.00     0.029 A 
HETATM    9  C7  UNL     1       2.271   4.533   6.678  1.00  0.00     0.032 A 
HETATM   10  C8  UNL     1       3.430   4.481   7.428  1.00  0.00     0.044 A 
HETATM   11  C9  UNL     1       3.717   3.404   8.242  1.00  0.00     0.116 A 
HETATM   12  F1  UNL     1       4.828   3.325   8.977  1.00  0.00    -0.206 F 
HETATM   13  C10 UNL     1       2.800   2.373   8.282  1.00  0.00     0.044 A 
HETATM   14  C11 UNL     1       1.643   2.421   7.538  1.00  0.00     0.032 A 
ENDBRANCH   6   8
ENDBRANCH   1   6
BRANCH   1  15
HETATM   15  N2  UNL     1      -1.847   4.773   6.248  1.00  0.00    -0.330 N 
HETATM   16  C12 UNL     1      -2.349   3.800   7.035  1.00  0.00     0.111 A 
HETATM   17  C13 UNL     1      -3.612   4.167   7.414  1.00  0.00     0.106 A 
HETATM   18  N3  UNL     1      -3.889   5.351   6.870  1.00  0.00    -0.361 N 
HETATM   19  C14 UNL     1      -2.804   5.717   6.157  1.00  0.00     0.184 A 
ATOM     20  H3  UNL     1      -4.755   5.880   6.973  1.00  0.00     0.166 HD
ENDBRANCH   1  15
TORSDOF 4
ENDMDL
MODEL 4
REMARK VINA RESULT: -6.151830524      2.514      4.524
REMARK  4 active torsions:
REMARK  status: ('A' for Active; 'I' for Inactive)
REMARK    1  A    between atoms: C4_4  and  C5_5 
REMARK    2  A    between atoms: C5_5  and  N1_6 
REMARK    3  A    between atoms: C5_5  and  N2_15 
REMARK    4  A    between atoms: N1_6  and  C6_8 
ROOT
HETATM    1  C5  UNL     1      -0.224   4.698   3.942  1.00  0.00     0.193 C 
ENDROOT
BRANCH   1   2
HETATM    2  C4  UNL     1      -1.513   5.421   4.264  1.00  0.00     0.033 A 
HETATM    3  C2  UNL     1      -2.372   4.826   5.346  1.00  0.00    -0.010 A 
HETATM    4  C1  UNL     1      -3.125   5.792   6.245  1.00  0.00     0.010 C 
HETATM    5  C3  UNL     1      -2.816   4.831   3.875  1.00  0.00     0.013 A 
ENDBRANCH   1   2
BRANCH   1   6
HETATM    6  N1  UNL     1       0.887   5.293   4.653  1.00  0.00    -0.368 N 
ATOM      7  H1  UNL     1       1.220   6.203   4.334  1.00  0.00     0.161 HD
BRANCH   6   8
HETATM    8  C6  UNL     1       1.546   4.704   5.759  1.00  0.00     0.029 A 
HETATM    9  C7  UNL     1       2.735   5.223   6.219  1.00  0.00     0.032 A 
HETATM   10  C8  UNL     1       3.393   4.650   7.291  1.00  0.00     0.044 A 
HETATM   11  C9  UNL     1       2.890   3.540   7.939  1.00  0.00     0.116 A 
HETATM   12  F1  UNL     1       3.502   2.964   8.975  1.00  0.00    -0.206 F 
HETATM   13  C10 UNL     1       1.698   3.018   7.477  1.00  0.00     0.044 A 
HETATM   14  C11 UNL     1       1.039   3.586   6.411  1.00  0.00     0.032 A 
ENDBRANCH   6   8
ENDBRANCH   1   6
BRANCH   1  15
HETATM   15  N2  UNL     1       0.038   4.611   2.542  1.00  0.00    -0.330 N 
HETATM   16  C12 UNL     1       0.369   5.636   1.732  1.00  0.00     0.111 A 
HETATM   17  C13 UNL     1       0.535   5.143   0.465  1.00  0.00     0.106 A 
HETATM   18  N3  UNL     1       0.311   3.829   0.491  1.00  0.00    -0.361 N 
HETATM   19  C14 UNL     1       0.007   3.509   1.766  1.00  0.00     0.184 A 
ATOM     20  H3  UNL     1       0.360   3.188  -0.301  1.00  0.00     0.166 HD
ENDBRANCH   1  15
TORSDOF 4
ENDMDL
MODEL 5
REMARK VINA RESULT: -6.149500909      2.520      4.419
REMARK  4 active torsions:
REMARK  status: ('A' for Active; 'I' for Inactive)
REMARK    1  A    between atoms: C4_4  and  C5_5 
REMARK    2  A    between atoms: C5_5  and  N1_6 
REMARK    3  A    between atoms: C5_5  and  N2_15 
REMARK    4  A    between atoms: N1_6  and  C6_8 
ROOT
HETATM    1  C5  UNL     1      -0.201   4.702   3.951  1.00  0.00     0.193 C 
ENDROOT
BRANCH   1   2
HETATM    2  C4  UNL     1      -1.489   5.426   4.279  1.00  0.00     0.033 A 
HETATM    3  C2  UNL     1      -2.346   4.828   5.361  1.00  0.00    -0.010 A 
HETATM    4  C1  UNL     1      -3.095   5.790   6.266  1.00  0.00     0.010 C 
HETATM    5  C3  UNL     1      -2.793   4.839   3.891  1.00  0.00     0.013 A 
ENDBRANCH   1   2
BRANCH   1   6
HETATM    6  N1  UNL     1       0.915   5.302   4.651  1.00  0.00    -0.368 N 
ATOM      7  H1  UNL     1       1.241   6.213   4.328  1.00  0.00     0.161 HD
BRANCH   6   8
HETATM    8  C6  UNL     1       1.585   4.716   5.751  1.00  0.00     0.029 A 
HETATM    9  C7  UNL     1       1.055   3.613   6.383  1.00  0.00     0.032 A 
HETATM   10  C8  UNL     1       1.694   3.038   7.465  1.00  0.00     0.044 A 
HETATM   11  C9  UNL     1       2.882   3.542   7.955  1.00  0.00     0.116 A 
HETATM   12  F1  UNL     1       3.521   3.009   8.997  1.00  0.00    -0.206 F 
HETATM   13  C10 UNL     1       3.413   4.648   7.323  1.00  0.00     0.044 A 
HETATM   14  C11 UNL     1       2.781   5.224   6.245  1.00  0.00     0.032 A 
ENDBRANCH   6   8
ENDBRANCH   1   6
BRANCH   1  15
HETATM   15  N2  UNL     1       0.051   4.610   2.549  1.00  0.00    -0.330 N 
HETATM   16  C12 UNL     1       0.379   5.631   1.733  1.00  0.00     0.111 A 
HETATM   17  C13 UNL     1       0.535   5.134   0.467  1.00  0.00     0.106 A 
HETATM   18  N3  UNL     1       0.307   3.821   0.499  1.00  0.00    -0.361 N 
HETATM   19  C14 UNL     1       0.011   3.506   1.777  1.00  0.00     0.184 A 
ATOM     20  H3  UNL     1       0.348   3.177  -0.292  1.00  0.00     0.166 HD
ENDBRANCH   1  15
TORSDOF 4
ENDMDL
