MODEL 1
REMARK VINA RESULT: -8.515841945      0.000      0.000
REMARK  16 active torsions:
REMARK  status: ('A' for Active; 'I' for Inactive)
REMARK       I    between atoms: N1_2  and  C2_4 
REMARK       I    between atoms: C2_4  and  N2_6 
REMARK    1  A    between atoms: N2_6  and  C3_8 
REMARK    2  A    between atoms: C3_8  and  O2_9 
REMARK    3  A    between atoms: C3_8  and  C4_11 
REMARK    4  A    between atoms: C6_15  and  N4_16 
REMARK    5  A    between atoms: C7_21  and  C8_22 
REMARK    6  A    between atoms: C9_25  and  N7_26 
REMARK    7  A    between atoms: C10_31  and  N9_32 
REMARK    8  A    between atoms: N12_40  and  C12_41 
REMARK    9  A    between atoms: C12_41  and  C13_42 
REMARK       I    between atoms: C13_42  and  N13_44 
REMARK   10  A    between atoms: N13_44  and  C14_46 
REMARK   11  A    between atoms: C14_46  and  C15_47 
REMARK   12  A    between atoms: C14_46  and  C23_55 
REMARK   13  A    between atoms: C15_47  and  C16_48 
REMARK   14  A    between atoms: C16_48  and  C17_49 
REMARK       I    between atoms: C23_55  and  N14_57 
REMARK   15  A    between atoms: N14_57  and  C24_58 
REMARK   16  A    between atoms: C24_58  and  C25_59 
ROOT
HETATM    1  C4  UNL     1     -35.133  19.653 -20.055  1.00  0.00     0.136 A 
HETATM    2  N3  UNL     1     -34.840  20.647 -20.938  1.00  0.00    -0.336 N 
ATOM      3  H3  UNL     1     -35.522  21.226 -21.428  1.00  0.00     0.167 HD
HETATM    4  C5  UNL     1     -33.521  20.740 -21.055  1.00  0.00     0.122 A 
HETATM    5  C6  UNL     1     -32.698  21.566 -21.786  1.00  0.00     0.131 A 
HETATM    6  N5  UNL     1     -31.383  21.424 -21.679  1.00  0.00    -0.324 N 
ATOM      7  H5  UNL     1     -30.776  22.039 -22.222  1.00  0.00     0.169 HD
HETATM    8  C7  UNL     1     -30.824  20.500 -20.881  1.00  0.00     0.154 A 
HETATM    9  N11 UNL     1     -31.634  19.708 -20.183  1.00  0.00    -0.323 N 
ATOM     10  H11 UNL     1     -31.218  19.002 -19.575  1.00  0.00     0.169 HD
HETATM   11  C11 UNL     1     -32.955  19.792 -20.240  1.00  0.00     0.142 A 
HETATM   12  N12 UNL     1     -33.976  19.122 -19.627  1.00  0.00    -0.308 N 
ENDROOT
BRANCH  12  13
HETATM   13  C12 UNL     1     -33.769  18.008 -18.741  1.00  0.00     0.234 C 
BRANCH  13  14
HETATM   14  C13 UNL     1     -32.886  18.384 -17.596  1.00  0.00     0.236 C 
HETATM   15  O3  UNL     1     -32.928  19.562 -17.216  1.00  0.00    -0.272 OA
HETATM   16  N13 UNL     1     -32.045  17.424 -16.991  1.00  0.00    -0.345 N 
ATOM     17  H13 UNL     1     -32.042  16.470 -17.353  1.00  0.00     0.163 HD
BRANCH  16  18
HETATM   18  C14 UNL     1     -31.176  17.758 -15.856  1.00  0.00     0.192 C 
BRANCH  18  19
HETATM   19  C15 UNL     1     -31.679  17.318 -14.551  1.00  0.00     0.041 C 
BRANCH  19  20
HETATM   20  C16 UNL     1     -31.083  18.015 -13.357  1.00  0.00     0.041 C 
BRANCH  20  21
HETATM   21  C17 UNL     1     -31.042  17.203 -12.149  1.00  0.00    -0.058 A 
HETATM   22  C18 UNL     1     -31.828  17.604 -11.056  1.00  0.00     0.007 A 
HETATM   23  C19 UNL     1     -31.783  16.833  -9.909  1.00  0.00     0.001 A 
HETATM   24  C20 UNL     1     -31.010  15.696  -9.787  1.00  0.00     0.000 A 
HETATM   25  C21 UNL     1     -30.229  15.298 -10.875  1.00  0.00     0.001 A 
HETATM   26  C22 UNL     1     -30.279  16.083 -12.031  1.00  0.00     0.007 A 
ENDBRANCH  20  21
ENDBRANCH  19  20
ENDBRANCH  18  19
BRANCH  18  27
HETATM   27  C23 UNL     1     -29.815  17.354 -16.255  1.00  0.00     0.313 C 
HETATM   28  O4  UNL     1     -29.210  18.086 -17.056  1.00  0.00    -0.255 OA
HETATM   29  N14 UNL     1     -29.170  16.143 -15.734  1.00  0.00    -0.386 NA
BRANCH  29  30
HETATM   30  C24 UNL     1     -28.614  15.118 -15.297  1.00  0.00     0.165 C 
BRANCH  30  31
HETATM   31  C25 UNL     1     -29.370  13.779 -15.490  1.00  0.00     0.064 C 
HETATM   32  C26 UNL     1     -30.192  13.478 -14.241  1.00  0.00     0.014 C 
HETATM   33  C27 UNL     1     -31.047  12.245 -14.497  1.00  0.00     0.028 C 
HETATM   34  C28 UNL     1     -30.837  11.755 -15.916  1.00  0.00     0.232 C 
HETATM   35  N15 UNL     1     -31.041  12.751 -16.896  1.00  0.00    -0.074 N 
HETATM   36  C29 UNL     1     -30.360  13.973 -16.597  1.00  0.00     0.243 C 
ATOM     37 2H15 UNL     1     -30.787  12.409 -17.822  1.00  0.00     0.277 HD
ATOM     38 1H15 UNL     1     -32.036  12.916 -17.046  1.00  0.00     0.277 HD
ENDBRANCH  30  31
ENDBRANCH  29  30
ENDBRANCH  18  27
ENDBRANCH  16  18
ENDBRANCH  13  14
ENDBRANCH  12  13
BRANCH   1  39
HETATM   39  C3  UNL     1     -36.504  19.318 -19.693  1.00  0.00     0.290 C 
BRANCH  39  40
HETATM   40  N2  UNL     1     -37.511  19.926 -20.546  1.00  0.00    -0.310 N 
HETATM   41  C2  UNL     1     -38.808  19.365 -20.660  1.00  0.00     0.318 C 
HETATM   42  N1  UNL     1     -39.857  19.869 -21.459  1.00  0.00    -0.347 N 
HETATM   43  O1  UNL     1     -39.051  18.316 -19.991  1.00  0.00    -0.247 OA
HETATM   44  C1  UNL     1     -41.159  19.203 -21.528  1.00  0.00     0.151 C 
ATOM     45  H1  UNL     1     -39.705  20.720 -22.002  1.00  0.00     0.163 HD
ATOM     46  H2  UNL     1     -37.281  20.770 -21.071  1.00  0.00     0.167 HD
ENDBRANCH  39  40
BRANCH  39  47
HETATM   47  O2  UNL     1     -36.838  19.526 -18.367  1.00  0.00    -0.369 OA
ATOM     48  H2  UNL     1     -37.081  20.436 -18.242  1.00  0.00     0.212 HD
ENDBRANCH  39  47
ENDBRANCH   1  39
BRANCH   5  49
HETATM   49  N4  UNL     1     -33.216  22.477 -22.562  1.00  0.00    -0.383 N 
ATOM     50  H42 UNL     1     -34.149  22.362 -22.958  1.00  0.00     0.157 HD
ATOM     51  H41 UNL     1     -32.682  23.316 -22.786  1.00  0.00     0.157 HD
ENDBRANCH   5  49
BRANCH   8  52
HETATM   52  C8  UNL     1     -29.356  20.455 -20.819  1.00  0.00     0.180 A 
HETATM   53  N6  UNL     1     -28.777  20.075 -19.652  1.00  0.00    -0.172 N 
HETATM   54  C9  UNL     1     -27.444  19.993 -19.502  1.00  0.00     0.692 A 
ATOM     55  H6  UNL     1     -29.376  19.843 -18.859  1.00  0.00     0.186 HD
HETATM   56  N8  UNL     1     -26.629  20.294 -20.537  1.00  0.00    -0.023 N 
HETATM   57  C10 UNL     1     -27.203  20.674 -21.700  1.00  0.00     0.692 A 
ATOM     58  H8  UNL     1     -25.615  20.238 -20.443  1.00  0.00     0.203 HD
HETATM   59  N10 UNL     1     -28.539  20.748 -21.823  1.00  0.00    -0.172 N 
ATOM     60  H10 UNL     1     -28.937  21.037 -22.716  1.00  0.00     0.186 HD
BRANCH  54  61
HETATM   61  N7  UNL     1     -26.917  19.640 -18.378  1.00  0.00    -0.234 N 
ATOM     62  H72 UNL     1     -27.485  19.119 -17.712  1.00  0.00     0.174 HD
ATOM     63  H71 UNL     1     -25.947  19.867 -18.153  1.00  0.00     0.174 HD
ENDBRANCH  54  61
BRANCH  57  64
HETATM   64  N9  UNL     1     -26.397  20.958 -22.675  1.00  0.00    -0.234 N 
ATOM     65  H92 UNL     1     -25.391  21.061 -22.542  1.00  0.00     0.174 HD
ATOM     66  H91 UNL     1     -26.822  21.074 -23.595  1.00  0.00     0.174 HD
ENDBRANCH  57  64
ENDBRANCH   8  52
TORSDOF 16
ENDMDL
MODEL 2
REMARK VINA RESULT: -8.144988854      1.673      2.234
REMARK  16 active torsions:
REMARK  status: ('A' for Active; 'I' for Inactive)
REMARK       I    between atoms: N1_2  and  C2_4 
REMARK       I    between atoms: C2_4  and  N2_6 
REMARK    1  A    between atoms: N2_6  and  C3_8 
REMARK    2  A    between atoms: C3_8  and  O2_9 
REMARK    3  A    between atoms: C3_8  and  C4_11 
REMARK    4  A    between atoms: C6_15  and  N4_16 
REMARK    5  A    between atoms: C7_21  and  C8_22 
REMARK    6  A    between atoms: C9_25  and  N7_26 
REMARK    7  A    between atoms: C10_31  and  N9_32 
REMARK    8  A    between atoms: N12_40  and  C12_41 
REMARK    9  A    between atoms: C12_41  and  C13_42 
REMARK       I    between atoms: C13_42  and  N13_44 
REMARK   10  A    between atoms: N13_44  and  C14_46 
REMARK   11  A    between atoms: C14_46  and  C15_47 
REMARK   12  A    between atoms: C14_46  and  C23_55 
REMARK   13  A    between atoms: C15_47  and  C16_48 
REMARK   14  A    between atoms: C16_48  and  C17_49 
REMARK       I    between atoms: C23_55  and  N14_57 
REMARK   15  A    between atoms: N14_57  and  C24_58 
REMARK   16  A    between atoms: C24_58  and  C25_59 
ROOT
HETATM    1  C4  UNL     1     -35.303  19.705 -20.338  1.00  0.00     0.136 A 
HETATM    2  N3  UNL     1     -34.994  20.761 -21.141  1.00  0.00    -0.336 N 
ATOM      3  H3  UNL     1     -35.666  21.391 -21.579  1.00  0.00     0.167 HD
HETATM    4  C5  UNL     1     -33.674  20.836 -21.258  1.00  0.00     0.122 A 
HETATM    5  C6  UNL     1     -32.838  21.700 -21.927  1.00  0.00     0.131 A 
HETATM    6  N5  UNL     1     -31.525  21.524 -21.840  1.00  0.00    -0.324 N 
ATOM      7  H5  UNL     1     -30.908  22.167 -22.337  1.00  0.00     0.169 HD
HETATM    8  C7  UNL     1     -30.982  20.528 -21.121  1.00  0.00     0.154 A 
HETATM    9  N11 UNL     1     -31.804  19.699 -20.484  1.00  0.00    -0.323 N 
ATOM     10  H11 UNL     1     -31.400  18.939 -19.936  1.00  0.00     0.169 HD
HETATM   11  C11 UNL     1     -33.124  19.814 -20.525  1.00  0.00     0.142 A 
HETATM   12  N12 UNL     1     -34.156  19.119 -19.960  1.00  0.00    -0.308 N 
ENDROOT
BRANCH  12  13
HETATM   13  C12 UNL     1     -33.968  17.934 -19.168  1.00  0.00     0.234 C 
BRANCH  13  14
HETATM   14  C13 UNL     1     -33.323  18.256 -17.858  1.00  0.00     0.236 C 
HETATM   15  O3  UNL     1     -33.818  19.179 -17.199  1.00  0.00    -0.272 OA
HETATM   16  N13 UNL     1     -32.196  17.529 -17.415  1.00  0.00    -0.345 N 
ATOM     17  H13 UNL     1     -31.822  16.786 -18.004  1.00  0.00     0.163 HD
BRANCH  16  18
HETATM   18  C14 UNL     1     -31.547  17.812 -16.128  1.00  0.00     0.192 C 
BRANCH  18  19
HETATM   19  C15 UNL     1     -32.105  17.076 -14.988  1.00  0.00     0.041 C 
BRANCH  19  20
HETATM   20  C16 UNL     1     -32.723  15.743 -15.316  1.00  0.00     0.041 C 
BRANCH  20  21
HETATM   21  C17 UNL     1     -34.115  15.612 -14.909  1.00  0.00    -0.058 A 
HETATM   22  C18 UNL     1     -34.884  16.782 -14.800  1.00  0.00     0.007 A 
HETATM   23  C19 UNL     1     -36.205  16.655 -14.410  1.00  0.00     0.001 A 
HETATM   24  C20 UNL     1     -36.799  15.442 -14.125  1.00  0.00     0.000 A 
HETATM   25  C21 UNL     1     -36.033  14.279 -14.234  1.00  0.00     0.001 A 
HETATM   26  C22 UNL     1     -34.699  14.416 -14.629  1.00  0.00     0.007 A 
ENDBRANCH  20  21
ENDBRANCH  19  20
ENDBRANCH  18  19
BRANCH  18  27
HETATM   27  C23 UNL     1     -30.097  17.724 -16.377  1.00  0.00     0.313 C 
HETATM   28  O4  UNL     1     -29.625  18.436 -17.279  1.00  0.00    -0.255 OA
HETATM   29  N14 UNL     1     -29.217  16.846 -15.597  1.00  0.00    -0.386 NA
BRANCH  29  30
HETATM   30  C24 UNL     1     -28.463  16.104 -14.940  1.00  0.00     0.165 C 
BRANCH  30  31
HETATM   31  C25 UNL     1     -28.873  14.614 -14.829  1.00  0.00     0.064 C 
HETATM   32  C26 UNL     1     -29.857  14.445 -13.677  1.00  0.00     0.014 C 
HETATM   33  C27 UNL     1     -30.371  13.013 -13.671  1.00  0.00     0.028 C 
HETATM   34  C28 UNL     1     -29.776  12.244 -14.834  1.00  0.00     0.232 C 
HETATM   35  N15 UNL     1     -29.971  12.870 -16.085  1.00  0.00    -0.074 N 
HETATM   36  C29 UNL     1     -29.629  14.259 -16.072  1.00  0.00     0.243 C 
ATOM     37 2H15 UNL     1     -29.466  12.377 -16.822  1.00  0.00     0.277 HD
ATOM     38 1H15 UNL     1     -30.925  12.732 -16.417  1.00  0.00     0.277 HD
ENDBRANCH  30  31
ENDBRANCH  29  30
ENDBRANCH  18  27
ENDBRANCH  16  18
ENDBRANCH  13  14
ENDBRANCH  12  13
BRANCH   1  39
HETATM   39  C3  UNL     1     -36.679  19.370 -19.994  1.00  0.00     0.290 C 
BRANCH  39  40
HETATM   40  N2  UNL     1     -37.670  19.905 -20.914  1.00  0.00    -0.310 N 
HETATM   41  C2  UNL     1     -38.988  19.387 -20.951  1.00  0.00     0.318 C 
HETATM   42  N1  UNL     1     -40.024  19.827 -21.803  1.00  0.00    -0.347 N 
HETATM   43  O1  UNL     1     -39.266  18.441 -20.154  1.00  0.00    -0.247 OA
HETATM   44  C1  UNL     1     -41.352  19.209 -21.782  1.00  0.00     0.151 C 
ATOM     45  H1  UNL     1     -39.844  20.596 -22.449  1.00  0.00     0.163 HD
ATOM     46  H2  UNL     1     -37.412  20.667 -21.542  1.00  0.00     0.167 HD
ENDBRANCH  39  40
BRANCH  39  47
HETATM   47  O2  UNL     1     -37.056  19.657 -18.695  1.00  0.00    -0.369 OA
ATOM     48  H2  UNL     1     -38.003  19.625 -18.626  1.00  0.00     0.212 HD
ENDBRANCH  39  47
ENDBRANCH   1  39
BRANCH   5  49
HETATM   49  N4  UNL     1     -33.340  22.681 -22.625  1.00  0.00    -0.383 N 
ATOM     50  H42 UNL     1     -34.332  22.705 -22.859  1.00  0.00     0.157 HD
ATOM     51  H41 UNL     1     -32.735  23.434 -22.951  1.00  0.00     0.157 HD
ENDBRANCH   5  49
BRANCH   8  52
HETATM   52  C8  UNL     1     -29.515  20.449 -21.073  1.00  0.00     0.180 A 
HETATM   53  N6  UNL     1     -28.929  20.172 -19.880  1.00  0.00    -0.172 N 
HETATM   54  C9  UNL     1     -27.596  20.068 -19.738  1.00  0.00     0.692 A 
ATOM     55  H6  UNL     1     -29.522  20.037 -19.061  1.00  0.00     0.186 HD
HETATM   56  N8  UNL     1     -26.789  20.241 -20.808  1.00  0.00    -0.023 N 
HETATM   57  C10 UNL     1     -27.369  20.518 -21.997  1.00  0.00     0.692 A 
ATOM     58  H8  UNL     1     -25.775  20.165 -20.721  1.00  0.00     0.203 HD
HETATM   59  N10 UNL     1     -28.704  20.616 -22.111  1.00  0.00    -0.172 N 
ATOM     60  H10 UNL     1     -29.108  20.826 -23.024  1.00  0.00     0.186 HD
BRANCH  54  61
HETATM   61  N7  UNL     1     -27.062  19.815 -18.591  1.00  0.00    -0.234 N 
ATOM     62  H72 UNL     1     -27.405  20.313 -17.770  1.00  0.00     0.174 HD
ATOM     63  H71 UNL     1     -26.316  19.126 -18.494  1.00  0.00     0.174 HD
ENDBRANCH  54  61
BRANCH  57  64
HETATM   64  N9  UNL     1     -26.571  20.680 -23.004  1.00  0.00    -0.234 N 
ATOM     65  H92 UNL     1     -25.940  19.946 -23.328  1.00  0.00     0.174 HD
ATOM     66  H91 UNL     1     -26.602  21.589 -23.466  1.00  0.00     0.174 HD
ENDBRANCH  57  64
ENDBRANCH   8  52
TORSDOF 16
ENDMDL
MODEL 3
REMARK VINA RESULT: -8.007592475      5.056      9.163
REMARK  16 active torsions:
REMARK  status: ('A' for Active; 'I' for Inactive)
REMARK       I    between atoms: N1_2  and  C2_4 
REMARK       I    between atoms: C2_4  and  N2_6 
REMARK    1  A    between atoms: N2_6  and  C3_8 
REMARK    2  A    between atoms: C3_8  and  O2_9 
REMARK    3  A    between atoms: C3_8  and  C4_11 
REMARK    4  A    between atoms: C6_15  and  N4_16 
REMARK    5  A    between atoms: C7_21  and  C8_22 
REMARK    6  A    between atoms: C9_25  and  N7_26 
REMARK    7  A    between atoms: C10_31  and  N9_32 
REMARK    8  A    between atoms: N12_40  and  C12_41 
REMARK    9  A    between atoms: C12_41  and  C13_42 
REMARK       I    between atoms: C13_42  and  N13_44 
REMARK   10  A    between atoms: N13_44  and  C14_46 
REMARK   11  A    between atoms: C14_46  and  C15_47 
REMARK   12  A    between atoms: C14_46  and  C23_55 
REMARK   13  A    between atoms: C15_47  and  C16_48 
REMARK   14  A    between atoms: C16_48  and  C17_49 
REMARK       I    between atoms: C23_55  and  N14_57 
REMARK   15  A    between atoms: N14_57  and  C24_58 
REMARK   16  A    between atoms: C24_58  and  C25_59 
ROOT
HETATM    1  C4  UNL     1     -30.501  13.335 -15.843  1.00  0.00     0.136 A 
HETATM    2  N3  UNL     1     -30.805  12.150 -15.244  1.00  0.00    -0.336 N 
ATOM      3  H3  UNL     1     -31.687  11.647 -15.339  1.00  0.00     0.167 HD
HETATM    4  C5  UNL     1     -29.766  11.759 -14.518  1.00  0.00     0.122 A 
HETATM    5  C6  UNL     1     -29.531  10.652 -13.734  1.00  0.00     0.131 A 
HETATM    6  N5  UNL     1     -28.356  10.529 -13.129  1.00  0.00    -0.324 N 
ATOM      7  H5  UNL     1     -28.185   9.707 -12.549  1.00  0.00     0.169 HD
HETATM    8  C7  UNL     1     -27.385  11.448 -13.254  1.00  0.00     0.154 A 
HETATM    9  N11 UNL     1     -27.630  12.513 -14.013  1.00  0.00    -0.323 N 
ATOM     10  H11 UNL     1     -26.898  13.218 -14.112  1.00  0.00     0.169 HD
HETATM   11  C11 UNL     1     -28.778  12.703 -14.646  1.00  0.00     0.142 A 
HETATM   12  N12 UNL     1     -29.256  13.679 -15.474  1.00  0.00    -0.308 N 
ENDROOT
BRANCH  12  13
HETATM   13  C12 UNL     1     -28.519  14.872 -15.794  1.00  0.00     0.234 C 
BRANCH  13  14
HETATM   14  C13 UNL     1     -29.401  16.078 -15.758  1.00  0.00     0.236 C 
HETATM   15  O3  UNL     1     -29.446  16.772 -16.783  1.00  0.00    -0.272 OA
HETATM   16  N13 UNL     1     -30.137  16.397 -14.596  1.00  0.00    -0.345 N 
ATOM     17  H13 UNL     1     -30.051  15.797 -13.776  1.00  0.00     0.163 HD
BRANCH  16  18
HETATM   18  C14 UNL     1     -31.021  17.568 -14.533  1.00  0.00     0.192 C 
BRANCH  18  19
HETATM   19  C15 UNL     1     -32.408  17.307 -14.934  1.00  0.00     0.041 C 
BRANCH  19  20
HETATM   20  C16 UNL     1     -32.808  17.854 -16.278  1.00  0.00     0.041 C 
BRANCH  20  21
HETATM   21  C17 UNL     1     -33.969  18.733 -16.244  1.00  0.00    -0.058 A 
HETATM   22  C18 UNL     1     -35.185  18.205 -15.780  1.00  0.00     0.007 A 
HETATM   23  C19 UNL     1     -36.286  19.040 -15.753  1.00  0.00     0.001 A 
HETATM   24  C20 UNL     1     -36.249  20.360 -16.157  1.00  0.00     0.000 A 
HETATM   25  C21 UNL     1     -35.039  20.884 -16.619  1.00  0.00     0.001 A 
HETATM   26  C22 UNL     1     -33.930  20.033 -16.643  1.00  0.00     0.007 A 
ENDBRANCH  20  21
ENDBRANCH  19  20
ENDBRANCH  18  19
BRANCH  18  27
HETATM   27  C23 UNL     1     -30.776  18.192 -13.220  1.00  0.00     0.313 C 
HETATM   28  O4  UNL     1     -30.794  19.432 -13.162  1.00  0.00    -0.255 OA
HETATM   29  N14 UNL     1     -30.528  17.402 -12.008  1.00  0.00    -0.386 NA
BRANCH  29  30
HETATM   30  C24 UNL     1     -30.317  16.740 -10.975  1.00  0.00     0.165 C 
BRANCH  30  31
HETATM   31  C25 UNL     1     -31.082  15.399 -10.836  1.00  0.00     0.064 C 
HETATM   32  C26 UNL     1     -30.355  14.318 -11.629  1.00  0.00     0.014 C 
HETATM   33  C27 UNL     1     -31.023  12.977 -11.365  1.00  0.00     0.028 C 
HETATM   34  C28 UNL     1     -32.154  13.149 -10.370  1.00  0.00     0.232 C 
HETATM   35  N15 UNL     1     -31.762  13.789  -9.173  1.00  0.00    -0.074 N 
HETATM   36  C29 UNL     1     -31.003  14.980  -9.401  1.00  0.00     0.243 C 
ATOM     37 2H15 UNL     1     -32.569  13.979  -8.580  1.00  0.00     0.277 HD
ATOM     38 1H15 UNL     1     -31.256  13.145  -8.564  1.00  0.00     0.277 HD
ENDBRANCH  30  31
ENDBRANCH  29  30
ENDBRANCH  18  27
ENDBRANCH  16  18
ENDBRANCH  13  14
ENDBRANCH  12  13
BRANCH   1  39
HETATM   39  C3  UNL     1     -31.433  14.017 -16.731  1.00  0.00     0.290 C 
BRANCH  39  40
HETATM   40  N2  UNL     1     -32.832  13.826 -16.385  1.00  0.00    -0.310 N 
HETATM   41  C2  UNL     1     -33.859  14.480 -17.109  1.00  0.00     0.318 C 
HETATM   42  N1  UNL     1     -35.244  14.370 -16.859  1.00  0.00    -0.347 N 
HETATM   43  O1  UNL     1     -33.510  15.236 -18.066  1.00  0.00    -0.247 OA
HETATM   44  C1  UNL     1     -36.231  15.107 -17.651  1.00  0.00     0.151 C 
ATOM     45  H1  UNL     1     -35.567  13.761 -16.106  1.00  0.00     0.163 HD
ATOM     46  H2  UNL     1     -33.078  13.211 -15.609  1.00  0.00     0.167 HD
ENDBRANCH  39  40
BRANCH  39  47
HETATM   47  O2  UNL     1     -31.256  13.776 -18.080  1.00  0.00    -0.369 OA
ATOM     48  H2  UNL     1     -30.778  14.498 -18.471  1.00  0.00     0.212 HD
ENDBRANCH  39  47
ENDBRANCH   1  39
BRANCH   5  49
HETATM   49  N4  UNL     1     -30.454   9.741 -13.603  1.00  0.00    -0.383 N 
ATOM     50  H42 UNL     1     -31.107   9.541 -14.361  1.00  0.00     0.157 HD
ATOM     51  H41 UNL     1     -30.534   9.221 -12.729  1.00  0.00     0.157 HD
ENDBRANCH   5  49
BRANCH   8  52
HETATM   52  C8  UNL     1     -26.114  11.191 -12.563  1.00  0.00     0.180 A 
HETATM   53  N6  UNL     1     -25.794   9.904 -12.272  1.00  0.00    -0.172 N 
HETATM   54  C9  UNL     1     -24.649   9.568 -11.652  1.00  0.00     0.692 A 
ATOM     55  H6  UNL     1     -26.446   9.164 -12.533  1.00  0.00     0.186 HD
HETATM   56  N8  UNL     1     -23.768  10.529 -11.296  1.00  0.00    -0.023 N 
HETATM   57  C10 UNL     1     -24.084  11.811 -11.584  1.00  0.00     0.692 A 
ATOM     58  H8  UNL     1     -22.894  10.295 -10.826  1.00  0.00     0.203 HD
HETATM   59  N10 UNL     1     -25.236  12.119 -12.204  1.00  0.00    -0.172 N 
ATOM     60  H10 UNL     1     -25.442  13.098 -12.407  1.00  0.00     0.186 HD
BRANCH  54  61
HETATM   61  N7  UNL     1     -24.373   8.339 -11.375  1.00  0.00    -0.234 N 
ATOM     62  H72 UNL     1     -24.742   7.934 -10.516  1.00  0.00     0.174 HD
ATOM     63  H71 UNL     1     -23.803   7.770 -12.002  1.00  0.00     0.174 HD
ENDBRANCH  54  61
BRANCH  57  64
HETATM   64  N9  UNL     1     -23.222  12.711 -11.231  1.00  0.00    -0.234 N 
ATOM     65  H92 UNL     1     -22.365  12.482 -10.726  1.00  0.00     0.174 HD
ATOM     66  H91 UNL     1     -23.441  13.675 -11.485  1.00  0.00     0.174 HD
ENDBRANCH  57  64
ENDBRANCH   8  52
TORSDOF 16
ENDMDL
MODEL 4
REMARK VINA RESULT: -7.947099834      1.473      3.061
REMARK  16 active torsions:
REMARK  status: ('A' for Active; 'I' for Inactive)
REMARK       I    between atoms: N1_2  and  C2_4 
REMARK       I    between atoms: C2_4  and  N2_6 
REMARK    1  A    between atoms: N2_6  and  C3_8 
REMARK    2  A    between atoms: C3_8  and  O2_9 
REMARK    3  A    between atoms: C3_8  and  C4_11 
REMARK    4  A    between atoms: C6_15  and  N4_16 
REMARK    5  A    between atoms: C7_21  and  C8_22 
REMARK    6  A    between atoms: C9_25  and  N7_26 
REMARK    7  A    between atoms: C10_31  and  N9_32 
REMARK    8  A    between atoms: N12_40  and  C12_41 
REMARK    9  A    between atoms: C12_41  and  C13_42 
REMARK       I    between atoms: C13_42  and  N13_44 
REMARK   10  A    between atoms: N13_44  and  C14_46 
REMARK   11  A    between atoms: C14_46  and  C15_47 
REMARK   12  A    between atoms: C14_46  and  C23_55 
REMARK   13  A    between atoms: C15_47  and  C16_48 
REMARK   14  A    between atoms: C16_48  and  C17_49 
REMARK       I    between atoms: C23_55  and  N14_57 
REMARK   15  A    between atoms: N14_57  and  C24_58 
REMARK   16  A    between atoms: C24_58  and  C25_59 
ROOT
HETATM    1  C4  UNL     1     -35.004  19.682 -20.161  1.00  0.00     0.136 A 
HETATM    2  N3  UNL     1     -34.756  20.793 -20.909  1.00  0.00    -0.336 N 
ATOM      3  H3  UNL     1     -35.463  21.410 -21.309  1.00  0.00     0.167 HD
HETATM    4  C5  UNL     1     -33.443  20.941 -21.033  1.00  0.00     0.122 A 
HETATM    5  C6  UNL     1     -32.658  21.880 -21.661  1.00  0.00     0.131 A 
HETATM    6  N5  UNL     1     -31.337  21.766 -21.594  1.00  0.00    -0.324 N 
ATOM      7  H5  UNL     1     -30.759  22.465 -22.061  1.00  0.00     0.169 HD
HETATM    8  C7  UNL     1     -30.738  20.763 -20.933  1.00  0.00     0.154 A 
HETATM    9  N11 UNL     1     -31.510  19.861 -20.333  1.00  0.00    -0.323 N 
ATOM     10  H11 UNL     1     -31.063  19.095 -19.830  1.00  0.00     0.169 HD
HETATM   11  C11 UNL     1     -32.835  19.911 -20.358  1.00  0.00     0.142 A 
HETATM   12  N12 UNL     1     -33.824  19.136 -19.823  1.00  0.00    -0.308 N 
ENDROOT
BRANCH  12  13
HETATM   13  C12 UNL     1     -33.569  17.923 -19.095  1.00  0.00     0.234 C 
BRANCH  13  14
HETATM   14  C13 UNL     1     -33.391  18.194 -17.636  1.00  0.00     0.236 C 
HETATM   15  O3  UNL     1     -33.852  19.258 -17.202  1.00  0.00    -0.272 OA
HETATM   16  N13 UNL     1     -32.719  17.267 -16.810  1.00  0.00    -0.345 N 
ATOM     17  H13 UNL     1     -32.347  16.413 -17.224  1.00  0.00     0.163 HD
BRANCH  16  18
HETATM   18  C14 UNL     1     -32.539  17.498 -15.371  1.00  0.00     0.192 C 
BRANCH  18  19
HETATM   19  C15 UNL     1     -33.327  16.613 -14.507  1.00  0.00     0.041 C 
BRANCH  19  20
HETATM   20  C16 UNL     1     -33.598  15.240 -15.060  1.00  0.00     0.041 C 
BRANCH  20  21
HETATM   21  C17 UNL     1     -32.737  14.196 -14.519  1.00  0.00    -0.058 A 
HETATM   22  C18 UNL     1     -33.052  13.670 -13.255  1.00  0.00     0.007 A 
HETATM   23  C19 UNL     1     -32.231  12.683 -12.743  1.00  0.00     0.001 A 
HETATM   24  C20 UNL     1     -31.125  12.192 -13.408  1.00  0.00     0.000 A 
HETATM   25  C21 UNL     1     -30.813  12.716 -14.665  1.00  0.00     0.001 A 
HETATM   26  C22 UNL     1     -31.649  13.715 -15.177  1.00  0.00     0.007 A 
ENDBRANCH  20  21
ENDBRANCH  19  20
ENDBRANCH  18  19
BRANCH  18  27
HETATM   27  C23 UNL     1     -31.083  17.577 -15.152  1.00  0.00     0.313 C 
HETATM   28  O4  UNL     1     -30.427  18.310 -15.911  1.00  0.00    -0.255 OA
HETATM   29  N14 UNL     1     -30.408  16.837 -14.079  1.00  0.00    -0.386 NA
BRANCH  29  30
HETATM   30  C24 UNL     1     -29.827  16.214 -13.171  1.00  0.00     0.165 C 
BRANCH  30  31
HETATM   31  C25 UNL     1     -30.644  15.930 -11.885  1.00  0.00     0.064 C 
HETATM   32  C26 UNL     1     -29.719  15.367 -10.812  1.00  0.00     0.014 C 
HETATM   33  C27 UNL     1     -30.495  15.235  -9.510  1.00  0.00     0.028 C 
HETATM   34  C28 UNL     1     -31.909  15.748  -9.695  1.00  0.00     0.232 C 
HETATM   35  N15 UNL     1     -31.972  17.059 -10.216  1.00  0.00    -0.074 N 
HETATM   36  C29 UNL     1     -31.132  17.244 -11.359  1.00  0.00     0.243 C 
ATOM     37 2H15 UNL     1     -32.934  17.324 -10.424  1.00  0.00     0.277 HD
ATOM     38 1H15 UNL     1     -31.762  17.749  -9.494  1.00  0.00     0.277 HD
ENDBRANCH  30  31
ENDBRANCH  29  30
ENDBRANCH  18  27
ENDBRANCH  16  18
ENDBRANCH  13  14
ENDBRANCH  12  13
BRANCH   1  39
HETATM   39  C3  UNL     1     -36.358  19.261 -19.824  1.00  0.00     0.290 C 
BRANCH  39  40
HETATM   40  N2  UNL     1     -37.394  19.894 -20.623  1.00  0.00    -0.310 N 
HETATM   41  C2  UNL     1     -38.706  19.361 -20.674  1.00  0.00     0.318 C 
HETATM   42  N1  UNL     1     -39.784  19.890 -21.416  1.00  0.00    -0.347 N 
HETATM   43  O1  UNL     1     -38.936  18.312 -19.999  1.00  0.00    -0.247 OA
HETATM   44  C1  UNL     1     -41.101  19.250 -21.423  1.00  0.00     0.151 C 
ATOM     45  H1  UNL     1     -39.642  20.741 -21.961  1.00  0.00     0.163 HD
ATOM     46  H2  UNL     1     -37.174  20.737 -21.154  1.00  0.00     0.167 HD
ENDBRANCH  39  40
BRANCH  39  47
HETATM   47  O2  UNL     1     -36.693  19.344 -18.486  1.00  0.00    -0.369 OA
ATOM     48  H2  UNL     1     -36.075  18.836 -17.973  1.00  0.00     0.212 HD
ENDBRANCH  39  47
ENDBRANCH   1  39
BRANCH   5  49
HETATM   49  N4  UNL     1     -33.216  22.869 -22.303  1.00  0.00    -0.383 N 
ATOM     50  H42 UNL     1     -34.153  23.192 -22.060  1.00  0.00     0.157 HD
ATOM     51  H41 UNL     1     -32.717  23.325 -23.066  1.00  0.00     0.157 HD
ENDBRANCH   5  49
BRANCH   8  52
HETATM   52  C8  UNL     1     -29.268  20.756 -20.900  1.00  0.00     0.180 A 
HETATM   53  N6  UNL     1     -28.611  20.021 -21.833  1.00  0.00    -0.172 N 
HETATM   54  C9  UNL     1     -27.270  19.960 -21.890  1.00  0.00     0.692 A 
ATOM     55  H6  UNL     1     -29.156  19.494 -22.517  1.00  0.00     0.186 HD
HETATM   56  N8  UNL     1     -26.525  20.649 -20.997  1.00  0.00    -0.023 N 
HETATM   57  C10 UNL     1     -27.176  21.382 -20.067  1.00  0.00     0.692 A 
ATOM     58  H8  UNL     1     -25.506  20.617 -21.025  1.00  0.00     0.203 HD
HETATM   59  N10 UNL     1     -28.519  21.424 -20.032  1.00  0.00    -0.172 N 
ATOM     60  H10 UNL     1     -28.977  21.988 -19.316  1.00  0.00     0.186 HD
BRANCH  54  61
HETATM   61  N7  UNL     1     -26.668  19.245 -22.780  1.00  0.00    -0.234 N 
ATOM     62  H72 UNL     1     -25.804  19.597 -23.191  1.00  0.00     0.174 HD
ATOM     63  H71 UNL     1     -27.037  18.338 -23.068  1.00  0.00     0.174 HD
ENDBRANCH  54  61
BRANCH  57  64
HETATM   64  N9  UNL     1     -26.437  22.031 -19.223  1.00  0.00    -0.234 N 
ATOM     65  H92 UNL     1     -25.718  22.691 -19.518  1.00  0.00     0.174 HD
ATOM     66  H91 UNL     1     -26.610  21.848 -18.234  1.00  0.00     0.174 HD
ENDBRANCH  57  64
ENDBRANCH   8  52
TORSDOF 16
ENDMDL
MODEL 5
REMARK VINA RESULT: -7.909654161      3.448      4.721
REMARK  16 active torsions:
REMARK  status: ('A' for Active; 'I' for Inactive)
REMARK       I    between atoms: N1_2  and  C2_4 
REMARK       I    between atoms: C2_4  and  N2_6 
REMARK    1  A    between atoms: N2_6  and  C3_8 
REMARK    2  A    between atoms: C3_8  and  O2_9 
REMARK    3  A    between atoms: C3_8  and  C4_11 
REMARK    4  A    between atoms: C6_15  and  N4_16 
REMARK    5  A    between atoms: C7_21  and  C8_22 
REMARK    6  A    between atoms: C9_25  and  N7_26 
REMARK    7  A    between atoms: C10_31  and  N9_32 
REMARK    8  A    between atoms: N12_40  and  C12_41 
REMARK    9  A    between atoms: C12_41  and  C13_42 
REMARK       I    between atoms: C13_42  and  N13_44 
REMARK   10  A    between atoms: N13_44  and  C14_46 
REMARK   11  A    between atoms: C14_46  and  C15_47 
REMARK   12  A    between atoms: C14_46  and  C23_55 
REMARK   13  A    between atoms: C15_47  and  C16_48 
REMARK   14  A    between atoms: C16_48  and  C17_49 
REMARK       I    between atoms: C23_55  and  N14_57 
REMARK   15  A    between atoms: N14_57  and  C24_58 
REMARK   16  A    between atoms: C24_58  and  C25_59 
ROOT
HETATM    1  C4  UNL     1     -34.709  17.626 -15.682  1.00  0.00     0.136 A 
HETATM    2  N3  UNL     1     -35.002  18.953 -15.768  1.00  0.00    -0.336 N 
ATOM      3  H3  UNL     1     -35.717  19.439 -15.227  1.00  0.00     0.167 HD
HETATM    4  C5  UNL     1     -34.205  19.509 -16.671  1.00  0.00     0.122 A 
HETATM    5  C6  UNL     1     -34.067  20.797 -17.136  1.00  0.00     0.131 A 
HETATM    6  N5  UNL     1     -33.146  21.055 -18.057  1.00  0.00    -0.324 N 
ATOM      7  H5  UNL     1     -33.046  22.011 -18.399  1.00  0.00     0.169 HD
HETATM    8  C7  UNL     1     -32.342  20.101 -18.553  1.00  0.00     0.154 A 
HETATM    9  N11 UNL     1     -32.491  18.860 -18.095  1.00  0.00    -0.323 N 
ATOM     10  H11 UNL     1     -31.885  18.129 -18.468  1.00  0.00     0.169 HD
HETATM   11  C11 UNL     1     -33.388  18.530 -17.178  1.00  0.00     0.142 A 
HETATM   12  N12 UNL     1     -33.718  17.362 -16.550  1.00  0.00    -0.308 N 
ENDROOT
BRANCH  12  13
HETATM   13  C12 UNL     1     -33.113  16.097 -16.868  1.00  0.00     0.234 C 
BRANCH  13  14
HETATM   14  C13 UNL     1     -31.718  16.016 -16.338  1.00  0.00     0.236 C 
HETATM   15  O3  UNL     1     -30.845  16.642 -16.954  1.00  0.00    -0.272 OA
HETATM   16  N13 UNL     1     -31.430  15.250 -15.187  1.00  0.00    -0.345 N 
ATOM     17  H13 UNL     1     -32.186  14.745 -14.727  1.00  0.00     0.163 HD
BRANCH  16  18
HETATM   18  C14 UNL     1     -30.072  15.161 -14.634  1.00  0.00     0.192 C 
BRANCH  18  19
HETATM   19  C15 UNL     1     -29.968  15.510 -13.213  1.00  0.00     0.041 C 
BRANCH  19  20
HETATM   20  C16 UNL     1     -31.275  15.751 -12.507  1.00  0.00     0.041 C 
BRANCH  20  21
HETATM   21  C17 UNL     1     -31.533  14.842 -11.398  1.00  0.00    -0.058 A 
HETATM   22  C18 UNL     1     -31.298  15.307 -10.094  1.00  0.00     0.007 A 
HETATM   23  C19 UNL     1     -31.539  14.440  -9.044  1.00  0.00     0.001 A 
HETATM   24  C20 UNL     1     -31.997  13.149  -9.214  1.00  0.00     0.000 A 
HETATM   25  C21 UNL     1     -32.231  12.687 -10.512  1.00  0.00     0.001 A 
HETATM   26  C22 UNL     1     -31.984  13.570 -11.568  1.00  0.00     0.007 A 
ENDBRANCH  20  21
ENDBRANCH  19  20
ENDBRANCH  18  19
BRANCH  18  27
HETATM   27  C23 UNL     1     -29.539  13.860 -15.076  1.00  0.00     0.313 C 
HETATM   28  O4  UNL     1     -29.216  13.748 -16.271  1.00  0.00    -0.255 OA
HETATM   29  N14 UNL     1     -29.375  12.724 -14.161  1.00  0.00    -0.386 NA
BRANCH  29  30
HETATM   30  C24 UNL     1     -29.231  11.756 -13.392  1.00  0.00     0.165 C 
BRANCH  30  31
HETATM   31  C25 UNL     1     -27.899  11.683 -12.603  1.00  0.00     0.064 C 
HETATM   32  C26 UNL     1     -27.712  10.271 -12.058  1.00  0.00     0.014 C 
HETATM   33  C27 UNL     1     -26.335  10.167 -11.418  1.00  0.00     0.028 C 
HETATM   34  C28 UNL     1     -25.590  11.478 -11.575  1.00  0.00     0.232 C 
HETATM   35  N15 UNL     1     -25.518  11.931 -12.910  1.00  0.00    -0.074 N 
HETATM   36  C29 UNL     1     -26.783  11.899 -13.578  1.00  0.00     0.243 C 
ATOM     37 2H15 UNL     1     -25.105  12.863 -12.958  1.00  0.00     0.277 HD
ATOM     38 1H15 UNL     1     -24.816  11.411 -13.435  1.00  0.00     0.277 HD
ENDBRANCH  30  31
ENDBRANCH  29  30
ENDBRANCH  18  27
ENDBRANCH  16  18
ENDBRANCH  13  14
ENDBRANCH  12  13
BRANCH   1  39
HETATM   39  C3  UNL     1     -35.399  16.738 -14.756  1.00  0.00     0.290 C 
BRANCH  39  40
HETATM   40  N2  UNL     1     -36.439  15.929 -15.370  1.00  0.00    -0.310 N 
HETATM   41  C2  UNL     1     -36.950  14.779 -14.718  1.00  0.00     0.318 C 
HETATM   42  N1  UNL     1     -37.954  13.923 -15.222  1.00  0.00    -0.347 N 
HETATM   43  O1  UNL     1     -36.465  14.486 -13.584  1.00  0.00    -0.247 OA
HETATM   44  C1  UNL     1     -38.400  12.741 -14.481  1.00  0.00     0.151 C 
ATOM     45  H1  UNL     1     -38.379  14.133 -16.126  1.00  0.00     0.163 HD
ATOM     46  H2  UNL     1     -36.807  16.193 -16.284  1.00  0.00     0.167 HD
ENDBRANCH  39  40
BRANCH  39  47
HETATM   47  O2  UNL     1     -35.896  17.338 -13.614  1.00  0.00    -0.369 OA
ATOM     48  H2  UNL     1     -35.666  16.813 -12.855  1.00  0.00     0.212 HD
ENDBRANCH  39  47
ENDBRANCH   1  39
BRANCH   5  49
HETATM   49  N4  UNL     1     -34.830  21.744 -16.665  1.00  0.00    -0.383 N 
ATOM     50  H42 UNL     1     -35.722  21.969 -17.105  1.00  0.00     0.157 HD
ATOM     51  H41 UNL     1     -34.532  22.276 -15.847  1.00  0.00     0.157 HD
ENDBRANCH   5  49
BRANCH   8  52
HETATM   52  C8  UNL     1     -31.338  20.509 -19.546  1.00  0.00     0.180 A 
HETATM   53  N6  UNL     1     -31.773  21.090 -20.693  1.00  0.00    -0.172 N 
HETATM   54  C9  UNL     1     -30.931  21.506 -21.654  1.00  0.00     0.692 A 
ATOM     55  H6  UNL     1     -32.776  21.216 -20.830  1.00  0.00     0.186 HD
HETATM   56  N8  UNL     1     -29.597  21.352 -21.497  1.00  0.00    -0.023 N 
HETATM   57  C10 UNL     1     -29.162  20.773 -20.355  1.00  0.00     0.692 A 
ATOM     58  H8  UNL     1     -28.942  21.662 -22.214  1.00  0.00     0.203 HD
HETATM   59  N10 UNL     1     -30.025  20.365 -19.410  1.00  0.00    -0.172 N 
ATOM     60  H10 UNL     1     -29.661  19.933 -18.562  1.00  0.00     0.186 HD
BRANCH  54  61
HETATM   61  N7  UNL     1     -31.369  22.046 -22.741  1.00  0.00    -0.234 N 
ATOM     62  H72 UNL     1     -31.959  21.491 -23.361  1.00  0.00     0.174 HD
ATOM     63  H71 UNL     1     -31.143  23.011 -22.983  1.00  0.00     0.174 HD
ENDBRANCH  54  61
BRANCH  57  64
HETATM   64  N9  UNL     1     -27.879  20.636 -20.232  1.00  0.00    -0.234 N 
ATOM     65  H92 UNL     1     -27.433  20.422 -19.340  1.00  0.00     0.174 HD
ATOM     66  H91 UNL     1     -27.326  20.755 -21.081  1.00  0.00     0.174 HD
ENDBRANCH  57  64
ENDBRANCH   8  52
TORSDOF 16
ENDMDL
