MODEL 1
REMARK VINA RESULT: -7.671866491      0.000      0.000
REMARK  14 active torsions:
REMARK  status: ('A' for Active; 'I' for Inactive)
REMARK    1  A    between atoms: S1_2  and  C2_3 
REMARK    2  A    between atoms: C2_3  and  C3_5 
REMARK    3  A    between atoms: C3_5  and  N1_6 
REMARK    4  A    between atoms: C3_5  and  C14_31 
REMARK    5  A    between atoms: N1_6  and  C4_8 
REMARK    6  A    between atoms: C4_8  and  O2_9 
REMARK    7  A    between atoms: C4_8  and  C5_11 
REMARK    8  A    between atoms: C5_11  and  C6_16 
REMARK    9  A    between atoms: N2_12  and  O3_14 
REMARK   10  A    between atoms: C6_16  and  O4_17 
REMARK   11  A    between atoms: C6_16  and  C13_28 
REMARK   12  A    between atoms: O4_17  and  C7_18 
REMARK       I    between atoms: C7_18  and  N3_20 
REMARK   13  A    between atoms: N3_20  and  C8_22 
REMARK   14  A    between atoms: C16_37  and  O10_38 
ROOT
HETATM    1  C5  UNL     1     -32.923   7.951 -22.785  1.00  0.00     0.122 C 
HETATM    2  N2  UNL     1     -32.467   7.637 -21.596  1.00  0.00    -0.266 N 
ATOM      3  H2  UNL     1     -31.720   6.945 -21.543  1.00  0.00     0.194 HD
ENDROOT
BRANCH   1   4
HETATM    4  C4  UNL     1     -34.005   8.943 -22.940  1.00  0.00     0.165 C 
BRANCH   4   5
HETATM    5  N1  UNL     1     -35.328   8.428 -22.764  1.00  0.00    -0.352 N 
ATOM      6  H1  UNL     1     -35.581   7.498 -23.098  1.00  0.00     0.162 HD
BRANCH   5   7
HETATM    7  C3  UNL     1     -36.255   9.240 -22.125  1.00  0.00     0.209 C 
BRANCH   7   8
HETATM    8  C2  UNL     1     -35.822   9.985 -20.938  1.00  0.00     0.213 C 
HETATM    9  O1  UNL     1     -35.341   9.516 -19.950  1.00  0.00    -0.283 OA
BRANCH   8  10
HETATM   10  S1  UNL     1     -36.035  11.783 -20.971  1.00  0.00    -0.095 SA
HETATM   11  C1  UNL     1     -36.420  12.426 -19.338  1.00  0.00     0.099 C 
ENDBRANCH   8  10
ENDBRANCH   7   8
BRANCH   7  12
HETATM   12  C14 UNL     1     -37.411   8.384 -21.662  1.00  0.00     0.069 A 
HETATM   13  S2  UNL     1     -38.595   8.771 -20.498  1.00  0.00    -0.027 SA
HETATM   14  C15 UNL     1     -39.497   7.325 -20.572  1.00  0.00     0.290 A 
HETATM   15  O9  UNL     1     -40.546   6.986 -19.916  1.00  0.00    -0.260 OA
HETATM   16  N4  UNL     1     -38.845   6.611 -21.489  1.00  0.00    -0.297 N 
HETATM   17  C16 UNL     1     -37.789   7.127 -22.052  1.00  0.00     0.159 A 
ATOM     18  H4  UNL     1     -39.166   5.678 -21.745  1.00  0.00     0.171 HD
BRANCH  17  19
HETATM   19  O10 UNL     1     -37.032   6.434 -23.041  1.00  0.00    -0.345 OA
ATOM     20  H10 UNL     1     -37.477   5.894 -23.683  1.00  0.00     0.219 HD
ENDBRANCH  17  19
ENDBRANCH   7  12
ENDBRANCH   5   7
ENDBRANCH   4   5
BRANCH   4  21
HETATM   21  O2  UNL     1     -33.778   9.784 -23.989  1.00  0.00    -0.345 OA
ATOM     22  H2  UNL     1     -32.877   9.970 -24.226  1.00  0.00     0.219 HD
ENDBRANCH   4  21
ENDBRANCH   1   4
BRANCH   1  23
HETATM   23  C6  UNL     1     -32.237   7.267 -23.902  1.00  0.00     0.290 C 
BRANCH  23  24
HETATM   24  O4  UNL     1     -31.256   8.148 -24.490  1.00  0.00    -0.281 OA
BRANCH  24  25
HETATM   25  C7  UNL     1     -30.525   7.796 -25.597  1.00  0.00     0.362 C 
HETATM   26  O5  UNL     1     -29.429   8.362 -25.810  1.00  0.00    -0.238 OA
HETATM   27  N3  UNL     1     -30.987   6.809 -26.492  1.00  0.00    -0.330 N 
ATOM     28  H3  UNL     1     -31.878   6.342 -26.325  1.00  0.00     0.165 HD
BRANCH  27  29
HETATM   29  C8  UNL     1     -30.189   6.461 -27.650  1.00  0.00     0.117 C 
HETATM   30  C9  UNL     1     -31.046   5.965 -28.785  1.00  0.00     0.054 C 
HETATM   31  C10 UNL     1     -30.088   5.027 -29.495  1.00  0.00     0.170 C 
HETATM   32  O6  UNL     1     -28.941   4.945 -28.726  1.00  0.00    -0.384 OA
HETATM   33  C11 UNL     1     -29.301   5.256 -27.408  1.00  0.00     0.140 C 
HETATM   34  C12 UNL     1     -30.025   4.091 -26.817  1.00  0.00     0.041 C 
ENDBRANCH  27  29
ENDBRANCH  24  25
ENDBRANCH  23  24
BRANCH  23  35
HETATM   35  C13 UNL     1     -31.537   6.052 -23.481  1.00  0.00     0.210 C 
HETATM   36  O7  UNL     1     -30.542   5.983 -22.734  1.00  0.00    -0.646 OA
HETATM   37  O8  UNL     1     -32.017   4.808 -23.956  1.00  0.00    -0.646 OA
ENDBRANCH  23  35
ENDBRANCH   1  23
BRANCH   2  38
HETATM   38  O3  UNL     1     -32.914   8.163 -20.442  1.00  0.00    -0.290 OA
ATOM     39  H3  UNL     1     -32.367   8.596 -19.798  1.00  0.00     0.244 HD
ENDBRANCH   2  38
TORSDOF 14
ENDMDL
MODEL 2
REMARK VINA RESULT: -7.546178367      3.358      8.647
REMARK  14 active torsions:
REMARK  status: ('A' for Active; 'I' for Inactive)
REMARK    1  A    between atoms: S1_2  and  C2_3 
REMARK    2  A    between atoms: C2_3  and  C3_5 
REMARK    3  A    between atoms: C3_5  and  N1_6 
REMARK    4  A    between atoms: C3_5  and  C14_31 
REMARK    5  A    between atoms: N1_6  and  C4_8 
REMARK    6  A    between atoms: C4_8  and  O2_9 
REMARK    7  A    between atoms: C4_8  and  C5_11 
REMARK    8  A    between atoms: C5_11  and  C6_16 
REMARK    9  A    between atoms: N2_12  and  O3_14 
REMARK   10  A    between atoms: C6_16  and  O4_17 
REMARK   11  A    between atoms: C6_16  and  C13_28 
REMARK   12  A    between atoms: O4_17  and  C7_18 
REMARK       I    between atoms: C7_18  and  N3_20 
REMARK   13  A    between atoms: N3_20  and  C8_22 
REMARK   14  A    between atoms: C16_37  and  O10_38 
ROOT
HETATM    1  C5  UNL     1     -30.402   6.404 -25.527  1.00  0.00     0.122 C 
HETATM    2  N2  UNL     1     -29.851   5.251 -25.825  1.00  0.00    -0.266 N 
ATOM      3  H2  UNL     1     -29.920   4.502 -25.137  1.00  0.00     0.194 HD
ENDROOT
BRANCH   1   4
HETATM    4  C4  UNL     1     -30.341   7.535 -26.473  1.00  0.00     0.165 C 
BRANCH   4   5
HETATM    5  N1  UNL     1     -31.341   7.522 -27.497  1.00  0.00    -0.352 N 
ATOM      6  H1  UNL     1     -32.297   7.229 -27.297  1.00  0.00     0.162 HD
BRANCH   5   7
HETATM    7  C3  UNL     1     -30.962   7.923 -28.771  1.00  0.00     0.209 C 
BRANCH   7   8
HETATM    8  C2  UNL     1     -31.829   8.863 -29.489  1.00  0.00     0.213 C 
HETATM    9  O1  UNL     1     -31.628   9.314 -30.577  1.00  0.00    -0.283 OA
BRANCH   8  10
HETATM   10  S1  UNL     1     -33.347   9.386 -28.652  1.00  0.00    -0.095 SA
HETATM   11  C1  UNL     1     -33.032  10.745 -27.518  1.00  0.00     0.099 C 
ENDBRANCH   8  10
ENDBRANCH   7   8
BRANCH   7  12
HETATM   12  C14 UNL     1     -30.872   6.702 -29.655  1.00  0.00     0.069 A 
HETATM   13  S2  UNL     1     -32.145   5.897 -30.455  1.00  0.00    -0.027 SA
HETATM   14  C15 UNL     1     -31.228   4.676 -31.215  1.00  0.00     0.290 A 
HETATM   15  O9  UNL     1     -31.618   3.724 -31.982  1.00  0.00    -0.260 OA
HETATM   16  N4  UNL     1     -29.985   4.943 -30.818  1.00  0.00    -0.297 N 
HETATM   17  C16 UNL     1     -29.783   5.961 -30.030  1.00  0.00     0.159 A 
ATOM     18  H4  UNL     1     -29.205   4.361 -31.124  1.00  0.00     0.171 HD
BRANCH  17  19
HETATM   19  O10 UNL     1     -28.486   6.319 -29.557  1.00  0.00    -0.345 OA
ATOM     20  H10 UNL     1     -27.714   5.996 -30.006  1.00  0.00     0.219 HD
ENDBRANCH  17  19
ENDBRANCH   7  12
ENDBRANCH   5   7
ENDBRANCH   4   5
BRANCH   4  21
HETATM   21  O2  UNL     1     -29.059   7.831 -26.831  1.00  0.00    -0.345 OA
ATOM     22  H2  UNL     1     -28.750   7.526 -27.677  1.00  0.00     0.219 HD
ENDBRANCH   4  21
ENDBRANCH   1   4
BRANCH   1  23
HETATM   23  C6  UNL     1     -31.094   6.430 -24.220  1.00  0.00     0.290 C 
BRANCH  23  24
HETATM   24  O4  UNL     1     -32.428   6.958 -24.381  1.00  0.00    -0.281 OA
BRANCH  24  25
HETATM   25  C7  UNL     1     -32.834   8.120 -23.774  1.00  0.00     0.362 C 
HETATM   26  O5  UNL     1     -32.525   9.217 -24.291  1.00  0.00    -0.238 OA
HETATM   27  N3  UNL     1     -33.590   8.096 -22.584  1.00  0.00    -0.330 N 
ATOM     28  H3  UNL     1     -33.846   7.206 -22.158  1.00  0.00     0.165 HD
BRANCH  27  29
HETATM   29  C8  UNL     1     -34.002   9.343 -21.971  1.00  0.00     0.117 C 
HETATM   30  C9  UNL     1     -34.050   9.233 -20.470  1.00  0.00     0.054 C 
HETATM   31  C10 UNL     1     -35.129  10.243 -20.130  1.00  0.00     0.170 C 
HETATM   32  O6  UNL     1     -35.663  10.697 -21.323  1.00  0.00    -0.384 OA
HETATM   33  C11 UNL     1     -35.442   9.700 -22.283  1.00  0.00     0.140 C 
HETATM   34  C12 UNL     1     -36.400   8.578 -22.044  1.00  0.00     0.041 C 
ENDBRANCH  27  29
ENDBRANCH  24  25
ENDBRANCH  23  24
BRANCH  23  35
HETATM   35  C13 UNL     1     -31.219   5.103 -23.616  1.00  0.00     0.210 C 
HETATM   36  O7  UNL     1     -30.533   4.638 -22.684  1.00  0.00    -0.646 OA
HETATM   37  O8  UNL     1     -32.214   4.232 -24.121  1.00  0.00    -0.646 OA
ENDBRANCH  23  35
ENDBRANCH   1  23
BRANCH   2  38
HETATM   38  O3  UNL     1     -29.204   4.987 -26.973  1.00  0.00    -0.290 OA
ATOM     39  H3  UNL     1     -29.615   4.648 -27.759  1.00  0.00     0.244 HD
ENDBRANCH   2  38
TORSDOF 14
ENDMDL
MODEL 3
REMARK VINA RESULT: -7.456780480      1.582      2.014
REMARK  14 active torsions:
REMARK  status: ('A' for Active; 'I' for Inactive)
REMARK    1  A    between atoms: S1_2  and  C2_3 
REMARK    2  A    between atoms: C2_3  and  C3_5 
REMARK    3  A    between atoms: C3_5  and  N1_6 
REMARK    4  A    between atoms: C3_5  and  C14_31 
REMARK    5  A    between atoms: N1_6  and  C4_8 
REMARK    6  A    between atoms: C4_8  and  O2_9 
REMARK    7  A    between atoms: C4_8  and  C5_11 
REMARK    8  A    between atoms: C5_11  and  C6_16 
REMARK    9  A    between atoms: N2_12  and  O3_14 
REMARK   10  A    between atoms: C6_16  and  O4_17 
REMARK   11  A    between atoms: C6_16  and  C13_28 
REMARK   12  A    between atoms: O4_17  and  C7_18 
REMARK       I    between atoms: C7_18  and  N3_20 
REMARK   13  A    between atoms: N3_20  and  C8_22 
REMARK   14  A    between atoms: C16_37  and  O10_38 
ROOT
HETATM    1  C5  UNL     1     -32.748   7.891 -22.573  1.00  0.00     0.122 C 
HETATM    2  N2  UNL     1     -32.315   7.381 -21.444  1.00  0.00    -0.266 N 
ATOM      3  H2  UNL     1     -31.675   6.589 -21.497  1.00  0.00     0.194 HD
ENDROOT
BRANCH   1   4
HETATM    4  C4  UNL     1     -33.678   9.037 -22.574  1.00  0.00     0.165 C 
BRANCH   4   5
HETATM    5  N1  UNL     1     -34.928   8.802 -21.919  1.00  0.00    -0.352 N 
ATOM      6  H1  UNL     1     -34.978   8.668 -20.909  1.00  0.00     0.162 HD
BRANCH   5   7
HETATM    7  C3  UNL     1     -36.071   8.763 -22.707  1.00  0.00     0.209 C 
BRANCH   7   8
HETATM    8  C2  UNL     1     -36.666  10.036 -23.129  1.00  0.00     0.213 C 
HETATM    9  O1  UNL     1     -36.772  11.019 -22.459  1.00  0.00    -0.283 OA
BRANCH   8  10
HETATM   10  S1  UNL     1     -37.298  10.126 -24.823  1.00  0.00    -0.095 SA
HETATM   11  C1  UNL     1     -36.726   8.737 -25.809  1.00  0.00     0.099 C 
ENDBRANCH   8  10
ENDBRANCH   7   8
BRANCH   7  12
HETATM   12  C14 UNL     1     -37.159   8.043 -21.947  1.00  0.00     0.069 A 
HETATM   13  S2  UNL     1     -38.106   6.728 -22.475  1.00  0.00    -0.027 SA
HETATM   14  C15 UNL     1     -39.051   6.522 -21.071  1.00  0.00     0.290 A 
HETATM   15  O9  UNL     1     -39.979   5.668 -20.832  1.00  0.00    -0.260 OA
HETATM   16  N4  UNL     1     -38.595   7.475 -20.259  1.00  0.00    -0.297 N 
HETATM   17  C16 UNL     1     -37.640   8.254 -20.682  1.00  0.00     0.159 A 
ATOM     18  H4  UNL     1     -38.986   7.593 -19.325  1.00  0.00     0.171 HD
BRANCH  17  19
HETATM   19  O10 UNL     1     -37.092   9.299 -19.881  1.00  0.00    -0.345 OA
ATOM     20  H10 UNL     1     -37.373  10.196 -20.020  1.00  0.00     0.219 HD
ENDBRANCH  17  19
ENDBRANCH   7  12
ENDBRANCH   5   7
ENDBRANCH   4   5
BRANCH   4  21
HETATM   21  O2  UNL     1     -33.695   9.677 -23.778  1.00  0.00    -0.345 OA
ATOM     22  H2  UNL     1     -32.976  10.263 -23.982  1.00  0.00     0.219 HD
ENDBRANCH   4  21
ENDBRANCH   1   4
BRANCH   1  23
HETATM   23  C6  UNL     1     -32.192   7.251 -23.784  1.00  0.00     0.290 C 
BRANCH  23  24
HETATM   24  O4  UNL     1     -31.228   8.128 -24.407  1.00  0.00    -0.281 OA
BRANCH  24  25
HETATM   25  C7  UNL     1     -30.552   7.780 -25.549  1.00  0.00     0.362 C 
HETATM   26  O5  UNL     1     -29.506   8.398 -25.849  1.00  0.00    -0.238 OA
HETATM   27  N3  UNL     1     -31.014   6.741 -26.382  1.00  0.00    -0.330 N 
ATOM     28  H3  UNL     1     -31.865   6.233 -26.143  1.00  0.00     0.165 HD
BRANCH  27  29
HETATM   29  C8  UNL     1     -30.274   6.400 -27.580  1.00  0.00     0.117 C 
HETATM   30  C9  UNL     1     -31.163   5.772 -28.621  1.00  0.00     0.054 C 
HETATM   31  C10 UNL     1     -30.179   4.881 -29.356  1.00  0.00     0.170 C 
HETATM   32  O6  UNL     1     -28.977   4.940 -28.675  1.00  0.00    -0.384 OA
HETATM   33  C11 UNL     1     -29.267   5.290 -27.349  1.00  0.00     0.140 C 
HETATM   34  C12 UNL     1     -29.840   4.101 -26.650  1.00  0.00     0.041 C 
ENDBRANCH  27  29
ENDBRANCH  24  25
ENDBRANCH  23  24
BRANCH  23  35
HETATM   35  C13 UNL     1     -31.512   5.987 -23.499  1.00  0.00     0.210 C 
HETATM   36  O7  UNL     1     -30.463   5.833 -22.843  1.00  0.00    -0.646 OA
HETATM   37  O8  UNL     1     -32.080   4.794 -24.008  1.00  0.00    -0.646 OA
ENDBRANCH  23  35
ENDBRANCH   1  23
BRANCH   2  38
HETATM   38  O3  UNL     1     -32.656   7.827 -20.223  1.00  0.00    -0.290 OA
ATOM     39  H3  UNL     1     -32.038   8.043 -19.534  1.00  0.00     0.244 HD
ENDBRANCH   2  38
TORSDOF 14
ENDMDL
MODEL 4
REMARK VINA RESULT: -7.416854592      3.951      8.701
REMARK  14 active torsions:
REMARK  status: ('A' for Active; 'I' for Inactive)
REMARK    1  A    between atoms: S1_2  and  C2_3 
REMARK    2  A    between atoms: C2_3  and  C3_5 
REMARK    3  A    between atoms: C3_5  and  N1_6 
REMARK    4  A    between atoms: C3_5  and  C14_31 
REMARK    5  A    between atoms: N1_6  and  C4_8 
REMARK    6  A    between atoms: C4_8  and  O2_9 
REMARK    7  A    between atoms: C4_8  and  C5_11 
REMARK    8  A    between atoms: C5_11  and  C6_16 
REMARK    9  A    between atoms: N2_12  and  O3_14 
REMARK   10  A    between atoms: C6_16  and  O4_17 
REMARK   11  A    between atoms: C6_16  and  C13_28 
REMARK   12  A    between atoms: O4_17  and  C7_18 
REMARK       I    between atoms: C7_18  and  N3_20 
REMARK   13  A    between atoms: N3_20  and  C8_22 
REMARK   14  A    between atoms: C16_37  and  O10_38 
ROOT
HETATM    1  C5  UNL     1     -30.280   4.973 -25.333  1.00  0.00     0.122 C 
HETATM    2  N2  UNL     1     -29.561   3.923 -25.650  1.00  0.00    -0.266 N 
ATOM      3  H2  UNL     1     -29.477   3.180 -24.957  1.00  0.00     0.194 HD
ENDROOT
BRANCH   1   4
HETATM    4  C4  UNL     1     -30.445   6.089 -26.285  1.00  0.00     0.165 C 
BRANCH   4   5
HETATM    5  N1  UNL     1     -31.177   5.769 -27.472  1.00  0.00    -0.352 N 
ATOM      6  H1  UNL     1     -31.681   4.886 -27.560  1.00  0.00     0.162 HD
BRANCH   5   7
HETATM    7  C3  UNL     1     -31.178   6.703 -28.499  1.00  0.00     0.209 C 
BRANCH   7   8
HETATM    8  C2  UNL     1     -32.465   7.260 -28.930  1.00  0.00     0.213 C 
HETATM    9  O1  UNL     1     -33.521   6.703 -28.888  1.00  0.00    -0.283 OA
BRANCH   8  10
HETATM   10  S1  UNL     1     -32.453   8.947 -29.585  1.00  0.00    -0.095 SA
HETATM   11  C1  UNL     1     -32.303  10.159 -28.266  1.00  0.00     0.099 C 
ENDBRANCH   8  10
ENDBRANCH   7   8
BRANCH   7  12
HETATM   12  C14 UNL     1     -30.583   6.066 -29.732  1.00  0.00     0.069 A 
HETATM   13  S2  UNL     1     -31.359   5.738 -31.215  1.00  0.00    -0.027 SA
HETATM   14  C15 UNL     1     -30.035   5.048 -32.041  1.00  0.00     0.290 A 
HETATM   15  O9  UNL     1     -29.973   4.584 -33.235  1.00  0.00    -0.260 OA
HETATM   16  N4  UNL     1     -29.057   5.101 -31.137  1.00  0.00    -0.297 N 
HETATM   17  C16 UNL     1     -29.312   5.611 -29.966  1.00  0.00     0.159 A 
ATOM     18  H4  UNL     1     -28.126   4.748 -31.358  1.00  0.00     0.171 HD
BRANCH  17  19
HETATM   19  O10 UNL     1     -28.326   5.707 -28.940  1.00  0.00    -0.345 OA
ATOM     20  H10 UNL     1     -28.043   4.924 -28.483  1.00  0.00     0.219 HD
ENDBRANCH  17  19
ENDBRANCH   7  12
ENDBRANCH   5   7
ENDBRANCH   4   5
BRANCH   4  21
HETATM   21  O2  UNL     1     -29.303   6.821 -26.414  1.00  0.00    -0.345 OA
ATOM     22  H2  UNL     1     -29.382   7.730 -26.680  1.00  0.00     0.219 HD
ENDBRANCH   4  21
ENDBRANCH   1   4
BRANCH   1  23
HETATM   23  C6  UNL     1     -30.912   4.899 -23.998  1.00  0.00     0.290 C 
BRANCH  23  24
HETATM   24  O4  UNL     1     -32.176   5.599 -24.012  1.00  0.00    -0.281 OA
BRANCH  24  25
HETATM   25  C7  UNL     1     -32.318   6.865 -23.504  1.00  0.00     0.362 C 
HETATM   26  O5  UNL     1     -31.553   7.243 -22.589  1.00  0.00    -0.238 OA
HETATM   27  N3  UNL     1     -33.307   7.742 -23.996  1.00  0.00    -0.330 N 
ATOM     28  H3  UNL     1     -33.933   7.441 -24.742  1.00  0.00     0.165 HD
BRANCH  27  29
HETATM   29  C8  UNL     1     -33.428   9.073 -23.435  1.00  0.00     0.117 C 
HETATM   30  C9  UNL     1     -34.596   9.172 -22.491  1.00  0.00     0.054 C 
HETATM   31  C10 UNL     1     -34.972  10.635 -22.633  1.00  0.00     0.170 C 
HETATM   32  O6  UNL     1     -34.185  11.170 -23.638  1.00  0.00    -0.384 OA
HETATM   33  C11 UNL     1     -33.803  10.112 -24.474  1.00  0.00     0.140 C 
HETATM   34  C12 UNL     1     -34.971   9.717 -25.318  1.00  0.00     0.041 C 
ENDBRANCH  27  29
ENDBRANCH  24  25
ENDBRANCH  23  24
BRANCH  23  35
HETATM   35  C13 UNL     1     -31.177   3.526 -23.569  1.00  0.00     0.210 C 
HETATM   36  O7  UNL     1     -30.811   2.991 -22.504  1.00  0.00    -0.646 OA
HETATM   37  O8  UNL     1     -31.927   2.691 -24.432  1.00  0.00    -0.646 OA
ENDBRANCH  23  35
ENDBRANCH   1  23
BRANCH   2  38
HETATM   38  O3  UNL     1     -28.927   3.756 -26.824  1.00  0.00    -0.290 OA
ATOM     39  H3  UNL     1     -28.336   3.039 -27.021  1.00  0.00     0.244 HD
ENDBRANCH   2  38
TORSDOF 14
ENDMDL
MODEL 5
REMARK VINA RESULT: -7.383239721      3.721      8.120
REMARK  14 active torsions:
REMARK  status: ('A' for Active; 'I' for Inactive)
REMARK    1  A    between atoms: S1_2  and  C2_3 
REMARK    2  A    between atoms: C2_3  and  C3_5 
REMARK    3  A    between atoms: C3_5  and  N1_6 
REMARK    4  A    between atoms: C3_5  and  C14_31 
REMARK    5  A    between atoms: N1_6  and  C4_8 
REMARK    6  A    between atoms: C4_8  and  O2_9 
REMARK    7  A    between atoms: C4_8  and  C5_11 
REMARK    8  A    between atoms: C5_11  and  C6_16 
REMARK    9  A    between atoms: N2_12  and  O3_14 
REMARK   10  A    between atoms: C6_16  and  O4_17 
REMARK   11  A    between atoms: C6_16  and  C13_28 
REMARK   12  A    between atoms: O4_17  and  C7_18 
REMARK       I    between atoms: C7_18  and  N3_20 
REMARK   13  A    between atoms: N3_20  and  C8_22 
REMARK   14  A    between atoms: C16_37  and  O10_38 
ROOT
HETATM    1  C5  UNL     1     -30.324   5.031 -25.362  1.00  0.00     0.122 C 
HETATM    2  N2  UNL     1     -29.698   3.998 -25.875  1.00  0.00    -0.266 N 
ATOM      3  H2  UNL     1     -29.695   3.132 -25.338  1.00  0.00     0.194 HD
ENDROOT
BRANCH   1   4
HETATM    4  C4  UNL     1     -30.369   6.319 -26.081  1.00  0.00     0.165 C 
BRANCH   4   5
HETATM    5  N1  UNL     1     -31.300   6.373 -27.167  1.00  0.00    -0.352 N 
ATOM      6  H1  UNL     1     -32.278   6.115 -27.037  1.00  0.00     0.162 HD
BRANCH   5   7
HETATM    7  C3  UNL     1     -30.823   6.790 -28.403  1.00  0.00     0.209 C 
BRANCH   7   8
HETATM    8  C2  UNL     1     -31.007   8.195 -28.779  1.00  0.00     0.213 C 
HETATM    9  O1  UNL     1     -30.562   8.726 -29.752  1.00  0.00    -0.283 OA
BRANCH   8  10
HETATM   10  S1  UNL     1     -32.003   9.221 -27.669  1.00  0.00    -0.095 SA
HETATM   11  C1  UNL     1     -30.972  10.335 -26.707  1.00  0.00     0.099 C 
ENDBRANCH   8  10
ENDBRANCH   7   8
BRANCH   7  12
HETATM   12  C14 UNL     1     -31.514   5.991 -29.482  1.00  0.00     0.069 A 
HETATM   13  S2  UNL     1     -30.794   5.138 -30.771  1.00  0.00    -0.027 SA
HETATM   14  C15 UNL     1     -32.215   4.532 -31.493  1.00  0.00     0.290 A 
HETATM   15  O9  UNL     1     -32.348   3.793 -32.534  1.00  0.00    -0.260 OA
HETATM   16  N4  UNL     1     -33.179   5.014 -30.710  1.00  0.00    -0.297 N 
HETATM   17  C16 UNL     1     -32.847   5.753 -29.689  1.00  0.00     0.159 A 
ATOM     18  H4  UNL     1     -34.159   4.809 -30.905  1.00  0.00     0.171 HD
BRANCH  17  19
HETATM   19  O10 UNL     1     -33.812   6.310 -28.799  1.00  0.00    -0.345 OA
ATOM     20  H10 UNL     1     -34.231   5.756 -28.151  1.00  0.00     0.219 HD
ENDBRANCH  17  19
ENDBRANCH   7  12
ENDBRANCH   5   7
ENDBRANCH   4   5
BRANCH   4  21
HETATM   21  O2  UNL     1     -29.123   6.836 -26.278  1.00  0.00    -0.345 OA
ATOM     22  H2  UNL     1     -28.378   6.340 -25.961  1.00  0.00     0.219 HD
ENDBRANCH   4  21
ENDBRANCH   1   4
BRANCH   1  23
HETATM   23  C6  UNL     1     -30.984   4.762 -24.066  1.00  0.00     0.290 C 
BRANCH  23  24
HETATM   24  O4  UNL     1     -32.244   5.464 -24.000  1.00  0.00    -0.281 OA
BRANCH  24  25
HETATM   25  C7  UNL     1     -32.350   6.731 -23.482  1.00  0.00     0.362 C 
HETATM   26  O5  UNL     1     -31.557   7.089 -22.583  1.00  0.00    -0.238 OA
HETATM   27  N3  UNL     1     -33.333   7.629 -23.947  1.00  0.00    -0.330 N 
ATOM     28  H3  UNL     1     -33.982   7.344 -24.680  1.00  0.00     0.165 HD
BRANCH  27  29
HETATM   29  C8  UNL     1     -33.416   8.958 -23.377  1.00  0.00     0.117 C 
HETATM   30  C9  UNL     1     -34.510   9.053 -22.347  1.00  0.00     0.054 C 
HETATM   31  C10 UNL     1     -34.900  10.514 -22.458  1.00  0.00     0.170 C 
HETATM   32  O6  UNL     1     -34.194  11.053 -23.518  1.00  0.00    -0.384 OA
HETATM   33  C11 UNL     1     -33.873   9.998 -24.383  1.00  0.00     0.140 C 
HETATM   34  C12 UNL     1     -35.100   9.599 -25.136  1.00  0.00     0.041 C 
ENDBRANCH  27  29
ENDBRANCH  24  25
ENDBRANCH  23  24
BRANCH  23  35
HETATM   35  C13 UNL     1     -31.264   3.341 -23.854  1.00  0.00     0.210 C 
HETATM   36  O7  UNL     1     -30.969   2.662 -22.851  1.00  0.00    -0.646 OA
HETATM   37  O8  UNL     1     -31.941   2.635 -24.878  1.00  0.00    -0.646 OA
ENDBRANCH  23  35
ENDBRANCH   1  23
BRANCH   2  38
HETATM   38  O3  UNL     1     -29.062   4.001 -27.059  1.00  0.00    -0.290 OA
ATOM     39  H3  UNL     1     -29.072   3.282 -27.679  1.00  0.00     0.244 HD
ENDBRANCH   2  38
TORSDOF 14
ENDMDL
