MODEL 1
REMARK VINA RESULT: -6.121454979      0.000      0.000
REMARK  12 active torsions:
REMARK  status: ('A' for Active; 'I' for Inactive)
REMARK    1  A    between atoms: N1_1  and  C1_5 
REMARK    2  A    between atoms: C3_7  and  O1_8 
REMARK    3  A    between atoms: O1_8  and  C4_9 
REMARK    4  A    between atoms: C5_11  and  O3_12 
REMARK    5  A    between atoms: O3_12  and  C6_13 
REMARK    6  A    between atoms: C7_14  and  O4_15 
REMARK    7  A    between atoms: C8_17  and  O5_18 
REMARK    8  A    between atoms: O5_18  and  C9_19 
REMARK    9  A    between atoms: C11_22  and  N2_23 
REMARK   10  A    between atoms: C12_27  and  N3_28 
REMARK   11  A    between atoms: C14_33  and  N4_34 
REMARK   12  A    between atoms: C16_39  and  O7_40 
ROOT
HETATM    1  C4  UNL     1     -30.178   5.685 -28.361  1.00  0.00     0.293 C 
HETATM    2  O2  UNL     1     -31.543   5.601 -28.416  1.00  0.00    -0.327 OA
HETATM    3  C5  UNL     1     -32.108   5.924 -29.620  1.00  0.00     0.294 C 
HETATM    4  C12 UNL     1     -31.611   4.894 -30.640  1.00  0.00     0.240 C 
HETATM    5  C13 UNL     1     -30.141   5.181 -30.825  1.00  0.00     0.075 C 
HETATM    6  C14 UNL     1     -29.456   5.071 -29.513  1.00  0.00     0.240 C 
ENDROOT
BRANCH   3   7
HETATM    7  O3  UNL     1     -31.877   7.212 -30.042  1.00  0.00    -0.348 OA
BRANCH   7   8
HETATM    8  C6  UNL     1     -32.534   8.134 -29.251  1.00  0.00     0.187 A 
HETATM    9  C7  UNL     1     -32.589   9.567 -29.767  1.00  0.00     0.181 A 
HETATM   10  C8  UNL     1     -31.759   9.214 -28.546  1.00  0.00     0.187 A 
BRANCH   9  11
HETATM   11  O4  UNL     1     -33.770  10.280 -29.592  1.00  0.00    -0.390 OA
ATOM     12  H4  UNL     1     -34.588   9.798 -29.592  1.00  0.00     0.210 HD
ENDBRANCH   9  11
BRANCH  10  13
HETATM   13  O5  UNL     1     -32.223   9.767 -27.374  1.00  0.00    -0.348 OA
BRANCH  13  14
HETATM   14  C9  UNL     1     -32.645   8.783 -26.484  1.00  0.00     0.292 A 
HETATM   15  O6  UNL     1     -32.255   9.015 -25.157  1.00  0.00    -0.357 OA
HETATM   16  C10 UNL     1     -33.548   9.298 -24.696  1.00  0.00     0.209 A 
HETATM   17  C11 UNL     1     -34.068   8.957 -26.057  1.00  0.00     0.262 A 
BRANCH  17  18
HETATM   18  N2  UNL     1     -34.809   9.992 -26.727  1.00  0.00    -0.068 N 
ATOM     19  H23 UNL     1     -34.176  10.739 -27.015  1.00  0.00     0.275 HD
ATOM     20  H22 UNL     1     -35.126   9.657 -27.637  1.00  0.00     0.275 HD
ATOM     21  H21 UNL     1     -35.595  10.387 -26.212  1.00  0.00     0.275 HD
ENDBRANCH  17  18
ENDBRANCH  13  14
ENDBRANCH  10  13
ENDBRANCH   7   8
ENDBRANCH   3   7
BRANCH   4  22
HETATM   22  N3  UNL     1     -32.351   4.940 -31.859  1.00  0.00    -0.070 N 
ATOM     23  H33 UNL     1     -33.355   4.921 -31.682  1.00  0.00     0.274 HD
ATOM     24  H32 UNL     1     -32.282   5.858 -32.298  1.00  0.00     0.274 HD
ATOM     25  H31 UNL     1     -32.076   4.201 -32.506  1.00  0.00     0.274 HD
ENDBRANCH   4  22
BRANCH   1  26
HETATM   26  O1  UNL     1     -29.752   5.003 -27.219  1.00  0.00    -0.354 OA
BRANCH  26  27
HETATM   27  C3  UNL     1     -30.657   5.025 -26.191  1.00  0.00     0.129 C 
HETATM   28  C2  UNL     1     -30.411   6.105 -25.173  1.00  0.00     0.067 C 
HETATM   29  C1  UNL     1     -31.131   5.571 -23.945  1.00  0.00     0.214 C 
HETATM   30  C16 UNL     1     -31.180   4.080 -24.098  1.00  0.00     0.151 C 
HETATM   31  C15 UNL     1     -30.463   3.762 -25.374  1.00  0.00     0.066 C 
BRANCH  29  32
HETATM   32  N1  UNL     1     -32.460   6.095 -23.816  1.00  0.00    -0.072 N 
ATOM     33  H13 UNL     1     -32.786   6.489 -24.699  1.00  0.00     0.274 HD
ATOM     34  H12 UNL     1     -33.142   5.344 -23.710  1.00  0.00     0.274 HD
ATOM     35  H11 UNL     1     -32.541   6.774 -23.059  1.00  0.00     0.274 HD
ENDBRANCH  29  32
BRANCH  30  36
HETATM   36  O7  UNL     1     -30.510   3.460 -23.018  1.00  0.00    -0.393 OA
ATOM     37  H7  UNL     1     -30.035   2.698 -23.325  1.00  0.00     0.210 HD
ENDBRANCH  30  36
ENDBRANCH  26  27
ENDBRANCH   1  26
BRANCH   6  38
HETATM   38  N4  UNL     1     -28.151   5.738 -29.634  1.00  0.00    -0.070 N 
ATOM     39  H43 UNL     1     -28.153   6.683 -29.250  1.00  0.00     0.274 HD
ATOM     40  H42 UNL     1     -27.445   5.341 -29.015  1.00  0.00     0.274 HD
ATOM     41  H41 UNL     1     -27.877   5.711 -30.616  1.00  0.00     0.274 HD
ENDBRANCH   6  38
TORSDOF 12
ENDMDL
MODEL 2
REMARK VINA RESULT: -5.974519405      1.458      1.845
REMARK  12 active torsions:
REMARK  status: ('A' for Active; 'I' for Inactive)
REMARK    1  A    between atoms: N1_1  and  C1_5 
REMARK    2  A    between atoms: C3_7  and  O1_8 
REMARK    3  A    between atoms: O1_8  and  C4_9 
REMARK    4  A    between atoms: C5_11  and  O3_12 
REMARK    5  A    between atoms: O3_12  and  C6_13 
REMARK    6  A    between atoms: C7_14  and  O4_15 
REMARK    7  A    between atoms: C8_17  and  O5_18 
REMARK    8  A    between atoms: O5_18  and  C9_19 
REMARK    9  A    between atoms: C11_22  and  N2_23 
REMARK   10  A    between atoms: C12_27  and  N3_28 
REMARK   11  A    between atoms: C14_33  and  N4_34 
REMARK   12  A    between atoms: C16_39  and  O7_40 
ROOT
HETATM    1  C4  UNL     1     -30.294   5.416 -28.043  1.00  0.00     0.293 C 
HETATM    2  O2  UNL     1     -31.470   6.093 -27.867  1.00  0.00    -0.327 OA
HETATM    3  C5  UNL     1     -31.715   7.097 -28.764  1.00  0.00     0.294 C 
HETATM    4  C12 UNL     1     -31.842   6.445 -30.145  1.00  0.00     0.240 C 
HETATM    5  C13 UNL     1     -30.456   5.957 -30.494  1.00  0.00     0.075 C 
HETATM    6  C14 UNL     1     -29.997   5.010 -29.448  1.00  0.00     0.240 C 
ENDROOT
BRANCH   3   7
HETATM    7  O3  UNL     1     -30.789   8.113 -28.763  1.00  0.00    -0.348 OA
BRANCH   7   8
HETATM    8  C6  UNL     1     -31.086   9.074 -27.817  1.00  0.00     0.187 A 
HETATM    9  C7  UNL     1     -29.967   9.463 -26.859  1.00  0.00     0.181 A 
HETATM   10  C8  UNL     1     -31.181   8.699 -26.363  1.00  0.00     0.187 A 
BRANCH   9  11
HETATM   11  O4  UNL     1     -29.834  10.804 -26.518  1.00  0.00    -0.390 OA
ATOM     12  H4  UNL     1     -29.085  11.060 -25.993  1.00  0.00     0.210 HD
ENDBRANCH   9  11
BRANCH  10  13
HETATM   13  O5  UNL     1     -31.979   9.413 -25.499  1.00  0.00    -0.348 OA
BRANCH  13  14
HETATM   14  C9  UNL     1     -32.977   8.611 -24.953  1.00  0.00     0.292 A 
HETATM   15  O6  UNL     1     -32.836   8.387 -23.576  1.00  0.00    -0.357 OA
HETATM   16  C10 UNL     1     -33.940   9.167 -23.210  1.00  0.00     0.209 A 
HETATM   17  C11 UNL     1     -34.236   9.365 -24.663  1.00  0.00     0.262 A 
BRANCH  17  18
HETATM   18  N2  UNL     1     -34.277  10.730 -25.118  1.00  0.00    -0.068 N 
ATOM     19  H23 UNL     1     -34.191  11.362 -24.321  1.00  0.00     0.275 HD
ATOM     20  H22 UNL     1     -33.418  10.952 -25.622  1.00  0.00     0.275 HD
ATOM     21  H21 UNL     1     -35.085  10.992 -25.680  1.00  0.00     0.275 HD
ENDBRANCH  17  18
ENDBRANCH  13  14
ENDBRANCH  10  13
ENDBRANCH   7   8
ENDBRANCH   3   7
BRANCH   4  22
HETATM   22  N3  UNL     1     -32.386   7.337 -31.117  1.00  0.00    -0.070 N 
ATOM     23  H33 UNL     1     -33.403   7.270 -31.150  1.00  0.00     0.274 HD
ATOM     24  H32 UNL     1     -32.296   8.307 -30.817  1.00  0.00     0.274 HD
ATOM     25  H31 UNL     1     -31.977   7.197 -32.040  1.00  0.00     0.274 HD
ENDBRANCH   4  22
BRANCH   1  26
HETATM   26  O1  UNL     1     -30.363   4.236 -27.298  1.00  0.00    -0.354 OA
BRANCH  26  27
HETATM   27  C3  UNL     1     -31.111   4.345 -26.156  1.00  0.00     0.129 C 
HETATM   28  C2  UNL     1     -30.538   5.282 -25.128  1.00  0.00     0.067 C 
HETATM   29  C1  UNL     1     -31.187   4.797 -23.841  1.00  0.00     0.214 C 
HETATM   30  C16 UNL     1     -31.540   3.357 -24.062  1.00  0.00     0.151 C 
HETATM   31  C15 UNL     1     -31.062   3.011 -25.438  1.00  0.00     0.066 C 
BRANCH  29  32
HETATM   32  N1  UNL     1     -32.364   5.545 -23.505  1.00  0.00    -0.072 N 
ATOM     33  H13 UNL     1     -32.174   6.547 -23.499  1.00  0.00     0.274 HD
ATOM     34  H12 UNL     1     -33.047   5.513 -24.262  1.00  0.00     0.274 HD
ATOM     35  H11 UNL     1     -32.779   5.244 -22.623  1.00  0.00     0.274 HD
ENDBRANCH  29  32
BRANCH  30  36
HETATM   36  O7  UNL     1     -30.871   2.544 -23.116  1.00  0.00    -0.393 OA
ATOM     37  H7  UNL     1     -31.275   2.641 -22.262  1.00  0.00     0.210 HD
ENDBRANCH  30  36
ENDBRANCH  26  27
ENDBRANCH   1  26
BRANCH   6  38
HETATM   38  N4  UNL     1     -28.539   4.875 -29.579  1.00  0.00    -0.070 N 
ATOM     39  H43 UNL     1     -28.079   5.756 -29.807  1.00  0.00     0.274 HD
ATOM     40  H42 UNL     1     -28.076   4.707 -28.686  1.00  0.00     0.274 HD
ATOM     41  H41 UNL     1     -28.354   4.142 -30.264  1.00  0.00     0.274 HD
ENDBRANCH   6  38
TORSDOF 12
ENDMDL
MODEL 3
REMARK VINA RESULT: -5.819654522      1.700      5.287
REMARK  12 active torsions:
REMARK  status: ('A' for Active; 'I' for Inactive)
REMARK    1  A    between atoms: N1_1  and  C1_5 
REMARK    2  A    between atoms: C3_7  and  O1_8 
REMARK    3  A    between atoms: O1_8  and  C4_9 
REMARK    4  A    between atoms: C5_11  and  O3_12 
REMARK    5  A    between atoms: O3_12  and  C6_13 
REMARK    6  A    between atoms: C7_14  and  O4_15 
REMARK    7  A    between atoms: C8_17  and  O5_18 
REMARK    8  A    between atoms: O5_18  and  C9_19 
REMARK    9  A    between atoms: C11_22  and  N2_23 
REMARK   10  A    between atoms: C12_27  and  N3_28 
REMARK   11  A    between atoms: C14_33  and  N4_34 
REMARK   12  A    between atoms: C16_39  and  O7_40 
ROOT
HETATM    1  C4  UNL     1     -31.968   8.054 -25.150  1.00  0.00     0.293 C 
HETATM    2  O2  UNL     1     -31.232   8.985 -25.833  1.00  0.00    -0.327 OA
HETATM    3  C5  UNL     1     -31.949   9.843 -26.623  1.00  0.00     0.294 C 
HETATM    4  C12 UNL     1     -32.851  10.662 -25.694  1.00  0.00     0.240 C 
HETATM    5  C13 UNL     1     -33.877   9.691 -25.163  1.00  0.00     0.075 C 
HETATM    6  C14 UNL     1     -33.182   8.583 -24.463  1.00  0.00     0.240 C 
ENDROOT
BRANCH   3   7
HETATM    7  O3  UNL     1     -32.666   9.241 -27.630  1.00  0.00    -0.348 OA
BRANCH   7   8
HETATM    8  C6  UNL     1     -31.866   8.929 -28.711  1.00  0.00     0.187 A 
HETATM    9  C7  UNL     1     -32.549   8.853 -30.072  1.00  0.00     0.181 A 
HETATM   10  C8  UNL     1     -32.012   7.601 -29.402  1.00  0.00     0.187 A 
BRANCH   9  11
HETATM   11  O4  UNL     1     -31.874   9.366 -31.173  1.00  0.00    -0.390 OA
ATOM     12  H4  UNL     1     -31.442   8.755 -31.758  1.00  0.00     0.210 HD
ENDBRANCH   9  11
BRANCH  10  13
HETATM   13  O5  UNL     1     -30.949   7.025 -30.060  1.00  0.00    -0.348 OA
BRANCH  13  14
HETATM   14  C9  UNL     1     -31.006   5.635 -29.991  1.00  0.00     0.292 A 
HETATM   15  O6  UNL     1     -31.040   5.007 -31.244  1.00  0.00    -0.357 OA
HETATM   16  C10 UNL     1     -29.749   4.472 -31.150  1.00  0.00     0.209 A 
HETATM   17  C11 UNL     1     -29.668   5.010 -29.755  1.00  0.00     0.262 A 
BRANCH  17  18
HETATM   18  N2  UNL     1     -28.581   5.916 -29.492  1.00  0.00    -0.068 N 
ATOM     19  H23 UNL     1     -28.420   6.508 -30.307  1.00  0.00     0.275 HD
ATOM     20  H22 UNL     1     -28.873   6.617 -28.811  1.00  0.00     0.275 HD
ATOM     21  H21 UNL     1     -27.703   5.491 -29.196  1.00  0.00     0.275 HD
ENDBRANCH  17  18
ENDBRANCH  13  14
ENDBRANCH  10  13
ENDBRANCH   7   8
ENDBRANCH   3   7
BRANCH   4  22
HETATM   22  N3  UNL     1     -33.429  11.787 -26.354  1.00  0.00    -0.070 N 
ATOM     23  H33 UNL     1     -34.191  12.184 -25.806  1.00  0.00     0.274 HD
ATOM     24  H32 UNL     1     -32.793  12.584 -26.350  1.00  0.00     0.274 HD
ATOM     25  H31 UNL     1     -33.734  11.564 -27.302  1.00  0.00     0.274 HD
ENDBRANCH   4  22
BRANCH   1  26
HETATM   26  O1  UNL     1     -31.154   7.513 -24.153  1.00  0.00    -0.354 OA
BRANCH  26  27
HETATM   27  C3  UNL     1     -30.581   6.316 -24.494  1.00  0.00     0.129 C 
HETATM   28  C2  UNL     1     -30.657   5.989 -25.960  1.00  0.00     0.067 C 
HETATM   29  C1  UNL     1     -30.502   4.477 -25.971  1.00  0.00     0.214 C 
HETATM   30  C16 UNL     1     -30.961   3.996 -24.627  1.00  0.00     0.151 C 
HETATM   31  C15 UNL     1     -31.412   5.209 -23.874  1.00  0.00     0.066 C 
BRANCH  29  32
HETATM   32  N1  UNL     1     -29.147   4.066 -26.202  1.00  0.00    -0.072 N 
ATOM     33  H13 UNL     1     -29.057   3.584 -27.097  1.00  0.00     0.274 HD
ATOM     34  H12 UNL     1     -28.547   4.869 -26.388  1.00  0.00     0.274 HD
ATOM     35  H11 UNL     1     -28.776   3.498 -25.440  1.00  0.00     0.274 HD
ENDBRANCH  29  32
BRANCH  30  36
HETATM   36  O7  UNL     1     -32.052   3.107 -24.778  1.00  0.00    -0.393 OA
ATOM     37  H7  UNL     1     -32.869   3.569 -24.634  1.00  0.00     0.210 HD
ENDBRANCH  30  36
ENDBRANCH  26  27
ENDBRANCH   1  26
BRANCH   6  38
HETATM   38  N4  UNL     1     -34.138   7.475 -24.323  1.00  0.00    -0.070 N 
ATOM     39  H43 UNL     1     -34.089   6.810 -25.096  1.00  0.00     0.274 HD
ATOM     40  H42 UNL     1     -33.888   6.829 -23.573  1.00  0.00     0.274 HD
ATOM     41  H41 UNL     1     -35.067   7.877 -24.206  1.00  0.00     0.274 HD
ENDBRANCH   6  38
TORSDOF 12
ENDMDL
MODEL 4
REMARK VINA RESULT: -5.713730502      0.997      1.135
REMARK  12 active torsions:
REMARK  status: ('A' for Active; 'I' for Inactive)
REMARK    1  A    between atoms: N1_1  and  C1_5 
REMARK    2  A    between atoms: C3_7  and  O1_8 
REMARK    3  A    between atoms: O1_8  and  C4_9 
REMARK    4  A    between atoms: C5_11  and  O3_12 
REMARK    5  A    between atoms: O3_12  and  C6_13 
REMARK    6  A    between atoms: C7_14  and  O4_15 
REMARK    7  A    between atoms: C8_17  and  O5_18 
REMARK    8  A    between atoms: O5_18  and  C9_19 
REMARK    9  A    between atoms: C11_22  and  N2_23 
REMARK   10  A    between atoms: C12_27  and  N3_28 
REMARK   11  A    between atoms: C14_33  and  N4_34 
REMARK   12  A    between atoms: C16_39  and  O7_40 
ROOT
HETATM    1  C4  UNL     1     -30.205   5.717 -28.363  1.00  0.00     0.293 C 
HETATM    2  O2  UNL     1     -31.568   5.599 -28.414  1.00  0.00    -0.327 OA
HETATM    3  C5  UNL     1     -32.141   5.876 -29.625  1.00  0.00     0.294 C 
HETATM    4  C12 UNL     1     -31.620   4.833 -30.618  1.00  0.00     0.240 C 
HETATM    5  C13 UNL     1     -30.157   5.150 -30.812  1.00  0.00     0.075 C 
HETATM    6  C14 UNL     1     -29.469   5.091 -29.499  1.00  0.00     0.240 C 
ENDROOT
BRANCH   3   7
HETATM    7  O3  UNL     1     -31.942   7.158 -30.080  1.00  0.00    -0.348 OA
BRANCH   7   8
HETATM    8  C6  UNL     1     -32.791   8.056 -29.465  1.00  0.00     0.187 A 
HETATM    9  C7  UNL     1     -32.472   9.536 -29.642  1.00  0.00     0.181 A 
HETATM   10  C8  UNL     1     -32.313   8.866 -28.290  1.00  0.00     0.187 A 
BRANCH   9  11
HETATM   11  O4  UNL     1     -33.531  10.416 -29.835  1.00  0.00    -0.390 OA
ATOM     12  H4  UNL     1     -33.386  11.176 -30.385  1.00  0.00     0.210 HD
ENDBRANCH   9  11
BRANCH  10  13
HETATM   13  O5  UNL     1     -33.196   9.315 -27.335  1.00  0.00    -0.348 OA
BRANCH  13  14
HETATM   14  C9  UNL     1     -32.535  10.003 -26.320  1.00  0.00     0.292 A 
HETATM   15  O6  UNL     1     -31.241  10.417 -26.665  1.00  0.00    -0.357 OA
HETATM   16  C10 UNL     1     -31.556  11.780 -26.718  1.00  0.00     0.209 A 
HETATM   17  C11 UNL     1     -32.933  11.443 -26.240  1.00  0.00     0.262 A 
BRANCH  17  18
HETATM   18  N2  UNL     1     -34.015  11.851 -27.096  1.00  0.00    -0.068 N 
ATOM     19  H23 UNL     1     -34.883  11.891 -26.561  1.00  0.00     0.275 HD
ATOM     20  H22 UNL     1     -33.907  12.834 -27.345  1.00  0.00     0.275 HD
ATOM     21  H21 UNL     1     -34.156  11.295 -27.939  1.00  0.00     0.275 HD
ENDBRANCH  17  18
ENDBRANCH  13  14
ENDBRANCH  10  13
ENDBRANCH   7   8
ENDBRANCH   3   7
BRANCH   4  22
HETATM   22  N3  UNL     1     -32.362   4.829 -31.837  1.00  0.00    -0.070 N 
ATOM     23  H33 UNL     1     -33.361   4.729 -31.661  1.00  0.00     0.274 HD
ATOM     24  H32 UNL     1     -32.365   5.752 -32.270  1.00  0.00     0.274 HD
ATOM     25  H31 UNL     1     -32.030   4.119 -32.489  1.00  0.00     0.274 HD
ENDBRANCH   4  22
BRANCH   1  26
HETATM   26  O1  UNL     1     -29.762   5.076 -27.204  1.00  0.00    -0.354 OA
BRANCH  26  27
HETATM   27  C3  UNL     1     -30.676   5.080 -26.184  1.00  0.00     0.129 C 
HETATM   28  C2  UNL     1     -30.475   6.180 -25.178  1.00  0.00     0.067 C 
HETATM   29  C1  UNL     1     -31.188   5.638 -23.948  1.00  0.00     0.214 C 
HETATM   30  C16 UNL     1     -31.187   4.145 -24.084  1.00  0.00     0.151 C 
HETATM   31  C15 UNL     1     -30.449   3.835 -25.349  1.00  0.00     0.066 C 
BRANCH  29  32
HETATM   32  N1  UNL     1     -32.534   6.120 -23.838  1.00  0.00    -0.072 N 
ATOM     33  H13 UNL     1     -33.096   5.828 -24.638  1.00  0.00     0.274 HD
ATOM     34  H12 UNL     1     -33.039   5.633 -23.097  1.00  0.00     0.274 HD
ATOM     35  H11 UNL     1     -32.578   7.131 -23.709  1.00  0.00     0.274 HD
ENDBRANCH  29  32
BRANCH  30  36
HETATM   36  O7  UNL     1     -30.506   3.561 -22.990  1.00  0.00    -0.393 OA
ATOM     37  H7  UNL     1     -30.621   4.095 -22.213  1.00  0.00     0.210 HD
ENDBRANCH  30  36
ENDBRANCH  26  27
ENDBRANCH   1  26
BRANCH   6  38
HETATM   38  N4  UNL     1     -28.181   5.787 -29.639  1.00  0.00    -0.070 N 
ATOM     39  H43 UNL     1     -27.514   5.534 -28.911  1.00  0.00     0.274 HD
ATOM     40  H42 UNL     1     -27.639   5.458 -30.439  1.00  0.00     0.274 HD
ATOM     41  H41 UNL     1     -28.370   6.788 -29.674  1.00  0.00     0.274 HD
ENDBRANCH   6  38
TORSDOF 12
ENDMDL
MODEL 5
REMARK VINA RESULT: -5.573007960      3.609      6.709
REMARK  12 active torsions:
REMARK  status: ('A' for Active; 'I' for Inactive)
REMARK    1  A    between atoms: N1_1  and  C1_5 
REMARK    2  A    between atoms: C3_7  and  O1_8 
REMARK    3  A    between atoms: O1_8  and  C4_9 
REMARK    4  A    between atoms: C5_11  and  O3_12 
REMARK    5  A    between atoms: O3_12  and  C6_13 
REMARK    6  A    between atoms: C7_14  and  O4_15 
REMARK    7  A    between atoms: C8_17  and  O5_18 
REMARK    8  A    between atoms: O5_18  and  C9_19 
REMARK    9  A    between atoms: C11_22  and  N2_23 
REMARK   10  A    between atoms: C12_27  and  N3_28 
REMARK   11  A    between atoms: C14_33  and  N4_34 
REMARK   12  A    between atoms: C16_39  and  O7_40 
ROOT
HETATM    1  C4  UNL     1     -29.368   5.943 -27.048  1.00  0.00     0.293 C 
HETATM    2  O2  UNL     1     -29.554   6.780 -28.116  1.00  0.00    -0.327 OA
HETATM    3  C5  UNL     1     -29.715   6.166 -29.328  1.00  0.00     0.294 C 
HETATM    4  C12 UNL     1     -31.004   5.343 -29.247  1.00  0.00     0.240 C 
HETATM    5  C13 UNL     1     -30.708   4.214 -28.290  1.00  0.00     0.075 C 
HETATM    6  C14 UNL     1     -30.302   4.782 -26.980  1.00  0.00     0.240 C 
ENDROOT
BRANCH   3   7
HETATM    7  O3  UNL     1     -28.647   5.402 -29.737  1.00  0.00    -0.348 OA
BRANCH   7   8
HETATM    8  C6  UNL     1     -28.309   5.659 -31.051  1.00  0.00     0.187 A 
HETATM    9  C7  UNL     1     -28.548   4.537 -32.054  1.00  0.00     0.181 A 
HETATM   10  C8  UNL     1     -27.137   4.956 -31.682  1.00  0.00     0.187 A 
BRANCH   9  11
HETATM   11  O4  UNL     1     -29.039   4.874 -33.310  1.00  0.00    -0.390 OA
ATOM     12  H4  UNL     1     -29.574   4.236 -33.767  1.00  0.00     0.210 HD
ENDBRANCH   9  11
BRANCH  10  13
HETATM   13  O5  UNL     1     -26.435   5.538 -32.713  1.00  0.00    -0.348 OA
BRANCH  13  14
HETATM   14  C9  UNL     1     -25.979   4.582 -33.616  1.00  0.00     0.292 A 
HETATM   15  O6  UNL     1     -26.782   4.451 -34.758  1.00  0.00    -0.357 OA
HETATM   16  C10 UNL     1     -25.846   5.017 -35.633  1.00  0.00     0.209 A 
HETATM   17  C11 UNL     1     -24.879   5.089 -34.493  1.00  0.00     0.262 A 
BRANCH  17  18
HETATM   18  N2  UNL     1     -24.370   6.398 -34.181  1.00  0.00    -0.068 N 
ATOM     19  H23 UNL     1     -23.379   6.449 -34.420  1.00  0.00     0.275 HD
ATOM     20  H22 UNL     1     -24.753   7.082 -34.833  1.00  0.00     0.275 HD
ATOM     21  H21 UNL     1     -24.511   6.718 -33.223  1.00  0.00     0.275 HD
ENDBRANCH  17  18
ENDBRANCH  13  14
ENDBRANCH  10  13
ENDBRANCH   7   8
ENDBRANCH   3   7
BRANCH   4  22
HETATM   22  N3  UNL     1     -31.440   4.893 -30.530  1.00  0.00    -0.070 N 
ATOM     23  H33 UNL     1     -32.086   5.559 -30.954  1.00  0.00     0.274 HD
ATOM     24  H32 UNL     1     -30.685   4.941 -31.213  1.00  0.00     0.274 HD
ATOM     25  H31 UNL     1     -31.846   3.958 -30.494  1.00  0.00     0.274 HD
ENDBRANCH   4  22
BRANCH   1  26
HETATM   26  O1  UNL     1     -29.574   6.684 -25.882  1.00  0.00    -0.354 OA
BRANCH  26  27
HETATM   27  C3  UNL     1     -30.894   6.902 -25.590  1.00  0.00     0.129 C 
HETATM   28  C2  UNL     1     -31.327   8.337 -25.716  1.00  0.00     0.067 C 
HETATM   29  C1  UNL     1     -32.564   8.388 -24.833  1.00  0.00     0.214 C 
HETATM   30  C16 UNL     1     -32.415   7.282 -23.832  1.00  0.00     0.151 C 
HETATM   31  C15 UNL     1     -31.093   6.634 -24.111  1.00  0.00     0.066 C 
BRANCH  29  32
HETATM   32  N1  UNL     1     -33.777   8.214 -25.579  1.00  0.00    -0.072 N 
ATOM     33  H13 UNL     1     -33.615   8.337 -26.578  1.00  0.00     0.274 HD
ATOM     34  H12 UNL     1     -34.071   7.237 -25.580  1.00  0.00     0.274 HD
ATOM     35  H11 UNL     1     -34.528   8.822 -25.251  1.00  0.00     0.274 HD
ENDBRANCH  29  32
BRANCH  30  36
HETATM   36  O7  UNL     1     -32.408   7.813 -22.521  1.00  0.00    -0.393 OA
ATOM     37  H7  UNL     1     -33.278   7.758 -22.145  1.00  0.00     0.210 HD
ENDBRANCH  30  36
ENDBRANCH  26  27
ENDBRANCH   1  26
BRANCH   6  38
HETATM   38  N4  UNL     1     -29.639   3.714 -26.218  1.00  0.00    -0.070 N 
ATOM     39  H43 UNL     1     -28.622   3.757 -26.282  1.00  0.00     0.274 HD
ATOM     40  H42 UNL     1     -29.717   3.842 -25.209  1.00  0.00     0.274 HD
ATOM     41  H41 UNL     1     -30.018   2.823 -26.535  1.00  0.00     0.274 HD
ENDBRANCH   6  38
TORSDOF 12
ENDMDL
