MODEL 1
REMARK VINA RESULT: -6.561736213      0.000      0.000
REMARK  13 active torsions:
REMARK  status: ('A' for Active; 'I' for Inactive)
REMARK    1  A    between atoms: N1_1  and  C1_5 
REMARK    2  A    between atoms: C3_7  and  N2_8 
REMARK    3  A    between atoms: C4_12  and  O1_13 
REMARK    4  A    between atoms: O1_13  and  C5_14 
REMARK    5  A    between atoms: C6_15  and  N3_16 
REMARK    6  A    between atoms: C8_21  and  N4_22 
REMARK    7  A    between atoms: C9_26  and  O2_27 
REMARK    8  A    between atoms: O2_27  and  C10_28 
REMARK    9  A    between atoms: C11_29  and  N5_30 
REMARK   10  A    between atoms: C13_35  and  O3_36 
REMARK   11  A    between atoms: O3_36  and  C14_37 
REMARK   12  A    between atoms: N6_38  and  O4_40 
REMARK   13  A    between atoms: C15_42  and  O5_43 
ROOT
HETATM    1  C5  UNL     1     -30.484   6.293 -29.164  1.00  0.00     0.183 C 
HETATM    2  C6  UNL     1     -30.811   7.733 -29.556  1.00  0.00     0.217 C 
HETATM    3  C7  UNL     1     -31.843   8.226 -28.570  1.00  0.00     0.071 C 
HETATM    4  C8  UNL     1     -31.257   8.363 -27.178  1.00  0.00     0.217 C 
HETATM    5  C9  UNL     1     -30.079   7.455 -26.971  1.00  0.00     0.183 C 
HETATM    6  C15 UNL     1     -30.228   6.140 -27.708  1.00  0.00     0.180 C 
ENDROOT
BRANCH   5   7
HETATM    7  O2  UNL     1     -30.063   7.112 -25.600  1.00  0.00    -0.371 OA
BRANCH   7   8
HETATM    8  C10 UNL     1     -31.259   6.604 -25.169  1.00  0.00     0.182 C 
HETATM    9  C11 UNL     1     -31.962   7.401 -24.089  1.00  0.00     0.217 C 
HETATM   10  C12 UNL     1     -31.188   6.590 -23.070  1.00  0.00     0.070 C 
HETATM   11  C13 UNL     1     -31.027   5.516 -24.139  1.00  0.00     0.162 C 
BRANCH   9  12
HETATM   12  N5  UNL     1     -33.357   7.063 -24.040  1.00  0.00    -0.072 N 
ATOM     13  H53 UNL     1     -33.938   7.789 -24.459  1.00  0.00     0.274 HD
ATOM     14  H52 UNL     1     -33.584   6.299 -24.677  1.00  0.00     0.274 HD
ATOM     15  H51 UNL     1     -33.643   6.855 -23.083  1.00  0.00     0.274 HD
ENDBRANCH   9  12
BRANCH  11  16
HETATM   16  O3  UNL     1     -32.009   4.510 -24.117  1.00  0.00    -0.337 OA
BRANCH  16  17
HETATM   17  C14 UNL     1     -31.565   3.201 -23.866  1.00  0.00     0.248 C 
HETATM   18  N6  UNL     1     -31.239   2.920 -22.652  1.00  0.00    -0.259 N 
ATOM     19  H6  UNL     1     -31.303   3.622 -21.916  1.00  0.00     0.195 HD
BRANCH  18  20
HETATM   20  O4  UNL     1     -30.803   1.650 -22.379  1.00  0.00    -0.289 OA
ATOM     21  H4  UNL     1     -30.816   1.358 -21.476  1.00  0.00     0.244 HD
ENDBRANCH  18  20
ENDBRANCH  16  17
ENDBRANCH  11  16
ENDBRANCH   7   8
ENDBRANCH   5   7
BRANCH   4  22
HETATM   22  N4  UNL     1     -30.951   9.748 -26.970  1.00  0.00    -0.072 N 
ATOM     23  H43 UNL     1     -30.373  10.143 -27.712  1.00  0.00     0.274 HD
ATOM     24  H42 UNL     1     -31.760  10.357 -27.094  1.00  0.00     0.274 HD
ATOM     25  H41 UNL     1     -30.525   9.835 -26.047  1.00  0.00     0.274 HD
ENDBRANCH   4  22
BRANCH   6  26
HETATM   26  O5  UNL     1     -29.031   5.435 -27.475  1.00  0.00    -0.390 OA
ATOM     27  H5  UNL     1     -28.337   6.021 -27.195  1.00  0.00     0.210 HD
ENDBRANCH   6  26
BRANCH   1  28
HETATM   28  O1  UNL     1     -31.508   5.519 -29.654  1.00  0.00    -0.374 OA
BRANCH  28  29
HETATM   29  C4  UNL     1     -31.143   4.629 -30.638  1.00  0.00     0.154 C 
HETATM   30  C3  UNL     1     -30.189   5.196 -31.647  1.00  0.00     0.214 C 
HETATM   31  C2  UNL     1     -30.967   5.809 -32.763  1.00  0.00     0.068 C 
HETATM   32  C1  UNL     1     -32.323   5.206 -32.667  1.00  0.00     0.188 C 
HETATM   33  C16 UNL     1     -32.408   4.341 -31.458  1.00  0.00     0.067 C 
BRANCH  30  34
HETATM   34  N2  UNL     1     -29.404   4.102 -32.200  1.00  0.00    -0.072 N 
ATOM     35  H23 UNL     1     -29.968   3.442 -32.736  1.00  0.00     0.274 HD
ATOM     36  H22 UNL     1     -28.788   4.399 -32.956  1.00  0.00     0.274 HD
ATOM     37  H21 UNL     1     -28.901   3.659 -31.431  1.00  0.00     0.274 HD
ENDBRANCH  30  34
BRANCH  32  38
HETATM   38  N1  UNL     1     -32.687   4.422 -33.852  1.00  0.00    -0.075 N 
ATOM     39  H13 UNL     1     -32.110   4.682 -34.653  1.00  0.00     0.274 HD
ATOM     40  H12 UNL     1     -32.399   3.448 -33.747  1.00  0.00     0.274 HD
ATOM     41  H11 UNL     1     -33.679   4.485 -34.083  1.00  0.00     0.274 HD
ENDBRANCH  32  38
ENDBRANCH  28  29
ENDBRANCH   1  28
BRANCH   2  42
HETATM   42  N3  UNL     1     -29.657   8.554 -29.654  1.00  0.00    -0.072 N 
ATOM     43  H33 UNL     1     -28.822   7.992 -29.821  1.00  0.00     0.274 HD
ATOM     44  H32 UNL     1     -29.667   9.095 -30.518  1.00  0.00     0.274 HD
ATOM     45  H31 UNL     1     -29.532   9.162 -28.844  1.00  0.00     0.274 HD
ENDBRANCH   2  42
TORSDOF 13
ENDMDL
MODEL 2
REMARK VINA RESULT: -6.547770999      2.621      3.679
REMARK  13 active torsions:
REMARK  status: ('A' for Active; 'I' for Inactive)
REMARK    1  A    between atoms: N1_1  and  C1_5 
REMARK    2  A    between atoms: C3_7  and  N2_8 
REMARK    3  A    between atoms: C4_12  and  O1_13 
REMARK    4  A    between atoms: O1_13  and  C5_14 
REMARK    5  A    between atoms: C6_15  and  N3_16 
REMARK    6  A    between atoms: C8_21  and  N4_22 
REMARK    7  A    between atoms: C9_26  and  O2_27 
REMARK    8  A    between atoms: O2_27  and  C10_28 
REMARK    9  A    between atoms: C11_29  and  N5_30 
REMARK   10  A    between atoms: C13_35  and  O3_36 
REMARK   11  A    between atoms: O3_36  and  C14_37 
REMARK   12  A    between atoms: N6_38  and  O4_40 
REMARK   13  A    between atoms: C15_42  and  O5_43 
ROOT
HETATM    1  C5  UNL     1     -31.407   8.653 -28.375  1.00  0.00     0.183 C 
HETATM    2  C6  UNL     1     -32.522   9.133 -29.302  1.00  0.00     0.217 C 
HETATM    3  C7  UNL     1     -33.824   8.688 -28.679  1.00  0.00     0.071 C 
HETATM    4  C8  UNL     1     -34.098   9.425 -27.384  1.00  0.00     0.217 C 
HETATM    5  C9  UNL     1     -32.835   9.916 -26.736  1.00  0.00     0.183 C 
HETATM    6  C15 UNL     1     -31.673   8.968 -26.948  1.00  0.00     0.180 C 
ENDROOT
BRANCH   5   7
HETATM    7  O2  UNL     1     -33.064   9.917 -25.341  1.00  0.00    -0.371 OA
BRANCH   7   8
HETATM    8  C10 UNL     1     -33.619   8.747 -24.897  1.00  0.00     0.182 C 
HETATM    9  C11 UNL     1     -34.598   8.879 -23.746  1.00  0.00     0.217 C 
HETATM   10  C12 UNL     1     -33.418   8.739 -22.806  1.00  0.00     0.070 C 
HETATM   11  C13 UNL     1     -32.675   8.045 -23.942  1.00  0.00     0.162 C 
BRANCH   9  12
HETATM   12  N5  UNL     1     -35.440   7.718 -23.665  1.00  0.00    -0.072 N 
ATOM     13  H53 UNL     1     -34.901   6.854 -23.706  1.00  0.00     0.274 HD
ATOM     14  H52 UNL     1     -35.839   7.605 -22.733  1.00  0.00     0.274 HD
ATOM     15  H51 UNL     1     -36.162   7.748 -24.385  1.00  0.00     0.274 HD
ENDBRANCH   9  12
BRANCH  11  16
HETATM   16  O3  UNL     1     -32.774   6.643 -23.942  1.00  0.00    -0.337 OA
BRANCH  16  17
HETATM   17  C14 UNL     1     -31.574   5.925 -23.812  1.00  0.00     0.248 C 
HETATM   18  N6  UNL     1     -31.624   4.660 -24.044  1.00  0.00    -0.259 N 
ATOM     19  H6  UNL     1     -32.500   4.210 -24.310  1.00  0.00     0.195 HD
BRANCH  18  20
HETATM   20  O4  UNL     1     -30.468   3.935 -23.924  1.00  0.00    -0.289 OA
ATOM     21  H4  UNL     1     -30.522   2.991 -24.003  1.00  0.00     0.244 HD
ENDBRANCH  18  20
ENDBRANCH  16  17
ENDBRANCH  11  16
ENDBRANCH   7   8
ENDBRANCH   5   7
BRANCH   4  22
HETATM   22  N4  UNL     1     -35.034  10.473 -27.670  1.00  0.00    -0.072 N 
ATOM     23  H43 UNL     1     -34.858  10.929 -28.565  1.00  0.00     0.274 HD
ATOM     24  H42 UNL     1     -35.969  10.124 -27.880  1.00  0.00     0.274 HD
ATOM     25  H41 UNL     1     -35.020  11.124 -26.884  1.00  0.00     0.274 HD
ENDBRANCH   4  22
BRANCH   6  26
HETATM   26  O5  UNL     1     -30.559   9.590 -26.349  1.00  0.00    -0.390 OA
ATOM     27  H5  UNL     1     -29.777   9.061 -26.447  1.00  0.00     0.210 HD
ENDBRANCH   6  26
BRANCH   1  28
HETATM   28  O1  UNL     1     -31.227   7.319 -28.648  1.00  0.00    -0.374 OA
BRANCH  28  29
HETATM   29  C4  UNL     1     -29.933   6.868 -28.517  1.00  0.00     0.154 C 
HETATM   30  C3  UNL     1     -29.579   5.756 -29.459  1.00  0.00     0.214 C 
HETATM   31  C2  UNL     1     -29.892   4.449 -28.812  1.00  0.00     0.068 C 
HETATM   32  C1  UNL     1     -29.976   4.748 -27.357  1.00  0.00     0.188 C 
HETATM   33  C16 UNL     1     -29.838   6.213 -27.132  1.00  0.00     0.067 C 
BRANCH  30  34
HETATM   34  N2  UNL     1     -28.144   5.801 -29.699  1.00  0.00    -0.072 N 
ATOM     35  H23 UNL     1     -27.596   5.717 -28.843  1.00  0.00     0.274 HD
ATOM     36  H22 UNL     1     -27.794   4.964 -30.166  1.00  0.00     0.274 HD
ATOM     37  H21 UNL     1     -27.940   6.656 -30.217  1.00  0.00     0.274 HD
ENDBRANCH  30  34
BRANCH  32  38
HETATM   38  N1  UNL     1     -28.966   4.036 -26.566  1.00  0.00    -0.075 N 
ATOM     39  H13 UNL     1     -29.405   3.458 -25.849  1.00  0.00     0.274 HD
ATOM     40  H12 UNL     1     -28.519   3.306 -27.120  1.00  0.00     0.274 HD
ATOM     41  H11 UNL     1     -28.270   4.659 -26.155  1.00  0.00     0.274 HD
ENDBRANCH  32  38
ENDBRANCH  28  29
ENDBRANCH   1  28
BRANCH   2  42
HETATM   42  N3  UNL     1     -32.451  10.524 -29.576  1.00  0.00    -0.072 N 
ATOM     43  H33 UNL     1     -33.328  10.988 -29.339  1.00  0.00     0.274 HD
ATOM     44  H32 UNL     1     -31.832  10.995 -28.917  1.00  0.00     0.274 HD
ATOM     45  H31 UNL     1     -32.181  10.726 -30.539  1.00  0.00     0.274 HD
ENDBRANCH   2  42
TORSDOF 13
ENDMDL
MODEL 3
REMARK VINA RESULT: -6.304793455      1.051      1.051
REMARK  13 active torsions:
REMARK  status: ('A' for Active; 'I' for Inactive)
REMARK    1  A    between atoms: N1_1  and  C1_5 
REMARK    2  A    between atoms: C3_7  and  N2_8 
REMARK    3  A    between atoms: C4_12  and  O1_13 
REMARK    4  A    between atoms: O1_13  and  C5_14 
REMARK    5  A    between atoms: C6_15  and  N3_16 
REMARK    6  A    between atoms: C8_21  and  N4_22 
REMARK    7  A    between atoms: C9_26  and  O2_27 
REMARK    8  A    between atoms: O2_27  and  C10_28 
REMARK    9  A    between atoms: C11_29  and  N5_30 
REMARK   10  A    between atoms: C13_35  and  O3_36 
REMARK   11  A    between atoms: O3_36  and  C14_37 
REMARK   12  A    between atoms: N6_38  and  O4_40 
REMARK   13  A    between atoms: C15_42  and  O5_43 
ROOT
HETATM    1  C5  UNL     1     -30.563   6.551 -28.798  1.00  0.00     0.183 C 
HETATM    2  C6  UNL     1     -30.858   7.943 -29.354  1.00  0.00     0.217 C 
HETATM    3  C7  UNL     1     -31.960   8.526 -28.502  1.00  0.00     0.071 C 
HETATM    4  C8  UNL     1     -31.480   8.803 -27.091  1.00  0.00     0.217 C 
HETATM    5  C9  UNL     1     -30.322   7.928 -26.708  1.00  0.00     0.183 C 
HETATM    6  C15 UNL     1     -30.417   6.545 -27.319  1.00  0.00     0.180 C 
ENDROOT
BRANCH   5   7
HETATM    7  O2  UNL     1     -30.409   7.722 -25.311  1.00  0.00    -0.371 OA
BRANCH   7   8
HETATM    8  C10 UNL     1     -31.555   7.070 -24.945  1.00  0.00     0.182 C 
HETATM    9  C11 UNL     1     -32.428   7.790 -23.935  1.00  0.00     0.217 C 
HETATM   10  C12 UNL     1     -31.626   7.107 -22.845  1.00  0.00     0.070 C 
HETATM   11  C13 UNL     1     -31.256   6.042 -23.872  1.00  0.00     0.162 C 
BRANCH   9  12
HETATM   12  N5  UNL     1     -33.767   7.273 -23.967  1.00  0.00    -0.072 N 
ATOM     13  H53 UNL     1     -34.099   7.138 -24.921  1.00  0.00     0.274 HD
ATOM     14  H52 UNL     1     -33.807   6.303 -23.654  1.00  0.00     0.274 HD
ATOM     15  H51 UNL     1     -34.395   7.871 -23.429  1.00  0.00     0.274 HD
ENDBRANCH   9  12
BRANCH  11  16
HETATM   16  O3  UNL     1     -32.099   4.918 -23.885  1.00  0.00    -0.337 OA
BRANCH  16  17
HETATM   17  C14 UNL     1     -31.535   3.712 -24.335  1.00  0.00     0.248 C 
HETATM   18  N6  UNL     1     -31.054   3.705 -25.530  1.00  0.00    -0.259 N 
ATOM     19  H6  UNL     1     -31.086   4.540 -26.114  1.00  0.00     0.195 HD
BRANCH  18  20
HETATM   20  O4  UNL     1     -30.498   2.543 -25.995  1.00  0.00    -0.289 OA
ATOM     21  H4  UNL     1     -31.006   2.014 -26.599  1.00  0.00     0.244 HD
ENDBRANCH  18  20
ENDBRANCH  16  17
ENDBRANCH  11  16
ENDBRANCH   7   8
ENDBRANCH   5   7
BRANCH   4  22
HETATM   22  N4  UNL     1     -31.188  10.204 -26.999  1.00  0.00    -0.072 N 
ATOM     23  H43 UNL     1     -30.208  10.418 -27.182  1.00  0.00     0.274 HD
ATOM     24  H42 UNL     1     -31.588  10.744 -27.767  1.00  0.00     0.274 HD
ATOM     25  H41 UNL     1     -31.500  10.525 -26.082  1.00  0.00     0.274 HD
ENDBRANCH   4  22
BRANCH   6  26
HETATM   26  O5  UNL     1     -29.241   5.874 -26.928  1.00  0.00    -0.390 OA
ATOM     27  H5  UNL     1     -29.235   5.711 -25.993  1.00  0.00     0.210 HD
ENDBRANCH   6  26
BRANCH   1  28
HETATM   28  O1  UNL     1     -31.548   5.726 -29.284  1.00  0.00    -0.374 OA
BRANCH  28  29
HETATM   29  C4  UNL     1     -31.132   4.823 -30.236  1.00  0.00     0.154 C 
HETATM   30  C3  UNL     1     -30.249   5.418 -31.292  1.00  0.00     0.214 C 
HETATM   31  C2  UNL     1     -31.097   5.913 -32.415  1.00  0.00     0.068 C 
HETATM   32  C1  UNL     1     -32.397   5.207 -32.259  1.00  0.00     0.188 C 
HETATM   33  C16 UNL     1     -32.387   4.396 -31.011  1.00  0.00     0.067 C 
BRANCH  30  34
HETATM   34  N2  UNL     1     -29.389   4.365 -31.815  1.00  0.00    -0.072 N 
ATOM     35  H23 UNL     1     -29.768   3.431 -31.658  1.00  0.00     0.274 HD
ATOM     36  H22 UNL     1     -29.374   4.336 -32.834  1.00  0.00     0.274 HD
ATOM     37  H21 UNL     1     -28.462   4.490 -31.409  1.00  0.00     0.274 HD
ENDBRANCH  30  34
BRANCH  32  38
HETATM   38  N1  UNL     1     -32.721   4.342 -33.398  1.00  0.00    -0.075 N 
ATOM     39  H13 UNL     1     -32.657   4.857 -34.277  1.00  0.00     0.274 HD
ATOM     40  H12 UNL     1     -31.983   3.654 -33.554  1.00  0.00     0.274 HD
ATOM     41  H11 UNL     1     -33.629   3.887 -33.308  1.00  0.00     0.274 HD
ENDBRANCH  32  38
ENDBRANCH  28  29
ENDBRANCH   1  28
BRANCH   2  42
HETATM   42  N3  UNL     1     -29.699   8.758 -29.447  1.00  0.00    -0.072 N 
ATOM     43  H33 UNL     1     -29.687   9.462 -28.709  1.00  0.00     0.274 HD
ATOM     44  H32 UNL     1     -28.863   8.233 -29.189  1.00  0.00     0.274 HD
ATOM     45  H31 UNL     1     -29.589   9.189 -30.365  1.00  0.00     0.274 HD
ENDBRANCH   2  42
TORSDOF 13
ENDMDL
MODEL 4
REMARK VINA RESULT: -6.150820624      1.060      1.588
REMARK  13 active torsions:
REMARK  status: ('A' for Active; 'I' for Inactive)
REMARK    1  A    between atoms: N1_1  and  C1_5 
REMARK    2  A    between atoms: C3_7  and  N2_8 
REMARK    3  A    between atoms: C4_12  and  O1_13 
REMARK    4  A    between atoms: O1_13  and  C5_14 
REMARK    5  A    between atoms: C6_15  and  N3_16 
REMARK    6  A    between atoms: C8_21  and  N4_22 
REMARK    7  A    between atoms: C9_26  and  O2_27 
REMARK    8  A    between atoms: O2_27  and  C10_28 
REMARK    9  A    between atoms: C11_29  and  N5_30 
REMARK   10  A    between atoms: C13_35  and  O3_36 
REMARK   11  A    between atoms: O3_36  and  C14_37 
REMARK   12  A    between atoms: N6_38  and  O4_40 
REMARK   13  A    between atoms: C15_42  and  O5_43 
ROOT
HETATM    1  C5  UNL     1     -30.598   6.362 -29.027  1.00  0.00     0.183 C 
HETATM    2  C6  UNL     1     -30.830   7.810 -29.455  1.00  0.00     0.217 C 
HETATM    3  C7  UNL     1     -31.835   8.391 -28.489  1.00  0.00     0.071 C 
HETATM    4  C8  UNL     1     -31.252   8.523 -27.097  1.00  0.00     0.217 C 
HETATM    5  C9  UNL     1     -30.136   7.548 -26.859  1.00  0.00     0.183 C 
HETATM    6  C15 UNL     1     -30.362   6.228 -27.566  1.00  0.00     0.180 C 
ENDROOT
BRANCH   5   7
HETATM    7  O2  UNL     1     -30.150   7.237 -25.479  1.00  0.00    -0.371 OA
BRANCH   7   8
HETATM    8  C10 UNL     1     -31.341   6.696 -25.073  1.00  0.00     0.182 C 
HETATM    9  C11 UNL     1     -32.091   7.477 -24.013  1.00  0.00     0.217 C 
HETATM   10  C12 UNL     1     -31.317   6.692 -22.973  1.00  0.00     0.070 C 
HETATM   11  C13 UNL     1     -31.102   5.619 -24.034  1.00  0.00     0.162 C 
BRANCH   9  12
HETATM   12  N5  UNL     1     -33.476   7.100 -23.994  1.00  0.00    -0.072 N 
ATOM     13  H53 UNL     1     -34.064   7.794 -24.454  1.00  0.00     0.274 HD
ATOM     14  H52 UNL     1     -33.662   6.309 -24.610  1.00  0.00     0.274 HD
ATOM     15  H51 UNL     1     -33.785   6.916 -23.039  1.00  0.00     0.274 HD
ENDBRANCH   9  12
BRANCH  11  16
HETATM   16  O3  UNL     1     -32.055   4.586 -24.030  1.00  0.00    -0.337 OA
BRANCH  16  17
HETATM   17  C14 UNL     1     -31.570   3.281 -23.840  1.00  0.00     0.248 C 
HETATM   18  N6  UNL     1     -31.279   2.939 -22.633  1.00  0.00    -0.259 N 
ATOM     19  H6  UNL     1     -31.397   3.592 -21.859  1.00  0.00     0.195 HD
BRANCH  18  20
HETATM   20  O4  UNL     1     -30.804   1.672 -22.419  1.00  0.00    -0.289 OA
ATOM     21  H4  UNL     1     -31.360   1.059 -21.953  1.00  0.00     0.244 HD
ENDBRANCH  18  20
ENDBRANCH  16  17
ENDBRANCH  11  16
ENDBRANCH   7   8
ENDBRANCH   5   7
BRANCH   4  22
HETATM   22  N4  UNL     1     -30.860   9.891 -26.918  1.00  0.00    -0.072 N 
ATOM     23  H43 UNL     1     -30.477  10.308 -27.766  1.00  0.00     0.274 HD
ATOM     24  H42 UNL     1     -31.655  10.520 -26.807  1.00  0.00     0.274 HD
ATOM     25  H41 UNL     1     -30.212   9.927 -26.130  1.00  0.00     0.274 HD
ENDBRANCH   4  22
BRANCH   6  26
HETATM   26  O5  UNL     1     -29.213   5.455 -27.306  1.00  0.00    -0.390 OA
ATOM     27  H5  UNL     1     -29.115   5.289 -26.376  1.00  0.00     0.210 HD
ENDBRANCH   6  26
BRANCH   1  28
HETATM   28  O1  UNL     1     -31.665   5.643 -29.508  1.00  0.00    -0.374 OA
BRANCH  28  29
HETATM   29  C4  UNL     1     -32.209   6.122 -30.677  1.00  0.00     0.154 C 
HETATM   30  C3  UNL     1     -33.709   6.144 -30.686  1.00  0.00     0.214 C 
HETATM   31  C2  UNL     1     -34.213   4.842 -31.214  1.00  0.00     0.068 C 
HETATM   32  C1  UNL     1     -33.062   4.250 -31.947  1.00  0.00     0.188 C 
HETATM   33  C16 UNL     1     -31.856   5.105 -31.772  1.00  0.00     0.067 C 
BRANCH  30  34
HETATM   34  N2  UNL     1     -34.146   7.192 -31.596  1.00  0.00    -0.072 N 
ATOM     35  H23 UNL     1     -35.132   7.427 -31.485  1.00  0.00     0.274 HD
ATOM     36  H22 UNL     1     -33.761   8.107 -31.360  1.00  0.00     0.274 HD
ATOM     37  H21 UNL     1     -33.913   6.899 -32.545  1.00  0.00     0.274 HD
ENDBRANCH  30  34
BRANCH  32  38
HETATM   38  N1  UNL     1     -33.326   4.069 -33.378  1.00  0.00    -0.075 N 
ATOM     39  H13 UNL     1     -34.055   3.370 -33.529  1.00  0.00     0.274 HD
ATOM     40  H12 UNL     1     -33.795   4.887 -33.768  1.00  0.00     0.274 HD
ATOM     41  H11 UNL     1     -32.488   3.841 -33.913  1.00  0.00     0.274 HD
ENDBRANCH  32  38
ENDBRANCH  28  29
ENDBRANCH   1  28
BRANCH   2  42
HETATM   42  N3  UNL     1     -29.626   8.554 -29.563  1.00  0.00    -0.072 N 
ATOM     43  H33 UNL     1     -29.187   8.672 -28.649  1.00  0.00     0.274 HD
ATOM     44  H32 UNL     1     -28.900   8.008 -30.026  1.00  0.00     0.274 HD
ATOM     45  H31 UNL     1     -29.755   9.455 -30.024  1.00  0.00     0.274 HD
ENDBRANCH   2  42
TORSDOF 13
ENDMDL
MODEL 5
REMARK VINA RESULT: -6.136256174      2.911      5.141
REMARK  13 active torsions:
REMARK  status: ('A' for Active; 'I' for Inactive)
REMARK    1  A    between atoms: N1_1  and  C1_5 
REMARK    2  A    between atoms: C3_7  and  N2_8 
REMARK    3  A    between atoms: C4_12  and  O1_13 
REMARK    4  A    between atoms: O1_13  and  C5_14 
REMARK    5  A    between atoms: C6_15  and  N3_16 
REMARK    6  A    between atoms: C8_21  and  N4_22 
REMARK    7  A    between atoms: C9_26  and  O2_27 
REMARK    8  A    between atoms: O2_27  and  C10_28 
REMARK    9  A    between atoms: C11_29  and  N5_30 
REMARK   10  A    between atoms: C13_35  and  O3_36 
REMARK   11  A    between atoms: O3_36  and  C14_37 
REMARK   12  A    between atoms: N6_38  and  O4_40 
REMARK   13  A    between atoms: C15_42  and  O5_43 
ROOT
HETATM    1  C5  UNL     1     -30.577   7.319 -27.398  1.00  0.00     0.183 C 
HETATM    2  C6  UNL     1     -30.766   7.242 -28.912  1.00  0.00     0.217 C 
HETATM    3  C7  UNL     1     -32.222   7.540 -29.182  1.00  0.00     0.071 C 
HETATM    4  C8  UNL     1     -32.560   8.981 -28.857  1.00  0.00     0.217 C 
HETATM    5  C9  UNL     1     -31.630   9.561 -27.832  1.00  0.00     0.183 C 
HETATM    6  C15 UNL     1     -31.190   8.536 -26.806  1.00  0.00     0.180 C 
ENDROOT
BRANCH   5   7
HETATM    7  O2  UNL     1     -32.369  10.521 -27.103  1.00  0.00    -0.371 OA
BRANCH   7   8
HETATM    8  C10 UNL     1     -33.519  10.006 -26.568  1.00  0.00     0.182 C 
HETATM    9  C11 UNL     1     -34.754  10.875 -26.701  1.00  0.00     0.217 C 
HETATM   10  C12 UNL     1     -34.367  11.521 -25.386  1.00  0.00     0.070 C 
HETATM   11  C13 UNL     1     -33.566  10.262 -25.075  1.00  0.00     0.162 C 
BRANCH   9  12
HETATM   12  N5  UNL     1     -35.945  10.088 -26.539  1.00  0.00    -0.072 N 
ATOM     13  H53 UNL     1     -35.870   9.186 -27.008  1.00  0.00     0.274 HD
ATOM     14  H52 UNL     1     -36.050   9.754 -25.581  1.00  0.00     0.274 HD
ATOM     15  H51 UNL     1     -36.764  10.610 -26.851  1.00  0.00     0.274 HD
ENDBRANCH   9  12
BRANCH  11  16
HETATM   16  O3  UNL     1     -34.259   9.290 -24.334  1.00  0.00    -0.337 OA
BRANCH  16  17
HETATM   17  C14 UNL     1     -33.621   8.802 -23.181  1.00  0.00     0.248 C 
HETATM   18  N6  UNL     1     -32.773   7.847 -23.345  1.00  0.00    -0.259 N 
ATOM     19  H6  UNL     1     -32.580   7.470 -24.273  1.00  0.00     0.195 HD
BRANCH  18  20
HETATM   20  O4  UNL     1     -32.136   7.352 -22.238  1.00  0.00    -0.289 OA
ATOM     21  H4  UNL     1     -31.312   7.748 -21.982  1.00  0.00     0.244 HD
ENDBRANCH  18  20
ENDBRANCH  16  17
ENDBRANCH  11  16
ENDBRANCH   7   8
ENDBRANCH   5   7
BRANCH   4  22
HETATM   22  N4  UNL     1     -32.575   9.713 -30.090  1.00  0.00    -0.072 N 
ATOM     23  H43 UNL     1     -31.808  10.381 -30.164  1.00  0.00     0.274 HD
ATOM     24  H42 UNL     1     -32.329   9.138 -30.896  1.00  0.00     0.274 HD
ATOM     25  H41 UNL     1     -33.493  10.151 -30.179  1.00  0.00     0.274 HD
ENDBRANCH   4  22
BRANCH   6  26
HETATM   26  O5  UNL     1     -30.280   9.205 -25.964  1.00  0.00    -0.390 OA
ATOM     27  H5  UNL     1     -30.142  10.100 -26.251  1.00  0.00     0.210 HD
ENDBRANCH   6  26
BRANCH   1  28
HETATM   28  O1  UNL     1     -31.046   6.132 -26.890  1.00  0.00    -0.374 OA
BRANCH  28  29
HETATM   29  C4  UNL     1     -30.129   5.410 -26.161  1.00  0.00     0.154 C 
HETATM   30  C3  UNL     1     -29.969   3.991 -26.620  1.00  0.00     0.214 C 
HETATM   31  C2  UNL     1     -30.940   3.128 -25.885  1.00  0.00     0.068 C 
HETATM   32  C1  UNL     1     -31.330   3.917 -24.687  1.00  0.00     0.188 C 
HETATM   33  C16 UNL     1     -30.709   5.270 -24.746  1.00  0.00     0.067 C 
BRANCH  30  34
HETATM   34  N2  UNL     1     -28.627   3.546 -26.272  1.00  0.00    -0.072 N 
ATOM     35  H23 UNL     1     -28.137   4.204 -25.666  1.00  0.00     0.274 HD
ATOM     36  H22 UNL     1     -28.626   2.750 -25.636  1.00  0.00     0.274 HD
ATOM     37  H21 UNL     1     -28.126   3.359 -27.140  1.00  0.00     0.274 HD
ENDBRANCH  30  34
BRANCH  32  38
HETATM   38  N1  UNL     1     -30.956   3.267 -23.426  1.00  0.00    -0.075 N 
ATOM     39  H13 UNL     1     -30.126   2.686 -23.547  1.00  0.00     0.274 HD
ATOM     40  H12 UNL     1     -30.589   3.948 -22.760  1.00  0.00     0.274 HD
ATOM     41  H11 UNL     1     -31.719   2.729 -23.014  1.00  0.00     0.274 HD
ENDBRANCH  32  38
ENDBRANCH  28  29
ENDBRANCH   1  28
BRANCH   2  42
HETATM   42  N3  UNL     1     -29.858   8.068 -29.625  1.00  0.00    -0.072 N 
ATOM     43  H33 UNL     1     -29.305   8.639 -28.986  1.00  0.00     0.274 HD
ATOM     44  H32 UNL     1     -29.111   7.514 -30.041  1.00  0.00     0.274 HD
ATOM     45  H31 UNL     1     -30.317   8.648 -30.328  1.00  0.00     0.274 HD
ENDBRANCH   2  42
TORSDOF 13
ENDMDL
