MODEL 1
REMARK VINA RESULT: -7.008187392      0.000      0.000
REMARK  14 active torsions:
REMARK  status: ('A' for Active; 'I' for Inactive)
REMARK    1  A    between atoms: C3_3  and  C4_4 
REMARK    2  A    between atoms: C4_4  and  N1_5 
REMARK    3  A    between atoms: C5_6  and  O1_7 
REMARK    4  A    between atoms: C7_12  and  C8_13 
REMARK    5  A    between atoms: C13_21  and  C14_22 
REMARK    6  A    between atoms: C14_22  and  C15_23 
REMARK    7  A    between atoms: C18_26  and  O3_27 
REMARK    8  A    between atoms: C19_31  and  C20_32 
REMARK    9  A    between atoms: C20_32  and  C21_33 
REMARK   10  A    between atoms: C25_40  and  C26_41 
REMARK   11  A    between atoms: C26_41  and  C27_42 
REMARK   12  A    between atoms: C27_42  and  C28_43 
REMARK   13  A    between atoms: C31_49  and  C32_50 
REMARK   14  A    between atoms: C32_50  and  C33_51 
ROOT
HETATM    1  C1  UNL     1      -8.378  21.238 -23.245  1.00  0.00     0.097 C 
HETATM    2  C2  UNL     1      -8.941  21.043 -24.428  1.00  0.00    -0.186 C 
HETATM    3  C3  UNL     1      -9.572  20.926 -25.557  1.00  0.00     0.100 C 
ENDROOT
BRANCH   3   4
HETATM    4  C4  UNL     1     -10.757  21.772 -25.758  1.00  0.00     0.147 C 
BRANCH   4   5
HETATM    5  N1  UNL     1     -11.952  20.992 -26.079  1.00  0.00    -0.281 N 
HETATM    6  C5  UNL     1     -12.433  20.071 -25.106  1.00  0.00     0.226 C 
HETATM    7  N2  UNL     1     -12.694  18.712 -25.097  1.00  0.00    -0.318 N 
HETATM    8  C6  UNL     1     -11.976  17.491 -24.898  1.00  0.00     0.100 C 
ATOM      9  H2  UNL     1     -13.679  18.528 -25.286  1.00  0.00     0.169 HD
HETATM   10  C7  UNL     1     -10.774  17.189 -25.636  1.00  0.00     0.017 C 
HETATM   11  C12 UNL     1     -12.915  16.319 -24.664  1.00  0.00     0.268 C 
HETATM   12  O2  UNL     1     -12.396  15.184 -25.009  1.00  0.00    -0.266 OA
HETATM   13  N3  UNL     1     -14.204  16.374 -24.138  1.00  0.00    -0.344 N 
HETATM   14  C13 UNL     1     -14.669  16.804 -22.810  1.00  0.00     0.159 C 
ATOM     15  H3  UNL     1     -14.941  16.069 -24.773  1.00  0.00     0.163 HD
HETATM   16  C18 UNL     1     -15.501  18.016 -22.846  1.00  0.00     0.135 C 
HETATM   17  N4  UNL     1     -16.743  18.259 -23.416  1.00  0.00    -0.359 N 
HETATM   18  C19 UNL     1     -17.249  17.984 -24.758  1.00  0.00     0.176 C 
ATOM     19  H4  UNL     1     -17.415  18.707 -22.793  1.00  0.00     0.162 HD
HETATM   20  C24 UNL     1     -17.950  19.228 -25.246  1.00  0.00     0.244 C 
HETATM   21  O4  UNL     1     -19.184  19.282 -24.877  1.00  0.00    -0.271 OA
HETATM   22  N5  UNL     1     -17.438  20.273 -26.006  1.00  0.00    -0.324 N 
HETATM   23  C25 UNL     1     -16.996  20.404 -27.349  1.00  0.00     0.080 C 
ATOM     24  H5  UNL     1     -17.363  21.144 -25.480  1.00  0.00     0.169 HD
HETATM   25  C30 UNL     1     -15.850  19.588 -27.796  1.00  0.00     0.264 C 
HETATM   26  O5  UNL     1     -16.090  18.406 -28.187  1.00  0.00    -0.266 OA
HETATM   27  N6  UNL     1     -14.496  19.990 -27.837  1.00  0.00    -0.342 N 
HETATM   28  C31 UNL     1     -14.003  21.338 -27.640  1.00  0.00     0.186 C 
ATOM     29  H6  UNL     1     -13.803  19.265 -28.021  1.00  0.00     0.163 HD
HETATM   30  C34 UNL     1     -12.528  21.274 -27.353  1.00  0.00     0.250 C 
HETATM   31  O7  UNL     1     -11.753  21.485 -28.315  1.00  0.00    -0.271 OA
BRANCH   6  32
HETATM   32  O1  UNL     1     -12.667  20.744 -23.980  1.00  0.00    -0.332 OA
ATOM     33  H1  UNL     1     -11.833  20.913 -23.559  1.00  0.00     0.221 HD
ENDBRANCH   6  32
BRANCH  10  34
HETATM   34  C8  UNL     1     -10.474  17.022 -27.020  1.00  0.00    -0.031 C 
HETATM   35  C9  UNL     1      -9.046  17.682 -27.217  1.00  0.00     0.019 C 
HETATM   36  C10 UNL     1     -10.157  15.584 -27.472  1.00  0.00     0.019 C 
HETATM   37  C11 UNL     1     -11.248  17.628 -28.121  1.00  0.00     0.019 C 
ENDBRANCH  10  34
BRANCH  14  38
HETATM   38  C14 UNL     1     -15.296  15.593 -22.159  1.00  0.00     0.037 C 
BRANCH  38  39
HETATM   39  C15 UNL     1     -14.930  15.282 -20.768  1.00  0.00    -0.020 C 
HETATM   40  C16 UNL     1     -14.194  16.288 -19.971  1.00  0.00     0.009 C 
HETATM   41  C17 UNL     1     -14.207  13.925 -20.761  1.00  0.00     0.009 C 
ENDBRANCH  38  39
ENDBRANCH  14  38
BRANCH  16  42
HETATM   42  O3  UNL     1     -14.940  19.023 -22.224  1.00  0.00    -0.348 OA
ATOM     43  H3  UNL     1     -15.067  19.846 -22.681  1.00  0.00     0.219 HD
ENDBRANCH  16  42
BRANCH  18  44
HETATM   44  C20 UNL     1     -18.302  16.902 -24.530  1.00  0.00     0.038 C 
BRANCH  44  45
HETATM   45  C21 UNL     1     -18.785  16.205 -25.735  1.00  0.00    -0.020 C 
HETATM   46  C22 UNL     1     -18.759  14.715 -25.525  1.00  0.00     0.009 C 
HETATM   47  C23 UNL     1     -20.259  16.577 -25.955  1.00  0.00     0.009 C 
ENDBRANCH  44  45
ENDBRANCH  18  44
BRANCH  23  48
HETATM   48  C26 UNL     1     -18.084  20.484 -28.395  1.00  0.00     0.063 C 
BRANCH  48  49
HETATM   49  C27 UNL     1     -18.471  21.814 -28.882  1.00  0.00     0.006 C 
BRANCH  49  50
HETATM   50  C28 UNL     1     -17.552  22.144 -30.077  1.00  0.00    -0.004 C 
HETATM   51  C29 UNL     1     -17.321  20.947 -30.939  1.00  0.00     0.005 C 
ENDBRANCH  49  50
ENDBRANCH  48  49
ENDBRANCH  23  48
BRANCH  28  52
HETATM   52  C32 UNL     1     -14.188  22.211 -28.849  1.00  0.00     0.134 C 
BRANCH  52  53
HETATM   53  C33 UNL     1     -13.810  21.561 -30.125  1.00  0.00     0.233 C 
HETATM   54  N7  UNL     1     -13.203  22.403 -31.132  1.00  0.00    -0.062 NA
HETATM   55  O6  UNL     1     -13.958  20.368 -30.426  1.00  0.00    -0.277 OA
ENDBRANCH  52  53
ENDBRANCH  28  52
ENDBRANCH   4   5
ENDBRANCH   3   4
TORSDOF 14
ENDMDL
MODEL 2
REMARK VINA RESULT: -6.938952661      3.629      6.304
REMARK  14 active torsions:
REMARK  status: ('A' for Active; 'I' for Inactive)
REMARK    1  A    between atoms: C3_3  and  C4_4 
REMARK    2  A    between atoms: C4_4  and  N1_5 
REMARK    3  A    between atoms: C5_6  and  O1_7 
REMARK    4  A    between atoms: C7_12  and  C8_13 
REMARK    5  A    between atoms: C13_21  and  C14_22 
REMARK    6  A    between atoms: C14_22  and  C15_23 
REMARK    7  A    between atoms: C18_26  and  O3_27 
REMARK    8  A    between atoms: C19_31  and  C20_32 
REMARK    9  A    between atoms: C20_32  and  C21_33 
REMARK   10  A    between atoms: C25_40  and  C26_41 
REMARK   11  A    between atoms: C26_41  and  C27_42 
REMARK   12  A    between atoms: C27_42  and  C28_43 
REMARK   13  A    between atoms: C31_49  and  C32_50 
REMARK   14  A    between atoms: C32_50  and  C33_51 
ROOT
HETATM    1  C1  UNL     1     -12.476  20.318 -23.990  1.00  0.00     0.097 C 
HETATM    2  C2  UNL     1     -12.935  19.925 -22.812  1.00  0.00    -0.186 C 
HETATM    3  C3  UNL     1     -13.490  19.562 -21.695  1.00  0.00     0.100 C 
ENDROOT
BRANCH   3   4
HETATM    4  C4  UNL     1     -14.958  19.594 -21.629  1.00  0.00     0.147 C 
BRANCH   4   5
HETATM    5  N1  UNL     1     -15.562  18.315 -22.003  1.00  0.00    -0.281 N 
HETATM    6  C5  UNL     1     -15.222  17.164 -21.237  1.00  0.00     0.226 C 
HETATM    7  N2  UNL     1     -14.682  15.924 -21.532  1.00  0.00    -0.318 N 
HETATM    8  C6  UNL     1     -13.387  15.342 -21.711  1.00  0.00     0.100 C 
ATOM      9  H2  UNL     1     -15.415  15.227 -21.656  1.00  0.00     0.169 HD
HETATM   10  C7  UNL     1     -12.422  15.906 -22.622  1.00  0.00     0.017 C 
HETATM   11  C12 UNL     1     -13.445  13.823 -21.672  1.00  0.00     0.268 C 
HETATM   12  O2  UNL     1     -12.481  13.268 -22.334  1.00  0.00    -0.266 OA
HETATM   13  N3  UNL     1     -14.393  13.040 -21.017  1.00  0.00    -0.344 N 
HETATM   14  C13 UNL     1     -14.704  12.928 -19.584  1.00  0.00     0.159 C 
ATOM     15  H3  UNL     1     -14.961  12.452 -21.627  1.00  0.00     0.163 HD
HETATM   16  C18 UNL     1     -16.048  13.414 -19.238  1.00  0.00     0.135 C 
HETATM   17  N4  UNL     1     -17.309  12.961 -19.599  1.00  0.00    -0.359 N 
HETATM   18  C19 UNL     1     -17.867  12.629 -20.907  1.00  0.00     0.176 C 
ATOM     19  H4  UNL     1     -17.955  12.838 -18.819  1.00  0.00     0.162 HD
HETATM   20  C24 UNL     1     -19.225  13.280 -21.002  1.00  0.00     0.244 C 
HETATM   21  O4  UNL     1     -20.163  12.549 -20.505  1.00  0.00    -0.271 OA
HETATM   22  N5  UNL     1     -19.560  14.519 -21.535  1.00  0.00    -0.324 N 
HETATM   23  C25 UNL     1     -19.579  15.068 -22.845  1.00  0.00     0.080 C 
ATOM     24  H5  UNL     1     -19.861  15.186 -20.824  1.00  0.00     0.169 HD
HETATM   25  C30 UNL     1     -18.310  15.148 -23.593  1.00  0.00     0.264 C 
HETATM   26  O5  UNL     1     -17.940  14.117 -24.233  1.00  0.00    -0.266 OA
HETATM   27  N6  UNL     1     -17.452  16.268 -23.676  1.00  0.00    -0.342 N 
HETATM   28  C31 UNL     1     -17.752  17.606 -23.211  1.00  0.00     0.186 C 
ATOM     29  H6  UNL     1     -16.537  16.120 -24.102  1.00  0.00     0.163 HD
HETATM   30  C34 UNL     1     -16.467  18.379 -23.103  1.00  0.00     0.250 C 
HETATM   31  O7  UNL     1     -16.177  19.134 -24.061  1.00  0.00    -0.271 OA
BRANCH   6  32
HETATM   32  O1  UNL     1     -15.527  17.409 -19.965  1.00  0.00    -0.332 OA
ATOM     33  H1  UNL     1     -16.305  16.911 -19.746  1.00  0.00     0.221 HD
ENDBRANCH   6  32
BRANCH  10  34
HETATM   34  C8  UNL     1     -12.400  16.139 -24.029  1.00  0.00    -0.031 C 
HETATM   35  C9  UNL     1     -11.183  17.126 -24.267  1.00  0.00     0.019 C 
HETATM   36  C10 UNL     1     -11.946  14.954 -24.901  1.00  0.00     0.019 C 
HETATM   37  C11 UNL     1     -13.485  16.800 -24.781  1.00  0.00     0.019 C 
ENDBRANCH  10  34
BRANCH  14  38
HETATM   38  C14 UNL     1     -14.395  11.505 -19.185  1.00  0.00     0.037 C 
BRANCH  38  39
HETATM   39  C15 UNL     1     -14.477  11.146 -17.760  1.00  0.00    -0.020 C 
HETATM   40  C16 UNL     1     -13.623  11.859 -16.784  1.00  0.00     0.009 C 
HETATM   41  C17 UNL     1     -14.306   9.622 -17.645  1.00  0.00     0.009 C 
ENDBRANCH  38  39
ENDBRANCH  14  38
BRANCH  16  42
HETATM   42  O3  UNL     1     -16.011  14.462 -18.451  1.00  0.00    -0.348 OA
ATOM     43  H3  UNL     1     -16.833  14.940 -18.448  1.00  0.00     0.219 HD
ENDBRANCH  16  42
BRANCH  18  44
HETATM   44  C20 UNL     1     -18.066  11.117 -20.840  1.00  0.00     0.038 C 
BRANCH  44  45
HETATM   45  C21 UNL     1     -18.558  10.584 -19.558  1.00  0.00    -0.020 C 
HETATM   46  C22 UNL     1     -19.784   9.738 -19.777  1.00  0.00     0.009 C 
HETATM   47  C23 UNL     1     -17.491   9.643 -18.981  1.00  0.00     0.009 C 
ENDBRANCH  44  45
ENDBRANCH  18  44
BRANCH  23  48
HETATM   48  C26 UNL     1     -20.733  14.639 -23.720  1.00  0.00     0.063 C 
BRANCH  48  49
HETATM   49  C27 UNL     1     -21.884  15.545 -23.833  1.00  0.00     0.006 C 
BRANCH  49  50
HETATM   50  C28 UNL     1     -21.421  16.764 -24.658  1.00  0.00    -0.004 C 
HETATM   51  C29 UNL     1     -21.070  16.379 -26.058  1.00  0.00     0.005 C 
ENDBRANCH  49  50
ENDBRANCH  48  49
ENDBRANCH  23  48
BRANCH  28  52
HETATM   52  C32 UNL     1     -18.654  18.361 -24.145  1.00  0.00     0.134 C 
BRANCH  52  53
HETATM   53  C33 UNL     1     -18.210  18.343 -25.558  1.00  0.00     0.233 C 
HETATM   54  N7  UNL     1     -18.163  19.615 -26.245  1.00  0.00    -0.062 NA
HETATM   55  O6  UNL     1     -17.871  17.352 -26.219  1.00  0.00    -0.277 OA
ENDBRANCH  52  53
ENDBRANCH  28  52
ENDBRANCH   4   5
ENDBRANCH   3   4
TORSDOF 14
ENDMDL
MODEL 3
REMARK VINA RESULT: -6.330260015     15.018     19.748
REMARK  14 active torsions:
REMARK  status: ('A' for Active; 'I' for Inactive)
REMARK    1  A    between atoms: C3_3  and  C4_4 
REMARK    2  A    between atoms: C4_4  and  N1_5 
REMARK    3  A    between atoms: C5_6  and  O1_7 
REMARK    4  A    between atoms: C7_12  and  C8_13 
REMARK    5  A    between atoms: C13_21  and  C14_22 
REMARK    6  A    between atoms: C14_22  and  C15_23 
REMARK    7  A    between atoms: C18_26  and  O3_27 
REMARK    8  A    between atoms: C19_31  and  C20_32 
REMARK    9  A    between atoms: C20_32  and  C21_33 
REMARK   10  A    between atoms: C25_40  and  C26_41 
REMARK   11  A    between atoms: C26_41  and  C27_42 
REMARK   12  A    between atoms: C27_42  and  C28_43 
REMARK   13  A    between atoms: C31_49  and  C32_50 
REMARK   14  A    between atoms: C32_50  and  C33_51 
ROOT
HETATM    1  C1  UNL     1     -16.353   0.406 -11.186  1.00  0.00     0.097 C 
HETATM    2  C2  UNL     1     -15.771   1.419 -11.808  1.00  0.00    -0.186 C 
HETATM    3  C3  UNL     1     -15.300   2.468 -12.414  1.00  0.00     0.100 C 
ENDROOT
BRANCH   3   4
HETATM    4  C4  UNL     1     -16.209   3.608 -12.593  1.00  0.00     0.147 C 
BRANCH   4   5
HETATM    5  N1  UNL     1     -16.900   3.574 -13.882  1.00  0.00    -0.281 N 
HETATM    6  C5  UNL     1     -17.994   2.676 -14.032  1.00  0.00     0.226 C 
HETATM    7  N2  UNL     1     -18.294   1.645 -14.907  1.00  0.00    -0.318 N 
HETATM    8  C6  UNL     1     -18.017   0.248 -15.041  1.00  0.00     0.100 C 
ATOM      9  H2  UNL     1     -18.880   1.976 -15.673  1.00  0.00     0.169 HD
HETATM   10  C7  UNL     1     -16.671  -0.266 -15.002  1.00  0.00     0.017 C 
HETATM   11  C12 UNL     1     -18.944  -0.413 -16.049  1.00  0.00     0.268 C 
HETATM   12  O2  UNL     1     -18.424  -1.467 -16.591  1.00  0.00    -0.266 OA
HETATM   13  N3  UNL     1     -20.225   0.003 -16.404  1.00  0.00    -0.344 N 
HETATM   14  C13 UNL     1     -21.447   0.109 -15.593  1.00  0.00     0.159 C 
ATOM     15  H3  UNL     1     -20.332   0.279 -17.380  1.00  0.00     0.163 HD
HETATM   16  C18 UNL     1     -21.919   1.491 -15.423  1.00  0.00     0.135 C 
HETATM   17  N4  UNL     1     -22.388   2.419 -16.342  1.00  0.00    -0.359 N 
HETATM   18  C19 UNL     1     -21.837   2.862 -17.619  1.00  0.00     0.176 C 
ATOM     19  H4  UNL     1     -23.266   2.868 -16.080  1.00  0.00     0.162 HD
HETATM   20  C24 UNL     1     -21.898   4.369 -17.645  1.00  0.00     0.244 C 
HETATM   21  O4  UNL     1     -23.031   4.815 -18.070  1.00  0.00    -0.271 OA
HETATM   22  N5  UNL     1     -20.921   5.286 -17.276  1.00  0.00    -0.324 N 
HETATM   23  C25 UNL     1     -19.660   5.666 -17.807  1.00  0.00     0.080 C 
ATOM     24  H5  UNL     1     -21.165   5.804 -16.432  1.00  0.00     0.169 HD
HETATM   25  C30 UNL     1     -18.596   4.646 -17.893  1.00  0.00     0.264 C 
HETATM   26  O5  UNL     1     -18.588   3.891 -18.912  1.00  0.00    -0.266 OA
HETATM   27  N6  UNL     1     -17.570   4.419 -16.948  1.00  0.00    -0.342 N 
HETATM   28  C31 UNL     1     -17.248   5.271 -15.821  1.00  0.00     0.186 C 
ATOM     29  H6  UNL     1     -17.004   3.579 -17.071  1.00  0.00     0.163 HD
HETATM   30  C34 UNL     1     -16.401   4.490 -14.854  1.00  0.00     0.250 C 
HETATM   31  O7  UNL     1     -15.161   4.665 -14.917  1.00  0.00    -0.271 OA
BRANCH   6  32
HETATM   32  O1  UNL     1     -18.891   2.955 -13.089  1.00  0.00    -0.332 OA
ATOM     33  H1  UNL     1     -19.184   2.136 -12.708  1.00  0.00     0.221 HD
ENDBRANCH   6  32
BRANCH  10  34
HETATM   34  C8  UNL     1     -15.505  -0.061 -15.799  1.00  0.00    -0.031 C 
HETATM   35  C9  UNL     1     -14.289  -0.155 -14.787  1.00  0.00     0.019 C 
HETATM   36  C10 UNL     1     -15.134  -1.209 -16.755  1.00  0.00     0.019 C 
HETATM   37  C11 UNL     1     -15.203   1.185 -16.530  1.00  0.00     0.019 C 
ENDBRANCH  10  34
BRANCH  14  38
HETATM   38  C14 UNL     1     -22.443  -0.860 -16.184  1.00  0.00     0.037 C 
BRANCH  38  39
HETATM   39  C15 UNL     1     -23.843  -0.781 -15.738  1.00  0.00    -0.020 C 
HETATM   40  C16 UNL     1     -24.402  -1.873 -14.912  1.00  0.00     0.009 C 
HETATM   41  C17 UNL     1     -24.718  -0.510 -16.973  1.00  0.00     0.009 C 
ENDBRANCH  38  39
ENDBRANCH  14  38
BRANCH  16  42
HETATM   42  O3  UNL     1     -21.872   1.884 -14.173  1.00  0.00    -0.348 OA
ATOM     43  H3  UNL     1     -22.222   2.760 -14.057  1.00  0.00     0.219 HD
ENDBRANCH  16  42
BRANCH  18  44
HETATM   44  C20 UNL     1     -22.832   2.327 -18.646  1.00  0.00     0.038 C 
BRANCH  44  45
HETATM   45  C21 UNL     1     -22.414   1.125 -19.388  1.00  0.00    -0.020 C 
HETATM   46  C22 UNL     1     -23.272   0.937 -20.610  1.00  0.00     0.009 C 
HETATM   47  C23 UNL     1     -20.984   1.344 -19.904  1.00  0.00     0.009 C 
ENDBRANCH  44  45
ENDBRANCH  18  44
BRANCH  23  48
HETATM   48  C26 UNL     1     -19.701   6.553 -19.029  1.00  0.00     0.063 C 
BRANCH  48  49
HETATM   49  C27 UNL     1     -19.979   7.982 -18.831  1.00  0.00     0.006 C 
BRANCH  49  50
HETATM   50  C28 UNL     1     -21.427   8.231 -19.301  1.00  0.00    -0.004 C 
HETATM   51  C29 UNL     1     -21.920   9.574 -18.871  1.00  0.00     0.005 C 
ENDBRANCH  49  50
ENDBRANCH  48  49
ENDBRANCH  23  48
BRANCH  28  52
HETATM   52  C32 UNL     1     -16.469   6.493 -16.216  1.00  0.00     0.134 C 
BRANCH  52  53
HETATM   53  C33 UNL     1     -16.881   7.726 -15.506  1.00  0.00     0.233 C 
HETATM   54  N7  UNL     1     -15.851   8.440 -14.784  1.00  0.00    -0.062 NA
HETATM   55  O6  UNL     1     -18.018   8.215 -15.462  1.00  0.00    -0.277 OA
ENDBRANCH  52  53
ENDBRANCH  28  52
ENDBRANCH   4   5
ENDBRANCH   3   4
TORSDOF 14
ENDMDL
MODEL 4
REMARK VINA RESULT: -6.178834680     15.481     20.480
REMARK  14 active torsions:
REMARK  status: ('A' for Active; 'I' for Inactive)
REMARK    1  A    between atoms: C3_3  and  C4_4 
REMARK    2  A    between atoms: C4_4  and  N1_5 
REMARK    3  A    between atoms: C5_6  and  O1_7 
REMARK    4  A    between atoms: C7_12  and  C8_13 
REMARK    5  A    between atoms: C13_21  and  C14_22 
REMARK    6  A    between atoms: C14_22  and  C15_23 
REMARK    7  A    between atoms: C18_26  and  O3_27 
REMARK    8  A    between atoms: C19_31  and  C20_32 
REMARK    9  A    between atoms: C20_32  and  C21_33 
REMARK   10  A    between atoms: C25_40  and  C26_41 
REMARK   11  A    between atoms: C26_41  and  C27_42 
REMARK   12  A    between atoms: C27_42  and  C28_43 
REMARK   13  A    between atoms: C31_49  and  C32_50 
REMARK   14  A    between atoms: C32_50  and  C33_51 
ROOT
HETATM    1  C1  UNL     1     -13.904  -0.647 -14.298  1.00  0.00     0.097 C 
HETATM    2  C2  UNL     1     -15.021  -1.320 -14.529  1.00  0.00    -0.186 C 
HETATM    3  C3  UNL     1     -16.123  -1.926 -14.855  1.00  0.00     0.100 C 
ENDROOT
BRANCH   3   4
HETATM    4  C4  UNL     1     -16.686  -1.635 -16.180  1.00  0.00     0.147 C 
BRANCH   4   5
HETATM    5  N1  UNL     1     -17.609  -0.500 -16.158  1.00  0.00    -0.281 N 
HETATM    6  C5  UNL     1     -17.064   0.804 -15.986  1.00  0.00     0.226 C 
HETATM    7  N2  UNL     1     -17.264   1.830 -15.078  1.00  0.00    -0.318 N 
HETATM    8  C6  UNL     1     -16.799   2.209 -13.780  1.00  0.00     0.100 C 
ATOM      9  H2  UNL     1     -17.934   2.510 -15.438  1.00  0.00     0.169 HD
HETATM   10  C7  UNL     1     -16.845   1.300 -12.662  1.00  0.00     0.017 C 
HETATM   11  C12 UNL     1     -17.136   3.658 -13.464  1.00  0.00     0.268 C 
HETATM   12  O2  UNL     1     -17.235   3.883 -12.193  1.00  0.00    -0.266 OA
HETATM   13  N3  UNL     1     -17.331   4.689 -14.380  1.00  0.00    -0.344 N 
HETATM   14  C13 UNL     1     -16.397   5.286 -15.347  1.00  0.00     0.159 C 
ATOM     15  H3  UNL     1     -18.267   5.093 -14.380  1.00  0.00     0.163 HD
HETATM   16  C18 UNL     1     -16.781   5.056 -16.748  1.00  0.00     0.135 C 
HETATM   17  N4  UNL     1     -17.885   5.474 -17.478  1.00  0.00    -0.359 N 
HETATM   18  C19 UNL     1     -19.311   5.409 -17.174  1.00  0.00     0.176 C 
ATOM     19  H4  UNL     1     -17.661   5.898 -18.379  1.00  0.00     0.162 HD
HETATM   20  C24 UNL     1     -20.016   4.882 -18.399  1.00  0.00     0.244 C 
HETATM   21  O4  UNL     1     -20.318   5.812 -19.239  1.00  0.00    -0.271 OA
HETATM   22  N5  UNL     1     -20.354   3.570 -18.711  1.00  0.00    -0.324 N 
HETATM   23  C25 UNL     1     -21.281   2.630 -18.188  1.00  0.00     0.080 C 
ATOM     24  H5  UNL     1     -19.815   3.199 -19.493  1.00  0.00     0.169 HD
HETATM   25  C30 UNL     1     -21.133   2.202 -16.783  1.00  0.00     0.264 C 
HETATM   26  O5  UNL     1     -21.657   2.934 -15.889  1.00  0.00    -0.266 OA
HETATM   27  N6  UNL     1     -20.463   1.047 -16.321  1.00  0.00    -0.342 N 
HETATM   28  C31 UNL     1     -19.969  -0.036 -17.146  1.00  0.00     0.186 C 
ATOM     29  H6  UNL     1     -20.313   0.970 -15.316  1.00  0.00     0.163 HD
HETATM   30  C34 UNL     1     -18.981  -0.840 -16.345  1.00  0.00     0.250 C 
HETATM   31  O7  UNL     1     -19.408  -1.887 -15.804  1.00  0.00    -0.271 OA
BRANCH   6  32
HETATM   32  O1  UNL     1     -16.175   1.012 -16.955  1.00  0.00    -0.332 OA
ATOM     33  H1  UNL     1     -16.464   1.761 -17.464  1.00  0.00     0.221 HD
ENDBRANCH   6  32
BRANCH  10  34
HETATM   34  C8  UNL     1     -17.896   0.621 -11.976  1.00  0.00    -0.031 C 
HETATM   35  C9  UNL     1     -17.273  -0.768 -11.536  1.00  0.00     0.019 C 
HETATM   36  C10 UNL     1     -18.270   1.186 -10.592  1.00  0.00     0.019 C 
HETATM   37  C11 UNL     1     -19.168   0.207 -12.599  1.00  0.00     0.019 C 
ENDBRANCH  10  34
BRANCH  14  38
HETATM   38  C14 UNL     1     -16.220   6.730 -14.941  1.00  0.00     0.037 C 
BRANCH  38  39
HETATM   39  C15 UNL     1     -15.715   7.681 -15.945  1.00  0.00    -0.020 C 
HETATM   40  C16 UNL     1     -14.299   8.107 -15.890  1.00  0.00     0.009 C 
HETATM   41  C17 UNL     1     -16.662   8.891 -15.969  1.00  0.00     0.009 C 
ENDBRANCH  38  39
ENDBRANCH  14  38
BRANCH  16  42
HETATM   42  O3  UNL     1     -15.905   4.321 -17.390  1.00  0.00    -0.348 OA
ATOM     43  H3  UNL     1     -15.214   4.843 -17.781  1.00  0.00     0.219 HD
ENDBRANCH  16  42
BRANCH  18  44
HETATM   44  C20 UNL     1     -19.707   6.873 -16.989  1.00  0.00     0.038 C 
BRANCH  44  45
HETATM   45  C21 UNL     1     -20.645   7.156 -15.890  1.00  0.00    -0.020 C 
HETATM   46  C22 UNL     1     -20.443   8.556 -15.375  1.00  0.00     0.009 C 
HETATM   47  C23 UNL     1     -22.076   7.111 -16.447  1.00  0.00     0.009 C 
ENDBRANCH  44  45
ENDBRANCH  18  44
BRANCH  23  48
HETATM   48  C26 UNL     1     -22.726   2.848 -18.571  1.00  0.00     0.063 C 
BRANCH  48  49
HETATM   49  C27 UNL     1     -23.602   1.671 -18.645  1.00  0.00     0.006 C 
BRANCH  49  50
HETATM   50  C28 UNL     1     -24.327   1.731 -20.006  1.00  0.00    -0.004 C 
HETATM   51  C29 UNL     1     -23.579   0.981 -21.060  1.00  0.00     0.005 C 
ENDBRANCH  49  50
ENDBRANCH  48  49
ENDBRANCH  23  48
BRANCH  28  52
HETATM   52  C32 UNL     1     -21.056  -0.974 -17.591  1.00  0.00     0.134 C 
BRANCH  52  53
HETATM   53  C33 UNL     1     -21.157  -1.125 -19.061  1.00  0.00     0.233 C 
HETATM   54  N7  UNL     1     -20.243  -0.342 -19.864  1.00  0.00    -0.062 NA
HETATM   55  O6  UNL     1     -21.944  -1.854 -19.682  1.00  0.00    -0.277 OA
ENDBRANCH  52  53
ENDBRANCH  28  52
ENDBRANCH   4   5
ENDBRANCH   3   4
TORSDOF 14
ENDMDL
MODEL 5
REMARK VINA RESULT: -6.148115052     14.914     19.766
REMARK  14 active torsions:
REMARK  status: ('A' for Active; 'I' for Inactive)
REMARK    1  A    between atoms: C3_3  and  C4_4 
REMARK    2  A    between atoms: C4_4  and  N1_5 
REMARK    3  A    between atoms: C5_6  and  O1_7 
REMARK    4  A    between atoms: C7_12  and  C8_13 
REMARK    5  A    between atoms: C13_21  and  C14_22 
REMARK    6  A    between atoms: C14_22  and  C15_23 
REMARK    7  A    between atoms: C18_26  and  O3_27 
REMARK    8  A    between atoms: C19_31  and  C20_32 
REMARK    9  A    between atoms: C20_32  and  C21_33 
REMARK   10  A    between atoms: C25_40  and  C26_41 
REMARK   11  A    between atoms: C26_41  and  C27_42 
REMARK   12  A    between atoms: C27_42  and  C28_43 
REMARK   13  A    between atoms: C31_49  and  C32_50 
REMARK   14  A    between atoms: C32_50  and  C33_51 
ROOT
HETATM    1  C1  UNL     1     -14.380   2.927  -9.688  1.00  0.00     0.097 C 
HETATM    2  C2  UNL     1     -14.957   2.782 -10.871  1.00  0.00    -0.186 C 
HETATM    3  C3  UNL     1     -15.559   2.747 -12.021  1.00  0.00     0.100 C 
ENDROOT
BRANCH   3   4
HETATM    4  C4  UNL     1     -16.222   3.978 -12.473  1.00  0.00     0.147 C 
BRANCH   4   5
HETATM    5  N1  UNL     1     -16.927   3.799 -13.743  1.00  0.00    -0.281 N 
HETATM    6  C5  UNL     1     -17.953   2.816 -13.807  1.00  0.00     0.226 C 
HETATM    7  N2  UNL     1     -18.188   1.704 -14.599  1.00  0.00    -0.318 N 
HETATM    8  C6  UNL     1     -17.810   0.325 -14.638  1.00  0.00     0.100 C 
ATOM      9  H2  UNL     1     -18.807   1.934 -15.376  1.00  0.00     0.169 HD
HETATM   10  C7  UNL     1     -16.428  -0.084 -14.587  1.00  0.00     0.017 C 
HETATM   11  C12 UNL     1     -18.699  -0.474 -15.578  1.00  0.00     0.268 C 
HETATM   12  O2  UNL     1     -18.109  -1.524 -16.053  1.00  0.00    -0.266 OA
HETATM   13  N3  UNL     1     -20.012  -0.179 -15.937  1.00  0.00    -0.344 N 
HETATM   14  C13 UNL     1     -21.227  -0.104 -15.112  1.00  0.00     0.159 C 
ATOM     15  H3  UNL     1     -20.153   0.016 -16.928  1.00  0.00     0.163 HD
HETATM   16  C18 UNL     1     -21.798   1.249 -15.033  1.00  0.00     0.135 C 
HETATM   17  N4  UNL     1     -22.348   2.071 -16.007  1.00  0.00    -0.359 N 
HETATM   18  C19 UNL     1     -21.849   2.458 -17.323  1.00  0.00     0.176 C 
ATOM     19  H4  UNL     1     -23.253   2.472 -15.761  1.00  0.00     0.162 HD
HETATM   20  C24 UNL     1     -22.022   3.951 -17.456  1.00  0.00     0.244 C 
HETATM   21  O4  UNL     1     -23.190   4.280 -17.891  1.00  0.00    -0.271 OA
HETATM   22  N5  UNL     1     -21.110   4.961 -17.173  1.00  0.00    -0.324 N 
HETATM   23  C25 UNL     1     -19.888   5.392 -17.754  1.00  0.00     0.080 C 
ATOM     24  H5  UNL     1     -21.380   5.520 -16.364  1.00  0.00     0.169 HD
HETATM   25  C30 UNL     1     -18.753   4.449 -17.787  1.00  0.00     0.264 C 
HETATM   26  O5  UNL     1     -18.703   3.624 -18.749  1.00  0.00    -0.266 OA
HETATM   27  N6  UNL     1     -17.700   4.367 -16.848  1.00  0.00    -0.342 N 
HETATM   28  C31 UNL     1     -17.426   5.320 -15.792  1.00  0.00     0.186 C 
ATOM     29  H6  UNL     1     -17.075   3.564 -16.921  1.00  0.00     0.163 HD
HETATM   30  C34 UNL     1     -16.510   4.676 -14.788  1.00  0.00     0.250 C 
HETATM   31  O7  UNL     1     -15.288   4.936 -14.887  1.00  0.00    -0.271 OA
BRANCH   6  32
HETATM   32  O1  UNL     1     -18.855   3.097 -12.869  1.00  0.00    -0.332 OA
ATOM     33  H1  UNL     1     -18.729   3.999 -12.600  1.00  0.00     0.221 HD
ENDBRANCH   6  32
BRANCH  10  34
HETATM   34  C8  UNL     1     -15.293   0.146 -15.420  1.00  0.00    -0.031 C 
HETATM   35  C9  UNL     1     -14.073   0.307 -14.421  1.00  0.00     0.019 C 
HETATM   36  C10 UNL     1     -14.800  -1.064 -16.235  1.00  0.00     0.019 C 
HETATM   37  C11 UNL     1     -15.128   1.319 -16.300  1.00  0.00     0.019 C 
ENDBRANCH  10  34
BRANCH  14  38
HETATM   38  C14 UNL     1     -22.157  -1.184 -15.612  1.00  0.00     0.037 C 
BRANCH  38  39
HETATM   39  C15 UNL     1     -21.940  -1.718 -16.966  1.00  0.00    -0.020 C 
HETATM   40  C16 UNL     1     -23.084  -1.803 -17.901  1.00  0.00     0.009 C 
HETATM   41  C17 UNL     1     -21.227  -3.073 -16.832  1.00  0.00     0.009 C 
ENDBRANCH  38  39
ENDBRANCH  14  38
BRANCH  16  42
HETATM   42  O3  UNL     1     -21.763   1.734 -13.816  1.00  0.00    -0.348 OA
ATOM     43  H3  UNL     1     -21.254   2.535 -13.761  1.00  0.00     0.219 HD
ENDBRANCH  16  42
BRANCH  18  44
HETATM   44  C20 UNL     1     -22.815   1.778 -18.290  1.00  0.00     0.038 C 
BRANCH  44  45
HETATM   45  C21 UNL     1     -22.343   1.622 -19.676  1.00  0.00    -0.020 C 
HETATM   46  C22 UNL     1     -21.086   0.795 -19.713  1.00  0.00     0.009 C 
HETATM   47  C23 UNL     1     -23.396   0.828 -20.463  1.00  0.00     0.009 C 
ENDBRANCH  44  45
ENDBRANCH  18  44
BRANCH  23  48
HETATM   48  C26 UNL     1     -20.012   6.182 -19.036  1.00  0.00     0.063 C 
BRANCH  48  49
HETATM   49  C27 UNL     1     -20.051   7.647 -18.938  1.00  0.00     0.006 C 
BRANCH  49  50
HETATM   50  C28 UNL     1     -21.393   8.106 -19.545  1.00  0.00    -0.004 C 
HETATM   51  C29 UNL     1     -21.661   9.547 -19.257  1.00  0.00     0.005 C 
ENDBRANCH  49  50
ENDBRANCH  48  49
ENDBRANCH  23  48
BRANCH  28  52
HETATM   52  C32 UNL     1     -16.746   6.564 -16.289  1.00  0.00     0.134 C 
BRANCH  52  53
HETATM   53  C33 UNL     1     -17.024   7.770 -15.475  1.00  0.00     0.233 C 
HETATM   54  N7  UNL     1     -18.374   8.288 -15.513  1.00  0.00    -0.062 NA
HETATM   55  O6  UNL     1     -16.222   8.387 -14.760  1.00  0.00    -0.277 OA
ENDBRANCH  52  53
ENDBRANCH  28  52
ENDBRANCH   4   5
ENDBRANCH   3   4
TORSDOF 14
ENDMDL
