MODEL 1
REMARK VINA RESULT: -8.840823485      0.000      0.000
REMARK  13 active torsions:
REMARK  status: ('A' for Active; 'I' for Inactive)
REMARK    1  A    between atoms: O1_2  and  C2_3 
REMARK    2  A    between atoms: C5_6  and  C6_7 
REMARK    3  A    between atoms: C6_7  and  C7_8 
REMARK    4  A    between atoms: C7_8  and  N1_9 
REMARK    5  A    between atoms: N1_9  and  C8_11 
REMARK    6  A    between atoms: N3_15  and  C10_17 
REMARK    7  A    between atoms: C10_17  and  C11_18 
REMARK    8  A    between atoms: C11_18  and  C12_19 
REMARK    9  A    between atoms: C12_19  and  N4_20 
REMARK   10  A    between atoms: N7_32  and  C20_33 
REMARK   11  A    between atoms: C20_33  and  C21_34 
REMARK   12  A    between atoms: C21_34  and  C22_35 
REMARK   13  A    between atoms: C29_45  and  O2_46 
ROOT
HETATM    1  C8  UNL     1     -17.009  11.486 -20.514  1.00  0.00     0.151 A 
HETATM    2  N2  UNL     1     -16.299  11.240 -19.370  1.00  0.00    -0.174 N 
ATOM      3  H2  UNL     1     -15.317  11.513 -19.328  1.00  0.00     0.186 HD
HETATM    4  C9  UNL     1     -16.852  10.655 -18.313  1.00  0.00     0.681 A 
HETATM    5  N3  UNL     1     -16.199  10.420 -17.236  1.00  0.00    -0.226 N 
ATOM      6  H3  UNL     1     -16.685   9.968 -16.461  1.00  0.00     0.177 HD
HETATM    7  N5  UNL     1     -18.155  10.310 -18.414  1.00  0.00    -0.174 N 
ATOM      8  H5  UNL     1     -18.587   9.860 -17.607  1.00  0.00     0.186 HD
HETATM    9  C17 UNL     1     -18.922  10.513 -19.494  1.00  0.00     0.155 A 
HETATM   10  C18 UNL     1     -18.326  11.127 -20.590  1.00  0.00     0.123 A 
HETATM   11  N6  UNL     1     -19.304  11.202 -21.501  1.00  0.00    -0.346 N 
ATOM     12  H6  UNL     1     -19.200  11.605 -22.433  1.00  0.00     0.167 HD
HETATM   13  C19 UNL     1     -20.442  10.673 -21.022  1.00  0.00     0.185 A 
HETATM   14  N7  UNL     1     -20.230  10.238 -19.773  1.00  0.00    -0.327 N 
ENDROOT
BRANCH   1  15
HETATM   15  N1  UNL     1     -16.384  12.036 -21.458  1.00  0.00    -0.353 N 
ATOM     16  H1  UNL     1     -16.358  11.452 -22.293  1.00  0.00     0.166 HD
BRANCH  15  17
HETATM   17  C7  UNL     1     -15.722  13.244 -21.639  1.00  0.00     0.067 C 
BRANCH  17  18
HETATM   18  C6  UNL     1     -16.461  14.424 -21.110  1.00  0.00     0.083 C 
BRANCH  18  19
HETATM   19  C5  UNL     1     -17.306  15.168 -22.038  1.00  0.00    -0.045 A 
HETATM   20  C4  UNL     1     -18.580  14.660 -22.385  1.00  0.00     0.011 A 
HETATM   21  C3  UNL     1     -19.403  15.364 -23.221  1.00  0.00     0.040 A 
HETATM   22  C2  UNL     1     -19.039  16.573 -23.754  1.00  0.00     0.102 A 
HETATM   23  C29 UNL     1     -17.804  17.060 -23.417  1.00  0.00     0.107 A 
HETATM   24  C27 UNL     1     -16.937  16.368 -22.566  1.00  0.00    -0.019 A 
HETATM   25  C28 UNL     1     -15.602  16.996 -22.333  1.00  0.00     0.052 C 
BRANCH  22  26
HETATM   26  O1  UNL     1     -19.864  17.316 -24.615  1.00  0.00    -0.353 OA
HETATM   27  C1  UNL     1     -20.335  16.789 -25.825  1.00  0.00     0.210 C 
ENDBRANCH  22  26
BRANCH  23  28
HETATM   28  O2  UNL     1     -17.391  18.280 -23.933  1.00  0.00    -0.353 OA
HETATM   29  C30 UNL     1     -16.838  18.328 -25.252  1.00  0.00     0.210 C 
ENDBRANCH  23  28
ENDBRANCH  18  19
ENDBRANCH  17  18
ENDBRANCH  15  17
ENDBRANCH   1  15
BRANCH   5  30
HETATM   30  C10 UNL     1     -14.814  10.766 -17.068  1.00  0.00     0.140 C 
BRANCH  30  31
HETATM   31  C11 UNL     1     -14.066   9.467 -16.774  1.00  0.00     0.050 C 
BRANCH  31  32
HETATM   32  C12 UNL     1     -14.436   9.121 -15.334  1.00  0.00     0.274 C 
BRANCH  32  33
HETATM   33  N4  UNL     1     -14.630   7.694 -15.161  1.00  0.00     0.088 N 
HETATM   34  C13 UNL     1     -15.955   7.522 -14.601  1.00  0.00     0.272 C 
HETATM   35  C14 UNL     1     -16.495   6.235 -15.187  1.00  0.00     0.032 C 
HETATM   36  C15 UNL     1     -15.761   6.085 -16.501  1.00  0.00     0.032 C 
HETATM   37  C16 UNL     1     -14.669   7.115 -16.487  1.00  0.00     0.272 C 
ENDBRANCH  32  33
ENDBRANCH  31  32
ENDBRANCH  30  31
ENDBRANCH   5  30
BRANCH  14  38
HETATM   38  C20 UNL     1     -21.104   9.596 -18.821  1.00  0.00     0.132 C 
BRANCH  38  39
HETATM   39  C21 UNL     1     -21.332   8.148 -19.091  1.00  0.00     0.025 C 
BRANCH  39  40
HETATM   40  C22 UNL     1     -20.982   7.338 -17.887  1.00  0.00    -0.010 C 
HETATM   41  C23 UNL     1     -19.615   6.678 -18.077  1.00  0.00     0.032 C 
HETATM   42  C24 UNL     1     -19.589   5.531 -17.064  1.00  0.00     0.232 C 
HETATM   43  N8  UNL     1     -20.243   5.959 -15.834  1.00  0.00    -0.075 N 
HETATM   44  C25 UNL     1     -20.088   7.376 -15.629  1.00  0.00     0.232 C 
ATOM     45  H82 UNL     1     -21.225   5.682 -15.814  1.00  0.00     0.277 HD
ATOM     46  H81 UNL     1     -19.915   5.425 -15.029  1.00  0.00     0.277 HD
HETATM   47  C26 UNL     1     -20.843   8.201 -16.652  1.00  0.00     0.032 C 
ENDBRANCH  39  40
ENDBRANCH  38  39
ENDBRANCH  14  38
TORSDOF 13
ENDMDL
MODEL 2
REMARK VINA RESULT: -8.729612025      0.486      1.531
REMARK  13 active torsions:
REMARK  status: ('A' for Active; 'I' for Inactive)
REMARK    1  A    between atoms: O1_2  and  C2_3 
REMARK    2  A    between atoms: C5_6  and  C6_7 
REMARK    3  A    between atoms: C6_7  and  C7_8 
REMARK    4  A    between atoms: C7_8  and  N1_9 
REMARK    5  A    between atoms: N1_9  and  C8_11 
REMARK    6  A    between atoms: N3_15  and  C10_17 
REMARK    7  A    between atoms: C10_17  and  C11_18 
REMARK    8  A    between atoms: C11_18  and  C12_19 
REMARK    9  A    between atoms: C12_19  and  N4_20 
REMARK   10  A    between atoms: N7_32  and  C20_33 
REMARK   11  A    between atoms: C20_33  and  C21_34 
REMARK   12  A    between atoms: C21_34  and  C22_35 
REMARK   13  A    between atoms: C29_45  and  O2_46 
ROOT
HETATM    1  C8  UNL     1     -16.964  11.475 -20.506  1.00  0.00     0.151 A 
HETATM    2  N2  UNL     1     -16.256  11.232 -19.360  1.00  0.00    -0.174 N 
ATOM      3  H2  UNL     1     -15.271  11.493 -19.321  1.00  0.00     0.186 HD
HETATM    4  C9  UNL     1     -16.817  10.667 -18.296  1.00  0.00     0.681 A 
HETATM    5  N3  UNL     1     -16.166  10.435 -17.217  1.00  0.00    -0.226 N 
ATOM      6  H3  UNL     1     -16.657   9.997 -16.437  1.00  0.00     0.177 HD
HETATM    7  N5  UNL     1     -18.124  10.338 -18.393  1.00  0.00    -0.174 N 
ATOM      8  H5  UNL     1     -18.562   9.903 -17.581  1.00  0.00     0.186 HD
HETATM    9  C17 UNL     1     -18.889  10.540 -19.474  1.00  0.00     0.155 A 
HETATM   10  C18 UNL     1     -18.286  11.133 -20.577  1.00  0.00     0.123 A 
HETATM   11  N6  UNL     1     -19.264  11.212 -21.488  1.00  0.00    -0.346 N 
ATOM     12  H6  UNL     1     -19.155  11.604 -22.424  1.00  0.00     0.167 HD
HETATM   13  C19 UNL     1     -20.408  10.704 -21.002  1.00  0.00     0.185 A 
HETATM   14  N7  UNL     1     -20.201  10.279 -19.750  1.00  0.00    -0.327 N 
ENDROOT
BRANCH   1  15
HETATM   15  N1  UNL     1     -16.333  12.006 -21.456  1.00  0.00    -0.353 N 
ATOM     16  H1  UNL     1     -16.361  11.438 -22.302  1.00  0.00     0.166 HD
BRANCH  15  17
HETATM   17  C7  UNL     1     -15.607  13.179 -21.633  1.00  0.00     0.067 C 
BRANCH  17  18
HETATM   18  C6  UNL     1     -16.228  14.376 -21.001  1.00  0.00     0.083 C 
BRANCH  18  19
HETATM   19  C5  UNL     1     -16.593  15.490 -21.869  1.00  0.00    -0.045 A 
HETATM   20  C4  UNL     1     -15.621  16.460 -22.209  1.00  0.00     0.011 A 
HETATM   21  C3  UNL     1     -15.933  17.488 -23.056  1.00  0.00     0.040 A 
HETATM   22  C2  UNL     1     -17.181  17.626 -23.607  1.00  0.00     0.102 A 
HETATM   23  C29 UNL     1     -18.119  16.685 -23.273  1.00  0.00     0.107 A 
HETATM   24  C27 UNL     1     -17.836  15.621 -22.411  1.00  0.00    -0.019 A 
HETATM   25  C28 UNL     1     -18.974  14.706 -22.097  1.00  0.00     0.052 C 
BRANCH  22  26
HETATM   26  O1  UNL     1     -17.528  18.671 -24.478  1.00  0.00    -0.353 OA
HETATM   27  C1  UNL     1     -16.974  18.780 -25.760  1.00  0.00     0.210 C 
ENDBRANCH  22  26
BRANCH  23  28
HETATM   28  O2  UNL     1     -19.397  16.783 -23.805  1.00  0.00    -0.353 OA
HETATM   29  C30 UNL     1     -19.664  16.211 -25.089  1.00  0.00     0.210 C 
ENDBRANCH  23  28
ENDBRANCH  18  19
ENDBRANCH  17  18
ENDBRANCH  15  17
ENDBRANCH   1  15
BRANCH   5  30
HETATM   30  C10 UNL     1     -14.776  10.763 -17.054  1.00  0.00     0.140 C 
BRANCH  30  31
HETATM   31  C11 UNL     1     -14.046   9.457 -16.746  1.00  0.00     0.050 C 
BRANCH  31  32
HETATM   32  C12 UNL     1     -14.465   9.102 -15.322  1.00  0.00     0.274 C 
BRANCH  32  33
HETATM   33  N4  UNL     1     -14.638   7.671 -15.159  1.00  0.00     0.088 N 
HETATM   34  C13 UNL     1     -15.954   7.478 -14.582  1.00  0.00     0.272 C 
HETATM   35  C14 UNL     1     -16.486   6.189 -15.171  1.00  0.00     0.032 C 
HETATM   36  C15 UNL     1     -15.767   6.059 -16.496  1.00  0.00     0.032 C 
HETATM   37  C16 UNL     1     -14.688   7.103 -16.489  1.00  0.00     0.272 C 
ENDBRANCH  32  33
ENDBRANCH  31  32
ENDBRANCH  30  31
ENDBRANCH   5  30
BRANCH  14  38
HETATM   38  C20 UNL     1     -21.083   9.660 -18.790  1.00  0.00     0.132 C 
BRANCH  38  39
HETATM   39  C21 UNL     1     -21.383   8.228 -19.081  1.00  0.00     0.025 C 
BRANCH  39  40
HETATM   40  C22 UNL     1     -20.984   7.373 -17.925  1.00  0.00    -0.010 C 
HETATM   41  C23 UNL     1     -19.579   6.811 -18.149  1.00  0.00     0.032 C 
HETATM   42  C24 UNL     1     -19.482   5.610 -17.204  1.00  0.00     0.232 C 
HETATM   43  N8  UNL     1     -20.161   5.925 -15.953  1.00  0.00    -0.075 N 
HETATM   44  C25 UNL     1     -20.093   7.334 -15.666  1.00  0.00     0.232 C 
ATOM     45  H82 UNL     1     -21.124   5.588 -15.953  1.00  0.00     0.277 HD
ATOM     46  H81 UNL     1     -19.800   5.366 -15.180  1.00  0.00     0.277 HD
HETATM   47  C26 UNL     1     -20.897   8.170 -16.642  1.00  0.00     0.032 C 
ENDBRANCH  39  40
ENDBRANCH  38  39
ENDBRANCH  14  38
TORSDOF 13
ENDMDL
MODEL 3
REMARK VINA RESULT: -8.702017443      1.288      2.299
REMARK  13 active torsions:
REMARK  status: ('A' for Active; 'I' for Inactive)
REMARK    1  A    between atoms: O1_2  and  C2_3 
REMARK    2  A    between atoms: C5_6  and  C6_7 
REMARK    3  A    between atoms: C6_7  and  C7_8 
REMARK    4  A    between atoms: C7_8  and  N1_9 
REMARK    5  A    between atoms: N1_9  and  C8_11 
REMARK    6  A    between atoms: N3_15  and  C10_17 
REMARK    7  A    between atoms: C10_17  and  C11_18 
REMARK    8  A    between atoms: C11_18  and  C12_19 
REMARK    9  A    between atoms: C12_19  and  N4_20 
REMARK   10  A    between atoms: N7_32  and  C20_33 
REMARK   11  A    between atoms: C20_33  and  C21_34 
REMARK   12  A    between atoms: C21_34  and  C22_35 
REMARK   13  A    between atoms: C29_45  and  O2_46 
ROOT
HETATM    1  C8  UNL     1     -18.018  11.683 -20.799  1.00  0.00     0.151 A 
HETATM    2  N2  UNL     1     -17.262  11.734 -19.659  1.00  0.00    -0.174 N 
ATOM      3  H2  UNL     1     -16.378  12.241 -19.673  1.00  0.00     0.186 HD
HETATM    4  C9  UNL     1     -17.649  11.141 -18.534  1.00  0.00     0.681 A 
HETATM    5  N3  UNL     1     -16.951  11.181 -17.460  1.00  0.00    -0.226 N 
ATOM      6  H3  UNL     1     -17.306  10.704 -16.631  1.00  0.00     0.177 HD
HETATM    7  N5  UNL     1     -18.828  10.480 -18.562  1.00  0.00    -0.174 N 
ATOM      8  H5  UNL     1     -19.131  10.022 -17.704  1.00  0.00     0.186 HD
HETATM    9  C17 UNL     1     -19.627  10.381 -19.633  1.00  0.00     0.155 A 
HETATM   10  C18 UNL     1     -19.207  11.009 -20.801  1.00  0.00     0.123 A 
HETATM   11  N6  UNL     1     -20.179  10.751 -21.684  1.00  0.00    -0.346 N 
ATOM     12  H6  UNL     1     -20.182  11.073 -22.653  1.00  0.00     0.167 HD
HETATM   13  C19 UNL     1     -21.149  10.013 -21.122  1.00  0.00     0.185 A 
HETATM   14  N7  UNL     1     -20.829   9.769 -19.845  1.00  0.00    -0.327 N 
ENDROOT
BRANCH   1  15
HETATM   15  N1  UNL     1     -17.553  12.272 -21.809  1.00  0.00    -0.353 N 
ATOM     16  H1  UNL     1     -16.674  11.862 -22.123  1.00  0.00     0.166 HD
BRANCH  15  17
HETATM   17  C7  UNL     1     -17.946  13.344 -22.603  1.00  0.00     0.067 C 
BRANCH  17  18
HETATM   18  C6  UNL     1     -17.928  14.656 -21.898  1.00  0.00     0.083 C 
BRANCH  18  19
HETATM   19  C5  UNL     1     -16.900  15.618 -22.281  1.00  0.00    -0.045 A 
HETATM   20  C4  UNL     1     -15.563  15.416 -21.865  1.00  0.00     0.011 A 
HETATM   21  C3  UNL     1     -14.578  16.284 -22.249  1.00  0.00     0.040 A 
HETATM   22  C2  UNL     1     -14.835  17.373 -23.042  1.00  0.00     0.102 A 
HETATM   23  C29 UNL     1     -16.131  17.565 -23.441  1.00  0.00     0.107 A 
HETATM   24  C27 UNL     1     -17.163  16.698 -23.067  1.00  0.00    -0.019 A 
HETATM   25  C28 UNL     1     -18.534  17.067 -23.533  1.00  0.00     0.052 C 
BRANCH  22  26
HETATM   26  O1  UNL     1     -13.844  18.280 -23.451  1.00  0.00    -0.353 OA
HETATM   27  C1  UNL     1     -12.880  17.940 -24.409  1.00  0.00     0.210 C 
ENDBRANCH  22  26
BRANCH  23  28
HETATM   28  O2  UNL     1     -16.440  18.654 -24.243  1.00  0.00    -0.353 OA
HETATM   29  C30 UNL     1     -16.350  18.520 -25.665  1.00  0.00     0.210 C 
ENDBRANCH  23  28
ENDBRANCH  18  19
ENDBRANCH  17  18
ENDBRANCH  15  17
ENDBRANCH   1  15
BRANCH   5  30
HETATM   30  C10 UNL     1     -15.692  11.869 -17.368  1.00  0.00     0.140 C 
BRANCH  30  31
HETATM   31  C11 UNL     1     -14.604  10.842 -17.672  1.00  0.00     0.050 C 
BRANCH  31  32
HETATM   32  C12 UNL     1     -14.204  10.282 -16.309  1.00  0.00     0.274 C 
BRANCH  32  33
HETATM   33  N4  UNL     1     -13.873   8.872 -16.389  1.00  0.00     0.088 N 
HETATM   34  C13 UNL     1     -14.467   8.243 -15.226  1.00  0.00     0.272 C 
HETATM   35  C14 UNL     1     -14.899   6.862 -15.669  1.00  0.00     0.032 C 
HETATM   36  C15 UNL     1     -15.127   7.001 -17.157  1.00  0.00     0.032 C 
HETATM   37  C16 UNL     1     -14.573   8.343 -17.540  1.00  0.00     0.272 C 
ENDBRANCH  32  33
ENDBRANCH  31  32
ENDBRANCH  30  31
ENDBRANCH   5  30
BRANCH  14  38
HETATM   38  C20 UNL     1     -21.514   9.032 -18.809  1.00  0.00     0.132 C 
BRANCH  38  39
HETATM   39  C21 UNL     1     -21.274   7.561 -18.856  1.00  0.00     0.025 C 
BRANCH  39  40
HETATM   40  C22 UNL     1     -20.688   7.094 -17.566  1.00  0.00    -0.010 C 
HETATM   41  C23 UNL     1     -19.168   6.971 -17.694  1.00  0.00     0.032 C 
HETATM   42  C24 UNL     1     -18.751   6.049 -16.544  1.00  0.00     0.232 C 
HETATM   43  N8  UNL     1     -19.555   6.352 -15.367  1.00  0.00    -0.075 N 
HETATM   44  C25 UNL     1     -19.943   7.739 -15.345  1.00  0.00     0.232 C 
ATOM     45  H82 UNL     1     -20.365   5.735 -15.297  1.00  0.00     0.277 HD
ATOM     46  H81 UNL     1     -19.078   6.081 -14.508  1.00  0.00     0.277 HD
HETATM   47  C26 UNL     1     -20.917   8.092 -16.452  1.00  0.00     0.032 C 
ENDBRANCH  39  40
ENDBRANCH  38  39
ENDBRANCH  14  38
TORSDOF 13
ENDMDL
MODEL 4
REMARK VINA RESULT: -8.698556787      1.307      1.777
REMARK  13 active torsions:
REMARK  status: ('A' for Active; 'I' for Inactive)
REMARK    1  A    between atoms: O1_2  and  C2_3 
REMARK    2  A    between atoms: C5_6  and  C6_7 
REMARK    3  A    between atoms: C6_7  and  C7_8 
REMARK    4  A    between atoms: C7_8  and  N1_9 
REMARK    5  A    between atoms: N1_9  and  C8_11 
REMARK    6  A    between atoms: N3_15  and  C10_17 
REMARK    7  A    between atoms: C10_17  and  C11_18 
REMARK    8  A    between atoms: C11_18  and  C12_19 
REMARK    9  A    between atoms: C12_19  and  N4_20 
REMARK   10  A    between atoms: N7_32  and  C20_33 
REMARK   11  A    between atoms: C20_33  and  C21_34 
REMARK   12  A    between atoms: C21_34  and  C22_35 
REMARK   13  A    between atoms: C29_45  and  O2_46 
ROOT
HETATM    1  C8  UNL     1     -18.574  10.910 -20.651  1.00  0.00     0.151 A 
HETATM    2  N2  UNL     1     -17.685  11.236 -19.662  1.00  0.00    -0.174 N 
ATOM      3  H2  UNL     1     -16.862  11.790 -19.898  1.00  0.00     0.186 HD
HETATM    4  C9  UNL     1     -17.864  10.851 -18.403  1.00  0.00     0.681 A 
HETATM    5  N3  UNL     1     -17.041  11.150 -17.468  1.00  0.00    -0.226 N 
ATOM      6  H3  UNL     1     -17.238  10.821 -16.522  1.00  0.00     0.177 HD
HETATM    7  N5  UNL     1     -18.968  10.118 -18.137  1.00  0.00    -0.174 N 
ATOM      8  H5  UNL     1     -19.112   9.817 -17.173  1.00  0.00     0.186 HD
HETATM    9  C17 UNL     1     -19.886   9.755 -19.043  1.00  0.00     0.155 A 
HETATM   10  C18 UNL     1     -19.683  10.168 -20.355  1.00  0.00     0.123 A 
HETATM   11  N6  UNL     1     -20.731   9.675 -21.025  1.00  0.00    -0.346 N 
ATOM     12  H6  UNL     1     -20.891   9.798 -22.025  1.00  0.00     0.167 HD
HETATM   13  C19 UNL     1     -21.545   8.996 -20.200  1.00  0.00     0.185 A 
HETATM   14  N7  UNL     1     -21.041   9.031 -18.960  1.00  0.00    -0.327 N 
ENDROOT
BRANCH   1  15
HETATM   15  N1  UNL     1     -18.302  11.319 -21.810  1.00  0.00    -0.353 N 
ATOM     16  H1  UNL     1     -18.351  10.572 -22.503  1.00  0.00     0.166 HD
BRANCH  15  17
HETATM   17  C7  UNL     1     -17.951  12.539 -22.375  1.00  0.00     0.067 C 
BRANCH  17  18
HETATM   18  C6  UNL     1     -18.794  13.681 -21.921  1.00  0.00     0.083 C 
BRANCH  18  19
HETATM   19  C5  UNL     1     -18.634  14.958 -22.608  1.00  0.00    -0.045 A 
HETATM   20  C4  UNL     1     -19.630  15.395 -23.512  1.00  0.00     0.011 A 
HETATM   21  C3  UNL     1     -19.518  16.609 -24.134  1.00  0.00     0.040 A 
HETATM   22  C2  UNL     1     -18.453  17.445 -23.914  1.00  0.00     0.102 A 
HETATM   23  C29 UNL     1     -17.491  17.016 -23.039  1.00  0.00     0.107 A 
HETATM   24  C27 UNL     1     -17.573  15.782 -22.386  1.00  0.00    -0.019 A 
HETATM   25  C28 UNL     1     -16.421  15.427 -21.503  1.00  0.00     0.052 C 
BRANCH  22  26
HETATM   26  O1  UNL     1     -18.313  18.695 -24.539  1.00  0.00    -0.353 OA
HETATM   27  C1  UNL     1     -17.867  18.814 -25.862  1.00  0.00     0.210 C 
ENDBRANCH  22  26
BRANCH  23  28
HETATM   28  O2  UNL     1     -16.395  17.828 -22.786  1.00  0.00    -0.353 OA
HETATM   29  C30 UNL     1     -15.212  17.669 -23.575  1.00  0.00     0.210 C 
ENDBRANCH  23  28
ENDBRANCH  18  19
ENDBRANCH  17  18
ENDBRANCH  15  17
ENDBRANCH   1  15
BRANCH   5  30
HETATM   30  C10 UNL     1     -15.852  11.927 -17.689  1.00  0.00     0.140 C 
BRANCH  30  31
HETATM   31  C11 UNL     1     -14.721  10.939 -17.962  1.00  0.00     0.050 C 
BRANCH  31  32
HETATM   32  C12 UNL     1     -14.261  10.481 -16.580  1.00  0.00     0.274 C 
BRANCH  32  33
HETATM   33  N4  UNL     1     -13.855   9.088 -16.588  1.00  0.00     0.088 N 
HETATM   34  C13 UNL     1     -14.343   8.509 -15.353  1.00  0.00     0.272 C 
HETATM   35  C14 UNL     1     -14.720   7.080 -15.679  1.00  0.00     0.032 C 
HETATM   36  C15 UNL     1     -15.040   7.105 -17.157  1.00  0.00     0.032 C 
HETATM   37  C16 UNL     1     -14.587   8.446 -17.658  1.00  0.00     0.272 C 
ENDBRANCH  32  33
ENDBRANCH  31  32
ENDBRANCH  30  31
ENDBRANCH   5  30
BRANCH  14  38
HETATM   38  C20 UNL     1     -21.512   8.467 -17.718  1.00  0.00     0.132 C 
BRANCH  38  39
HETATM   39  C21 UNL     1     -21.416   6.980 -17.655  1.00  0.00     0.025 C 
BRANCH  39  40
HETATM   40  C22 UNL     1     -20.274   6.575 -16.784  1.00  0.00    -0.010 C 
HETATM   41  C23 UNL     1     -19.059   6.221 -17.643  1.00  0.00     0.032 C 
HETATM   42  C24 UNL     1     -18.165   5.377 -16.730  1.00  0.00     0.232 C 
HETATM   43  N8  UNL     1     -18.212   5.917 -15.377  1.00  0.00    -0.075 N 
HETATM   44  C25 UNL     1     -18.436   7.339 -15.393  1.00  0.00     0.232 C 
ATOM     45  H82 UNL     1     -18.904   5.434 -14.804  1.00  0.00     0.277 HD
ATOM     46  H81 UNL     1     -17.375   5.674 -14.847  1.00  0.00     0.277 HD
HETATM   47  C26 UNL     1     -19.819   7.709 -15.893  1.00  0.00     0.032 C 
ENDBRANCH  39  40
ENDBRANCH  38  39
ENDBRANCH  14  38
TORSDOF 13
ENDMDL
MODEL 5
REMARK VINA RESULT: -8.610049571      1.113      1.598
REMARK  13 active torsions:
REMARK  status: ('A' for Active; 'I' for Inactive)
REMARK    1  A    between atoms: O1_2  and  C2_3 
REMARK    2  A    between atoms: C5_6  and  C6_7 
REMARK    3  A    between atoms: C6_7  and  C7_8 
REMARK    4  A    between atoms: C7_8  and  N1_9 
REMARK    5  A    between atoms: N1_9  and  C8_11 
REMARK    6  A    between atoms: N3_15  and  C10_17 
REMARK    7  A    between atoms: C10_17  and  C11_18 
REMARK    8  A    between atoms: C11_18  and  C12_19 
REMARK    9  A    between atoms: C12_19  and  N4_20 
REMARK   10  A    between atoms: N7_32  and  C20_33 
REMARK   11  A    between atoms: C20_33  and  C21_34 
REMARK   12  A    between atoms: C21_34  and  C22_35 
REMARK   13  A    between atoms: C29_45  and  O2_46 
ROOT
HETATM    1  C8  UNL     1     -17.027  11.577 -20.366  1.00  0.00     0.151 A 
HETATM    2  N2  UNL     1     -16.317  11.262 -19.239  1.00  0.00    -0.174 N 
ATOM      3  H2  UNL     1     -15.333  11.527 -19.182  1.00  0.00     0.186 HD
HETATM    4  C9  UNL     1     -16.872  10.621 -18.216  1.00  0.00     0.681 A 
HETATM    5  N3  UNL     1     -16.219  10.321 -17.155  1.00  0.00    -0.226 N 
ATOM      6  H3  UNL     1     -16.707   9.828 -16.407  1.00  0.00     0.177 HD
HETATM    7  N5  UNL     1     -18.177  10.290 -18.335  1.00  0.00    -0.174 N 
ATOM      8  H5  UNL     1     -18.611   9.797 -17.554  1.00  0.00     0.186 HD
HETATM    9  C17 UNL     1     -18.944  10.559 -19.400  1.00  0.00     0.155 A 
HETATM   10  C18 UNL     1     -18.346  11.230 -20.461  1.00  0.00     0.123 A 
HETATM   11  N6  UNL     1     -19.324  11.363 -21.365  1.00  0.00    -0.346 N 
ATOM     12  H6  UNL     1     -19.218  11.818 -22.272  1.00  0.00     0.167 HD
HETATM   13  C19 UNL     1     -20.464  10.814 -20.914  1.00  0.00     0.185 A 
HETATM   14  N7  UNL     1     -20.254  10.307 -19.693  1.00  0.00    -0.327 N 
ENDROOT
BRANCH   1  15
HETATM   15  N1  UNL     1     -16.400  12.176 -21.278  1.00  0.00    -0.353 N 
ATOM     16  H1  UNL     1     -16.746  11.935 -22.206  1.00  0.00     0.166 HD
BRANCH  15  17
HETATM   17  C7  UNL     1     -15.350  13.086 -21.328  1.00  0.00     0.067 C 
BRANCH  17  18
HETATM   18  C6  UNL     1     -15.692  14.433 -20.792  1.00  0.00     0.083 C 
BRANCH  18  19
HETATM   19  C5  UNL     1     -15.808  15.533 -21.744  1.00  0.00    -0.045 A 
HETATM   20  C4  UNL     1     -17.050  15.786 -22.373  1.00  0.00     0.011 A 
HETATM   21  C3  UNL     1     -17.189  16.838 -23.236  1.00  0.00     0.040 A 
HETATM   22  C2  UNL     1     -16.149  17.682 -23.529  1.00  0.00     0.102 A 
HETATM   23  C29 UNL     1     -14.949  17.432 -22.919  1.00  0.00     0.107 A 
HETATM   24  C27 UNL     1     -14.770  16.367 -22.032  1.00  0.00    -0.019 A 
HETATM   25  C28 UNL     1     -13.391  16.187 -21.488  1.00  0.00     0.052 C 
BRANCH  22  26
HETATM   26  O1  UNL     1     -16.264  18.769 -24.412  1.00  0.00    -0.353 OA
HETATM   27  C1  UNL     1     -17.020  18.689 -25.589  1.00  0.00     0.210 C 
ENDBRANCH  22  26
BRANCH  23  28
HETATM   28  O2  UNL     1     -13.868  18.260 -23.186  1.00  0.00    -0.353 OA
HETATM   29  C30 UNL     1     -13.056  17.999 -24.335  1.00  0.00     0.210 C 
ENDBRANCH  23  28
ENDBRANCH  18  19
ENDBRANCH  17  18
ENDBRANCH  15  17
ENDBRANCH   1  15
BRANCH   5  30
HETATM   30  C10 UNL     1     -14.832  10.648 -16.970  1.00  0.00     0.140 C 
BRANCH  30  31
HETATM   31  C11 UNL     1     -14.104   9.339 -16.673  1.00  0.00     0.050 C 
BRANCH  31  32
HETATM   32  C12 UNL     1     -14.567   8.944 -15.274  1.00  0.00     0.274 C 
BRANCH  32  33
HETATM   33  N4  UNL     1     -14.739   7.508 -15.155  1.00  0.00     0.088 N 
HETATM   34  C13 UNL     1     -16.058   7.295 -14.595  1.00  0.00     0.272 C 
HETATM   35  C14 UNL     1     -16.584   6.024 -15.227  1.00  0.00     0.032 C 
HETATM   36  C15 UNL     1     -15.855   5.935 -16.549  1.00  0.00     0.032 C 
HETATM   37  C16 UNL     1     -14.778   6.980 -16.502  1.00  0.00     0.272 C 
ENDBRANCH  32  33
ENDBRANCH  31  32
ENDBRANCH  30  31
ENDBRANCH   5  30
BRANCH  14  38
HETATM   38  C20 UNL     1     -21.131   9.617 -18.778  1.00  0.00     0.132 C 
BRANCH  38  39
HETATM   39  C21 UNL     1     -21.346   8.181 -19.115  1.00  0.00     0.025 C 
BRANCH  39  40
HETATM   40  C22 UNL     1     -20.997   7.320 -17.947  1.00  0.00    -0.010 C 
HETATM   41  C23 UNL     1     -19.622   6.682 -18.157  1.00  0.00     0.032 C 
HETATM   42  C24 UNL     1     -19.592   5.490 -17.197  1.00  0.00     0.232 C 
HETATM   43  N8  UNL     1     -20.258   5.855 -15.954  1.00  0.00    -0.075 N 
HETATM   44  C25 UNL     1     -20.118   7.262 -15.683  1.00  0.00     0.232 C 
ATOM     45  H82 UNL     1     -21.237   5.568 -15.954  1.00  0.00     0.277 HD
ATOM     46  H81 UNL     1     -19.930   5.288 -15.172  1.00  0.00     0.277 HD
HETATM   47  C26 UNL     1     -20.874   8.127 -16.673  1.00  0.00     0.032 C 
ENDBRANCH  39  40
ENDBRANCH  38  39
ENDBRANCH  14  38
TORSDOF 13
ENDMDL
