MODEL 1
REMARK VINA RESULT: -8.970931655      0.000      0.000
REMARK  13 active torsions:
REMARK  status: ('A' for Active; 'I' for Inactive)
REMARK    1  A    between atoms: C2_2  and  C3_3 
REMARK    2  A    between atoms: C3_3  and  C4_4 
REMARK    3  A    between atoms: C7_7  and  C8_8 
REMARK    4  A    between atoms: C8_8  and  C9_9 
REMARK    5  A    between atoms: C9_9  and  N1_11 
REMARK    6  A    between atoms: N1_11  and  C11_13 
REMARK    7  A    between atoms: C12_16  and  N3_17 
REMARK    8  A    between atoms: C15_22  and  N5_23 
REMARK    9  A    between atoms: C16_25  and  C17_26 
REMARK   10  A    between atoms: C17_26  and  N6_27 
REMARK   11  A    between atoms: C24_36  and  C25_37 
REMARK   12  A    between atoms: C25_37  and  N8_38 
REMARK   13  A    between atoms: C30_44  and  O2_45 
ROOT
HETATM    1  N1  UNL     1      -7.719   0.009 -10.986  1.00  0.00    -0.198 N 
ATOM      2  H1  UNL     1      -7.706  -0.893 -10.508  1.00  0.00     0.183 HD
ENDROOT
BRANCH   1   3
HETATM    3  C9  UNL     1      -8.270  -0.095 -12.270  1.00  0.00     0.004 C 
HETATM    4  C10 UNL     1      -9.616   0.499 -12.376  1.00  0.00     0.064 C 
BRANCH   3   5
HETATM    5  C8  UNL     1      -7.310   0.105 -13.422  1.00  0.00     0.091 C 
BRANCH   5   6
HETATM    6  C7  UNL     1      -6.743  -1.215 -13.780  1.00  0.00    -0.046 A 
HETATM    7  C5  UNL     1      -5.480  -1.623 -13.443  1.00  0.00    -0.046 A 
HETATM    8  C4  UNL     1      -4.953  -2.816 -13.948  1.00  0.00    -0.018 A 
HETATM    9  C6  UNL     1      -4.698  -0.874 -12.468  1.00  0.00     0.049 C 
HETATM   10  C30 UNL     1      -5.734  -3.578 -14.789  1.00  0.00     0.080 A 
HETATM   11  C24 UNL     1      -7.041  -3.194 -15.156  1.00  0.00     0.004 A 
HETATM   12  C23 UNL     1      -7.513  -2.023 -14.641  1.00  0.00     0.019 A 
BRANCH   8  13
HETATM   13  C3  UNL     1      -3.599  -3.216 -13.580  1.00  0.00     0.042 C 
BRANCH  13  14
HETATM   14  C2  UNL     1      -2.520  -2.961 -14.565  1.00  0.00     0.000 C 
HETATM   15  C1  UNL     1      -1.772  -4.290 -14.764  1.00  0.00     0.005 C 
ENDBRANCH  13  14
ENDBRANCH   8  13
BRANCH  10  16
HETATM   16  O2  UNL     1      -5.283  -4.765 -15.324  1.00  0.00    -0.360 OA
ATOM     17  H2  UNL     1      -5.862  -5.358 -15.788  1.00  0.00     0.217 HD
ENDBRANCH  10  16
BRANCH  11  18
HETATM   18  C25 UNL     1      -7.781  -4.107 -16.058  1.00  0.00     0.314 C 
BRANCH  18  19
HETATM   19  N8  UNL     1      -8.893  -4.784 -15.489  1.00  0.00     0.096 N 
HETATM   20  C26 UNL     1      -8.582  -6.150 -15.114  1.00  0.00     0.299 C 
HETATM   21  C27 UNL     1      -8.171  -6.918 -16.341  1.00  0.00     0.198 C 
HETATM   22  O1  UNL     1      -9.018  -6.680 -17.434  1.00  0.00    -0.388 OA
HETATM   23  C28 UNL     1     -10.238  -6.198 -16.909  1.00  0.00     0.198 C 
HETATM   24  C29 UNL     1     -10.058  -4.816 -16.338  1.00  0.00     0.299 C 
ENDBRANCH  18  19
ENDBRANCH  11  18
ENDBRANCH   5   6
ENDBRANCH   3   5
ENDBRANCH   1   3
BRANCH   1  25
HETATM   25  C11 UNL     1      -7.237   0.918 -10.269  1.00  0.00     0.711 A 
HETATM   26  N2  UNL     1      -7.459   1.090  -8.960  1.00  0.00    -0.021 N 
HETATM   27  C12 UNL     1      -6.866   2.092  -8.241  1.00  0.00     0.708 A 
ATOM     28  H2  UNL     1      -8.094   0.451  -8.481  1.00  0.00     0.203 HD
HETATM   29  N4  UNL     1      -6.051   2.891  -8.928  1.00  0.00    -0.021 N 
HETATM   30  C15 UNL     1      -5.774   2.798 -10.220  1.00  0.00     0.711 A 
ATOM     31  H4  UNL     1      -5.599   3.645  -8.411  1.00  0.00     0.203 HD
HETATM   32  N7  UNL     1      -6.391   1.783 -10.885  1.00  0.00    -0.021 N 
ATOM     33  H7  UNL     1      -6.211   1.668 -11.882  1.00  0.00     0.203 HD
BRANCH  27  34
HETATM   34  N3  UNL     1      -7.134   2.222  -6.849  1.00  0.00    -0.225 N 
HETATM   35  C13 UNL     1      -7.099   1.084  -5.955  1.00  0.00     0.168 C 
HETATM   36  C14 UNL     1      -7.445   3.525  -6.304  1.00  0.00     0.168 C 
ENDBRANCH  27  34
BRANCH  30  37
HETATM   37  N5  UNL     1      -5.022   3.518 -10.858  1.00  0.00    -0.203 N 
HETATM   38  C16 UNL     1      -3.720   3.839 -11.085  1.00  0.00     0.109 C 
ATOM     39  H5  UNL     1      -5.596   4.111 -11.457  1.00  0.00     0.183 HD
BRANCH  38  40
HETATM   40  C17 UNL     1      -2.709   3.774  -9.994  1.00  0.00     0.317 C 
BRANCH  40  41
HETATM   41  N6  UNL     1      -1.462   3.147 -10.292  1.00  0.00     0.096 N 
HETATM   42  C18 UNL     1      -1.375   1.797  -9.836  1.00  0.00     0.300 C 
HETATM   43  C19 UNL     1      -1.799   0.775 -10.831  1.00  0.00    -0.001 C 
HETATM   44  C20 UNL     1      -1.315   0.938 -12.051  1.00  0.00    -0.027 C 
HETATM   45  C21 UNL     1      -0.425   2.121 -12.218  1.00  0.00     0.057 C 
HETATM   46  C22 UNL     1      -1.214   3.303 -11.705  1.00  0.00     0.277 C 
ENDBRANCH  40  41
ENDBRANCH  38  40
ENDBRANCH  30  37
ENDBRANCH   1  25
TORSDOF 13
ENDMDL
MODEL 2
REMARK VINA RESULT: -8.928753185      3.395     10.111
REMARK  13 active torsions:
REMARK  status: ('A' for Active; 'I' for Inactive)
REMARK    1  A    between atoms: C2_2  and  C3_3 
REMARK    2  A    between atoms: C3_3  and  C4_4 
REMARK    3  A    between atoms: C7_7  and  C8_8 
REMARK    4  A    between atoms: C8_8  and  C9_9 
REMARK    5  A    between atoms: C9_9  and  N1_11 
REMARK    6  A    between atoms: N1_11  and  C11_13 
REMARK    7  A    between atoms: C12_16  and  N3_17 
REMARK    8  A    between atoms: C15_22  and  N5_23 
REMARK    9  A    between atoms: C16_25  and  C17_26 
REMARK   10  A    between atoms: C17_26  and  N6_27 
REMARK   11  A    between atoms: C24_36  and  C25_37 
REMARK   12  A    between atoms: C25_37  and  N8_38 
REMARK   13  A    between atoms: C30_44  and  O2_45 
ROOT
HETATM    1  N1  UNL     1      -6.785  -2.182 -15.708  1.00  0.00    -0.198 N 
ATOM      2  H1  UNL     1      -7.640  -2.300 -16.252  1.00  0.00     0.183 HD
ENDROOT
BRANCH   1   3
HETATM    3  C9  UNL     1      -6.887  -1.108 -14.813  1.00  0.00     0.004 C 
HETATM    4  C10 UNL     1      -7.549   0.075 -15.396  1.00  0.00     0.064 C 
BRANCH   3   5
HETATM    5  C8  UNL     1      -7.205  -1.467 -13.378  1.00  0.00     0.091 C 
BRANCH   5   6
HETATM    6  C7  UNL     1      -6.774  -0.341 -12.519  1.00  0.00    -0.046 A 
HETATM    7  C5  UNL     1      -7.587   0.283 -11.611  1.00  0.00    -0.046 A 
HETATM    8  C4  UNL     1      -7.165   1.439 -10.947  1.00  0.00    -0.018 A 
HETATM    9  C6  UNL     1      -8.868  -0.305 -11.240  1.00  0.00     0.049 C 
HETATM   10  C30 UNL     1      -5.910   1.937 -11.221  1.00  0.00     0.080 A 
HETATM   11  C24 UNL     1      -5.041   1.319 -12.146  1.00  0.00     0.004 A 
HETATM   12  C23 UNL     1      -5.495   0.195 -12.771  1.00  0.00     0.019 A 
BRANCH   8  13
HETATM   13  C3  UNL     1      -8.059   2.089  -9.994  1.00  0.00     0.042 C 
BRANCH  13  14
HETATM   14  C2  UNL     1      -7.710   1.993  -8.556  1.00  0.00     0.000 C 
HETATM   15  C1  UNL     1      -7.824   3.412  -7.972  1.00  0.00     0.005 C 
ENDBRANCH  13  14
ENDBRANCH   8  13
BRANCH  10  16
HETATM   16  O2  UNL     1      -5.425   3.069 -10.605  1.00  0.00    -0.360 OA
ATOM     17  H2  UNL     1      -4.537   3.119 -10.272  1.00  0.00     0.217 HD
ENDBRANCH  10  16
BRANCH  11  18
HETATM   18  C25 UNL     1      -3.713   1.946 -12.343  1.00  0.00     0.314 C 
BRANCH  18  19
HETATM   19  N8  UNL     1      -2.628   1.343 -11.651  1.00  0.00     0.096 N 
HETATM   20  C26 UNL     1      -2.160   2.148 -10.539  1.00  0.00     0.299 C 
HETATM   21  C27 UNL     1      -1.677   3.476 -11.058  1.00  0.00     0.198 C 
HETATM   22  O1  UNL     1      -0.874   3.347 -12.201  1.00  0.00    -0.388 OA
HETATM   23  C28 UNL     1      -0.381   2.023 -12.208  1.00  0.00     0.198 C 
HETATM   24  C29 UNL     1      -1.492   1.046 -12.487  1.00  0.00     0.299 C 
ENDBRANCH  18  19
ENDBRANCH  11  18
ENDBRANCH   5   6
ENDBRANCH   3   5
ENDBRANCH   1   3
BRANCH   1  25
HETATM   25  C11 UNL     1      -5.919  -3.035 -16.016  1.00  0.00     0.711 A 
HETATM   26  N2  UNL     1      -4.668  -3.094 -15.541  1.00  0.00    -0.021 N 
HETATM   27  C12 UNL     1      -3.793  -4.082 -15.903  1.00  0.00     0.708 A 
ATOM     28  H2  UNL     1      -4.358  -2.378 -14.885  1.00  0.00     0.203 HD
HETATM   29  N4  UNL     1      -4.263  -4.983 -16.764  1.00  0.00    -0.021 N 
HETATM   30  C15 UNL     1      -5.480  -5.003 -17.286  1.00  0.00     0.711 A 
ATOM     31  H4  UNL     1      -3.626  -5.728 -17.048  1.00  0.00     0.203 HD
HETATM   32  N7  UNL     1      -6.309  -3.999 -16.890  1.00  0.00    -0.021 N 
ATOM     33  H7  UNL     1      -7.258  -3.968 -17.263  1.00  0.00     0.203 HD
BRANCH  27  34
HETATM   34  N3  UNL     1      -2.477  -4.098 -15.360  1.00  0.00    -0.225 N 
HETATM   35  C13 UNL     1      -1.446  -4.970 -15.883  1.00  0.00     0.168 C 
HETATM   36  C14 UNL     1      -2.151  -3.218 -14.260  1.00  0.00     0.168 C 
ENDBRANCH  27  34
BRANCH  30  37
HETATM   37  N5  UNL     1      -5.925  -5.829 -18.067  1.00  0.00    -0.203 N 
HETATM   38  C16 UNL     1      -6.828  -6.833 -18.225  1.00  0.00     0.109 C 
ATOM     39  H5  UNL     1      -5.422  -5.724 -18.948  1.00  0.00     0.183 HD
BRANCH  38  40
HETATM   40  C17 UNL     1      -7.188  -7.731 -17.094  1.00  0.00     0.317 C 
BRANCH  40  41
HETATM   41  N6  UNL     1      -8.547  -7.723 -16.656  1.00  0.00     0.096 N 
HETATM   42  C18 UNL     1      -8.766  -6.943 -15.481  1.00  0.00     0.300 C 
HETATM   43  C19 UNL     1      -9.141  -5.525 -15.735  1.00  0.00    -0.001 C 
HETATM   44  C20 UNL     1     -10.073  -5.343 -16.656  1.00  0.00    -0.027 C 
HETATM   45  C21 UNL     1     -10.589  -6.593 -17.281  1.00  0.00     0.057 C 
HETATM   46  C22 UNL     1      -9.371  -7.336 -17.776  1.00  0.00     0.277 C 
ENDBRANCH  40  41
ENDBRANCH  38  40
ENDBRANCH  30  37
ENDBRANCH   1  25
TORSDOF 13
ENDMDL
MODEL 3
REMARK VINA RESULT: -8.814745935      3.403     10.339
REMARK  13 active torsions:
REMARK  status: ('A' for Active; 'I' for Inactive)
REMARK    1  A    between atoms: C2_2  and  C3_3 
REMARK    2  A    between atoms: C3_3  and  C4_4 
REMARK    3  A    between atoms: C7_7  and  C8_8 
REMARK    4  A    between atoms: C8_8  and  C9_9 
REMARK    5  A    between atoms: C9_9  and  N1_11 
REMARK    6  A    between atoms: N1_11  and  C11_13 
REMARK    7  A    between atoms: C12_16  and  N3_17 
REMARK    8  A    between atoms: C15_22  and  N5_23 
REMARK    9  A    between atoms: C16_25  and  C17_26 
REMARK   10  A    between atoms: C17_26  and  N6_27 
REMARK   11  A    between atoms: C24_36  and  C25_37 
REMARK   12  A    between atoms: C25_37  and  N8_38 
REMARK   13  A    between atoms: C30_44  and  O2_45 
ROOT
HETATM    1  N1  UNL     1      -6.776  -1.665 -15.584  1.00  0.00    -0.198 N 
ATOM      2  H1  UNL     1      -7.028  -1.411 -16.539  1.00  0.00     0.183 HD
ENDROOT
BRANCH   1   3
HETATM    3  C9  UNL     1      -6.988  -0.603 -14.695  1.00  0.00     0.004 C 
HETATM    4  C10 UNL     1      -7.539   0.601 -15.346  1.00  0.00     0.064 C 
BRANCH   3   5
HETATM    5  C8  UNL     1      -7.517  -0.978 -13.328  1.00  0.00     0.091 C 
BRANCH   5   6
HETATM    6  C7  UNL     1      -6.932  -0.043 -12.339  1.00  0.00    -0.046 A 
HETATM    7  C5  UNL     1      -7.609   0.445 -11.253  1.00  0.00    -0.046 A 
HETATM    8  C4  UNL     1      -7.050   1.444 -10.450  1.00  0.00    -0.018 A 
HETATM    9  C6  UNL     1      -8.881  -0.142 -10.851  1.00  0.00     0.049 C 
HETATM   10  C30 UNL     1      -5.800   1.926 -10.771  1.00  0.00     0.080 A 
HETATM   11  C24 UNL     1      -5.070   1.446 -11.878  1.00  0.00     0.004 A 
HETATM   12  C23 UNL     1      -5.654   0.472 -12.633  1.00  0.00     0.019 A 
BRANCH   8  13
HETATM   13  C3  UNL     1      -7.802   1.953  -9.308  1.00  0.00     0.042 C 
BRANCH  13  14
HETATM   14  C2  UNL     1      -7.317   1.587  -7.955  1.00  0.00     0.000 C 
HETATM   15  C1  UNL     1      -7.444   2.846  -7.079  1.00  0.00     0.005 C 
ENDBRANCH  13  14
ENDBRANCH   8  13
BRANCH  10  16
HETATM   16  O2  UNL     1      -5.186   2.909 -10.025  1.00  0.00    -0.360 OA
ATOM     17  H2  UNL     1      -4.837   3.697 -10.425  1.00  0.00     0.217 HD
ENDBRANCH  10  16
BRANCH  11  18
HETATM   18  C25 UNL     1      -3.731   2.038 -12.108  1.00  0.00     0.314 C 
BRANCH  18  19
HETATM   19  N8  UNL     1      -2.631   1.338 -11.543  1.00  0.00     0.096 N 
HETATM   20  C26 UNL     1      -1.983   2.081 -10.480  1.00  0.00     0.299 C 
HETATM   21  C27 UNL     1      -1.452   3.376 -11.035  1.00  0.00     0.198 C 
HETATM   22  O1  UNL     1      -0.788   3.205 -12.259  1.00  0.00    -0.388 OA
HETATM   23  C28 UNL     1      -0.408   1.845 -12.331  1.00  0.00     0.198 C 
HETATM   24  C29 UNL     1      -1.619   0.966 -12.499  1.00  0.00     0.299 C 
ENDBRANCH  18  19
ENDBRANCH  11  18
ENDBRANCH   5   6
ENDBRANCH   3   5
ENDBRANCH   1   3
BRANCH   1  25
HETATM   25  C11 UNL     1      -6.356  -2.845 -15.515  1.00  0.00     0.711 A 
HETATM   26  N2  UNL     1      -5.094  -3.244 -15.714  1.00  0.00    -0.021 N 
HETATM   27  C12 UNL     1      -4.709  -4.551 -15.585  1.00  0.00     0.708 A 
ATOM     28  H2  UNL     1      -4.393  -2.549 -15.972  1.00  0.00     0.203 HD
HETATM   29  N4  UNL     1      -5.674  -5.406 -15.250  1.00  0.00    -0.021 N 
HETATM   30  C15 UNL     1      -6.946  -5.103 -15.035  1.00  0.00     0.711 A 
ATOM     31  H4  UNL     1      -5.410  -6.386 -15.149  1.00  0.00     0.203 HD
HETATM   32  N7  UNL     1      -7.272  -3.789 -15.176  1.00  0.00    -0.021 N 
ATOM     33  H7  UNL     1      -8.238  -3.502 -15.022  1.00  0.00     0.203 HD
BRANCH  27  34
HETATM   34  N3  UNL     1      -3.351  -4.917 -15.803  1.00  0.00    -0.225 N 
HETATM   35  C13 UNL     1      -2.319  -4.636 -14.827  1.00  0.00     0.168 C 
HETATM   36  C14 UNL     1      -2.985  -5.596 -17.026  1.00  0.00     0.168 C 
ENDBRANCH  27  34
BRANCH  30  37
HETATM   37  N5  UNL     1      -7.837  -5.875 -14.717  1.00  0.00    -0.203 N 
HETATM   38  C16 UNL     1      -8.664  -6.859 -15.162  1.00  0.00     0.109 C 
ATOM     39  H5  UNL     1      -8.040  -5.722 -13.729  1.00  0.00     0.183 HD
BRANCH  38  40
HETATM   40  C17 UNL     1      -9.182  -6.857 -16.557  1.00  0.00     0.317 C 
BRANCH  40  41
HETATM   41  N6  UNL     1      -8.896  -7.999 -17.365  1.00  0.00     0.096 N 
HETATM   42  C18 UNL     1      -9.872  -8.243 -18.378  1.00  0.00     0.300 C 
HETATM   43  C19 UNL     1      -9.583  -7.602 -19.690  1.00  0.00    -0.001 C 
HETATM   44  C20 UNL     1      -8.342  -7.740 -20.126  1.00  0.00    -0.027 C 
HETATM   45  C21 UNL     1      -7.445  -8.517 -19.227  1.00  0.00     0.057 C 
HETATM   46  C22 UNL     1      -7.552  -7.858 -17.871  1.00  0.00     0.277 C 
ENDBRANCH  40  41
ENDBRANCH  38  40
ENDBRANCH  30  37
ENDBRANCH   1  25
TORSDOF 13
ENDMDL
MODEL 4
REMARK VINA RESULT: -8.793784793      3.372      9.458
REMARK  13 active torsions:
REMARK  status: ('A' for Active; 'I' for Inactive)
REMARK    1  A    between atoms: C2_2  and  C3_3 
REMARK    2  A    between atoms: C3_3  and  C4_4 
REMARK    3  A    between atoms: C7_7  and  C8_8 
REMARK    4  A    between atoms: C8_8  and  C9_9 
REMARK    5  A    between atoms: C9_9  and  N1_11 
REMARK    6  A    between atoms: N1_11  and  C11_13 
REMARK    7  A    between atoms: C12_16  and  N3_17 
REMARK    8  A    between atoms: C15_22  and  N5_23 
REMARK    9  A    between atoms: C16_25  and  C17_26 
REMARK   10  A    between atoms: C17_26  and  N6_27 
REMARK   11  A    between atoms: C24_36  and  C25_37 
REMARK   12  A    between atoms: C25_37  and  N8_38 
REMARK   13  A    between atoms: C30_44  and  O2_45 
ROOT
HETATM    1  N1  UNL     1      -7.877  -3.395 -15.073  1.00  0.00    -0.198 N 
ATOM      2  H1  UNL     1      -8.833  -3.132 -14.836  1.00  0.00     0.183 HD
ENDROOT
BRANCH   1   3
HETATM    3  C9  UNL     1      -6.956  -2.425 -14.653  1.00  0.00     0.004 C 
HETATM    4  C10 UNL     1      -7.104  -1.138 -15.358  1.00  0.00     0.064 C 
BRANCH   3   5
HETATM    5  C8  UNL     1      -6.654  -2.394 -13.171  1.00  0.00     0.091 C 
BRANCH   5   6
HETATM    6  C7  UNL     1      -6.388  -0.989 -12.787  1.00  0.00    -0.046 A 
HETATM    7  C5  UNL     1      -7.359  -0.103 -12.405  1.00  0.00    -0.046 A 
HETATM    8  C4  UNL     1      -7.060   1.249 -12.209  1.00  0.00    -0.018 A 
HETATM    9  C6  UNL     1      -8.703  -0.571 -12.092  1.00  0.00     0.049 C 
HETATM   10  C30 UNL     1      -5.763   1.672 -12.404  1.00  0.00     0.080 A 
HETATM   11  C24 UNL     1      -4.734   0.789 -12.794  1.00  0.00     0.004 A 
HETATM   12  C23 UNL     1      -5.072  -0.520 -12.974  1.00  0.00     0.019 A 
BRANCH   8  13
HETATM   13  C3  UNL     1      -8.120   2.171 -11.814  1.00  0.00     0.042 C 
BRANCH  13  14
HETATM   14  C2  UNL     1      -7.935   2.919 -10.547  1.00  0.00     0.000 C 
HETATM   15  C1  UNL     1      -7.928   1.881  -9.411  1.00  0.00     0.005 C 
ENDBRANCH  13  14
ENDBRANCH   8  13
BRANCH  10  16
HETATM   16  O2  UNL     1      -5.393   2.987 -12.229  1.00  0.00    -0.360 OA
ATOM     17  H2  UNL     1      -5.375   3.394 -11.370  1.00  0.00     0.217 HD
ENDBRANCH  10  16
BRANCH  11  18
HETATM   18  C25 UNL     1      -3.380   1.367 -12.959  1.00  0.00     0.314 C 
BRANCH  18  19
HETATM   19  N8  UNL     1      -2.426   1.023 -11.964  1.00  0.00     0.096 N 
HETATM   20  C26 UNL     1      -2.468   1.912 -10.820  1.00  0.00     0.299 C 
HETATM   21  C27 UNL     1      -2.156   3.314 -11.272  1.00  0.00     0.198 C 
HETATM   22  O1  UNL     1      -1.059   3.366 -12.145  1.00  0.00    -0.388 OA
HETATM   23  C28 UNL     1      -0.312   2.185 -11.935  1.00  0.00     0.198 C 
HETATM   24  C29 UNL     1      -1.067   0.985 -12.442  1.00  0.00     0.299 C 
ENDBRANCH  18  19
ENDBRANCH  11  18
ENDBRANCH   5   6
ENDBRANCH   3   5
ENDBRANCH   1   3
BRANCH   1  25
HETATM   25  C11 UNL     1      -7.833  -4.501 -15.663  1.00  0.00     0.711 A 
HETATM   26  N2  UNL     1      -8.863  -5.116 -16.260  1.00  0.00    -0.021 N 
HETATM   27  C12 UNL     1      -8.724  -6.310 -16.914  1.00  0.00     0.708 A 
ATOM     28  H2  UNL     1      -9.783  -4.677 -16.226  1.00  0.00     0.203 HD
HETATM   29  N4  UNL     1      -7.496  -6.827 -16.917  1.00  0.00    -0.021 N 
HETATM   30  C15 UNL     1      -6.422  -6.293 -16.353  1.00  0.00     0.711 A 
ATOM     31  H4  UNL     1      -7.370  -7.717 -17.398  1.00  0.00     0.203 HD
HETATM   32  N7  UNL     1      -6.618  -5.105 -15.718  1.00  0.00    -0.021 N 
ATOM     33  H7  UNL     1      -5.824  -4.652 -15.267  1.00  0.00     0.203 HD
BRANCH  27  34
HETATM   34  N3  UNL     1      -9.852  -6.913 -17.537  1.00  0.00    -0.225 N 
HETATM   35  C13 UNL     1     -11.120  -6.223 -17.655  1.00  0.00     0.168 C 
HETATM   36  C14 UNL     1      -9.735  -8.250 -18.076  1.00  0.00     0.168 C 
ENDBRANCH  27  34
BRANCH  30  37
HETATM   37  N5  UNL     1      -5.292  -6.752 -16.359  1.00  0.00    -0.203 N 
HETATM   38  C16 UNL     1      -3.974  -6.456 -16.521  1.00  0.00     0.109 C 
ATOM     39  H5  UNL     1      -5.363  -7.751 -16.164  1.00  0.00     0.183 HD
BRANCH  38  40
HETATM   40  C17 UNL     1      -3.534  -5.398 -17.471  1.00  0.00     0.317 C 
BRANCH  40  41
HETATM   41  N6  UNL     1      -2.577  -4.449 -17.000  1.00  0.00     0.096 N 
HETATM   42  C18 UNL     1      -3.146  -3.190 -16.642  1.00  0.00     0.300 C 
HETATM   43  C19 UNL     1      -3.542  -3.069 -15.212  1.00  0.00    -0.001 C 
HETATM   44  C20 UNL     1      -2.645  -3.496 -14.339  1.00  0.00    -0.027 C 
HETATM   45  C21 UNL     1      -1.389  -4.025 -14.939  1.00  0.00     0.057 C 
HETATM   46  C22 UNL     1      -1.822  -5.071 -15.940  1.00  0.00     0.277 C 
ENDBRANCH  40  41
ENDBRANCH  38  40
ENDBRANCH  30  37
ENDBRANCH   1  25
TORSDOF 13
ENDMDL
MODEL 5
REMARK VINA RESULT: -8.758222707      3.406     10.420
REMARK  13 active torsions:
REMARK  status: ('A' for Active; 'I' for Inactive)
REMARK    1  A    between atoms: C2_2  and  C3_3 
REMARK    2  A    between atoms: C3_3  and  C4_4 
REMARK    3  A    between atoms: C7_7  and  C8_8 
REMARK    4  A    between atoms: C8_8  and  C9_9 
REMARK    5  A    between atoms: C9_9  and  N1_11 
REMARK    6  A    between atoms: N1_11  and  C11_13 
REMARK    7  A    between atoms: C12_16  and  N3_17 
REMARK    8  A    between atoms: C15_22  and  N5_23 
REMARK    9  A    between atoms: C16_25  and  C17_26 
REMARK   10  A    between atoms: C17_26  and  N6_27 
REMARK   11  A    between atoms: C24_36  and  C25_37 
REMARK   12  A    between atoms: C25_37  and  N8_38 
REMARK   13  A    between atoms: C30_44  and  O2_45 
ROOT
HETATM    1  N1  UNL     1      -6.807  -1.702 -15.608  1.00  0.00    -0.198 N 
ATOM      2  H1  UNL     1      -7.111  -1.446 -16.547  1.00  0.00     0.183 HD
ENDROOT
BRANCH   1   3
HETATM    3  C9  UNL     1      -6.979  -0.645 -14.703  1.00  0.00     0.004 C 
HETATM    4  C10 UNL     1      -7.555   0.563 -15.323  1.00  0.00     0.064 C 
BRANCH   3   5
HETATM    5  C8  UNL     1      -7.448  -1.028 -13.317  1.00  0.00     0.091 C 
BRANCH   5   6
HETATM    6  C7  UNL     1      -6.907  -0.035 -12.361  1.00  0.00    -0.046 A 
HETATM    7  C5  UNL     1      -7.625   0.499 -11.324  1.00  0.00    -0.046 A 
HETATM    8  C4  UNL     1      -7.106   1.547 -10.557  1.00  0.00    -0.018 A 
HETATM    9  C6  UNL     1      -8.902  -0.085 -10.932  1.00  0.00     0.049 C 
HETATM   10  C30 UNL     1      -5.852   2.029 -10.863  1.00  0.00     0.080 A 
HETATM   11  C24 UNL     1      -5.080   1.502 -11.920  1.00  0.00     0.004 A 
HETATM   12  C23 UNL     1      -5.627   0.483 -12.641  1.00  0.00     0.019 A 
BRANCH   8  13
HETATM   13  C3  UNL     1      -7.900   2.103  -9.467  1.00  0.00     0.042 C 
BRANCH  13  14
HETATM   14  C2  UNL     1      -7.465   1.800  -8.082  1.00  0.00     0.000 C 
HETATM   15  C1  UNL     1      -7.752   3.054  -7.238  1.00  0.00     0.005 C 
ENDBRANCH  13  14
ENDBRANCH   8  13
BRANCH  10  16
HETATM   16  O2  UNL     1      -5.275   3.058 -10.151  1.00  0.00    -0.360 OA
ATOM     17  H2  UNL     1      -4.502   3.513 -10.464  1.00  0.00     0.217 HD
ENDBRANCH  10  16
BRANCH  11  18
HETATM   18  C25 UNL     1      -3.742   2.101 -12.138  1.00  0.00     0.314 C 
BRANCH  18  19
HETATM   19  N8  UNL     1      -2.646   1.412 -11.555  1.00  0.00     0.096 N 
HETATM   20  C26 UNL     1      -2.007   2.172 -10.498  1.00  0.00     0.299 C 
HETATM   21  C27 UNL     1      -1.475   3.460 -11.068  1.00  0.00     0.198 C 
HETATM   22  O1  UNL     1      -0.801   3.273 -12.284  1.00  0.00    -0.388 OA
HETATM   23  C28 UNL     1      -0.417   1.914 -12.334  1.00  0.00     0.198 C 
HETATM   24  C29 UNL     1      -1.625   1.029 -12.498  1.00  0.00     0.299 C 
ENDBRANCH  18  19
ENDBRANCH  11  18
ENDBRANCH   5   6
ENDBRANCH   3   5
ENDBRANCH   1   3
BRANCH   1  25
HETATM   25  C11 UNL     1      -6.377  -2.880 -15.566  1.00  0.00     0.711 A 
HETATM   26  N2  UNL     1      -5.123  -3.270 -15.829  1.00  0.00    -0.021 N 
HETATM   27  C12 UNL     1      -4.725  -4.575 -15.726  1.00  0.00     0.708 A 
ATOM     28  H2  UNL     1      -4.440  -2.569 -16.115  1.00  0.00     0.203 HD
HETATM   29  N4  UNL     1      -5.668  -5.438 -15.350  1.00  0.00    -0.021 N 
HETATM   30  C15 UNL     1      -6.929  -5.145 -15.072  1.00  0.00     0.711 A 
ATOM     31  H4  UNL     1      -5.393  -6.417 -15.268  1.00  0.00     0.203 HD
HETATM   32  N7  UNL     1      -7.269  -3.832 -15.189  1.00  0.00    -0.021 N 
ATOM     33  H7  UNL     1      -8.229  -3.552 -14.987  1.00  0.00     0.203 HD
BRANCH  27  34
HETATM   34  N3  UNL     1      -3.377  -4.931 -16.011  1.00  0.00    -0.225 N 
HETATM   35  C13 UNL     1      -3.002  -5.568 -17.256  1.00  0.00     0.168 C 
HETATM   36  C14 UNL     1      -2.346  -4.645 -15.038  1.00  0.00     0.168 C 
ENDBRANCH  27  34
BRANCH  30  37
HETATM   37  N5  UNL     1      -7.799  -5.924 -14.717  1.00  0.00    -0.203 N 
HETATM   38  C16 UNL     1      -8.715  -6.834 -15.143  1.00  0.00     0.109 C 
ATOM     39  H5  UNL     1      -7.862  -5.873 -13.700  1.00  0.00     0.183 HD
BRANCH  38  40
HETATM   40  C17 UNL     1      -9.415  -6.670 -16.446  1.00  0.00     0.317 C 
BRANCH  40  41
HETATM   41  N6  UNL     1      -8.773  -7.197 -17.607  1.00  0.00     0.096 N 
HETATM   42  C18 UNL     1      -7.999  -8.369 -17.352  1.00  0.00     0.300 C 
HETATM   43  C19 UNL     1      -8.734  -9.651 -17.529  1.00  0.00    -0.001 C 
HETATM   44  C20 UNL     1      -9.457  -9.742 -18.633  1.00  0.00    -0.027 C 
HETATM   45  C21 UNL     1      -9.410  -8.541 -19.512  1.00  0.00     0.057 C 
HETATM   46  C22 UNL     1      -9.778  -7.371 -18.628  1.00  0.00     0.277 C 
ENDBRANCH  40  41
ENDBRANCH  38  40
ENDBRANCH  30  37
ENDBRANCH   1  25
TORSDOF 13
ENDMDL
