MODEL 1
REMARK VINA RESULT: -8.467643177      0.000      0.000
REMARK  1 active torsions:
REMARK  status: ('A' for Active; 'I' for Inactive)
REMARK    1  A    between atoms: N2_12  and  C9_14 
ROOT
HETATM    1  C1  UNL     1      32.096  47.033  10.777  1.00  0.00     0.141 A 
HETATM    2  N1  UNL     1      31.056  46.447  11.244  1.00  0.00    -0.364 N 
ATOM      3  H1  UNL     1      31.060  45.806  12.039  1.00  0.00     0.162 HD
HETATM    4  C2  UNL     1      29.885  46.814  10.498  1.00  0.00     0.141 A 
HETATM    5  C3  UNL     1      29.281  45.553   9.934  1.00  0.00     0.061 C 
HETATM    6  C4  UNL     1      28.782  44.729  11.111  1.00  0.00     0.005 C 
HETATM    7  C5  UNL     1      27.702  45.468  11.874  1.00  0.00     0.000 C 
HETATM    8  C6  UNL     1      28.339  46.704  12.473  1.00  0.00     0.005 C 
HETATM    9  C7  UNL     1      28.871  47.549  11.353  1.00  0.00     0.061 C 
HETATM   10  O1  UNL     1      30.321  47.704   9.505  1.00  0.00    -0.303 OA
HETATM   11  C8  UNL     1      31.688  47.859   9.652  1.00  0.00     0.157 A 
HETATM   12  N2  UNL     1      32.486  48.605   8.928  1.00  0.00    -0.347 N 
ATOM     13  H2  UNL     1      32.118  49.157   8.153  1.00  0.00     0.163 HD
ENDROOT
BRANCH  12  14
HETATM   14  C9  UNL     1      33.882  48.632   9.241  1.00  0.00     0.200 C 
HETATM   15  C10 UNL     1      34.577  49.858   8.672  1.00  0.00     0.069 C 
HETATM   16  C11 UNL     1      35.954  49.288   8.419  1.00  0.00     0.143 C 
HETATM   17  N3  UNL     1      35.720  47.912   8.214  1.00  0.00    -0.339 N 
HETATM   18  N4  UNL     1      34.624  47.582   8.653  1.00  0.00    -0.317 N 
ATOM     19  H3  UNL     1      36.376  47.276   7.760  1.00  0.00     0.179 HD
ATOM     20  H4  UNL     1      34.275  46.626   8.599  1.00  0.00     0.182 HD
ENDBRANCH  12  14
TORSDOF 1
ENDMDL
MODEL 2
REMARK VINA RESULT: -8.359417473      3.625      6.659
REMARK  1 active torsions:
REMARK  status: ('A' for Active; 'I' for Inactive)
REMARK    1  A    between atoms: N2_12  and  C9_14 
ROOT
HETATM    1  C1  UNL     1      30.039  46.543  13.740  1.00  0.00     0.141 A 
HETATM    2  N1  UNL     1      30.251  46.270  12.506  1.00  0.00    -0.364 N 
ATOM      3  H1  UNL     1      31.041  45.723  12.160  1.00  0.00     0.162 HD
HETATM    4  C2  UNL     1      29.226  46.838  11.674  1.00  0.00     0.141 A 
HETATM    5  C3  UNL     1      29.890  47.766  10.689  1.00  0.00     0.061 C 
HETATM    6  C4  UNL     1      30.744  46.907   9.769  1.00  0.00     0.005 C 
HETATM    7  C5  UNL     1      29.889  45.928   8.991  1.00  0.00     0.000 C 
HETATM    8  C6  UNL     1      29.271  44.976   9.992  1.00  0.00     0.005 C 
HETATM    9  C7  UNL     1      28.430  45.774  10.944  1.00  0.00     0.061 C 
HETATM   10  O1  UNL     1      28.346  47.500  12.542  1.00  0.00    -0.303 OA
HETATM   11  C8  UNL     1      28.823  47.336  13.831  1.00  0.00     0.157 A 
HETATM   12  N2  UNL     1      28.297  47.796  14.939  1.00  0.00    -0.347 N 
ATOM     13  H2  UNL     1      27.438  48.346  14.915  1.00  0.00     0.163 HD
ENDROOT
BRANCH  12  14
HETATM   14  C9  UNL     1      28.946  47.516  16.183  1.00  0.00     0.200 C 
HETATM   15  C10 UNL     1      28.005  47.648  17.368  1.00  0.00     0.069 C 
HETATM   16  C11 UNL     1      28.978  48.103  18.431  1.00  0.00     0.143 C 
HETATM   17  N3  UNL     1      29.994  48.758  17.704  1.00  0.00    -0.339 N 
HETATM   18  N4  UNL     1      29.964  48.438  16.521  1.00  0.00    -0.317 N 
ATOM     19  H3  UNL     1      30.664  49.412  18.109  1.00  0.00     0.179 HD
ATOM     20  H4  UNL     1      30.621  48.807  15.834  1.00  0.00     0.182 HD
ENDBRANCH  12  14
TORSDOF 1
ENDMDL
MODEL 3
REMARK VINA RESULT: -8.237053670      1.507      6.378
REMARK  1 active torsions:
REMARK  status: ('A' for Active; 'I' for Inactive)
REMARK    1  A    between atoms: N2_12  and  C9_14 
ROOT
HETATM    1  C1  UNL     1      32.088  47.652  10.762  1.00  0.00     0.141 A 
HETATM    2  N1  UNL     1      33.121  48.271  10.325  1.00  0.00    -0.364 N 
ATOM      3  H1  UNL     1      33.808  48.742  10.915  1.00  0.00     0.162 HD
HETATM    4  C2  UNL     1      33.183  48.211   8.890  1.00  0.00     0.141 A 
HETATM    5  C3  UNL     1      33.183  49.625   8.368  1.00  0.00     0.061 C 
HETATM    6  C4  UNL     1      34.487  50.268   8.814  1.00  0.00     0.005 C 
HETATM    7  C5  UNL     1      35.680  49.547   8.221  1.00  0.00     0.000 C 
HETATM    8  C6  UNL     1      35.691  48.147   8.796  1.00  0.00     0.005 C 
HETATM    9  C7  UNL     1      34.412  47.468   8.403  1.00  0.00     0.061 C 
HETATM   10  O1  UNL     1      32.059  47.477   8.484  1.00  0.00    -0.303 OA
HETATM   11  C8  UNL     1      31.359  47.116   9.623  1.00  0.00     0.157 A 
HETATM   12  N2  UNL     1      30.249  46.423   9.688  1.00  0.00    -0.347 N 
ATOM     13  H2  UNL     1      29.801  46.083   8.837  1.00  0.00     0.163 HD
ENDROOT
BRANCH  12  14
HETATM   14  C9  UNL     1      29.676  46.152  10.970  1.00  0.00     0.200 C 
HETATM   15  C10 UNL     1      28.774  44.930  10.953  1.00  0.00     0.069 C 
HETATM   16  C11 UNL     1      27.771  45.325  12.012  1.00  0.00     0.143 C 
HETATM   17  N3  UNL     1      27.780  46.735  11.981  1.00  0.00    -0.339 N 
HETATM   18  N4  UNL     1      28.791  47.155  11.428  1.00  0.00    -0.317 N 
ATOM     19  H3  UNL     1      27.043  47.326  12.366  1.00  0.00     0.179 HD
ATOM     20  H4  UNL     1      28.978  48.151  11.309  1.00  0.00     0.182 HD
ENDBRANCH  12  14
TORSDOF 1
ENDMDL
MODEL 4
REMARK VINA RESULT: -8.112846297      4.205      7.082
REMARK  1 active torsions:
REMARK  status: ('A' for Active; 'I' for Inactive)
REMARK    1  A    between atoms: N2_12  and  C9_14 
ROOT
HETATM    1  C1  UNL     1      27.872  47.048  13.212  1.00  0.00     0.141 A 
HETATM    2  N1  UNL     1      28.262  46.734  12.032  1.00  0.00    -0.364 N 
ATOM      3  H1  UNL     1      27.641  46.600  11.233  1.00  0.00     0.162 HD
HETATM    4  C2  UNL     1      29.692  46.598  11.987  1.00  0.00     0.141 A 
HETATM    5  C3  UNL     1      30.009  45.197  11.529  1.00  0.00     0.061 C 
HETATM    6  C4  UNL     1      29.534  45.078  10.089  1.00  0.00     0.005 C 
HETATM    7  C5  UNL     1      30.274  46.046   9.189  1.00  0.00     0.000 C 
HETATM    8  C6  UNL     1      29.904  47.445   9.633  1.00  0.00     0.005 C 
HETATM    9  C7  UNL     1      30.332  47.614  11.061  1.00  0.00     0.061 C 
HETATM   10  O1  UNL     1      30.148  46.866  13.285  1.00  0.00    -0.303 OA
HETATM   11  C8  UNL     1      29.043  47.148  14.069  1.00  0.00     0.157 A 
HETATM   12  N2  UNL     1      29.028  47.452  15.344  1.00  0.00    -0.347 N 
ATOM     13  H2  UNL     1      29.898  47.502  15.874  1.00  0.00     0.163 HD
ENDROOT
BRANCH  12  14
HETATM   14  C9  UNL     1      27.773  47.713  15.979  1.00  0.00     0.200 C 
HETATM   15  C10 UNL     1      27.242  49.100  15.660  1.00  0.00     0.069 C 
HETATM   16  C11 UNL     1      26.497  49.399  16.940  1.00  0.00     0.143 C 
HETATM   17  N3  UNL     1      27.171  48.633  17.914  1.00  0.00    -0.339 N 
HETATM   18  N4  UNL     1      27.840  47.748  17.391  1.00  0.00    -0.317 N 
ATOM     19  H3  UNL     1      27.112  48.795  18.919  1.00  0.00     0.179 HD
ATOM     20  H4  UNL     1      28.399  47.090  17.932  1.00  0.00     0.182 HD
ENDBRANCH  12  14
TORSDOF 1
ENDMDL
MODEL 5
REMARK VINA RESULT: -8.000443023      4.047      7.052
REMARK  1 active torsions:
REMARK  status: ('A' for Active; 'I' for Inactive)
REMARK    1  A    between atoms: N2_12  and  C9_14 
ROOT
HETATM    1  C1  UNL     1      28.554  47.555  13.535  1.00  0.00     0.141 A 
HETATM    2  N1  UNL     1      28.747  47.256  12.304  1.00  0.00    -0.364 N 
ATOM      3  H1  UNL     1      28.452  47.831  11.514  1.00  0.00     0.162 HD
HETATM    4  C2  UNL     1      29.435  46.000  12.187  1.00  0.00     0.141 A 
HETATM    5  C3  UNL     1      28.565  45.069  11.381  1.00  0.00     0.061 C 
HETATM    6  C4  UNL     1      28.488  45.634   9.971  1.00  0.00     0.005 C 
HETATM    7  C5  UNL     1      29.858  45.675   9.326  1.00  0.00     0.000 C 
HETATM    8  C6  UNL     1      30.700  46.651  10.119  1.00  0.00     0.005 C 
HETATM    9  C7  UNL     1      30.794  46.153  11.531  1.00  0.00     0.061 C 
HETATM   10  O1  UNL     1      29.650  45.551  13.498  1.00  0.00    -0.303 OA
HETATM   11  C8  UNL     1      29.114  46.494  14.357  1.00  0.00     0.157 A 
HETATM   12  N2  UNL     1      29.102  46.461  15.667  1.00  0.00    -0.347 N 
ATOM     13  H2  UNL     1      29.519  45.677  16.169  1.00  0.00     0.163 HD
ENDROOT
BRANCH  12  14
HETATM   14  C9  UNL     1      28.495  47.541  16.382  1.00  0.00     0.200 C 
HETATM   15  C10 UNL     1      29.523  48.484  16.985  1.00  0.00     0.069 C 
HETATM   16  C11 UNL     1      28.774  48.939  18.217  1.00  0.00     0.143 C 
HETATM   17  N3  UNL     1      27.905  47.866  18.504  1.00  0.00    -0.339 N 
HETATM   18  N4  UNL     1      27.768  47.138  17.526  1.00  0.00    -0.317 N 
ATOM     19  H3  UNL     1      27.452  47.714  19.405  1.00  0.00     0.179 HD
ATOM     20  H4  UNL     1      27.177  46.308  17.537  1.00  0.00     0.182 HD
ENDBRANCH  12  14
TORSDOF 1
ENDMDL
