MODEL 1
REMARK VINA RESULT: -7.292581251      0.000      0.000
REMARK  6 active torsions:
REMARK  status: ('A' for Active; 'I' for Inactive)
REMARK    1  A    between atoms: C2_2  and  O1_3 
REMARK    2  A    between atoms: O1_3  and  C3_4 
REMARK    3  A    between atoms: C4_7  and  N2_8 
REMARK    4  A    between atoms: C7_11  and  N3_12 
REMARK    5  A    between atoms: C15_22  and  N5_23 
REMARK    6  A    between atoms: N5_23  and  C16_24 
ROOT
HETATM    1  C3  UNL     1      26.793  50.520   6.352  1.00  0.00     0.201 A 
HETATM    2  N1  UNL     1      27.615  49.592   6.836  1.00  0.00    -0.167 N 
ATOM      3  H1  UNL     1      28.620  49.734   6.734  1.00  0.00     0.186 HD
HETATM    4  C4  UNL     1      27.188  48.478   7.452  1.00  0.00     0.684 A 
HETATM    5  N4  UNL     1      25.880  48.283   7.593  1.00  0.00    -0.161 N 
ATOM      6  H4  UNL     1      25.570  47.434   8.064  1.00  0.00     0.187 HD
HETATM    7  C15 UNL     1      24.920  49.162   7.139  1.00  0.00     0.231 A 
HETATM    8  C21 UNL     1      25.420  50.285   6.516  1.00  0.00     0.225 A 
HETATM    9  F1  UNL     1      24.570  51.204   6.037  1.00  0.00    -0.196 F 
ENDROOT
BRANCH   4  10
HETATM   10  N2  UNL     1      28.166  47.546   7.930  1.00  0.00    -0.217 N 
HETATM   11  C5  UNL     1      27.675  46.318   8.488  1.00  0.00     0.143 C 
HETATM   12  C6  UNL     1      28.790  45.351   8.830  1.00  0.00     0.045 C 
HETATM   13  C7  UNL     1      29.818  45.456   7.723  1.00  0.00     0.086 C 
HETATM   14  C13 UNL     1      30.507  46.787   7.884  1.00  0.00     0.045 C 
HETATM   15  C14 UNL     1      29.540  47.926   7.806  1.00  0.00     0.143 C 
BRANCH  13  16
HETATM   16  N3  UNL     1      30.729  44.372   7.646  1.00  0.00    -0.389 N 
HETATM   17  C8  UNL     1      32.092  44.661   7.431  1.00  0.00     0.058 C 
HETATM   18  C9  UNL     1      32.941  43.799   8.337  1.00  0.00     0.044 C 
HETATM   19  C10 UNL     1      32.615  42.361   7.982  1.00  0.00     0.007 C 
HETATM   20  C11 UNL     1      31.211  42.100   8.469  1.00  0.00     0.020 C 
HETATM   21  C12 UNL     1      30.388  43.352   8.560  1.00  0.00     0.122 C 
ENDBRANCH  13  16
ENDBRANCH   4  10
BRANCH   1  22
HETATM   22  O1  UNL     1      27.214  51.681   5.710  1.00  0.00    -0.333 OA
BRANCH  22  23
HETATM   23  C2  UNL     1      28.208  52.456   6.370  1.00  0.00     0.173 C 
HETATM   24  C1  UNL     1      27.567  53.184   7.508  1.00  0.00     0.034 C 
ENDBRANCH  22  23
ENDBRANCH   1  22
BRANCH   7  25
HETATM   25  N5  UNL     1      23.757  48.930   7.296  1.00  0.00    -0.422 NA
BRANCH  25  26
HETATM   26  C16 UNL     1      22.419  48.955   7.274  1.00  0.00     0.165 C 
HETATM   27  C17 UNL     1      21.687  50.236   7.690  1.00  0.00     0.039 C 
HETATM   28  C18 UNL     1      20.221  49.794   7.816  1.00  0.00     0.003 C 
HETATM   29  C19 UNL     1      20.250  48.289   7.888  1.00  0.00     0.003 C 
HETATM   30  C20 UNL     1      21.698  47.948   8.174  1.00  0.00     0.039 C 
ENDBRANCH  25  26
ENDBRANCH   7  25
TORSDOF 6
ENDMDL
MODEL 2
REMARK VINA RESULT: -7.226695122      6.182      9.560
REMARK  6 active torsions:
REMARK  status: ('A' for Active; 'I' for Inactive)
REMARK    1  A    between atoms: C2_2  and  O1_3 
REMARK    2  A    between atoms: O1_3  and  C3_4 
REMARK    3  A    between atoms: C4_7  and  N2_8 
REMARK    4  A    between atoms: C7_11  and  N3_12 
REMARK    5  A    between atoms: C15_22  and  N5_23 
REMARK    6  A    between atoms: N5_23  and  C16_24 
ROOT
HETATM    1  C3  UNL     1      34.254  44.011   9.325  1.00  0.00     0.201 A 
HETATM    2  N1  UNL     1      34.944  44.998   8.758  1.00  0.00    -0.167 N 
ATOM      3  H1  UNL     1      35.962  44.963   8.799  1.00  0.00     0.186 HD
HETATM    4  C4  UNL     1      34.367  46.038   8.135  1.00  0.00     0.684 A 
HETATM    5  N4  UNL     1      33.040  46.094   8.074  1.00  0.00    -0.161 N 
ATOM      6  H4  UNL     1      32.614  46.888   7.596  1.00  0.00     0.187 HD
HETATM    7  C15 UNL     1      32.205  45.141   8.618  1.00  0.00     0.231 A 
HETATM    8  C21 UNL     1      32.856  44.099   9.243  1.00  0.00     0.225 A 
HETATM    9  F1  UNL     1      32.137  43.120   9.807  1.00  0.00    -0.196 F 
ENDROOT
BRANCH   4  10
HETATM   10  N2  UNL     1      35.212  47.045   7.564  1.00  0.00    -0.217 N 
HETATM   11  C5  UNL     1      34.611  48.320   7.294  1.00  0.00     0.143 C 
HETATM   12  C6  UNL     1      35.622  49.348   6.826  1.00  0.00     0.045 C 
HETATM   13  C7  UNL     1      36.878  49.133   7.642  1.00  0.00     0.086 C 
HETATM   14  C13 UNL     1      37.503  47.847   7.160  1.00  0.00     0.045 C 
HETATM   15  C14 UNL     1      36.574  46.686   7.316  1.00  0.00     0.143 C 
BRANCH  13  16
HETATM   16  N3  UNL     1      37.789  50.220   7.640  1.00  0.00    -0.389 N 
HETATM   17  C8  UNL     1      39.103  49.988   7.187  1.00  0.00     0.058 C 
HETATM   18  C9  UNL     1      39.539  51.128   6.297  1.00  0.00     0.044 C 
HETATM   19  C10 UNL     1      39.457  52.384   7.142  1.00  0.00     0.007 C 
HETATM   20  C11 UNL     1      37.991  52.660   7.369  1.00  0.00     0.020 C 
HETATM   21  C12 UNL     1      37.148  51.422   7.275  1.00  0.00     0.122 C 
ENDBRANCH  13  16
ENDBRANCH   4  10
BRANCH   1  22
HETATM   22  O1  UNL     1      34.831  42.926   9.976  1.00  0.00    -0.333 OA
BRANCH  22  23
HETATM   23  C2  UNL     1      35.053  41.754   9.199  1.00  0.00     0.173 C 
HETATM   24  C1  UNL     1      35.194  40.588  10.125  1.00  0.00     0.034 C 
ENDBRANCH  22  23
ENDBRANCH   1  22
BRANCH   7  25
HETATM   25  N5  UNL     1      31.017  45.248   8.530  1.00  0.00    -0.422 NA
BRANCH  25  26
HETATM   26  C16 UNL     1      29.772  45.654   8.256  1.00  0.00     0.165 C 
HETATM   27  C17 UNL     1      29.510  47.143   8.000  1.00  0.00     0.039 C 
HETATM   28  C18 UNL     1      27.977  47.251   8.016  1.00  0.00     0.003 C 
HETATM   29  C19 UNL     1      27.482  45.986   8.669  1.00  0.00     0.003 C 
HETATM   30  C20 UNL     1      28.710  45.390   9.326  1.00  0.00     0.039 C 
ENDBRANCH  25  26
ENDBRANCH   7  25
TORSDOF 6
ENDMDL
MODEL 3
REMARK VINA RESULT: -7.207330918      5.007      8.353
REMARK  6 active torsions:
REMARK  status: ('A' for Active; 'I' for Inactive)
REMARK    1  A    between atoms: C2_2  and  O1_3 
REMARK    2  A    between atoms: O1_3  and  C3_4 
REMARK    3  A    between atoms: C4_7  and  N2_8 
REMARK    4  A    between atoms: C7_11  and  N3_12 
REMARK    5  A    between atoms: C15_22  and  N5_23 
REMARK    6  A    between atoms: N5_23  and  C16_24 
ROOT
HETATM    1  C3  UNL     1      31.923  43.809   8.441  1.00  0.00     0.201 A 
HETATM    2  N1  UNL     1      33.206  44.155   8.357  1.00  0.00    -0.167 N 
ATOM      3  H1  UNL     1      33.912  43.444   8.547  1.00  0.00     0.186 HD
HETATM    4  C4  UNL     1      33.616  45.392   8.035  1.00  0.00     0.684 A 
HETATM    5  N4  UNL     1      32.703  46.326   7.783  1.00  0.00    -0.161 N 
ATOM      6  H4  UNL     1      33.029  47.261   7.537  1.00  0.00     0.187 HD
HETATM    7  C15 UNL     1      31.344  46.104   7.833  1.00  0.00     0.231 A 
HETATM    8  C21 UNL     1      30.985  44.816   8.169  1.00  0.00     0.225 A 
HETATM    9  F1  UNL     1      29.687  44.495   8.247  1.00  0.00    -0.196 F 
ENDROOT
BRANCH   4  10
HETATM   10  N2  UNL     1      35.025  45.650   7.979  1.00  0.00    -0.217 N 
HETATM   11  C5  UNL     1      35.786  45.356   9.160  1.00  0.00     0.143 C 
HETATM   12  C6  UNL     1      37.276  45.531   8.946  1.00  0.00     0.045 C 
HETATM   13  C7  UNL     1      37.585  45.011   7.559  1.00  0.00     0.086 C 
HETATM   14  C13 UNL     1      37.016  46.005   6.577  1.00  0.00     0.045 C 
HETATM   15  C14 UNL     1      35.541  46.176   6.753  1.00  0.00     0.143 C 
BRANCH  13  16
HETATM   16  N3  UNL     1      38.953  44.723   7.317  1.00  0.00    -0.389 N 
HETATM   17  C8  UNL     1      39.898  45.118   8.285  1.00  0.00     0.058 C 
HETATM   18  C9  UNL     1      40.900  44.006   8.497  1.00  0.00     0.044 C 
HETATM   19  C10 UNL     1      41.552  43.759   7.151  1.00  0.00     0.007 C 
HETATM   20  C11 UNL     1      40.505  43.122   6.270  1.00  0.00     0.020 C 
HETATM   21  C12 UNL     1      39.107  43.468   6.692  1.00  0.00     0.122 C 
ENDBRANCH  13  16
ENDBRANCH   4  10
BRANCH   1  22
HETATM   22  O1  UNL     1      31.477  42.534   8.773  1.00  0.00    -0.333 OA
BRANCH  22  23
HETATM   23  C2  UNL     1      31.875  41.469   7.917  1.00  0.00     0.173 C 
HETATM   24  C1  UNL     1      30.668  40.655   7.576  1.00  0.00     0.034 C 
ENDBRANCH  22  23
ENDBRANCH   1  22
BRANCH   7  25
HETATM   25  N5  UNL     1      30.572  46.986   7.596  1.00  0.00    -0.422 NA
BRANCH  25  26
HETATM   26  C16 UNL     1      29.516  47.809   7.569  1.00  0.00     0.165 C 
HETATM   27  C17 UNL     1      28.131  47.261   7.932  1.00  0.00     0.039 C 
HETATM   28  C18 UNL     1      27.173  48.385   7.511  1.00  0.00     0.003 C 
HETATM   29  C19 UNL     1      27.964  49.277   6.590  1.00  0.00     0.003 C 
HETATM   30  C20 UNL     1      29.186  48.461   6.224  1.00  0.00     0.039 C 
ENDBRANCH  25  26
ENDBRANCH   7  25
TORSDOF 6
ENDMDL
MODEL 4
REMARK VINA RESULT: -7.191601118      5.329      8.140
REMARK  6 active torsions:
REMARK  status: ('A' for Active; 'I' for Inactive)
REMARK    1  A    between atoms: C2_2  and  O1_3 
REMARK    2  A    between atoms: O1_3  and  C3_4 
REMARK    3  A    between atoms: C4_7  and  N2_8 
REMARK    4  A    between atoms: C7_11  and  N3_12 
REMARK    5  A    between atoms: C15_22  and  N5_23 
REMARK    6  A    between atoms: N5_23  and  C16_24 
ROOT
HETATM    1  C3  UNL     1      31.911  44.335   8.668  1.00  0.00     0.201 A 
HETATM    2  N1  UNL     1      32.934  45.078   8.251  1.00  0.00    -0.167 N 
ATOM      3  H1  UNL     1      33.871  44.677   8.291  1.00  0.00     0.186 HD
HETATM    4  C4  UNL     1      32.794  46.328   7.781  1.00  0.00     0.684 A 
HETATM    5  N4  UNL     1      31.576  46.860   7.723  1.00  0.00    -0.161 N 
ATOM      6  H4  UNL     1      31.484  47.810   7.363  1.00  0.00     0.187 HD
HETATM    7  C15 UNL     1      30.432  46.203   8.122  1.00  0.00     0.231 A 
HETATM    8  C21 UNL     1      30.640  44.925   8.594  1.00  0.00     0.225 A 
HETATM    9  F1  UNL     1      29.593  44.199   9.008  1.00  0.00    -0.196 F 
ENDROOT
BRANCH   4  10
HETATM   10  N2  UNL     1      33.969  47.035   7.364  1.00  0.00    -0.217 N 
HETATM   11  C5  UNL     1      33.770  48.219   6.578  1.00  0.00     0.143 C 
HETATM   12  C6  UNL     1      35.063  48.961   6.312  1.00  0.00     0.045 C 
HETATM   13  C7  UNL     1      35.881  48.888   7.583  1.00  0.00     0.086 C 
HETATM   14  C13 UNL     1      36.366  47.466   7.716  1.00  0.00     0.045 C 
HETATM   15  C14 UNL     1      35.230  46.495   7.770  1.00  0.00     0.143 C 
BRANCH  13  16
HETATM   16  N3  UNL     1      36.932  49.836   7.677  1.00  0.00    -0.389 N 
HETATM   17  C8  UNL     1      38.258  49.361   7.709  1.00  0.00     0.058 C 
HETATM   18  C9  UNL     1      39.124  50.218   6.814  1.00  0.00     0.044 C 
HETATM   19  C10 UNL     1      39.027  51.630   7.356  1.00  0.00     0.007 C 
HETATM   20  C11 UNL     1      37.630  52.116   7.057  1.00  0.00     0.020 C 
HETATM   21  C12 UNL     1      36.644  50.993   6.922  1.00  0.00     0.122 C 
ENDBRANCH  13  16
ENDBRANCH   4  10
BRANCH   1  22
HETATM   22  O1  UNL     1      32.033  43.039   9.159  1.00  0.00    -0.333 OA
BRANCH  22  23
HETATM   23  C2  UNL     1      32.626  42.077   8.293  1.00  0.00     0.173 C 
HETATM   24  C1  UNL     1      31.546  41.196   7.751  1.00  0.00     0.034 C 
ENDBRANCH  22  23
ENDBRANCH   1  22
BRANCH   7  25
HETATM   25  N5  UNL     1      29.364  46.736   8.046  1.00  0.00    -0.422 NA
BRANCH  25  26
HETATM   26  C16 UNL     1      28.362  47.620   7.970  1.00  0.00     0.165 C 
HETATM   27  C17 UNL     1      26.916  47.111   7.922  1.00  0.00     0.039 C 
HETATM   28  C18 UNL     1      26.102  48.359   7.550  1.00  0.00     0.003 C 
HETATM   29  C19 UNL     1      27.098  49.355   7.012  1.00  0.00     0.003 C 
HETATM   30  C20 UNL     1      28.347  48.540   6.747  1.00  0.00     0.039 C 
ENDBRANCH  25  26
ENDBRANCH   7  25
TORSDOF 6
ENDMDL
MODEL 5
REMARK VINA RESULT: -7.183329500      4.604      7.520
REMARK  6 active torsions:
REMARK  status: ('A' for Active; 'I' for Inactive)
REMARK    1  A    between atoms: C2_2  and  O1_3 
REMARK    2  A    between atoms: O1_3  and  C3_4 
REMARK    3  A    between atoms: C4_7  and  N2_8 
REMARK    4  A    between atoms: C7_11  and  N3_12 
REMARK    5  A    between atoms: C15_22  and  N5_23 
REMARK    6  A    between atoms: N5_23  and  C16_24 
ROOT
HETATM    1  C3  UNL     1      30.946  44.222   8.302  1.00  0.00     0.201 A 
HETATM    2  N1  UNL     1      32.161  44.705   8.052  1.00  0.00    -0.167 N 
ATOM      3  H1  UNL     1      32.961  44.082   8.159  1.00  0.00     0.186 HD
HETATM    4  C4  UNL     1      32.385  45.970   7.663  1.00  0.00     0.684 A 
HETATM    5  N4  UNL     1      31.350  46.791   7.517  1.00  0.00    -0.161 N 
ATOM      6  H4  UNL     1      31.534  47.749   7.220  1.00  0.00     0.187 HD
HETATM    7  C15 UNL     1      30.040  46.423   7.743  1.00  0.00     0.231 A 
HETATM    8  C21 UNL     1      29.874  45.113   8.139  1.00  0.00     0.225 A 
HETATM    9  F1  UNL     1      28.640  44.653   8.386  1.00  0.00    -0.196 F 
ENDROOT
BRANCH   4  10
HETATM   10  N2  UNL     1      33.738  46.380   7.426  1.00  0.00    -0.217 N 
HETATM   11  C5  UNL     1      34.135  47.651   7.961  1.00  0.00     0.143 C 
HETATM   12  C6  UNL     1      35.615  47.920   7.775  1.00  0.00     0.045 C 
HETATM   13  C7  UNL     1      36.334  46.611   8.017  1.00  0.00     0.086 C 
HETATM   14  C13 UNL     1      36.035  45.718   6.839  1.00  0.00     0.045 C 
HETATM   15  C14 UNL     1      34.566  45.484   6.678  1.00  0.00     0.143 C 
BRANCH  13  16
HETATM   16  N3  UNL     1      37.723  46.728   8.277  1.00  0.00    -0.389 N 
HETATM   17  C8  UNL     1      38.467  45.547   8.468  1.00  0.00     0.058 C 
HETATM   18  C9  UNL     1      39.778  45.649   7.723  1.00  0.00     0.044 C 
HETATM   19  C10 UNL     1      40.497  46.857   8.291  1.00  0.00     0.007 C 
HETATM   20  C11 UNL     1      39.736  48.075   7.827  1.00  0.00     0.020 C 
HETATM   21  C12 UNL     1      38.296  47.777   7.528  1.00  0.00     0.122 C 
ENDBRANCH  13  16
ENDBRANCH   4  10
BRANCH   1  22
HETATM   22  O1  UNL     1      30.690  42.915   8.706  1.00  0.00    -0.333 OA
BRANCH  22  23
HETATM   23  C2  UNL     1      31.550  41.904   8.192  1.00  0.00     0.173 C 
HETATM   24  C1  UNL     1      30.709  40.828   7.584  1.00  0.00     0.034 C 
ENDBRANCH  22  23
ENDBRANCH   1  22
BRANCH   7  25
HETATM   25  N5  UNL     1      29.150  47.208   7.594  1.00  0.00    -0.422 NA
BRANCH  25  26
HETATM   26  C16 UNL     1      28.070  47.983   7.748  1.00  0.00     0.165 C 
HETATM   27  C17 UNL     1      26.678  47.343   7.701  1.00  0.00     0.039 C 
HETATM   28  C18 UNL     1      25.726  48.546   7.620  1.00  0.00     0.003 C 
HETATM   29  C19 UNL     1      26.580  49.719   7.213  1.00  0.00     0.003 C 
HETATM   30  C20 UNL     1      27.871  49.099   6.720  1.00  0.00     0.039 C 
ENDBRANCH  25  26
ENDBRANCH   7  25
TORSDOF 6
ENDMDL
