MODEL 1
REMARK VINA RESULT: -7.157954169      0.000      0.000
REMARK  6 active torsions:
REMARK  status: ('A' for Active; 'I' for Inactive)
REMARK    1  A    between atoms: C2_2  and  O1_3 
REMARK    2  A    between atoms: O1_3  and  C3_4 
REMARK       I    between atoms: C3_4  and  N1_6 
REMARK    3  A    between atoms: C8_12  and  O4_13 
REMARK    4  A    between atoms: O4_13  and  C9_14 
REMARK    5  A    between atoms: C9_14  and  C10_15 
REMARK       I    between atoms: C10_15  and  N2_17 
REMARK    6  A    between atoms: N2_17  and  C11_19 
ROOT
HETATM    1  C3  UNL     1      36.592  46.450   5.584  1.00  0.00     0.367 C 
HETATM    2  O2  UNL     1      37.558  46.974   4.917  1.00  0.00    -0.238 OA
HETATM    3  N1  UNL     1      36.915  45.465   6.503  1.00  0.00    -0.287 N 
HETATM    4  C4  UNL     1      38.232  44.799   6.399  1.00  0.00     0.161 C 
HETATM    5  C5  UNL     1      38.060  43.302   6.545  1.00  0.00     0.196 C 
HETATM    6  O3  UNL     1      36.722  42.905   6.811  1.00  0.00    -0.347 OA
HETATM    7  C6  UNL     1      35.894  43.637   7.651  1.00  0.00     0.100 A 
HETATM    8  C7  UNL     1      35.029  43.131   8.579  1.00  0.00     0.076 A 
HETATM    9  C8  UNL     1      34.263  43.987   9.351  1.00  0.00     0.073 A 
HETATM   10  C17 UNL     1      34.382  45.360   9.177  1.00  0.00     0.063 A 
HETATM   11  C18 UNL     1      35.258  45.862   8.238  1.00  0.00     0.066 A 
HETATM   12 CL1  UNL     1      35.476  47.569   8.052  1.00  0.00    -0.082 Cl
HETATM   13  C19 UNL     1      36.010  45.024   7.474  1.00  0.00     0.094 A 
ENDROOT
BRANCH   9  14
HETATM   14  O4  UNL     1      33.372  43.516  10.305  1.00  0.00    -0.342 OA
BRANCH  14  15
HETATM   15  C9  UNL     1      32.398  42.551   9.966  1.00  0.00     0.278 C 
BRANCH  15  16
HETATM   16  C10 UNL     1      31.286  43.159   9.181  1.00  0.00     0.242 C 
HETATM   17  O5  UNL     1      30.695  42.480   8.305  1.00  0.00    -0.271 OA
HETATM   18  N2  UNL     1      30.861  44.498   9.385  1.00  0.00    -0.355 N 
ATOM     19  H2  UNL     1      31.328  45.068  10.090  1.00  0.00     0.162 HD
BRANCH  18  20
HETATM   20  C11 UNL     1      29.783  45.068   8.615  1.00  0.00     0.084 C 
HETATM   21  C12 UNL     1      30.341  46.278   7.892  1.00  0.00     0.025 C 
HETATM   22  C13 UNL     1      29.307  46.968   7.058  1.00  0.00     0.002 C 
HETATM   23  C14 UNL     1      28.089  47.254   7.882  1.00  0.00     0.000 C 
HETATM   24  C15 UNL     1      27.544  46.044   8.592  1.00  0.00     0.002 C 
HETATM   25  C16 UNL     1      28.656  45.558   9.529  1.00  0.00     0.025 C 
ENDBRANCH  18  20
ENDBRANCH  15  16
ENDBRANCH  14  15
ENDBRANCH   9  14
BRANCH   1  26
HETATM   26  O1  UNL     1      35.348  46.929   5.287  1.00  0.00    -0.304 OA
BRANCH  26  27
HETATM   27  C2  UNL     1      34.451  46.180   4.441  1.00  0.00     0.176 C 
HETATM   28  C1  UNL     1      33.158  46.025   5.195  1.00  0.00     0.034 C 
ENDBRANCH  26  27
ENDBRANCH   1  26
TORSDOF 6
ENDMDL
MODEL 2
REMARK VINA RESULT: -6.872616989      2.614      4.572
REMARK  6 active torsions:
REMARK  status: ('A' for Active; 'I' for Inactive)
REMARK    1  A    between atoms: C2_2  and  O1_3 
REMARK    2  A    between atoms: O1_3  and  C3_4 
REMARK       I    between atoms: C3_4  and  N1_6 
REMARK    3  A    between atoms: C8_12  and  O4_13 
REMARK    4  A    between atoms: O4_13  and  C9_14 
REMARK    5  A    between atoms: C9_14  and  C10_15 
REMARK       I    between atoms: C10_15  and  N2_17 
REMARK    6  A    between atoms: N2_17  and  C11_19 
ROOT
HETATM    1  C3  UNL     1      37.120  45.749   8.516  1.00  0.00     0.367 C 
HETATM    2  O2  UNL     1      38.277  45.347   8.905  1.00  0.00    -0.238 OA
HETATM    3  N1  UNL     1      37.077  46.871   7.704  1.00  0.00    -0.287 N 
HETATM    4  C4  UNL     1      38.261  47.758   7.653  1.00  0.00     0.161 C 
HETATM    5  C5  UNL     1      37.821  49.202   7.759  1.00  0.00     0.196 C 
HETATM    6  O3  UNL     1      36.411  49.367   7.811  1.00  0.00    -0.347 OA
HETATM    7  C6  UNL     1      35.554  48.588   7.046  1.00  0.00     0.100 A 
HETATM    8  C7  UNL     1      34.442  49.020   6.381  1.00  0.00     0.076 A 
HETATM    9  C8  UNL     1      33.679  48.124   5.651  1.00  0.00     0.073 A 
HETATM   10  C17 UNL     1      34.054  46.787   5.600  1.00  0.00     0.063 A 
HETATM   11  C18 UNL     1      35.178  46.361   6.274  1.00  0.00     0.066 A 
HETATM   12 CL1  UNL     1      35.704  44.715   6.167  1.00  0.00    -0.082 Cl
HETATM   13  C19 UNL     1      35.928  47.237   6.995  1.00  0.00     0.094 A 
ENDROOT
BRANCH   9  14
HETATM   14  O4  UNL     1      32.542  48.520   4.961  1.00  0.00    -0.342 OA
BRANCH  14  15
HETATM   15  C9  UNL     1      31.477  49.158   5.635  1.00  0.00     0.278 C 
BRANCH  15  16
HETATM   16  C10 UNL     1      31.106  48.422   6.876  1.00  0.00     0.242 C 
HETATM   17  O5  UNL     1      31.251  48.973   7.996  1.00  0.00    -0.271 OA
HETATM   18  N2  UNL     1      30.589  47.100   6.846  1.00  0.00    -0.355 N 
ATOM     19  H2  UNL     1      30.465  46.633   5.948  1.00  0.00     0.162 HD
BRANCH  18  20
HETATM   20  C11 UNL     1      30.237  46.406   8.060  1.00  0.00     0.084 C 
HETATM   21  C12 UNL     1      30.574  44.942   7.851  1.00  0.00     0.025 C 
HETATM   22  C13 UNL     1      30.243  44.107   9.048  1.00  0.00     0.002 C 
HETATM   23  C14 UNL     1      28.828  44.354   9.473  1.00  0.00     0.000 C 
HETATM   24  C15 UNL     1      28.508  45.811   9.679  1.00  0.00     0.002 C 
HETATM   25  C16 UNL     1      28.732  46.496   8.326  1.00  0.00     0.025 C 
ENDBRANCH  18  20
ENDBRANCH  15  16
ENDBRANCH  14  15
ENDBRANCH   9  14
BRANCH   1  26
HETATM   26  O1  UNL     1      36.062  45.015   8.969  1.00  0.00    -0.304 OA
BRANCH  26  27
HETATM   27  C2  UNL     1      35.256  45.483  10.071  1.00  0.00     0.176 C 
HETATM   28  C1  UNL     1      33.816  45.327   9.665  1.00  0.00     0.034 C 
ENDBRANCH  26  27
ENDBRANCH   1  26
TORSDOF 6
ENDMDL
MODEL 3
REMARK VINA RESULT: -6.773973558      2.515      4.779
REMARK  6 active torsions:
REMARK  status: ('A' for Active; 'I' for Inactive)
REMARK    1  A    between atoms: C2_2  and  O1_3 
REMARK    2  A    between atoms: O1_3  and  C3_4 
REMARK       I    between atoms: C3_4  and  N1_6 
REMARK    3  A    between atoms: C8_12  and  O4_13 
REMARK    4  A    between atoms: O4_13  and  C9_14 
REMARK    5  A    between atoms: C9_14  and  C10_15 
REMARK       I    between atoms: C10_15  and  N2_17 
REMARK    6  A    between atoms: N2_17  and  C11_19 
ROOT
HETATM    1  C3  UNL     1      34.454  43.073   9.216  1.00  0.00     0.367 C 
HETATM    2  O2  UNL     1      34.800  41.985   9.804  1.00  0.00    -0.238 OA
HETATM    3  N1  UNL     1      34.839  43.232   7.894  1.00  0.00    -0.287 N 
HETATM    4  C4  UNL     1      35.924  42.378   7.362  1.00  0.00     0.161 C 
HETATM    5  C5  UNL     1      36.900  43.224   6.573  1.00  0.00     0.196 C 
HETATM    6  O3  UNL     1      36.519  44.589   6.471  1.00  0.00    -0.347 OA
HETATM    7  C6  UNL     1      35.195  44.969   6.295  1.00  0.00     0.100 A 
HETATM    8  C7  UNL     1      34.738  45.956   5.469  1.00  0.00     0.076 A 
HETATM    9  C8  UNL     1      33.382  46.224   5.393  1.00  0.00     0.073 A 
HETATM   10  C17 UNL     1      32.493  45.482   6.160  1.00  0.00     0.063 A 
HETATM   11  C18 UNL     1      32.963  44.488   6.991  1.00  0.00     0.066 A 
HETATM   12 CL1  UNL     1      31.869  43.504   7.903  1.00  0.00    -0.082 Cl
HETATM   13  C19 UNL     1      34.295  44.224   7.071  1.00  0.00     0.094 A 
ENDROOT
BRANCH   9  14
HETATM   14  O4  UNL     1      32.875  47.218   4.567  1.00  0.00    -0.342 OA
BRANCH  14  15
HETATM   15  C9  UNL     1      32.811  48.558   5.010  1.00  0.00     0.278 C 
BRANCH  15  16
HETATM   16  C10 UNL     1      31.695  48.753   5.979  1.00  0.00     0.242 C 
HETATM   17  O5  UNL     1      31.950  49.044   7.174  1.00  0.00    -0.271 OA
HETATM   18  N2  UNL     1      30.334  48.620   5.601  1.00  0.00    -0.355 N 
ATOM     19  H2  UNL     1      30.104  48.384   4.635  1.00  0.00     0.162 HD
BRANCH  18  20
HETATM   20  C11 UNL     1      29.269  48.814   6.554  1.00  0.00     0.084 C 
HETATM   21  C12 UNL     1      28.810  47.437   6.996  1.00  0.00     0.025 C 
HETATM   22  C13 UNL     1      27.691  47.504   7.988  1.00  0.00     0.002 C 
HETATM   23  C14 UNL     1      26.592  48.378   7.467  1.00  0.00     0.000 C 
HETATM   24  C15 UNL     1      27.062  49.742   7.035  1.00  0.00     0.002 C 
HETATM   25  C16 UNL     1      28.071  49.511   5.904  1.00  0.00     0.025 C 
ENDBRANCH  18  20
ENDBRANCH  15  16
ENDBRANCH  14  15
ENDBRANCH   9  14
BRANCH   1  26
HETATM   26  O1  UNL     1      33.749  43.956   9.984  1.00  0.00    -0.304 OA
BRANCH  26  27
HETATM   27  C2  UNL     1      34.429  44.878  10.861  1.00  0.00     0.176 C 
HETATM   28  C1  UNL     1      34.534  46.189  10.130  1.00  0.00     0.034 C 
ENDBRANCH  26  27
ENDBRANCH   1  26
TORSDOF 6
ENDMDL
MODEL 4
REMARK VINA RESULT: -6.763093403      1.795      2.076
REMARK  6 active torsions:
REMARK  status: ('A' for Active; 'I' for Inactive)
REMARK    1  A    between atoms: C2_2  and  O1_3 
REMARK    2  A    between atoms: O1_3  and  C3_4 
REMARK       I    between atoms: C3_4  and  N1_6 
REMARK    3  A    between atoms: C8_12  and  O4_13 
REMARK    4  A    between atoms: O4_13  and  C9_14 
REMARK    5  A    between atoms: C9_14  and  C10_15 
REMARK       I    between atoms: C10_15  and  N2_17 
REMARK    6  A    between atoms: N2_17  and  C11_19 
ROOT
HETATM    1  C3  UNL     1      36.942  46.594   8.233  1.00  0.00     0.367 C 
HETATM    2  O2  UNL     1      38.041  47.258   8.255  1.00  0.00    -0.238 OA
HETATM    3  N1  UNL     1      37.032  45.220   8.077  1.00  0.00    -0.287 N 
HETATM    4  C4  UNL     1      38.292  44.645   7.556  1.00  0.00     0.161 C 
HETATM    5  C5  UNL     1      37.982  43.616   6.491  1.00  0.00     0.196 C 
HETATM    6  O3  UNL     1      36.592  43.399   6.294  1.00  0.00    -0.347 OA
HETATM    7  C6  UNL     1      35.697  43.376   7.355  1.00  0.00     0.100 A 
HETATM    8  C7  UNL     1      34.655  42.508   7.520  1.00  0.00     0.076 A 
HETATM    9  C8  UNL     1      33.843  42.604   8.636  1.00  0.00     0.073 A 
HETATM   10  C17 UNL     1      34.096  43.585   9.587  1.00  0.00     0.063 A 
HETATM   11  C18 UNL     1      35.150  44.457   9.413  1.00  0.00     0.066 A 
HETATM   12 CL1  UNL     1      35.528  45.641  10.617  1.00  0.00    -0.082 Cl
HETATM   13  C19 UNL     1      35.949  44.368   8.315  1.00  0.00     0.094 A 
ENDROOT
BRANCH   9  14
HETATM   14  O4  UNL     1      32.773  41.743   8.842  1.00  0.00    -0.342 OA
BRANCH  14  15
HETATM   15  C9  UNL     1      31.573  41.900   8.114  1.00  0.00     0.278 C 
BRANCH  15  16
HETATM   16  C10 UNL     1      30.827  43.111   8.560  1.00  0.00     0.242 C 
HETATM   17  O5  UNL     1      30.296  43.134   9.699  1.00  0.00    -0.271 OA
HETATM   18  N2  UNL     1      30.687  44.259   7.737  1.00  0.00    -0.355 N 
ATOM     19  H2  UNL     1      31.108  44.262   6.808  1.00  0.00     0.162 HD
BRANCH  18  20
HETATM   20  C11 UNL     1      29.960  45.420   8.188  1.00  0.00     0.084 C 
HETATM   21  C12 UNL     1      28.493  45.039   8.236  1.00  0.00     0.025 C 
HETATM   22  C13 UNL     1      27.626  46.173   8.685  1.00  0.00     0.002 C 
HETATM   23  C14 UNL     1      27.914  47.396   7.869  1.00  0.00     0.000 C 
HETATM   24  C15 UNL     1      29.374  47.764   7.832  1.00  0.00     0.002 C 
HETATM   25  C16 UNL     1      30.102  46.575   7.193  1.00  0.00     0.025 C 
ENDBRANCH  18  20
ENDBRANCH  15  16
ENDBRANCH  14  15
ENDBRANCH   9  14
BRANCH   1  26
HETATM   26  O1  UNL     1      35.804  47.339   8.357  1.00  0.00    -0.304 OA
BRANCH  26  27
HETATM   27  C2  UNL     1      34.999  47.655   7.202  1.00  0.00     0.176 C 
HETATM   28  C1  UNL     1      33.570  47.354   7.563  1.00  0.00     0.034 C 
ENDBRANCH  26  27
ENDBRANCH   1  26
TORSDOF 6
ENDMDL
MODEL 5
REMARK VINA RESULT: -6.727103092      1.729      3.180
REMARK  6 active torsions:
REMARK  status: ('A' for Active; 'I' for Inactive)
REMARK    1  A    between atoms: C2_2  and  O1_3 
REMARK    2  A    between atoms: O1_3  and  C3_4 
REMARK       I    between atoms: C3_4  and  N1_6 
REMARK    3  A    between atoms: C8_12  and  O4_13 
REMARK    4  A    between atoms: O4_13  and  C9_14 
REMARK    5  A    between atoms: C9_14  and  C10_15 
REMARK       I    between atoms: C10_15  and  N2_17 
REMARK    6  A    between atoms: N2_17  and  C11_19 
ROOT
HETATM    1  C3  UNL     1      38.663  45.211   6.343  1.00  0.00     0.367 C 
HETATM    2  O2  UNL     1      39.352  45.607   5.333  1.00  0.00    -0.238 OA
HETATM    3  N1  UNL     1      37.367  45.687   6.453  1.00  0.00    -0.287 N 
HETATM    4  C4  UNL     1      36.980  46.886   5.676  1.00  0.00     0.161 C 
HETATM    5  C5  UNL     1      36.208  47.841   6.561  1.00  0.00     0.196 C 
HETATM    6  O3  UNL     1      35.981  47.346   7.873  1.00  0.00    -0.347 OA
HETATM    7  C6  UNL     1      35.679  46.013   8.112  1.00  0.00     0.100 A 
HETATM    8  C7  UNL     1      34.753  45.536   8.995  1.00  0.00     0.076 A 
HETATM    9  C8  UNL     1      34.556  44.172   9.125  1.00  0.00     0.073 A 
HETATM   10  C17 UNL     1      35.305  43.294   8.351  1.00  0.00     0.063 A 
HETATM   11  C18 UNL     1      36.238  43.784   7.462  1.00  0.00     0.066 A 
HETATM   12 CL1  UNL     1      37.132  42.714   6.437  1.00  0.00    -0.082 Cl
HETATM   13  C19 UNL     1      36.436  45.124   7.333  1.00  0.00     0.094 A 
ENDROOT
BRANCH   9  14
HETATM   14  O4  UNL     1      33.626  43.645  10.010  1.00  0.00    -0.342 OA
BRANCH  14  15
HETATM   15  C9  UNL     1      32.747  42.617   9.604  1.00  0.00     0.278 C 
BRANCH  15  16
HETATM   16  C10 UNL     1      31.516  43.177   8.976  1.00  0.00     0.242 C 
HETATM   17  O5  UNL     1      30.732  42.418   8.354  1.00  0.00    -0.271 OA
HETATM   18  N2  UNL     1      31.188  44.556   9.053  1.00  0.00    -0.355 N 
ATOM     19  H2  UNL     1      31.811  45.190   9.553  1.00  0.00     0.162 HD
BRANCH  18  20
HETATM   20  C11 UNL     1      29.992  45.077   8.439  1.00  0.00     0.084 C 
HETATM   21  C12 UNL     1      30.346  46.427   7.847  1.00  0.00     0.025 C 
HETATM   22  C13 UNL     1      29.174  47.080   7.182  1.00  0.00     0.002 C 
HETATM   23  C14 UNL     1      28.003  47.109   8.116  1.00  0.00     0.000 C 
HETATM   24  C15 UNL     1      27.662  45.761   8.694  1.00  0.00     0.002 C 
HETATM   25  C16 UNL     1      28.896  45.306   9.483  1.00  0.00     0.025 C 
ENDBRANCH  18  20
ENDBRANCH  15  16
ENDBRANCH  14  15
ENDBRANCH   9  14
BRANCH   1  26
HETATM   26  O1  UNL     1      39.311  44.369   7.200  1.00  0.00    -0.304 OA
BRANCH  26  27
HETATM   27  C2  UNL     1      40.145  44.888   8.257  1.00  0.00     0.176 C 
HETATM   28  C1  UNL     1      41.199  43.852   8.539  1.00  0.00     0.034 C 
ENDBRANCH  26  27
ENDBRANCH   1  26
TORSDOF 6
ENDMDL
