MODEL 1
REMARK VINA RESULT: -6.025152479      0.000      0.000
REMARK  13 active torsions:
REMARK  status: ('A' for Active; 'I' for Inactive)
REMARK       I    between atoms: C1_4  and  N3_6 
REMARK    1  A    between atoms: N3_6  and  C2_8 
REMARK    2  A    between atoms: C2_8  and  C3_9 
REMARK    3  A    between atoms: C3_9  and  C4_10 
REMARK    4  A    between atoms: C4_10  and  O1_11 
REMARK    5  A    between atoms: O1_11  and  C5_12 
REMARK    6  A    between atoms: C6_14  and  C7_15 
REMARK    7  A    between atoms: C7_15  and  N4_16 
REMARK    8  A    between atoms: N4_16  and  C8_18 
REMARK    9  A    between atoms: C8_18  and  C9_19 
REMARK   10  A    between atoms: C9_19  and  N5_20 
REMARK   11  A    between atoms: C10_24  and  O3_25 
REMARK   12  A    between atoms: C11_27  and  O4_28 
REMARK   13  A    between atoms: C12_30  and  O5_31 
ROOT
HETATM    1  C5  UNL     1      30.128 -18.085 -17.648  1.00  0.00     0.291 C 
HETATM    2  O2  UNL     1      30.410 -19.384 -17.939  1.00  0.00    -0.349 OA
HETATM    3  C6  UNL     1      31.268 -20.066 -17.112  1.00  0.00     0.173 C 
HETATM    4  C10 UNL     1      30.941 -19.938 -15.663  1.00  0.00     0.180 C 
HETATM    5  C11 UNL     1      30.521 -18.529 -15.274  1.00  0.00     0.183 C 
HETATM    6  C12 UNL     1      29.541 -17.958 -16.260  1.00  0.00     0.204 C 
ENDROOT
BRANCH   1   7
HETATM    7  O1  UNL     1      31.097 -17.161 -17.913  1.00  0.00    -0.358 OA
BRANCH   7   8
HETATM    8  C4  UNL     1      31.133 -16.637 -19.174  1.00  0.00     0.172 C 
BRANCH   8   9
HETATM    9  C3  UNL     1      32.488 -16.711 -19.851  1.00  0.00     0.046 C 
BRANCH   9  10
HETATM   10  C2  UNL     1      32.569 -17.886 -20.796  1.00  0.00     0.124 C 
BRANCH  10  11
HETATM   11  N3  UNL     1      31.287 -18.522 -20.994  1.00  0.00    -0.365 N 
HETATM   12  C1  UNL     1      31.160 -19.890 -21.340  1.00  0.00     0.181 C 
HETATM   13  N1  UNL     1      30.503 -20.712 -20.585  1.00  0.00    -0.374 N 
HETATM   14  N2  UNL     1      31.747 -20.401 -22.520  1.00  0.00    -0.064 NA
ATOM     15  H12 UNL     1      30.412 -21.697 -20.835  1.00  0.00     0.158 HD
ATOM     16  H11 UNL     1      30.080 -20.343 -19.734  1.00  0.00     0.158 HD
ATOM     17  H3  UNL     1      30.440 -17.964 -20.881  1.00  0.00     0.162 HD
ENDBRANCH  10  11
ENDBRANCH   9  10
ENDBRANCH   8   9
ENDBRANCH   7   8
ENDBRANCH   1   7
BRANCH   6  18
HETATM   18  O5  UNL     1      28.352 -18.674 -16.152  1.00  0.00    -0.388 OA
ATOM     19  H5  UNL     1      27.933 -18.773 -16.999  1.00  0.00     0.210 HD
ENDBRANCH   6  18
BRANCH   3  20
HETATM   20  C7  UNL     1      32.686 -19.719 -17.452  1.00  0.00     0.148 C 
BRANCH  20  21
HETATM   21  N4  UNL     1      33.630 -20.737 -17.058  1.00  0.00    -0.417 N 
ATOM     22  H4  UNL     1      34.440 -20.534 -16.472  1.00  0.00     0.153 HD
BRANCH  21  23
HETATM   23  C8  UNL     1      33.351 -22.048 -17.543  1.00  0.00     0.141 C 
BRANCH  23  24
HETATM   24  C9  UNL     1      33.897 -23.111 -16.610  1.00  0.00     0.248 C 
BRANCH  24  25
HETATM   25  N5  UNL     1      33.212 -22.910 -15.337  1.00  0.00    -0.078 N 
ATOM     26  H53 UNL     1      33.728 -22.319 -14.685  1.00  0.00     0.274 HD
ATOM     27  H52 UNL     1      32.384 -22.319 -15.408  1.00  0.00     0.274 HD
ATOM     28  H51 UNL     1      33.018 -23.844 -14.977  1.00  0.00     0.274 HD
ENDBRANCH  24  25
ENDBRANCH  23  24
ENDBRANCH  21  23
ENDBRANCH  20  21
ENDBRANCH   3  20
BRANCH   5  29
HETATM   29  O4  UNL     1      31.677 -17.757 -15.157  1.00  0.00    -0.390 OA
ATOM     30  H4  UNL     1      32.257 -18.194 -14.546  1.00  0.00     0.210 HD
ENDBRANCH   5  29
BRANCH   4  31
HETATM   31  O3  UNL     1      31.936 -20.317 -14.803  1.00  0.00    -0.390 OA
ATOM     32  H3  UNL     1      32.553 -19.634 -14.569  1.00  0.00     0.210 HD
ENDBRANCH   4  31
TORSDOF 13
ENDMDL
MODEL 2
REMARK VINA RESULT: -5.978713928      1.779      5.396
REMARK  13 active torsions:
REMARK  status: ('A' for Active; 'I' for Inactive)
REMARK       I    between atoms: C1_4  and  N3_6 
REMARK    1  A    between atoms: N3_6  and  C2_8 
REMARK    2  A    between atoms: C2_8  and  C3_9 
REMARK    3  A    between atoms: C3_9  and  C4_10 
REMARK    4  A    between atoms: C4_10  and  O1_11 
REMARK    5  A    between atoms: O1_11  and  C5_12 
REMARK    6  A    between atoms: C6_14  and  C7_15 
REMARK    7  A    between atoms: C7_15  and  N4_16 
REMARK    8  A    between atoms: N4_16  and  C8_18 
REMARK    9  A    between atoms: C8_18  and  C9_19 
REMARK   10  A    between atoms: C9_19  and  N5_20 
REMARK   11  A    between atoms: C10_24  and  O3_25 
REMARK   12  A    between atoms: C11_27  and  O4_28 
REMARK   13  A    between atoms: C12_30  and  O5_31 
ROOT
HETATM    1  C5  UNL     1      32.105 -20.107 -16.626  1.00  0.00     0.291 C 
HETATM    2  O2  UNL     1      32.717 -19.185 -17.418  1.00  0.00    -0.349 OA
HETATM    3  C6  UNL     1      31.936 -18.420 -18.250  1.00  0.00     0.173 C 
HETATM    4  C10 UNL     1      30.761 -17.799 -17.574  1.00  0.00     0.180 C 
HETATM    5  C11 UNL     1      30.077 -18.739 -16.594  1.00  0.00     0.183 C 
HETATM    6  C12 UNL     1      31.078 -19.453 -15.730  1.00  0.00     0.204 C 
ENDROOT
BRANCH   1   7
HETATM    7  O1  UNL     1      31.653 -21.246 -17.227  1.00  0.00    -0.358 OA
BRANCH   7   8
HETATM    8  C4  UNL     1      32.477 -22.335 -17.206  1.00  0.00     0.172 C 
BRANCH   8   9
HETATM    9  C3  UNL     1      33.307 -22.475 -15.946  1.00  0.00     0.046 C 
BRANCH   9  10
HETATM   10  C2  UNL     1      34.754 -22.769 -16.266  1.00  0.00     0.124 C 
BRANCH  10  11
HETATM   11  N3  UNL     1      35.578 -21.584 -16.218  1.00  0.00    -0.365 N 
HETATM   12  C1  UNL     1      35.982 -20.890 -17.385  1.00  0.00     0.181 C 
HETATM   13  N1  UNL     1      35.676 -19.644 -17.562  1.00  0.00    -0.374 N 
HETATM   14  N2  UNL     1      36.733 -21.535 -18.394  1.00  0.00    -0.064 NA
ATOM     15  H12 UNL     1      35.968 -19.145 -18.403  1.00  0.00     0.158 HD
ATOM     16  H11 UNL     1      35.135 -19.178 -16.834  1.00  0.00     0.158 HD
ATOM     17  H3  UNL     1      35.881 -21.233 -15.310  1.00  0.00     0.162 HD
ENDBRANCH  10  11
ENDBRANCH   9  10
ENDBRANCH   8   9
ENDBRANCH   7   8
ENDBRANCH   1   7
BRANCH   6  18
HETATM   18  O5  UNL     1      31.672 -18.514 -14.890  1.00  0.00    -0.388 OA
ATOM     19  H5  UNL     1      32.490 -18.840 -14.536  1.00  0.00     0.210 HD
ENDBRANCH   6  18
BRANCH   3  20
HETATM   20  C7  UNL     1      31.591 -19.199 -19.483  1.00  0.00     0.148 C 
BRANCH  20  21
HETATM   21  N4  UNL     1      31.289 -18.361 -20.619  1.00  0.00    -0.417 N 
ATOM     22  H4  UNL     1      30.450 -18.489 -21.185  1.00  0.00     0.153 HD
BRANCH  21  23
HETATM   23  C8  UNL     1      32.245 -17.340 -20.894  1.00  0.00     0.141 C 
BRANCH  23  24
HETATM   24  C9  UNL     1      31.568 -16.033 -21.256  1.00  0.00     0.248 C 
BRANCH  24  25
HETATM   25  N5  UNL     1      30.135 -16.294 -21.179  1.00  0.00    -0.078 N 
ATOM     26  H53 UNL     1      29.789 -16.895 -21.927  1.00  0.00     0.274 HD
ATOM     27  H52 UNL     1      29.871 -16.900 -20.403  1.00  0.00     0.274 HD
ATOM     28  H51 UNL     1      29.688 -15.378 -21.152  1.00  0.00     0.274 HD
ENDBRANCH  24  25
ENDBRANCH  23  24
ENDBRANCH  21  23
ENDBRANCH  20  21
ENDBRANCH   3  20
BRANCH   5  29
HETATM   29  O4  UNL     1      29.282 -19.617 -17.331  1.00  0.00    -0.390 OA
ATOM     30  H4  UNL     1      28.389 -19.293 -17.303  1.00  0.00     0.210 HD
ENDBRANCH   5  29
BRANCH   4  31
HETATM   31  O3  UNL     1      29.795 -17.311 -18.411  1.00  0.00    -0.390 OA
ATOM     32  H3  UNL     1      29.141 -16.759 -17.999  1.00  0.00     0.210 HD
ENDBRANCH   4  31
TORSDOF 13
ENDMDL
MODEL 3
REMARK VINA RESULT: -5.972920742      2.644      3.840
REMARK  13 active torsions:
REMARK  status: ('A' for Active; 'I' for Inactive)
REMARK       I    between atoms: C1_4  and  N3_6 
REMARK    1  A    between atoms: N3_6  and  C2_8 
REMARK    2  A    between atoms: C2_8  and  C3_9 
REMARK    3  A    between atoms: C3_9  and  C4_10 
REMARK    4  A    between atoms: C4_10  and  O1_11 
REMARK    5  A    between atoms: O1_11  and  C5_12 
REMARK    6  A    between atoms: C6_14  and  C7_15 
REMARK    7  A    between atoms: C7_15  and  N4_16 
REMARK    8  A    between atoms: N4_16  and  C8_18 
REMARK    9  A    between atoms: C8_18  and  C9_19 
REMARK   10  A    between atoms: C9_19  and  N5_20 
REMARK   11  A    between atoms: C10_24  and  O3_25 
REMARK   12  A    between atoms: C11_27  and  O4_28 
REMARK   13  A    between atoms: C12_30  and  O5_31 
ROOT
HETATM    1  C5  UNL     1      31.403 -21.348 -18.144  1.00  0.00     0.291 C 
HETATM    2  O2  UNL     1      31.085 -21.949 -16.965  1.00  0.00    -0.349 OA
HETATM    3  C6  UNL     1      31.405 -21.302 -15.797  1.00  0.00     0.173 C 
HETATM    4  C10 UNL     1      30.981 -19.874 -15.761  1.00  0.00     0.180 C 
HETATM    5  C11 UNL     1      31.215 -19.153 -17.080  1.00  0.00     0.183 C 
HETATM    6  C12 UNL     1      30.759 -19.984 -18.246  1.00  0.00     0.204 C 
ENDROOT
BRANCH   1   7
HETATM    7  O1  UNL     1      32.717 -21.356 -18.515  1.00  0.00    -0.358 OA
BRANCH   7   8
HETATM    8  C4  UNL     1      32.992 -21.554 -19.838  1.00  0.00     0.172 C 
BRANCH   8   9
HETATM    9  C3  UNL     1      34.410 -21.206 -20.248  1.00  0.00     0.046 C 
BRANCH   9  10
HETATM   10  C2  UNL     1      34.695 -19.735 -20.057  1.00  0.00     0.124 C 
BRANCH  10  11
HETATM   11  N3  UNL     1      34.898 -19.391 -18.668  1.00  0.00    -0.365 N 
HETATM   12  C1  UNL     1      36.157 -18.984 -18.161  1.00  0.00     0.181 C 
HETATM   13  N1  UNL     1      36.307 -17.829 -17.593  1.00  0.00    -0.374 N 
HETATM   14  N2  UNL     1      37.289 -19.824 -18.258  1.00  0.00    -0.064 NA
ATOM     15  H12 UNL     1      37.213 -17.536 -17.228  1.00  0.00     0.158 HD
ATOM     16  H11 UNL     1      35.490 -17.222 -17.523  1.00  0.00     0.158 HD
ATOM     17  H3  UNL     1      34.106 -19.443 -18.029  1.00  0.00     0.162 HD
ENDBRANCH  10  11
ENDBRANCH   9  10
ENDBRANCH   8   9
ENDBRANCH   7   8
ENDBRANCH   1   7
BRANCH   6  18
HETATM   18  O5  UNL     1      29.371 -20.080 -18.191  1.00  0.00    -0.388 OA
ATOM     19  H5  UNL     1      28.999 -19.378 -17.671  1.00  0.00     0.210 HD
ENDBRANCH   6  18
BRANCH   3  20
HETATM   20  C7  UNL     1      32.854 -21.518 -15.476  1.00  0.00     0.148 C 
BRANCH  20  21
HETATM   21  N4  UNL     1      33.197 -22.910 -15.309  1.00  0.00    -0.417 N 
ATOM     22  H4  UNL     1      32.666 -23.535 -14.701  1.00  0.00     0.153 HD
BRANCH  21  23
HETATM   23  C8  UNL     1      34.329 -23.353 -16.054  1.00  0.00     0.141 C 
BRANCH  23  24
HETATM   24  C9  UNL     1      35.293 -22.213 -16.321  1.00  0.00     0.248 C 
BRANCH  24  25
HETATM   25  N5  UNL     1      36.152 -22.668 -17.409  1.00  0.00    -0.078 N 
ATOM     26  H53 UNL     1      37.147 -22.627 -17.189  1.00  0.00     0.274 HD
ATOM     27  H52 UNL     1      36.106 -23.674 -17.573  1.00  0.00     0.274 HD
ATOM     28  H51 UNL     1      35.890 -22.110 -18.221  1.00  0.00     0.274 HD
ENDBRANCH  24  25
ENDBRANCH  23  24
ENDBRANCH  21  23
ENDBRANCH  20  21
ENDBRANCH   3  20
BRANCH   5  29
HETATM   29  O4  UNL     1      32.569 -18.825 -17.151  1.00  0.00    -0.390 OA
ATOM     30  H4  UNL     1      32.997 -19.195 -16.388  1.00  0.00     0.210 HD
ENDBRANCH   5  29
BRANCH   4  31
HETATM   31  O3  UNL     1      31.556 -19.116 -14.777  1.00  0.00    -0.390 OA
ATOM     32  H3  UNL     1      32.027 -18.348 -15.078  1.00  0.00     0.210 HD
ENDBRANCH   4  31
TORSDOF 13
ENDMDL
MODEL 4
REMARK VINA RESULT: -5.871524557      2.210      3.068
REMARK  13 active torsions:
REMARK  status: ('A' for Active; 'I' for Inactive)
REMARK       I    between atoms: C1_4  and  N3_6 
REMARK    1  A    between atoms: N3_6  and  C2_8 
REMARK    2  A    between atoms: C2_8  and  C3_9 
REMARK    3  A    between atoms: C3_9  and  C4_10 
REMARK    4  A    between atoms: C4_10  and  O1_11 
REMARK    5  A    between atoms: O1_11  and  C5_12 
REMARK    6  A    between atoms: C6_14  and  C7_15 
REMARK    7  A    between atoms: C7_15  and  N4_16 
REMARK    8  A    between atoms: N4_16  and  C8_18 
REMARK    9  A    between atoms: C8_18  and  C9_19 
REMARK   10  A    between atoms: C9_19  and  N5_20 
REMARK   11  A    between atoms: C10_24  and  O3_25 
REMARK   12  A    between atoms: C11_27  and  O4_28 
REMARK   13  A    between atoms: C12_30  and  O5_31 
ROOT
HETATM    1  C5  UNL     1      30.916 -20.627 -18.413  1.00  0.00     0.291 C 
HETATM    2  O2  UNL     1      30.855 -21.635 -17.501  1.00  0.00    -0.349 OA
HETATM    3  C6  UNL     1      31.478 -21.456 -16.291  1.00  0.00     0.173 C 
HETATM    4  C10 UNL     1      31.153 -20.161 -15.628  1.00  0.00     0.180 C 
HETATM    5  C11 UNL     1      31.106 -18.994 -16.601  1.00  0.00     0.183 C 
HETATM    6  C12 UNL     1      30.341 -19.349 -17.845  1.00  0.00     0.204 C 
ENDROOT
BRANCH   1   7
HETATM    7  O1  UNL     1      32.101 -20.445 -19.066  1.00  0.00    -0.358 OA
BRANCH   7   8
HETATM    8  C4  UNL     1      32.059 -19.816 -20.277  1.00  0.00     0.172 C 
BRANCH   8   9
HETATM    9  C3  UNL     1      31.622 -20.697 -21.431  1.00  0.00     0.046 C 
BRANCH   9  10
HETATM   10  C2  UNL     1      32.555 -21.870 -21.616  1.00  0.00     0.124 C 
BRANCH  10  11
HETATM   11  N3  UNL     1      31.997 -23.101 -21.105  1.00  0.00    -0.365 N 
HETATM   12  C1  UNL     1      32.544 -23.779 -19.988  1.00  0.00     0.181 C 
HETATM   13  N1  UNL     1      31.832 -24.006 -18.929  1.00  0.00    -0.374 N 
HETATM   14  N2  UNL     1      33.883 -24.231 -19.993  1.00  0.00    -0.064 NA
ATOM     15  H12 UNL     1      32.227 -24.494 -18.125  1.00  0.00     0.158 HD
ATOM     16  H11 UNL     1      30.866 -23.680 -18.926  1.00  0.00     0.158 HD
ATOM     17  H3  UNL     1      31.178 -23.497 -21.566  1.00  0.00     0.162 HD
ENDBRANCH  10  11
ENDBRANCH   9  10
ENDBRANCH   8   9
ENDBRANCH   7   8
ENDBRANCH   1   7
BRANCH   6  18
HETATM   18  O5  UNL     1      29.002 -19.513 -17.498  1.00  0.00    -0.388 OA
ATOM     19  H5  UNL     1      28.818 -19.120 -16.652  1.00  0.00     0.210 HD
ENDBRANCH   6  18
BRANCH   3  20
HETATM   20  C7  UNL     1      32.947 -21.719 -16.431  1.00  0.00     0.148 C 
BRANCH  20  21
HETATM   21  N4  UNL     1      33.449 -22.668 -15.465  1.00  0.00    -0.417 N 
ATOM     22  H4  UNL     1      33.219 -22.611 -14.473  1.00  0.00     0.153 HD
BRANCH  21  23
HETATM   23  C8  UNL     1      34.290 -23.690 -15.995  1.00  0.00     0.141 C 
BRANCH  23  24
HETATM   24  C9  UNL     1      35.346 -23.113 -16.917  1.00  0.00     0.248 C 
BRANCH  24  25
HETATM   25  N5  UNL     1      36.033 -24.261 -17.499  1.00  0.00    -0.078 N 
ATOM     26  H53 UNL     1      35.609 -25.157 -17.257  1.00  0.00     0.274 HD
ATOM     27  H52 UNL     1      35.915 -24.339 -18.509  1.00  0.00     0.274 HD
ATOM     28  H51 UNL     1      37.007 -24.178 -17.208  1.00  0.00     0.274 HD
ENDBRANCH  24  25
ENDBRANCH  23  24
ENDBRANCH  21  23
ENDBRANCH  20  21
ENDBRANCH   3  20
BRANCH   5  29
HETATM   29  O4  UNL     1      32.420 -18.611 -16.870  1.00  0.00    -0.390 OA
ATOM     30  H4  UNL     1      32.396 -17.745 -17.261  1.00  0.00     0.210 HD
ENDBRANCH   5  29
BRANCH   4  31
HETATM   31  O3  UNL     1      31.986 -19.802 -14.604  1.00  0.00    -0.390 OA
ATOM     32  H3  UNL     1      31.579 -19.308 -13.902  1.00  0.00     0.210 HD
ENDBRANCH   4  31
TORSDOF 13
ENDMDL
MODEL 5
REMARK VINA RESULT: -5.848218596      2.145      3.025
REMARK  13 active torsions:
REMARK  status: ('A' for Active; 'I' for Inactive)
REMARK       I    between atoms: C1_4  and  N3_6 
REMARK    1  A    between atoms: N3_6  and  C2_8 
REMARK    2  A    between atoms: C2_8  and  C3_9 
REMARK    3  A    between atoms: C3_9  and  C4_10 
REMARK    4  A    between atoms: C4_10  and  O1_11 
REMARK    5  A    between atoms: O1_11  and  C5_12 
REMARK    6  A    between atoms: C6_14  and  C7_15 
REMARK    7  A    between atoms: C7_15  and  N4_16 
REMARK    8  A    between atoms: N4_16  and  C8_18 
REMARK    9  A    between atoms: C8_18  and  C9_19 
REMARK   10  A    between atoms: C9_19  and  N5_20 
REMARK   11  A    between atoms: C10_24  and  O3_25 
REMARK   12  A    between atoms: C11_27  and  O4_28 
REMARK   13  A    between atoms: C12_30  and  O5_31 
ROOT
HETATM    1  C5  UNL     1      30.785 -20.079 -18.465  1.00  0.00     0.291 C 
HETATM    2  O2  UNL     1      30.935 -21.251 -17.790  1.00  0.00    -0.349 OA
HETATM    3  C6  UNL     1      31.629 -21.237 -16.606  1.00  0.00     0.173 C 
HETATM    4  C10 UNL     1      31.194 -20.169 -15.662  1.00  0.00     0.180 C 
HETATM    5  C11 UNL     1      30.910 -18.845 -16.356  1.00  0.00     0.183 C 
HETATM    6  C12 UNL     1      30.096 -19.045 -17.603  1.00  0.00     0.204 C 
ENDROOT
BRANCH   1   7
HETATM    7  O1  UNL     1      31.876 -19.594 -19.126  1.00  0.00    -0.358 OA
BRANCH   7   8
HETATM    8  C4  UNL     1      31.649 -18.728 -20.158  1.00  0.00     0.172 C 
BRANCH   8   9
HETATM    9  C3  UNL     1      32.296 -17.367 -19.994  1.00  0.00     0.046 C 
BRANCH   9  10
HETATM   10  C2  UNL     1      33.803 -17.467 -19.991  1.00  0.00     0.124 C 
BRANCH  10  11
HETATM   11  N3  UNL     1      34.310 -18.081 -18.786  1.00  0.00    -0.365 N 
HETATM   12  C1  UNL     1      35.694 -18.275 -18.554  1.00  0.00     0.181 C 
HETATM   13  N1  UNL     1      36.279 -17.750 -17.524  1.00  0.00    -0.374 N 
HETATM   14  N2  UNL     1      36.481 -19.046 -19.439  1.00  0.00    -0.064 NA
ATOM     15  H12 UNL     1      37.276 -17.890 -17.358  1.00  0.00     0.158 HD
ATOM     16  H11 UNL     1      35.712 -17.193 -16.886  1.00  0.00     0.158 HD
ATOM     17  H3  UNL     1      33.646 -18.387 -18.075  1.00  0.00     0.162 HD
ENDBRANCH  10  11
ENDBRANCH   9  10
ENDBRANCH   8   9
ENDBRANCH   7   8
ENDBRANCH   1   7
BRANCH   6  18
HETATM   18  O5  UNL     1      28.825 -19.472 -17.227  1.00  0.00    -0.388 OA
ATOM     19  H5  UNL     1      28.594 -19.139 -16.367  1.00  0.00     0.210 HD
ENDBRANCH   6  18
BRANCH   3  20
HETATM   20  C7  UNL     1      33.103 -21.246 -16.880  1.00  0.00     0.148 C 
BRANCH  20  21
HETATM   21  N4  UNL     1      33.886 -21.715 -15.761  1.00  0.00    -0.417 N 
ATOM     22  H4  UNL     1      33.614 -21.540 -14.794  1.00  0.00     0.153 HD
BRANCH  21  23
HETATM   23  C8  UNL     1      35.065 -22.439 -16.103  1.00  0.00     0.141 C 
BRANCH  23  24
HETATM   24  C9  UNL     1      35.522 -22.118 -17.512  1.00  0.00     0.248 C 
BRANCH  24  25
HETATM   25  N5  UNL     1      36.804 -21.436 -17.368  1.00  0.00    -0.078 N 
ATOM     26  H53 UNL     1      37.006 -21.145 -16.412  1.00  0.00     0.274 HD
ATOM     27  H52 UNL     1      37.609 -22.052 -17.481  1.00  0.00     0.274 HD
ATOM     28  H51 UNL     1      36.783 -20.665 -18.035  1.00  0.00     0.274 HD
ENDBRANCH  24  25
ENDBRANCH  23  24
ENDBRANCH  21  23
ENDBRANCH  20  21
ENDBRANCH   3  20
BRANCH   5  29
HETATM   29  O4  UNL     1      32.135 -18.226 -16.607  1.00  0.00    -0.390 OA
ATOM     30  H4  UNL     1      32.516 -17.987 -15.770  1.00  0.00     0.210 HD
ENDBRANCH   5  29
BRANCH   4  31
HETATM   31  O3  UNL     1      32.056 -19.910 -14.631  1.00  0.00    -0.390 OA
ATOM     32  H3  UNL     1      32.161 -18.993 -14.409  1.00  0.00     0.210 HD
ENDBRANCH   4  31
TORSDOF 13
ENDMDL
