MODEL 1
REMARK VINA RESULT: -7.485882116      0.000      0.000
REMARK  2 active torsions:
REMARK  status: ('A' for Active; 'I' for Inactive)
REMARK    1  A    between atoms: C4_4  and  C5_5 
REMARK    2  A    between atoms: N3_15  and  C11_16 
ROOT
HETATM    1  C5  UNL     1     122.793   8.133  26.177  1.00  0.00     0.120 A 
HETATM    2  N1  UNL     1     123.593   9.259  26.338  1.00  0.00    -0.339 N 
ATOM      3  H1  UNL     1     124.572   9.241  26.626  1.00  0.00     0.167 HD
HETATM    4  C6  UNL     1     122.906  10.359  26.064  1.00  0.00     0.078 A 
HETATM    5  C7  UNL     1     123.261  11.705  26.067  1.00  0.00     0.035 A 
HETATM    6  C8  UNL     1     122.316  12.639  25.716  1.00  0.00     0.019 A 
HETATM    7  C9  UNL     1     121.052  12.168  25.377  1.00  0.00     0.090 A 
HETATM    8  N2  UNL     1     120.762  10.860  25.390  1.00  0.00    -0.350 N 
ATOM      9  H2  UNL     1     119.820  10.568  25.133  1.00  0.00     0.166 HD
HETATM   10  C10 UNL     1     121.648   9.926  25.724  1.00  0.00     0.136 A 
HETATM   11  N3  UNL     1     121.587   8.540  25.801  1.00  0.00    -0.312 N 
ENDROOT
BRANCH   1  12
HETATM   12  C4  UNL     1     123.290   6.793  26.449  1.00  0.00     0.008 A 
HETATM   13  C3  UNL     1     123.112   6.108  27.592  1.00  0.00     0.015 A 
HETATM   14  C2  UNL     1     123.670   4.860  27.820  1.00  0.00     0.001 A 
HETATM   15  C1  UNL     1     124.437   4.302  26.829  1.00  0.00     0.000 A 
HETATM   16  C17 UNL     1     124.637   4.978  25.643  1.00  0.00     0.001 A 
HETATM   17  C16 UNL     1     124.079   6.201  25.444  1.00  0.00     0.015 A 
ENDBRANCH   1  12
BRANCH  11  18
HETATM   18  C11 UNL     1     120.377   7.810  25.558  1.00  0.00     0.093 C 
HETATM   19  C12 UNL     1     120.559   6.573  24.673  1.00  0.00     0.026 C 
HETATM   20  C13 UNL     1     119.181   5.933  24.823  1.00  0.00     0.002 C 
HETATM   21  C14 UNL     1     118.742   6.246  26.233  1.00  0.00     0.002 C 
HETATM   22  C15 UNL     1     119.669   7.310  26.779  1.00  0.00     0.026 C 
ENDBRANCH  11  18
TORSDOF 2
ENDMDL
MODEL 2
REMARK VINA RESULT: -7.475595988      0.146      1.067
REMARK  2 active torsions:
REMARK  status: ('A' for Active; 'I' for Inactive)
REMARK    1  A    between atoms: C4_4  and  C5_5 
REMARK    2  A    between atoms: N3_15  and  C11_16 
ROOT
HETATM    1  C5  UNL     1     122.868   8.208  26.095  1.00  0.00     0.120 A 
HETATM    2  N1  UNL     1     123.628   9.358  26.277  1.00  0.00    -0.339 N 
ATOM      3  H1  UNL     1     124.607   9.368  26.567  1.00  0.00     0.167 HD
HETATM    4  C6  UNL     1     122.904  10.438  26.022  1.00  0.00     0.078 A 
HETATM    5  C7  UNL     1     123.212  11.795  26.050  1.00  0.00     0.035 A 
HETATM    6  C8  UNL     1     122.235  12.703  25.714  1.00  0.00     0.019 A 
HETATM    7  C9  UNL     1     120.989  12.195  25.365  1.00  0.00     0.090 A 
HETATM    8  N2  UNL     1     120.744  10.877  25.354  1.00  0.00    -0.350 N 
ATOM      9  H2  UNL     1     119.813  10.557  25.089  1.00  0.00     0.166 HD
HETATM   10  C10 UNL     1     121.662   9.969  25.672  1.00  0.00     0.136 A 
HETATM   11  N3  UNL     1     121.649   8.580  25.724  1.00  0.00    -0.312 N 
ENDROOT
BRANCH   1  12
HETATM   12  C4  UNL     1     123.411   6.881  26.342  1.00  0.00     0.008 A 
HETATM   13  C3  UNL     1     124.136   6.157  25.472  1.00  0.00     0.015 A 
HETATM   14  C2  UNL     1     124.568   4.867  25.738  1.00  0.00     0.001 A 
HETATM   15  C1  UNL     1     124.238   4.309  26.948  1.00  0.00     0.000 A 
HETATM   16  C17 UNL     1     123.498   5.028  27.863  1.00  0.00     0.001 A 
HETATM   17  C16 UNL     1     123.086   6.291  27.579  1.00  0.00     0.015 A 
ENDBRANCH   1  12
BRANCH  11  18
HETATM   18  C11 UNL     1     120.465   7.813  25.465  1.00  0.00     0.093 C 
HETATM   19  C12 UNL     1     120.697   6.580  24.587  1.00  0.00     0.026 C 
HETATM   20  C13 UNL     1     119.337   5.899  24.718  1.00  0.00     0.002 C 
HETATM   21  C14 UNL     1     118.868   6.202  26.121  1.00  0.00     0.002 C 
HETATM   22  C15 UNL     1     119.754   7.295  26.677  1.00  0.00     0.026 C 
ENDBRANCH  11  18
TORSDOF 2
ENDMDL
MODEL 3
REMARK VINA RESULT: -6.766558244      1.578      2.299
REMARK  2 active torsions:
REMARK  status: ('A' for Active; 'I' for Inactive)
REMARK    1  A    between atoms: C4_4  and  C5_5 
REMARK    2  A    between atoms: N3_15  and  C11_16 
ROOT
HETATM    1  C5  UNL     1     122.872   6.760  27.171  1.00  0.00     0.120 A 
HETATM    2  N1  UNL     1     123.587   7.917  26.883  1.00  0.00    -0.339 N 
ATOM      3  H1  UNL     1     124.586   8.041  27.050  1.00  0.00     0.167 HD
HETATM    4  C6  UNL     1     122.788   8.837  26.361  1.00  0.00     0.078 A 
HETATM    5  C7  UNL     1     123.027  10.131  25.906  1.00  0.00     0.035 A 
HETATM    6  C8  UNL     1     121.979  10.856  25.392  1.00  0.00     0.019 A 
HETATM    7  C9  UNL     1     120.734  10.239  25.361  1.00  0.00     0.090 A 
HETATM    8  N2  UNL     1     120.556   8.990  25.812  1.00  0.00    -0.350 N 
ATOM      9  H2  UNL     1     119.623   8.583  25.766  1.00  0.00     0.166 HD
HETATM   10  C10 UNL     1     121.545   8.256  26.317  1.00  0.00     0.136 A 
HETATM   11  N3  UNL     1     121.607   6.964  26.826  1.00  0.00    -0.312 N 
ENDROOT
BRANCH   1  12
HETATM   12  C4  UNL     1     123.503   5.601  27.786  1.00  0.00     0.008 A 
HETATM   13  C3  UNL     1     124.037   4.558  27.126  1.00  0.00     0.015 A 
HETATM   14  C2  UNL     1     124.562   3.448  27.769  1.00  0.00     0.001 A 
HETATM   15  C1  UNL     1     124.534   3.418  29.140  1.00  0.00     0.000 A 
HETATM   16  C17 UNL     1     123.996   4.474  29.845  1.00  0.00     0.001 A 
HETATM   17  C16 UNL     1     123.487   5.552  29.193  1.00  0.00     0.015 A 
ENDBRANCH   1  12
BRANCH  11  18
HETATM   18  C11 UNL     1     120.446   6.135  26.959  1.00  0.00     0.093 C 
HETATM   19  C12 UNL     1     120.562   4.777  26.258  1.00  0.00     0.026 C 
HETATM   20  C13 UNL     1     119.305   4.093  26.792  1.00  0.00     0.002 C 
HETATM   21  C14 UNL     1     119.127   4.616  28.197  1.00  0.00     0.002 C 
HETATM   22  C15 UNL     1     120.042   5.810  28.364  1.00  0.00     0.026 C 
ENDBRANCH  11  18
TORSDOF 2
ENDMDL
MODEL 4
REMARK VINA RESULT: -6.720969738      1.413      5.136
REMARK  2 active torsions:
REMARK  status: ('A' for Active; 'I' for Inactive)
REMARK    1  A    between atoms: C4_4  and  C5_5 
REMARK    2  A    between atoms: N3_15  and  C11_16 
ROOT
HETATM    1  C5  UNL     1     122.534   8.070  25.938  1.00  0.00     0.120 A 
HETATM    2  N1  UNL     1     123.779   7.576  25.567  1.00  0.00    -0.339 N 
ATOM      3  H1  UNL     1     124.555   8.147  25.231  1.00  0.00     0.167 HD
HETATM    4  C6  UNL     1     123.816   6.259  25.711  1.00  0.00     0.078 A 
HETATM    5  C7  UNL     1     124.824   5.325  25.487  1.00  0.00     0.035 A 
HETATM    6  C8  UNL     1     124.568   4.000  25.746  1.00  0.00     0.019 A 
HETATM    7  C9  UNL     1     123.301   3.679  26.220  1.00  0.00     0.090 A 
HETATM    8  N2  UNL     1     122.365   4.617  26.419  1.00  0.00    -0.350 N 
ATOM      9  H2  UNL     1     121.453   4.329  26.769  1.00  0.00     0.166 HD
HETATM   10  C10 UNL     1     122.575   5.909  26.180  1.00  0.00     0.136 A 
HETATM   11  N3  UNL     1     121.783   7.043  26.315  1.00  0.00    -0.312 N 
ENDROOT
BRANCH   1  12
HETATM   12  C4  UNL     1     122.210   9.486  25.843  1.00  0.00     0.008 A 
HETATM   13  C3  UNL     1     121.074   9.997  25.335  1.00  0.00     0.015 A 
HETATM   14  C2  UNL     1     120.851  11.359  25.206  1.00  0.00     0.001 A 
HETATM   15  C1  UNL     1     121.837  12.220  25.619  1.00  0.00     0.000 A 
HETATM   16  C17 UNL     1     123.011  11.727  26.147  1.00  0.00     0.001 A 
HETATM   17  C16 UNL     1     123.207  10.387  26.263  1.00  0.00     0.015 A 
ENDBRANCH   1  12
BRANCH  11  18
HETATM   18  C11 UNL     1     120.413   6.977  26.731  1.00  0.00     0.093 C 
HETATM   19  C12 UNL     1     119.478   6.329  25.705  1.00  0.00     0.026 C 
HETATM   20  C13 UNL     1     118.206   6.208  26.542  1.00  0.00     0.002 C 
HETATM   21  C14 UNL     1     118.676   5.944  27.953  1.00  0.00     0.002 C 
HETATM   22  C15 UNL     1     120.160   6.234  28.006  1.00  0.00     0.026 C 
ENDBRANCH  11  18
TORSDOF 2
ENDMDL
MODEL 5
REMARK VINA RESULT: -6.717450631      0.911      3.929
REMARK  2 active torsions:
REMARK  status: ('A' for Active; 'I' for Inactive)
REMARK    1  A    between atoms: C4_4  and  C5_5 
REMARK    2  A    between atoms: N3_15  and  C11_16 
ROOT
HETATM    1  C5  UNL     1     121.176   8.116  25.400  1.00  0.00     0.120 A 
HETATM    2  N1  UNL     1     120.834   9.427  25.091  1.00  0.00    -0.339 N 
ATOM      3  H1  UNL     1     120.013   9.703  24.550  1.00  0.00     0.167 HD
HETATM    4  C6  UNL     1     121.723  10.270  25.597  1.00  0.00     0.078 A 
HETATM    5  C7  UNL     1     121.811  11.659  25.571  1.00  0.00     0.035 A 
HETATM    6  C8  UNL     1     122.863  12.268  26.213  1.00  0.00     0.019 A 
HETATM    7  C9  UNL     1     123.781  11.442  26.852  1.00  0.00     0.090 A 
HETATM    8  N2  UNL     1     123.650  10.108  26.848  1.00  0.00    -0.350 N 
ATOM      9  H2  UNL     1     124.350   9.548  27.333  1.00  0.00     0.166 HD
HETATM   10  C10 UNL     1     122.646   9.483  26.239  1.00  0.00     0.136 A 
HETATM   11  N3  UNL     1     122.299   8.143  26.107  1.00  0.00    -0.312 N 
ENDROOT
BRANCH   1  12
HETATM   12  C4  UNL     1     120.387   6.986  24.934  1.00  0.00     0.008 A 
HETATM   13  C3  UNL     1     120.572   6.325  23.777  1.00  0.00     0.015 A 
HETATM   14  C2  UNL     1     119.743   5.300  23.352  1.00  0.00     0.001 A 
HETATM   15  C1  UNL     1     118.687   4.945  24.154  1.00  0.00     0.000 A 
HETATM   16  C17 UNL     1     118.472   5.601  25.348  1.00  0.00     0.001 A 
HETATM   17  C16 UNL     1     119.299   6.604  25.742  1.00  0.00     0.015 A 
ENDBRANCH   1  12
BRANCH  11  18
HETATM   18  C11 UNL     1     123.114   7.084  26.626  1.00  0.00     0.093 C 
HETATM   19  C12 UNL     1     122.357   6.087  27.510  1.00  0.00     0.026 C 
HETATM   20  C13 UNL     1     123.428   5.012  27.676  1.00  0.00     0.002 C 
HETATM   21  C14 UNL     1     124.193   4.999  26.374  1.00  0.00     0.002 C 
HETATM   22  C15 UNL     1     123.808   6.242  25.602  1.00  0.00     0.026 C 
ENDBRANCH  11  18
TORSDOF 2
ENDMDL
