MODEL 1
REMARK VINA RESULT: -8.946560134      0.000      0.000
REMARK  3 active torsions:
REMARK  status: ('A' for Active; 'I' for Inactive)
REMARK    1  A    between atoms: C4_6  and  C5_7 
REMARK    2  A    between atoms: N3_17  and  O1_18 
REMARK    3  A    between atoms: N4_21  and  O2_22 
ROOT
HETATM    1  N1  UNL     1      25.819  18.475  19.356  1.00  0.00    -0.190 NA
HETATM    2  C1  UNL     1      25.189  19.397  19.659  1.00  0.00     0.122 C 
HETATM    3  C2  UNL     1      24.423  20.566  20.019  1.00  0.00     0.169 A 
HETATM    4  C3  UNL     1      24.157  21.553  19.092  1.00  0.00     0.098 A 
HETATM    5  N2  UNL     1      24.636  21.418  17.767  1.00  0.00    -0.098 NA
HETATM    6  C4  UNL     1      23.420  22.684  19.411  1.00  0.00     0.015 A 
HETATM    7  C11 UNL     1      22.959  22.779  20.708  1.00  0.00     0.026 A 
HETATM    8  C12 UNL     1      22.215  23.876  21.101  1.00  0.00     0.018 A 
HETATM    9  C13 UNL     1      21.775  23.934  22.403  1.00  0.00     0.021 A 
HETATM   10  C14 UNL     1      22.088  22.905  23.263  1.00  0.00     0.125 A 
HETATM   11  N3  UNL     1      22.803  21.843  22.897  1.00  0.00    -0.216 N 
HETATM   12  C15 UNL     1      23.241  21.775  21.621  1.00  0.00     0.171 A 
HETATM   13  N4  UNL     1      23.959  20.693  21.273  1.00  0.00    -0.193 N 
ENDROOT
BRANCH  13  14
HETATM   14  O2  UNL     1      24.227  19.709  22.219  1.00  0.00    -0.280 OA
ATOM     15  H2  UNL     1      23.538  19.401  22.795  1.00  0.00     0.245 HD
ENDBRANCH  13  14
BRANCH   6  16
HETATM   16  C5  UNL     1      23.177  23.727  18.425  1.00  0.00    -0.023 A 
HETATM   17  C6  UNL     1      23.845  24.927  18.472  1.00  0.00     0.012 A 
HETATM   18  C7  UNL     1      23.590  25.906  17.549  1.00  0.00     0.001 A 
HETATM   19  C8  UNL     1      22.659  25.751  16.531  1.00  0.00     0.000 A 
HETATM   20  C9  UNL     1      21.983  24.554  16.474  1.00  0.00     0.001 A 
HETATM   21  C10 UNL     1      22.238  23.572  17.397  1.00  0.00     0.012 A 
ENDBRANCH   6  16
BRANCH  11  22
HETATM   22  O1  UNL     1      23.109  20.817  23.790  1.00  0.00    -0.281 OA
ATOM     23  H1  UNL     1      22.473  20.154  24.031  1.00  0.00     0.245 HD
ENDBRANCH  11  22
TORSDOF 3
ENDMDL
MODEL 2
REMARK VINA RESULT: -8.894026731      0.044      1.031
REMARK  3 active torsions:
REMARK  status: ('A' for Active; 'I' for Inactive)
REMARK    1  A    between atoms: C4_6  and  C5_7 
REMARK    2  A    between atoms: N3_17  and  O1_18 
REMARK    3  A    between atoms: N4_21  and  O2_22 
ROOT
HETATM    1  N1  UNL     1      25.818  18.500  19.350  1.00  0.00    -0.190 NA
HETATM    2  C1  UNL     1      25.184  19.417  19.662  1.00  0.00     0.122 C 
HETATM    3  C2  UNL     1      24.414  20.579  20.033  1.00  0.00     0.169 A 
HETATM    4  C3  UNL     1      24.142  21.572  19.113  1.00  0.00     0.098 A 
HETATM    5  N2  UNL     1      24.618  21.449  17.786  1.00  0.00    -0.098 NA
HETATM    6  C4  UNL     1      23.401  22.698  19.443  1.00  0.00     0.015 A 
HETATM    7  C11 UNL     1      22.942  22.781  20.742  1.00  0.00     0.026 A 
HETATM    8  C12 UNL     1      22.194  23.872  21.145  1.00  0.00     0.018 A 
HETATM    9  C13 UNL     1      21.758  23.919  22.448  1.00  0.00     0.021 A 
HETATM   10  C14 UNL     1      22.078  22.884  23.300  1.00  0.00     0.125 A 
HETATM   11  N3  UNL     1      22.796  21.828  22.924  1.00  0.00    -0.216 N 
HETATM   12  C15 UNL     1      23.231  21.771  21.646  1.00  0.00     0.171 A 
HETATM   13  N4  UNL     1      23.953  20.695  21.289  1.00  0.00    -0.193 N 
ENDROOT
BRANCH  13  14
HETATM   14  O2  UNL     1      24.228  19.706  22.226  1.00  0.00    -0.280 OA
ATOM     15  H2  UNL     1      23.940  19.808  23.126  1.00  0.00     0.245 HD
ENDBRANCH  13  14
BRANCH   6  16
HETATM   16  C5  UNL     1      23.151  23.748  18.466  1.00  0.00    -0.023 A 
HETATM   17  C6  UNL     1      22.253  23.574  17.442  1.00  0.00     0.012 A 
HETATM   18  C7  UNL     1      22.045  24.564  16.518  1.00  0.00     0.001 A 
HETATM   19  C8  UNL     1      22.717  25.778  16.557  1.00  0.00     0.000 A 
HETATM   20  C9  UNL     1      23.620  25.963  17.578  1.00  0.00     0.001 A 
HETATM   21  C10 UNL     1      23.828  24.974  18.505  1.00  0.00     0.012 A 
ENDBRANCH   6  16
BRANCH  11  22
HETATM   22  O1  UNL     1      23.109  20.797  23.809  1.00  0.00    -0.281 OA
ATOM     23  H1  UNL     1      23.527  19.995  23.518  1.00  0.00     0.245 HD
ENDBRANCH  11  22
TORSDOF 3
ENDMDL
MODEL 3
REMARK VINA RESULT: -8.550742652      1.236      3.657
REMARK  3 active torsions:
REMARK  status: ('A' for Active; 'I' for Inactive)
REMARK    1  A    between atoms: C4_6  and  C5_7 
REMARK    2  A    between atoms: N3_17  and  O1_18 
REMARK    3  A    between atoms: N4_21  and  O2_22 
ROOT
HETATM    1  N1  UNL     1      20.990  23.853  24.419  1.00  0.00    -0.190 NA
HETATM    2  C1  UNL     1      21.558  23.458  23.491  1.00  0.00     0.122 C 
HETATM    3  C2  UNL     1      22.241  22.976  22.314  1.00  0.00     0.169 A 
HETATM    4  C3  UNL     1      22.205  23.688  21.132  1.00  0.00     0.098 A 
HETATM    5  N2  UNL     1      21.496  24.911  21.071  1.00  0.00    -0.098 NA
HETATM    6  C4  UNL     1      22.856  23.249  19.988  1.00  0.00     0.015 A 
HETATM    7  C11 UNL     1      23.547  22.058  20.085  1.00  0.00     0.026 A 
HETATM    8  C12 UNL     1      24.223  21.558  18.989  1.00  0.00     0.018 A 
HETATM    9  C13 UNL     1      24.899  20.367  19.126  1.00  0.00     0.021 A 
HETATM   10  C14 UNL     1      24.879  19.722  20.343  1.00  0.00     0.125 A 
HETATM   11  N3  UNL     1      24.233  20.194  21.407  1.00  0.00    -0.216 N 
HETATM   12  C15 UNL     1      23.565  21.362  21.284  1.00  0.00     0.171 A 
HETATM   13  N4  UNL     1      22.922  21.820  22.372  1.00  0.00    -0.193 N 
ENDROOT
BRANCH  13  14
HETATM   14  O2  UNL     1      22.958  21.090  23.554  1.00  0.00    -0.280 OA
ATOM     15  H2  UNL     1      22.881  21.534  24.391  1.00  0.00     0.245 HD
ENDBRANCH  13  14
BRANCH   6  16
HETATM   16  C5  UNL     1      22.781  24.000  18.744  1.00  0.00    -0.023 A 
HETATM   17  C6  UNL     1      23.467  25.177  18.575  1.00  0.00     0.012 A 
HETATM   18  C7  UNL     1      23.369  25.883  17.405  1.00  0.00     0.001 A 
HETATM   19  C8  UNL     1      22.584  25.462  16.340  1.00  0.00     0.000 A 
HETATM   20  C9  UNL     1      21.891  24.284  16.498  1.00  0.00     0.001 A 
HETATM   21  C10 UNL     1      21.989  23.575  17.667  1.00  0.00     0.012 A 
ENDBRANCH   6  16
BRANCH  11  22
HETATM   22  O1  UNL     1      24.227  19.517  22.626  1.00  0.00    -0.281 OA
ATOM     23  H1  UNL     1      24.498  19.936  23.434  1.00  0.00     0.245 HD
ENDBRANCH  11  22
TORSDOF 3
ENDMDL
MODEL 4
REMARK VINA RESULT: -8.504958289      1.239      3.801
REMARK  3 active torsions:
REMARK  status: ('A' for Active; 'I' for Inactive)
REMARK    1  A    between atoms: C4_6  and  C5_7 
REMARK    2  A    between atoms: N3_17  and  O1_18 
REMARK    3  A    between atoms: N4_21  and  O2_22 
ROOT
HETATM    1  N1  UNL     1      20.952  23.843  24.423  1.00  0.00    -0.190 NA
HETATM    2  C1  UNL     1      21.522  23.452  23.495  1.00  0.00     0.122 C 
HETATM    3  C2  UNL     1      22.209  22.975  22.319  1.00  0.00     0.169 A 
HETATM    4  C3  UNL     1      22.166  23.685  21.136  1.00  0.00     0.098 A 
HETATM    5  N2  UNL     1      21.446  24.901  21.073  1.00  0.00    -0.098 NA
HETATM    6  C4  UNL     1      22.820  23.249  19.992  1.00  0.00     0.015 A 
HETATM    7  C11 UNL     1      23.522  22.066  20.090  1.00  0.00     0.026 A 
HETATM    8  C12 UNL     1      24.202  21.570  18.994  1.00  0.00     0.018 A 
HETATM    9  C13 UNL     1      24.888  20.385  19.132  1.00  0.00     0.021 A 
HETATM   10  C14 UNL     1      24.876  19.741  20.350  1.00  0.00     0.125 A 
HETATM   11  N3  UNL     1      24.226  20.209  21.414  1.00  0.00    -0.216 N 
HETATM   12  C15 UNL     1      23.547  21.371  21.290  1.00  0.00     0.171 A 
HETATM   13  N4  UNL     1      22.901  21.825  22.377  1.00  0.00    -0.193 N 
ENDROOT
BRANCH  13  14
HETATM   14  O2  UNL     1      22.944  21.097  23.560  1.00  0.00    -0.280 OA
ATOM     15  H2  UNL     1      22.414  20.314  23.658  1.00  0.00     0.245 HD
ENDBRANCH  13  14
BRANCH   6  16
HETATM   16  C5  UNL     1      22.737  23.999  18.746  1.00  0.00    -0.023 A 
HETATM   17  C6  UNL     1      21.982  23.551  17.690  1.00  0.00     0.012 A 
HETATM   18  C7  UNL     1      21.931  24.257  16.517  1.00  0.00     0.001 A 
HETATM   19  C8  UNL     1      22.627  25.444  16.328  1.00  0.00     0.000 A 
HETATM   20  C9  UNL     1      23.386  25.902  17.378  1.00  0.00     0.001 A 
HETATM   21  C10 UNL     1      23.438  25.197  18.554  1.00  0.00     0.012 A 
ENDBRANCH   6  16
BRANCH  11  22
HETATM   22  O1  UNL     1      24.226  19.534  22.633  1.00  0.00    -0.281 OA
ATOM     23  H1  UNL     1      24.696  18.717  22.755  1.00  0.00     0.245 HD
ENDBRANCH  11  22
TORSDOF 3
ENDMDL
MODEL 5
REMARK VINA RESULT: -7.629621359      2.232      2.306
REMARK  3 active torsions:
REMARK  status: ('A' for Active; 'I' for Inactive)
REMARK    1  A    between atoms: C4_6  and  C5_7 
REMARK    2  A    between atoms: N3_17  and  O1_18 
REMARK    3  A    between atoms: N4_21  and  O2_22 
ROOT
HETATM    1  N1  UNL     1      26.600  18.443  19.312  1.00  0.00    -0.190 NA
HETATM    2  C1  UNL     1      25.612  19.046  19.302  1.00  0.00     0.122 C 
HETATM    3  C2  UNL     1      24.397  19.825  19.297  1.00  0.00     0.169 A 
HETATM    4  C3  UNL     1      24.370  21.090  18.747  1.00  0.00     0.098 A 
HETATM    5  N2  UNL     1      25.544  21.632  18.173  1.00  0.00    -0.098 NA
HETATM    6  C4  UNL     1      23.214  21.859  18.726  1.00  0.00     0.015 A 
HETATM    7  C11 UNL     1      22.084  21.296  19.283  1.00  0.00     0.026 A 
HETATM    8  C12 UNL     1      20.894  21.999  19.297  1.00  0.00     0.018 A 
HETATM    9  C13 UNL     1      19.791  21.404  19.863  1.00  0.00     0.021 A 
HETATM   10  C14 UNL     1      19.909  20.138  20.392  1.00  0.00     0.125 A 
HETATM   11  N3  UNL     1      21.049  19.449  20.384  1.00  0.00    -0.216 N 
HETATM   12  C15 UNL     1      22.140  20.024  19.831  1.00  0.00     0.171 A 
HETATM   13  N4  UNL     1      23.279  19.310  19.832  1.00  0.00    -0.193 N 
ENDROOT
BRANCH  13  14
HETATM   14  O2  UNL     1      23.297  18.040  20.397  1.00  0.00    -0.280 OA
ATOM     15  H2  UNL     1      22.550  17.730  20.897  1.00  0.00     0.245 HD
ENDBRANCH  13  14
BRANCH   6  16
HETATM   16  C5  UNL     1      23.214  23.203  18.167  1.00  0.00    -0.023 A 
HETATM   17  C6  UNL     1      23.818  24.250  18.820  1.00  0.00     0.012 A 
HETATM   18  C7  UNL     1      23.791  25.513  18.291  1.00  0.00     0.001 A 
HETATM   19  C8  UNL     1      23.163  25.808  17.088  1.00  0.00     0.000 A 
HETATM   20  C9  UNL     1      22.555  24.767  16.425  1.00  0.00     0.001 A 
HETATM   21  C10 UNL     1      22.581  23.502  16.953  1.00  0.00     0.012 A 
ENDBRANCH   6  16
BRANCH  11  22
HETATM   22  O1  UNL     1      21.141  18.170  20.930  1.00  0.00    -0.281 OA
ATOM     23  H1  UNL     1      20.445  17.531  20.833  1.00  0.00     0.245 HD
ENDBRANCH  11  22
TORSDOF 3
ENDMDL
