MODEL 1
REMARK VINA RESULT: -7.043073138      0.000      0.000
REMARK  10 active torsions:
REMARK  status: ('A' for Active; 'I' for Inactive)
REMARK    1  A    between atoms: S1_2  and  O3_4 
REMARK    2  A    between atoms: S1_2  and  N1_24 
REMARK    3  A    between atoms: O3_4  and  C1_5 
REMARK    4  A    between atoms: C1_5  and  C2_6 
REMARK    5  A    between atoms: C5_9  and  C6_10 
REMARK    6  A    between atoms: C6_10  and  O4_11 
REMARK    7  A    between atoms: C11_18  and  O5_19 
REMARK    8  A    between atoms: C11_18  and  C12_21 
REMARK    9  A    between atoms: C12_21  and  O6_22 
REMARK   10  A    between atoms: C15_27  and  C16_28 
ROOT
HETATM    1  C2  UNL     1      21.733  38.154  -6.569  1.00  0.00     0.021 C 
HETATM    2  C3  UNL     1      21.102  37.464  -5.381  1.00  0.00     0.042 C 
HETATM    3  C4  UNL     1      22.111  36.745  -4.592  1.00  0.00    -0.020 C 
HETATM    4  C5  UNL     1      23.415  36.848  -4.761  1.00  0.00    -0.053 C 
HETATM    5  C7  UNL     1      24.021  37.714  -5.782  1.00  0.00     0.055 C 
HETATM    6  C8  UNL     1      24.371  36.953  -7.042  1.00  0.00     0.032 C 
HETATM    7  C9  UNL     1      23.105  36.208  -7.435  1.00  0.00     0.084 C 
HETATM    8 CL1  UNL     1      23.476  35.425  -9.014  1.00  0.00    -0.125 Cl
HETATM    9  C10 UNL     1      21.966  37.129  -7.661  1.00  0.00     0.035 C 
HETATM   10  C11 UNL     1      23.017  38.785  -6.195  1.00  0.00     0.096 C 
ENDROOT
BRANCH   1  11
HETATM   11  C1  UNL     1      20.809  39.180  -7.176  1.00  0.00     0.205 C 
BRANCH  11  12
HETATM   12  O3  UNL     1      19.712  39.501  -6.425  1.00  0.00    -0.258 OA
BRANCH  12  13
HETATM   13  S1  UNL     1      19.522  41.126  -6.190  1.00  0.00     0.366 S 
HETATM   14  O1  UNL     1      20.741  41.832  -6.726  1.00  0.00    -0.175 OA
HETATM   15  O2  UNL     1      18.331  41.590  -7.019  1.00  0.00    -0.175 OA
BRANCH  13  16
HETATM   16  N1  UNL     1      19.257  41.591  -4.589  1.00  0.00    -0.247 N 
HETATM   17  C13 UNL     1      19.687  40.741  -3.573  1.00  0.00     0.084 C 
HETATM   18  C14 UNL     1      20.440  41.385  -2.444  1.00  0.00     0.055 C 
HETATM   19  C15 UNL     1      19.514  42.523  -1.931  1.00  0.00     0.018 C 
HETATM   20  C18 UNL     1      19.490  43.506  -3.022  1.00  0.00     0.055 C 
HETATM   21  C19 UNL     1      18.967  42.925  -4.330  1.00  0.00     0.084 C 
BRANCH  19  22
HETATM   22  C16 UNL     1      19.939  42.985  -0.626  1.00  0.00    -0.014 C 
HETATM   23  C17 UNL     1      19.339  43.678   0.279  1.00  0.00     0.052 C 
HETATM   24 BR1  UNL     1      17.588  44.371   0.212  1.00  0.00    -0.064 Br
ENDBRANCH  19  22
ENDBRANCH  13  16
ENDBRANCH  12  13
ENDBRANCH  11  12
ENDBRANCH   1  11
BRANCH  10  25
HETATM   25  O5  UNL     1      23.602  39.409  -7.316  1.00  0.00    -0.386 OA
ATOM     26  H5  UNL     1      23.850  40.302  -7.106  1.00  0.00     0.210 HD
ENDBRANCH  10  25
BRANCH  10  27
HETATM   27  C12 UNL     1      22.987  39.790  -5.097  1.00  0.00     0.203 C 
BRANCH  27  28
HETATM   28  O6  UNL     1      23.267  41.042  -5.713  1.00  0.00    -0.398 OA
ATOM     29  H6  UNL     1      23.266  41.680  -5.009  1.00  0.00     0.209 HD
ENDBRANCH  27  28
ENDBRANCH  10  27
BRANCH   4  30
HETATM   30  C6  UNL     1      24.350  36.056  -3.886  1.00  0.00     0.198 C 
BRANCH  30  31
HETATM   31  O4  UNL     1      24.760  36.786  -2.788  1.00  0.00    -0.397 OA
ATOM     32  H4  UNL     1      25.703  36.758  -2.681  1.00  0.00     0.209 HD
ENDBRANCH  30  31
ENDBRANCH   4  30
TORSDOF 10
ENDMDL
MODEL 2
REMARK VINA RESULT: -7.037409586      0.933      1.288
REMARK  10 active torsions:
REMARK  status: ('A' for Active; 'I' for Inactive)
REMARK    1  A    between atoms: S1_2  and  O3_4 
REMARK    2  A    between atoms: S1_2  and  N1_24 
REMARK    3  A    between atoms: O3_4  and  C1_5 
REMARK    4  A    between atoms: C1_5  and  C2_6 
REMARK    5  A    between atoms: C5_9  and  C6_10 
REMARK    6  A    between atoms: C6_10  and  O4_11 
REMARK    7  A    between atoms: C11_18  and  O5_19 
REMARK    8  A    between atoms: C11_18  and  C12_21 
REMARK    9  A    between atoms: C12_21  and  O6_22 
REMARK   10  A    between atoms: C15_27  and  C16_28 
ROOT
HETATM    1  C2  UNL     1      21.717  38.157  -6.401  1.00  0.00     0.021 C 
HETATM    2  C3  UNL     1      21.180  37.467  -5.167  1.00  0.00     0.042 C 
HETATM    3  C4  UNL     1      22.244  36.734  -4.468  1.00  0.00    -0.020 C 
HETATM    4  C5  UNL     1      23.530  36.825  -4.745  1.00  0.00    -0.053 C 
HETATM    5  C7  UNL     1      24.058  37.691  -5.810  1.00  0.00     0.055 C 
HETATM    6  C8  UNL     1      24.294  36.932  -7.097  1.00  0.00     0.032 C 
HETATM    7  C9  UNL     1      22.992  36.202  -7.386  1.00  0.00     0.084 C 
HETATM    8 CL1  UNL     1      23.221  35.423  -8.994  1.00  0.00    -0.125 Cl
HETATM    9  C10 UNL     1      21.847  37.135  -7.513  1.00  0.00     0.035 C 
HETATM   10  C11 UNL     1      23.034  38.774  -6.133  1.00  0.00     0.096 C 
ENDROOT
BRANCH   1  11
HETATM   11  C1  UNL     1      20.755  39.195  -6.924  1.00  0.00     0.205 C 
BRANCH  11  12
HETATM   12  O3  UNL     1      19.826  39.642  -6.026  1.00  0.00    -0.258 OA
BRANCH  12  13
HETATM   13  S1  UNL     1      19.754  41.289  -5.910  1.00  0.00     0.366 S 
HETATM   14  O1  UNL     1      20.745  41.879  -6.881  1.00  0.00    -0.175 OA
HETATM   15  O2  UNL     1      18.367  41.737  -6.351  1.00  0.00    -0.175 OA
BRANCH  13  16
HETATM   16  N1  UNL     1      20.036  41.910  -4.366  1.00  0.00    -0.247 N 
HETATM   17  C13 UNL     1      19.782  43.261  -4.139  1.00  0.00     0.084 C 
HETATM   18  C14 UNL     1      19.007  43.589  -2.894  1.00  0.00     0.055 C 
HETATM   19  C15 UNL     1      19.793  42.917  -1.734  1.00  0.00     0.018 C 
HETATM   20  C18 UNL     1      19.623  41.474  -1.954  1.00  0.00     0.055 C 
HETATM   21  C19 UNL     1      20.152  41.017  -3.308  1.00  0.00     0.084 C 
BRANCH  19  22
HETATM   22  C16 UNL     1      19.377  43.449  -0.453  1.00  0.00    -0.014 C 
HETATM   23  C17 UNL     1      19.815  43.254   0.743  1.00  0.00     0.052 C 
HETATM   24 BR1  UNL     1      21.238  42.137   1.270  1.00  0.00    -0.064 Br
ENDBRANCH  19  22
ENDBRANCH  13  16
ENDBRANCH  12  13
ENDBRANCH  11  12
ENDBRANCH   1  11
BRANCH  10  25
HETATM   25  O5  UNL     1      23.530  39.397  -7.296  1.00  0.00    -0.386 OA
ATOM     26  H5  UNL     1      23.773  40.297  -7.111  1.00  0.00     0.210 HD
ENDBRANCH  10  25
BRANCH  10  27
HETATM   27  C12 UNL     1      23.106  39.773  -5.032  1.00  0.00     0.203 C 
BRANCH  27  28
HETATM   28  O6  UNL     1      23.303  41.032  -5.667  1.00  0.00    -0.398 OA
ATOM     29  H6  UNL     1      22.642  41.083  -6.347  1.00  0.00     0.209 HD
ENDBRANCH  27  28
ENDBRANCH  10  27
BRANCH   4  30
HETATM   30  C6  UNL     1      24.527  36.020  -3.955  1.00  0.00     0.198 C 
BRANCH  30  31
HETATM   31  O4  UNL     1      24.820  36.618  -2.745  1.00  0.00    -0.397 OA
ATOM     32  H4  UNL     1      24.275  36.280  -2.045  1.00  0.00     0.209 HD
ENDBRANCH  30  31
ENDBRANCH   4  30
TORSDOF 10
ENDMDL
MODEL 3
REMARK VINA RESULT: -6.993045959      4.755      7.058
REMARK  10 active torsions:
REMARK  status: ('A' for Active; 'I' for Inactive)
REMARK    1  A    between atoms: S1_2  and  O3_4 
REMARK    2  A    between atoms: S1_2  and  N1_24 
REMARK    3  A    between atoms: O3_4  and  C1_5 
REMARK    4  A    between atoms: C1_5  and  C2_6 
REMARK    5  A    between atoms: C5_9  and  C6_10 
REMARK    6  A    between atoms: C6_10  and  O4_11 
REMARK    7  A    between atoms: C11_18  and  O5_19 
REMARK    8  A    between atoms: C11_18  and  C12_21 
REMARK    9  A    between atoms: C12_21  and  O6_22 
REMARK   10  A    between atoms: C15_27  and  C16_28 
ROOT
HETATM    1  C2  UNL     1      21.746  38.107  -6.554  1.00  0.00     0.021 C 
HETATM    2  C3  UNL     1      21.128  37.398  -5.370  1.00  0.00     0.042 C 
HETATM    3  C4  UNL     1      22.152  36.706  -4.576  1.00  0.00    -0.020 C 
HETATM    4  C5  UNL     1      23.454  36.845  -4.738  1.00  0.00    -0.053 C 
HETATM    5  C7  UNL     1      24.041  37.729  -5.755  1.00  0.00     0.055 C 
HETATM    6  C8  UNL     1      24.419  36.979  -7.014  1.00  0.00     0.032 C 
HETATM    7  C9  UNL     1      23.176  36.200  -7.415  1.00  0.00     0.084 C 
HETATM    8 CL1  UNL     1      23.577  35.429  -8.992  1.00  0.00    -0.125 Cl
HETATM    9  C10 UNL     1      22.013  37.090  -7.646  1.00  0.00     0.035 C 
HETATM   10  C11 UNL     1      23.010  38.773  -6.172  1.00  0.00     0.096 C 
ENDROOT
BRANCH   1  11
HETATM   11  C1  UNL     1      20.797  39.108  -7.164  1.00  0.00     0.205 C 
BRANCH  11  12
HETATM   12  O3  UNL     1      21.206  39.662  -8.345  1.00  0.00    -0.258 OA
BRANCH  12  13
HETATM   13  S1  UNL     1      19.965  40.011  -9.379  1.00  0.00     0.366 S 
HETATM   14  O1  UNL     1      18.673  39.569  -8.740  1.00  0.00    -0.175 OA
HETATM   15  O2  UNL     1      19.893  41.524  -9.543  1.00  0.00    -0.175 OA
BRANCH  13  16
HETATM   16  N1  UNL     1      20.099  39.326 -10.916  1.00  0.00    -0.247 N 
HETATM   17  C13 UNL     1      20.782  38.118 -11.044  1.00  0.00     0.084 C 
HETATM   18  C14 UNL     1      20.109  37.061 -11.873  1.00  0.00     0.055 C 
HETATM   19  C15 UNL     1      19.814  37.740 -13.240  1.00  0.00     0.018 C 
HETATM   20  C18 UNL     1      18.784  38.745 -12.943  1.00  0.00     0.055 C 
HETATM   21  C19 UNL     1      19.240  39.771 -11.913  1.00  0.00     0.084 C 
BRANCH  19  22
HETATM   22  C16 UNL     1      19.506  36.749 -14.251  1.00  0.00    -0.014 C 
HETATM   23  C17 UNL     1      19.490  36.810 -15.538  1.00  0.00     0.052 C 
HETATM   24 BR1  UNL     1      19.886  38.304 -16.615  1.00  0.00    -0.064 Br
ENDBRANCH  19  22
ENDBRANCH  13  16
ENDBRANCH  12  13
ENDBRANCH  11  12
ENDBRANCH   1  11
BRANCH  10  25
HETATM   25  O5  UNL     1      23.584  39.413  -7.289  1.00  0.00    -0.386 OA
ATOM     26  H5  UNL     1      24.332  39.936  -7.023  1.00  0.00     0.210 HD
ENDBRANCH  10  25
BRANCH  10  27
HETATM   27  C12 UNL     1      22.947  39.774  -5.074  1.00  0.00     0.203 C 
BRANCH  27  28
HETATM   28  O6  UNL     1      23.168  41.038  -5.691  1.00  0.00    -0.398 OA
ATOM     29  H6  UNL     1      23.535  41.594  -5.013  1.00  0.00     0.209 HD
ENDBRANCH  27  28
ENDBRANCH  10  27
BRANCH   4  30
HETATM   30  C6  UNL     1      24.405  36.078  -3.859  1.00  0.00     0.198 C 
BRANCH  30  31
HETATM   31  O4  UNL     1      24.917  36.870  -2.850  1.00  0.00    -0.397 OA
ATOM     32  H4  UNL     1      25.866  36.865  -2.848  1.00  0.00     0.209 HD
ENDBRANCH  30  31
ENDBRANCH   4  30
TORSDOF 10
ENDMDL
MODEL 4
REMARK VINA RESULT: -6.986481488      4.632      7.837
REMARK  10 active torsions:
REMARK  status: ('A' for Active; 'I' for Inactive)
REMARK    1  A    between atoms: S1_2  and  O3_4 
REMARK    2  A    between atoms: S1_2  and  N1_24 
REMARK    3  A    between atoms: O3_4  and  C1_5 
REMARK    4  A    between atoms: C1_5  and  C2_6 
REMARK    5  A    between atoms: C5_9  and  C6_10 
REMARK    6  A    between atoms: C6_10  and  O4_11 
REMARK    7  A    between atoms: C11_18  and  O5_19 
REMARK    8  A    between atoms: C11_18  and  C12_21 
REMARK    9  A    between atoms: C12_21  and  O6_22 
REMARK   10  A    between atoms: C15_27  and  C16_28 
ROOT
HETATM    1  C2  UNL     1      22.712  39.021  -5.398  1.00  0.00     0.021 C 
HETATM    2  C3  UNL     1      23.275  39.777  -4.215  1.00  0.00     0.042 C 
HETATM    3  C4  UNL     1      22.208  40.453  -3.465  1.00  0.00    -0.020 C 
HETATM    4  C5  UNL     1      20.916  40.267  -3.657  1.00  0.00    -0.053 C 
HETATM    5  C7  UNL     1      20.385  39.341  -4.668  1.00  0.00     0.055 C 
HETATM    6  C8  UNL     1      20.017  40.049  -5.953  1.00  0.00     0.032 C 
HETATM    7  C9  UNL     1      21.244  40.860  -6.340  1.00  0.00     0.084 C 
HETATM    8 CL1  UNL     1      20.860  41.581  -7.944  1.00  0.00    -0.125 Cl
HETATM    9  C10 UNL     1      22.441  40.004  -6.520  1.00  0.00     0.035 C 
HETATM   10  C11 UNL     1      21.460  38.323  -5.034  1.00  0.00     0.096 C 
ENDROOT
BRANCH   1  11
HETATM   11  C1  UNL     1      23.709  38.039  -5.960  1.00  0.00     0.205 C 
BRANCH  11  12
HETATM   12  O3  UNL     1      23.693  37.897  -7.319  1.00  0.00    -0.258 OA
BRANCH  12  13
HETATM   13  S1  UNL     1      23.644  36.323  -7.822  1.00  0.00     0.366 S 
HETATM   14  O1  UNL     1      25.046  35.888  -8.164  1.00  0.00    -0.175 OA
HETATM   15  O2  UNL     1      23.177  35.465  -6.653  1.00  0.00    -0.175 OA
BRANCH  13  16
HETATM   16  N1  UNL     1      22.623  36.021  -9.132  1.00  0.00    -0.247 N 
HETATM   17  C13 UNL     1      21.433  36.741  -9.223  1.00  0.00     0.084 C 
HETATM   18  C14 UNL     1      21.117  37.330 -10.569  1.00  0.00     0.055 C 
HETATM   19  C15 UNL     1      21.182  36.137 -11.563  1.00  0.00     0.018 C 
HETATM   20  C18 UNL     1      22.602  35.762 -11.603  1.00  0.00     0.055 C 
HETATM   21  C19 UNL     1      23.147  35.363 -10.237  1.00  0.00     0.084 C 
BRANCH  19  22
HETATM   22  C16 UNL     1      20.547  36.478 -12.819  1.00  0.00    -0.014 C 
HETATM   23  C17 UNL     1      20.867  37.315 -13.746  1.00  0.00     0.052 C 
HETATM   24 BR1  UNL     1      22.366  38.455 -13.787  1.00  0.00    -0.064 Br
ENDBRANCH  19  22
ENDBRANCH  13  16
ENDBRANCH  12  13
ENDBRANCH  11  12
ENDBRANCH   1  11
BRANCH  10  25
HETATM   25  O5  UNL     1      20.938  37.638  -6.149  1.00  0.00    -0.386 OA
ATOM     26  H5  UNL     1      20.459  38.237  -6.711  1.00  0.00     0.210 HD
ENDBRANCH  10  25
BRANCH  10  27
HETATM   27  C12 UNL     1      21.528  37.349  -3.910  1.00  0.00     0.203 C 
BRANCH  27  28
HETATM   28  O6  UNL     1      21.632  36.066  -4.518  1.00  0.00    -0.398 OA
ATOM     29  H6  UNL     1      21.609  35.440  -3.804  1.00  0.00     0.209 HD
ENDBRANCH  27  28
ENDBRANCH  10  27
BRANCH   4  30
HETATM   30  C6  UNL     1      19.918  41.021  -2.821  1.00  0.00     0.198 C 
BRANCH  30  31
HETATM   31  O4  UNL     1      19.182  40.172  -2.017  1.00  0.00    -0.397 OA
ATOM     32  H4  UNL     1      18.472  40.629  -1.582  1.00  0.00     0.209 HD
ENDBRANCH  30  31
ENDBRANCH   4  30
TORSDOF 10
ENDMDL
MODEL 5
REMARK VINA RESULT: -6.985795653      3.540      6.961
REMARK  10 active torsions:
REMARK  status: ('A' for Active; 'I' for Inactive)
REMARK    1  A    between atoms: S1_2  and  O3_4 
REMARK    2  A    between atoms: S1_2  and  N1_24 
REMARK    3  A    between atoms: O3_4  and  C1_5 
REMARK    4  A    between atoms: C1_5  and  C2_6 
REMARK    5  A    between atoms: C5_9  and  C6_10 
REMARK    6  A    between atoms: C6_10  and  O4_11 
REMARK    7  A    between atoms: C11_18  and  O5_19 
REMARK    8  A    between atoms: C11_18  and  C12_21 
REMARK    9  A    between atoms: C12_21  and  O6_22 
REMARK   10  A    between atoms: C15_27  and  C16_28 
ROOT
HETATM    1  C2  UNL     1      18.852  41.716  -6.461  1.00  0.00     0.021 C 
HETATM    2  C3  UNL     1      17.518  42.392  -6.238  1.00  0.00     0.042 C 
HETATM    3  C4  UNL     1      17.556  43.253  -5.049  1.00  0.00    -0.020 C 
HETATM    4  C5  UNL     1      18.648  43.568  -4.380  1.00  0.00    -0.053 C 
HETATM    5  C7  UNL     1      19.984  43.081  -4.757  1.00  0.00     0.055 C 
HETATM    6  C8  UNL     1      20.390  41.859  -3.963  1.00  0.00     0.032 C 
HETATM    7  C9  UNL     1      19.237  40.879  -4.101  1.00  0.00     0.084 C 
HETATM    8 CL1  UNL     1      19.785  39.370  -3.285  1.00  0.00    -0.125 Cl
HETATM    9  C10 UNL     1      18.965  40.535  -5.517  1.00  0.00     0.035 C 
HETATM   10  C11 UNL     1      19.969  42.655  -6.221  1.00  0.00     0.096 C 
ENDROOT
BRANCH   1  11
HETATM   11  C1  UNL     1      18.957  41.129  -7.847  1.00  0.00     0.205 C 
BRANCH  11  12
HETATM   12  O3  UNL     1      19.021  39.765  -7.906  1.00  0.00    -0.258 OA
BRANCH  12  13
HETATM   13  S1  UNL     1      20.400  39.196  -8.617  1.00  0.00     0.366 S 
HETATM   14  O1  UNL     1      20.016  38.435  -9.861  1.00  0.00    -0.175 OA
HETATM   15  O2  UNL     1      21.237  40.390  -9.057  1.00  0.00    -0.175 OA
BRANCH  13  16
HETATM   16  N1  UNL     1      21.362  38.220  -7.632  1.00  0.00    -0.247 N 
HETATM   17  C13 UNL     1      21.533  36.883  -7.987  1.00  0.00     0.084 C 
HETATM   18  C14 UNL     1      22.941  36.360  -7.944  1.00  0.00     0.055 C 
HETATM   19  C15 UNL     1      23.450  36.676  -6.510  1.00  0.00     0.018 C 
HETATM   20  C18 UNL     1      23.556  38.141  -6.465  1.00  0.00     0.055 C 
HETATM   21  C19 UNL     1      22.228  38.837  -6.737  1.00  0.00     0.084 C 
BRANCH  19  22
HETATM   22  C16 UNL     1      24.644  35.912  -6.208  1.00  0.00    -0.014 C 
HETATM   23  C17 UNL     1      25.348  35.807  -5.134  1.00  0.00     0.052 C 
HETATM   24 BR1  UNL     1      25.050  36.666  -3.484  1.00  0.00    -0.064 Br
ENDBRANCH  19  22
ENDBRANCH  13  16
ENDBRANCH  12  13
ENDBRANCH  11  12
ENDBRANCH   1  11
BRANCH  10  25
HETATM   25  O5  UNL     1      21.206  42.006  -6.415  1.00  0.00    -0.386 OA
ATOM     26  H5  UNL     1      21.712  42.452  -7.085  1.00  0.00     0.210 HD
ENDBRANCH  10  25
BRANCH  10  27
HETATM   27  C12 UNL     1      19.994  43.903  -7.031  1.00  0.00     0.203 C 
BRANCH  27  28
HETATM   28  O6  UNL     1      21.182  44.587  -6.648  1.00  0.00    -0.398 OA
ATOM     29  H6  UNL     1      20.976  45.513  -6.706  1.00  0.00     0.209 HD
ENDBRANCH  27  28
ENDBRANCH  10  27
BRANCH   4  30
HETATM   30  C6  UNL     1      18.557  44.463  -3.173  1.00  0.00     0.198 C 
BRANCH  30  31
HETATM   31  O4  UNL     1      18.153  43.766  -2.051  1.00  0.00    -0.397 OA
ATOM     32  H4  UNL     1      17.562  43.057  -2.273  1.00  0.00     0.209 HD
ENDBRANCH  30  31
ENDBRANCH   4  30
TORSDOF 10
ENDMDL
