MODEL 1
REMARK VINA RESULT: -7.740375304      0.000      0.000
REMARK  8 active torsions:
REMARK  status: ('A' for Active; 'I' for Inactive)
REMARK    1  A    between atoms: C1_2  and  C2_4 
REMARK       I    between atoms: N2_8  and  C6_9 
REMARK       I    between atoms: C6_9  and  N3_11 
REMARK    2  A    between atoms: N3_11  and  C7_12 
REMARK    3  A    between atoms: N3_11  and  C15_28 
REMARK    4  A    between atoms: C7_12  and  C8_13 
REMARK    5  A    between atoms: C10_15  and  C11_16 
REMARK    6  A    between atoms: C11_16  and  O3_17 
REMARK    7  A    between atoms: C12_19  and  S1_20 
REMARK    8  A    between atoms: C15_28  and  C16_29 
ROOT
HETATM    1  C2  UNL     1      24.612  35.471  -4.132  1.00  0.00     0.178 C 
HETATM    2  C3  UNL     1      25.660  34.587  -4.760  1.00  0.00     0.036 C 
HETATM    3  C4  UNL     1      26.095  35.409  -5.964  1.00  0.00     0.022 C 
HETATM    4  C5  UNL     1      24.811  36.028  -6.396  1.00  0.00     0.129 C 
HETATM    5  N2  UNL     1      23.938  36.130  -5.272  1.00  0.00    -0.321 N 
HETATM    6  C6  UNL     1      22.660  36.705  -5.201  1.00  0.00     0.321 C 
HETATM    7  O2  UNL     1      22.093  36.585  -4.041  1.00  0.00    -0.247 OA
HETATM    8  N3  UNL     1      21.874  37.386  -6.152  1.00  0.00    -0.327 N 
ENDROOT
BRANCH   8   9
HETATM    9  C7  UNL     1      20.521  37.809  -5.753  1.00  0.00     0.168 C 
BRANCH   9  10
HETATM   10  C8  UNL     1      20.341  39.151  -5.299  1.00  0.00    -0.016 A 
HETATM   11  C9  UNL     1      20.572  39.597  -4.031  1.00  0.00     0.021 A 
HETATM   12  C10 UNL     1      20.315  40.881  -3.583  1.00  0.00    -0.008 A 
HETATM   13  C12 UNL     1      19.787  41.797  -4.463  1.00  0.00     0.112 A 
HETATM   14  C13 UNL     1      19.542  41.363  -5.763  1.00  0.00     0.081 A 
HETATM   15 CL1  UNL     1      18.866  42.502  -6.925  1.00  0.00    -0.081 Cl
HETATM   16  C14 UNL     1      19.805  40.082  -6.185  1.00  0.00     0.065 A 
HETATM   17 CL2  UNL     1      19.455  39.638  -7.863  1.00  0.00    -0.082 Cl
BRANCH  12  18
HETATM   18  C11 UNL     1      20.598  41.283  -2.170  1.00  0.00     0.204 C 
BRANCH  18  19
HETATM   19  O3  UNL     1      19.455  41.042  -1.378  1.00  0.00    -0.396 OA
ATOM     20  H3  UNL     1      19.342  41.758  -0.762  1.00  0.00     0.209 HD
ENDBRANCH  18  19
ENDBRANCH  12  18
BRANCH  13  21
HETATM   21  S1  UNL     1      19.420  43.446  -4.029  1.00  0.00     0.140 S 
HETATM   22  O4  UNL     1      19.706  43.597  -2.554  1.00  0.00    -0.591 OA
HETATM   23  O5  UNL     1      20.249  44.452  -4.735  1.00  0.00    -0.591 OA
HETATM   24  O6  UNL     1      17.757  43.724  -4.218  1.00  0.00    -0.591 OA
ENDBRANCH  13  21
ENDBRANCH   9  10
ENDBRANCH   8   9
BRANCH   8  25
HETATM   25  C15 UNL     1      22.230  37.627  -7.515  1.00  0.00     0.159 C 
BRANCH  25  26
HETATM   26  C16 UNL     1      21.836  36.687  -8.583  1.00  0.00     0.139 C 
HETATM   27  C17 UNL     1      21.033  37.380  -9.683  1.00  0.00     0.035 C 
HETATM   28  C18 UNL     1      21.178  36.357 -10.800  1.00  0.00     0.029 C 
HETATM   29  C19 UNL     1      22.589  35.860 -10.531  1.00  0.00     0.168 C 
HETATM   30  O7  UNL     1      22.814  35.977  -9.190  1.00  0.00    -0.384 OA
ENDBRANCH  25  26
ENDBRANCH   8  25
BRANCH   1  31
HETATM   31  C1  UNL     1      25.266  36.449  -3.263  1.00  0.00     0.254 C 
HETATM   32  N1  UNL     1      25.653  36.085  -1.960  1.00  0.00    -0.060 NA
HETATM   33  O1  UNL     1      25.486  37.609  -3.666  1.00  0.00    -0.275 OA
ENDBRANCH   1  31
TORSDOF 8
ENDMDL
MODEL 2
REMARK VINA RESULT: -7.720587622      1.495      1.761
REMARK  8 active torsions:
REMARK  status: ('A' for Active; 'I' for Inactive)
REMARK    1  A    between atoms: C1_2  and  C2_4 
REMARK       I    between atoms: N2_8  and  C6_9 
REMARK       I    between atoms: C6_9  and  N3_11 
REMARK    2  A    between atoms: N3_11  and  C7_12 
REMARK    3  A    between atoms: N3_11  and  C15_28 
REMARK    4  A    between atoms: C7_12  and  C8_13 
REMARK    5  A    between atoms: C10_15  and  C11_16 
REMARK    6  A    between atoms: C11_16  and  O3_17 
REMARK    7  A    between atoms: C12_19  and  S1_20 
REMARK    8  A    between atoms: C15_28  and  C16_29 
ROOT
HETATM    1  C2  UNL     1      23.702  36.358  -4.509  1.00  0.00     0.178 C 
HETATM    2  C3  UNL     1      24.652  35.547  -5.353  1.00  0.00     0.036 C 
HETATM    3  C4  UNL     1      25.078  36.551  -6.414  1.00  0.00     0.022 C 
HETATM    4  C5  UNL     1      23.817  37.311  -6.643  1.00  0.00     0.129 C 
HETATM    5  N2  UNL     1      23.014  37.253  -5.465  1.00  0.00    -0.321 N 
HETATM    6  C6  UNL     1      21.784  37.876  -5.208  1.00  0.00     0.321 C 
HETATM    7  O2  UNL     1      21.272  37.577  -4.056  1.00  0.00    -0.247 OA
HETATM    8  N3  UNL     1      20.996  38.765  -5.968  1.00  0.00    -0.327 N 
ENDROOT
BRANCH   8   9
HETATM    9  C7  UNL     1      19.698  39.184  -5.412  1.00  0.00     0.168 C 
BRANCH   9  10
HETATM   10  C8  UNL     1      19.636  40.419  -4.699  1.00  0.00    -0.016 A 
HETATM   11  C9  UNL     1      19.956  40.594  -3.385  1.00  0.00     0.021 A 
HETATM   12  C10 UNL     1      19.814  41.779  -2.684  1.00  0.00    -0.008 A 
HETATM   13  C12 UNL     1      19.314  42.880  -3.341  1.00  0.00     0.112 A 
HETATM   14  C13 UNL     1      18.981  42.725  -4.684  1.00  0.00     0.081 A 
HETATM   15 CL1  UNL     1      18.339  44.109  -5.565  1.00  0.00    -0.081 Cl
HETATM   16  C14 UNL     1      19.131  41.537  -5.358  1.00  0.00     0.065 A 
HETATM   17 CL2  UNL     1      18.675  41.452  -7.066  1.00  0.00    -0.082 Cl
BRANCH  12  18
HETATM   18  C11 UNL     1      20.188  41.879  -1.240  1.00  0.00     0.204 C 
BRANCH  18  19
HETATM   19  O3  UNL     1      19.122  41.400  -0.447  1.00  0.00    -0.396 OA
ATOM     20  H3  UNL     1      18.798  40.585  -0.814  1.00  0.00     0.209 HD
ENDBRANCH  18  19
ENDBRANCH  12  18
BRANCH  13  21
HETATM   21  S1  UNL     1      19.089  44.433  -2.578  1.00  0.00     0.140 S 
HETATM   22  O4  UNL     1      19.620  44.322  -1.169  1.00  0.00    -0.591 OA
HETATM   23  O5  UNL     1      19.828  45.537  -3.233  1.00  0.00    -0.591 OA
HETATM   24  O6  UNL     1      17.429  44.756  -2.433  1.00  0.00    -0.591 OA
ENDBRANCH  13  21
ENDBRANCH   9  10
ENDBRANCH   8   9
BRANCH   8  25
HETATM   25  C15 UNL     1      21.294  39.233  -7.285  1.00  0.00     0.159 C 
BRANCH  25  26
HETATM   26  C16 UNL     1      20.542  38.743  -8.457  1.00  0.00     0.139 C 
HETATM   27  C17 UNL     1      20.641  39.705  -9.639  1.00  0.00     0.035 C 
HETATM   28  C18 UNL     1      20.216  38.779 -10.769  1.00  0.00     0.029 C 
HETATM   29  C19 UNL     1      20.815  37.468 -10.285  1.00  0.00     0.168 C 
HETATM   30  O7  UNL     1      20.833  37.507  -8.921  1.00  0.00    -0.384 OA
ENDBRANCH  25  26
ENDBRANCH   8  25
BRANCH   1  31
HETATM   31  C1  UNL     1      24.466  37.119  -3.522  1.00  0.00     0.254 C 
HETATM   32  N1  UNL     1      25.397  36.465  -2.695  1.00  0.00    -0.060 NA
HETATM   33  O1  UNL     1      24.300  38.350  -3.404  1.00  0.00    -0.275 OA
ENDBRANCH   1  31
TORSDOF 8
ENDMDL
MODEL 3
REMARK VINA RESULT: -7.630542805      3.916      7.224
REMARK  8 active torsions:
REMARK  status: ('A' for Active; 'I' for Inactive)
REMARK    1  A    between atoms: C1_2  and  C2_4 
REMARK       I    between atoms: N2_8  and  C6_9 
REMARK       I    between atoms: C6_9  and  N3_11 
REMARK    2  A    between atoms: N3_11  and  C7_12 
REMARK    3  A    between atoms: N3_11  and  C15_28 
REMARK    4  A    between atoms: C7_12  and  C8_13 
REMARK    5  A    between atoms: C10_15  and  C11_16 
REMARK    6  A    between atoms: C11_16  and  O3_17 
REMARK    7  A    between atoms: C12_19  and  S1_20 
REMARK    8  A    between atoms: C15_28  and  C16_29 
ROOT
HETATM    1  C2  UNL     1      21.251  39.860  -4.418  1.00  0.00     0.178 C 
HETATM    2  C3  UNL     1      22.019  40.033  -3.132  1.00  0.00     0.036 C 
HETATM    3  C4  UNL     1      23.463  39.981  -3.609  1.00  0.00     0.022 C 
HETATM    4  C5  UNL     1      23.394  38.960  -4.691  1.00  0.00     0.129 C 
HETATM    5  N2  UNL     1      22.072  38.935  -5.228  1.00  0.00    -0.321 N 
HETATM    6  C6  UNL     1      21.573  38.179  -6.300  1.00  0.00     0.321 C 
HETATM    7  O2  UNL     1      20.303  38.336  -6.509  1.00  0.00    -0.247 OA
HETATM    8  N3  UNL     1      22.190  37.277  -7.192  1.00  0.00    -0.327 N 
ENDROOT
BRANCH   8   9
HETATM    9  C7  UNL     1      21.338  36.593  -8.179  1.00  0.00     0.168 C 
BRANCH   9  10
HETATM   10  C8  UNL     1      21.291  37.116  -9.507  1.00  0.00    -0.016 A 
HETATM   11  C9  UNL     1      20.597  38.223  -9.900  1.00  0.00     0.021 A 
HETATM   12  C10 UNL     1      20.493  38.672 -11.205  1.00  0.00    -0.008 A 
HETATM   13  C12 UNL     1      21.129  37.968 -12.201  1.00  0.00     0.112 A 
HETATM   14  C13 UNL     1      21.844  36.835 -11.823  1.00  0.00     0.081 A 
HETATM   15 CL1  UNL     1      22.676  35.902 -13.065  1.00  0.00    -0.081 Cl
HETATM   16  C14 UNL     1      21.933  36.407 -10.519  1.00  0.00     0.065 A 
HETATM   17 CL2  UNL     1      22.870  34.951 -10.152  1.00  0.00    -0.082 Cl
BRANCH  12  18
HETATM   18  C11 UNL     1      19.706  39.898 -11.545  1.00  0.00     0.204 C 
BRANCH  18  19
HETATM   19  O3  UNL     1      18.368  39.534 -11.814  1.00  0.00    -0.396 OA
ATOM     20  H3  UNL     1      17.900  40.286 -12.158  1.00  0.00     0.209 HD
ENDBRANCH  18  19
ENDBRANCH  12  18
BRANCH  13  21
HETATM   21  S1  UNL     1      21.082  38.428 -13.883  1.00  0.00     0.140 S 
HETATM   22  O4  UNL     1      20.602  37.227 -14.663  1.00  0.00    -0.591 OA
HETATM   23  O5  UNL     1      20.144  39.536 -14.176  1.00  0.00    -0.591 OA
HETATM   24  O6  UNL     1      22.657  38.746 -14.426  1.00  0.00    -0.591 OA
ENDBRANCH  13  21
ENDBRANCH   9  10
ENDBRANCH   8   9
BRANCH   8  25
HETATM   25  C15 UNL     1      23.564  36.886  -7.170  1.00  0.00     0.159 C 
BRANCH  25  26
HETATM   26  C16 UNL     1      23.997  35.663  -6.466  1.00  0.00     0.139 C 
HETATM   27  C17 UNL     1      24.989  34.850  -7.296  1.00  0.00     0.035 C 
HETATM   28  C18 UNL     1      25.591  33.976  -6.207  1.00  0.00     0.029 C 
HETATM   29  C19 UNL     1      25.579  34.950  -5.040  1.00  0.00     0.168 C 
HETATM   30  O7  UNL     1      24.530  35.803  -5.231  1.00  0.00    -0.384 OA
ENDBRANCH  25  26
ENDBRANCH   8  25
BRANCH   1  31
HETATM   31  C1  UNL     1      21.110  41.160  -5.072  1.00  0.00     0.254 C 
HETATM   32  N1  UNL     1      20.374  42.185  -4.451  1.00  0.00    -0.060 NA
HETATM   33  O1  UNL     1      21.640  41.373  -6.182  1.00  0.00    -0.275 OA
ENDBRANCH   1  31
TORSDOF 8
ENDMDL
MODEL 4
REMARK VINA RESULT: -7.569925080      3.766      5.328
REMARK  8 active torsions:
REMARK  status: ('A' for Active; 'I' for Inactive)
REMARK    1  A    between atoms: C1_2  and  C2_4 
REMARK       I    between atoms: N2_8  and  C6_9 
REMARK       I    between atoms: C6_9  and  N3_11 
REMARK    2  A    between atoms: N3_11  and  C7_12 
REMARK    3  A    between atoms: N3_11  and  C15_28 
REMARK    4  A    between atoms: C7_12  and  C8_13 
REMARK    5  A    between atoms: C10_15  and  C11_16 
REMARK    6  A    between atoms: C11_16  and  O3_17 
REMARK    7  A    between atoms: C12_19  and  S1_20 
REMARK    8  A    between atoms: C15_28  and  C16_29 
ROOT
HETATM    1  C2  UNL     1      23.378  37.667  -3.882  1.00  0.00     0.178 C 
HETATM    2  C3  UNL     1      24.600  37.168  -3.154  1.00  0.00     0.036 C 
HETATM    3  C4  UNL     1      25.680  37.290  -4.219  1.00  0.00     0.022 C 
HETATM    4  C5  UNL     1      24.939  36.918  -5.456  1.00  0.00     0.129 C 
HETATM    5  N2  UNL     1      23.554  37.212  -5.278  1.00  0.00    -0.321 N 
HETATM    6  C6  UNL     1      22.503  37.086  -6.200  1.00  0.00     0.321 C 
HETATM    7  O2  UNL     1      21.338  37.378  -5.713  1.00  0.00    -0.247 OA
HETATM    8  N3  UNL     1      22.474  36.698  -7.555  1.00  0.00    -0.327 N 
ENDROOT
BRANCH   8   9
HETATM    9  C7  UNL     1      21.162  36.611  -8.218  1.00  0.00     0.168 C 
BRANCH   9  10
HETATM   10  C8  UNL     1      20.795  37.648  -9.128  1.00  0.00    -0.016 A 
HETATM   11  C9  UNL     1      20.420  38.912  -8.779  1.00  0.00     0.021 A 
HETATM   12  C10 UNL     1      19.987  39.884  -9.665  1.00  0.00    -0.008 A 
HETATM   13  C12 UNL     1      19.922  39.577 -11.005  1.00  0.00     0.112 A 
HETATM   14  C13 UNL     1      20.300  38.292 -11.383  1.00  0.00     0.081 A 
HETATM   15 CL1  UNL     1      20.234  37.855 -13.089  1.00  0.00    -0.081 Cl
HETATM   16  C14 UNL     1      20.727  37.343 -10.485  1.00  0.00     0.065 A 
HETATM   17 CL2  UNL     1      21.184  35.740 -11.077  1.00  0.00    -0.082 Cl
BRANCH  12  18
HETATM   18  C11 UNL     1      19.591  41.246  -9.192  1.00  0.00     0.204 C 
BRANCH  18  19
HETATM   19  O3  UNL     1      20.749  42.038  -9.027  1.00  0.00    -0.396 OA
ATOM     20  H3  UNL     1      20.493  42.935  -8.844  1.00  0.00     0.209 HD
ENDBRANCH  18  19
ENDBRANCH  12  18
BRANCH  13  21
HETATM   21  S1  UNL     1      19.399  40.709 -12.225  1.00  0.00     0.140 S 
HETATM   22  O4  UNL     1      19.133  42.024 -11.533  1.00  0.00    -0.591 OA
HETATM   23  O5  UNL     1      20.410  40.970 -13.275  1.00  0.00    -0.591 OA
HETATM   24  O6  UNL     1      17.911  40.203 -12.864  1.00  0.00    -0.591 OA
ENDBRANCH  13  21
ENDBRANCH   9  10
ENDBRANCH   8   9
BRANCH   8  25
HETATM   25  C15 UNL     1      23.599  36.287  -8.334  1.00  0.00     0.159 C 
BRANCH  25  26
HETATM   26  C16 UNL     1      24.000  34.868  -8.402  1.00  0.00     0.139 C 
HETATM   27  C17 UNL     1      24.893  34.587  -9.609  1.00  0.00     0.035 C 
HETATM   28  C18 UNL     1      25.505  33.261  -9.183  1.00  0.00     0.029 C 
HETATM   29  C19 UNL     1      25.617  33.484  -7.683  1.00  0.00     0.168 C 
HETATM   30  O7  UNL     1      24.610  34.332  -7.321  1.00  0.00    -0.384 OA
ENDBRANCH  25  26
ENDBRANCH   8  25
BRANCH   1  31
HETATM   31  C1  UNL     1      23.332  39.127  -3.800  1.00  0.00     0.254 C 
HETATM   32  N1  UNL     1      23.492  39.767  -2.558  1.00  0.00    -0.060 NA
HETATM   33  O1  UNL     1      23.152  39.815  -4.825  1.00  0.00    -0.275 OA
ENDBRANCH   1  31
TORSDOF 8
ENDMDL
MODEL 5
REMARK VINA RESULT: -7.456308450      3.646      6.014
REMARK  8 active torsions:
REMARK  status: ('A' for Active; 'I' for Inactive)
REMARK    1  A    between atoms: C1_2  and  C2_4 
REMARK       I    between atoms: N2_8  and  C6_9 
REMARK       I    between atoms: C6_9  and  N3_11 
REMARK    2  A    between atoms: N3_11  and  C7_12 
REMARK    3  A    between atoms: N3_11  and  C15_28 
REMARK    4  A    between atoms: C7_12  and  C8_13 
REMARK    5  A    between atoms: C10_15  and  C11_16 
REMARK    6  A    between atoms: C11_16  and  O3_17 
REMARK    7  A    between atoms: C12_19  and  S1_20 
REMARK    8  A    between atoms: C15_28  and  C16_29 
ROOT
HETATM    1  C2  UNL     1      23.403  37.505  -3.901  1.00  0.00     0.178 C 
HETATM    2  C3  UNL     1      24.700  36.991  -3.331  1.00  0.00     0.036 C 
HETATM    3  C4  UNL     1      25.672  37.225  -4.479  1.00  0.00     0.022 C 
HETATM    4  C5  UNL     1      24.825  36.923  -5.666  1.00  0.00     0.129 C 
HETATM    5  N2  UNL     1      23.456  37.159  -5.338  1.00  0.00    -0.321 N 
HETATM    6  C6  UNL     1      22.326  37.069  -6.165  1.00  0.00     0.321 C 
HETATM    7  O2  UNL     1      21.206  37.288  -5.551  1.00  0.00    -0.247 OA
HETATM    8  N3  UNL     1      22.177  36.782  -7.538  1.00  0.00    -0.327 N 
ENDROOT
BRANCH   8   9
HETATM    9  C7  UNL     1      20.810  36.703  -8.081  1.00  0.00     0.168 C 
BRANCH   9  10
HETATM   10  C8  UNL     1      20.532  37.375  -9.309  1.00  0.00    -0.016 A 
HETATM   11  C9  UNL     1      20.518  36.797 -10.544  1.00  0.00     0.021 A 
HETATM   12  C10 UNL     1      20.328  37.475 -11.736  1.00  0.00    -0.008 A 
HETATM   13  C12 UNL     1      20.136  38.837 -11.699  1.00  0.00     0.112 A 
HETATM   14  C13 UNL     1      20.146  39.449 -10.449  1.00  0.00     0.081 A 
HETATM   15 CL1  UNL     1      19.903  41.191 -10.354  1.00  0.00    -0.081 Cl
HETATM   16  C14 UNL     1      20.337  38.754  -9.278  1.00  0.00     0.065 A 
HETATM   17 CL2  UNL     1      20.331  39.634  -7.743  1.00  0.00    -0.082 Cl
BRANCH  12  18
HETATM   18  C11 UNL     1      20.331  36.758 -13.048  1.00  0.00     0.204 C 
BRANCH  18  19
HETATM   19  O3  UNL     1      19.001  36.475 -13.430  1.00  0.00    -0.396 OA
ATOM     20  H3  UNL     1      18.755  37.040 -14.153  1.00  0.00     0.209 HD
ENDBRANCH  18  19
ENDBRANCH  12  18
BRANCH  13  21
HETATM   21  S1  UNL     1      19.882  39.810 -13.125  1.00  0.00     0.140 S 
HETATM   22  O4  UNL     1      20.880  40.941 -13.081  1.00  0.00    -0.591 OA
HETATM   23  O5  UNL     1      20.108  39.083 -14.396  1.00  0.00    -0.591 OA
HETATM   24  O6  UNL     1      18.347  40.530 -13.051  1.00  0.00    -0.591 OA
ENDBRANCH  13  21
ENDBRANCH   9  10
ENDBRANCH   8   9
BRANCH   8  25
HETATM   25  C15 UNL     1      23.233  36.465  -8.447  1.00  0.00     0.159 C 
BRANCH  25  26
HETATM   26  C16 UNL     1      23.709  35.077  -8.606  1.00  0.00     0.139 C 
HETATM   27  C17 UNL     1      24.601  34.919  -9.836  1.00  0.00     0.035 C 
HETATM   28  C18 UNL     1      25.289  33.606  -9.497  1.00  0.00     0.029 C 
HETATM   29  C19 UNL     1      25.408  33.743  -7.987  1.00  0.00     0.168 C 
HETATM   30  O7  UNL     1      24.361  34.511  -7.565  1.00  0.00    -0.384 OA
ENDBRANCH  25  26
ENDBRANCH   8  25
BRANCH   1  31
HETATM   31  C1  UNL     1      23.330  38.952  -3.704  1.00  0.00     0.254 C 
HETATM   32  N1  UNL     1      22.970  39.790  -4.774  1.00  0.00    -0.060 NA
HETATM   33  O1  UNL     1      23.585  39.454  -2.591  1.00  0.00    -0.275 OA
ENDBRANCH   1  31
TORSDOF 8
ENDMDL
