MODEL 1
REMARK VINA RESULT: -7.379398171      0.000      0.000
REMARK  8 active torsions:
REMARK  status: ('A' for Active; 'I' for Inactive)
REMARK    1  A    between atoms: C2_2  and  C3_3 
REMARK    2  A    between atoms: C5_5  and  C6_6 
REMARK    3  A    between atoms: C17_21  and  C18_22 
REMARK    4  A    between atoms: C18_22  and  O4_23 
REMARK    5  A    between atoms: C19_25  and  O5_26 
REMARK    6  A    between atoms: C20_28  and  O6_29 
REMARK    7  A    between atoms: C25_35  and  O7_36 
REMARK    8  A    between atoms: C28_40  and  C30_42 
ROOT
HETATM    1  C3  UNL     1       0.902  36.683  26.485  1.00  0.00     0.012 C 
HETATM    2  C4  UNL     1       1.214  35.965  25.235  1.00  0.00     0.043 C 
HETATM    3  C5  UNL     1       2.606  35.394  25.386  1.00  0.00    -0.074 C 
HETATM    4  C10 UNL     1       3.483  36.000  26.364  1.00  0.00    -0.007 C 
HETATM    5  C11 UNL     1       3.826  37.449  26.474  1.00  0.00     0.087 C 
HETATM    6  S1  UNL     1       5.198  37.363  27.675  1.00  0.00    -0.082 SA
HETATM    7  C12 UNL     1       6.372  38.548  27.767  1.00  0.00     0.200 C 
HETATM    8  O1  UNL     1       7.199  38.732  26.866  1.00  0.00    -0.284 OA
HETATM    9  C13 UNL     1       6.474  39.455  28.972  1.00  0.00     0.082 C 
HETATM   10  C14 UNL     1       7.812  39.086  29.471  1.00  0.00     0.030 C 
HETATM   11  C15 UNL     1       5.365  39.090  29.984  1.00  0.00     0.280 C 
HETATM   12  O2  UNL     1       5.818  39.652  31.201  1.00  0.00    -0.329 OA
HETATM   13  C16 UNL     1       6.440  40.830  31.180  1.00  0.00     0.274 C 
HETATM   14  O3  UNL     1       6.067  41.737  32.211  1.00  0.00    -0.350 OA
HETATM   15  C17 UNL     1       7.207  42.528  32.517  1.00  0.00     0.179 C 
HETATM   16  C19 UNL     1       8.136  42.758  31.409  1.00  0.00     0.178 C 
HETATM   17  C20 UNL     1       7.631  42.550  29.992  1.00  0.00     0.162 C 
HETATM   18  C21 UNL     1       6.365  41.691  29.967  1.00  0.00     0.039 C 
HETATM   19  C22 UNL     1       5.297  42.791  30.096  1.00  0.00     0.024 C 
HETATM   20  C23 UNL     1       6.199  40.899  28.668  1.00  0.00     0.025 C 
HETATM   21  C24 UNL     1       4.960  41.247  27.966  1.00  0.00     0.039 C 
HETATM   22  C25 UNL     1       4.132  40.395  27.144  1.00  0.00     0.130 C 
HETATM   23  C26 UNL     1       2.982  39.560  27.719  1.00  0.00     0.022 C 
HETATM   24  C27 UNL     1       1.792  40.503  27.613  1.00  0.00     0.022 C 
HETATM   25  C28 UNL     1       3.082  39.217  29.150  1.00  0.00     0.070 C 
HETATM   26  C29 UNL     1       2.731  37.921  29.739  1.00  0.00     0.047 C 
HETATM   27  O8  UNL     1       4.267  39.604  29.654  1.00  0.00    -0.348 OA
HETATM   28  C32 UNL     1       2.780  38.444  26.675  1.00  0.00    -0.015 C 
HETATM   29  C33 UNL     1       2.766  39.115  25.273  1.00  0.00     0.018 C 
HETATM   30  C34 UNL     1       1.340  38.029  26.763  1.00  0.00     0.020 C 
ENDROOT
BRANCH   3  31
HETATM   31  C6  UNL     1       3.177  34.874  24.106  1.00  0.00    -0.028 C 
HETATM   32  C7  UNL     1       4.694  35.128  24.135  1.00  0.00     0.019 C 
HETATM   33  C8  UNL     1       2.951  33.492  23.714  1.00  0.00     0.019 C 
HETATM   34  C9  UNL     1       2.681  35.775  22.967  1.00  0.00     0.019 C 
ENDBRANCH   3  31
BRANCH   1  35
HETATM   35  C2  UNL     1      -0.568  36.595  26.714  1.00  0.00    -0.032 C 
HETATM   36  C1  UNL     1      -1.310  35.600  26.296  1.00  0.00     0.007 C 
ENDBRANCH   1  35
BRANCH  22  37
HETATM   37  O7  UNL     1       3.485  41.319  26.223  1.00  0.00    -0.395 OA
ATOM     38  H7  UNL     1       2.592  41.371  26.543  1.00  0.00     0.210 HD
ENDBRANCH  22  37
BRANCH  25  39
HETATM   39  C30 UNL     1       2.189  40.140  30.061  1.00  0.00     0.034 C 
HETATM   40  C31 UNL     1       1.945  39.468  31.399  1.00  0.00     0.008 C 
ENDBRANCH  25  39
BRANCH  17  41
HETATM   41  O6  UNL     1       7.387  43.817  29.379  1.00  0.00    -0.392 OA
ATOM     42  H6  UNL     1       6.909  43.692  28.568  1.00  0.00     0.210 HD
ENDBRANCH  17  41
BRANCH  16  43
HETATM   43  O5  UNL     1       9.383  42.170  31.460  1.00  0.00    -0.390 OA
ATOM     44  H5  UNL     1       9.501  41.319  31.055  1.00  0.00     0.210 HD
ENDBRANCH  16  43
BRANCH  15  45
HETATM   45  C18 UNL     1       7.768  41.905  33.770  1.00  0.00     0.198 C 
BRANCH  45  46
HETATM   46  O4  UNL     1       8.984  42.425  34.173  1.00  0.00    -0.398 OA
ATOM     47  H4  UNL     1       9.305  42.079  34.997  1.00  0.00     0.209 HD
ENDBRANCH  45  46
ENDBRANCH  15  45
TORSDOF 8
ENDMDL
MODEL 2
REMARK VINA RESULT: -7.159662348      9.922     12.324
REMARK  8 active torsions:
REMARK  status: ('A' for Active; 'I' for Inactive)
REMARK    1  A    between atoms: C2_2  and  C3_3 
REMARK    2  A    between atoms: C5_5  and  C6_6 
REMARK    3  A    between atoms: C17_21  and  C18_22 
REMARK    4  A    between atoms: C18_22  and  O4_23 
REMARK    5  A    between atoms: C19_25  and  O5_26 
REMARK    6  A    between atoms: C20_28  and  O6_29 
REMARK    7  A    between atoms: C25_35  and  O7_36 
REMARK    8  A    between atoms: C28_40  and  C30_42 
ROOT
HETATM    1  C3  UNL     1      10.821  46.385  17.208  1.00  0.00     0.012 C 
HETATM    2  C4  UNL     1      10.787  46.278  15.736  1.00  0.00     0.043 C 
HETATM    3  C5  UNL     1       9.491  45.589  15.370  1.00  0.00    -0.074 C 
HETATM    4  C10 UNL     1       8.841  44.789  16.385  1.00  0.00    -0.007 C 
HETATM    5  C11 UNL     1       9.459  43.685  17.180  1.00  0.00     0.087 C 
HETATM    6  S1  UNL     1       7.967  42.973  17.953  1.00  0.00    -0.082 SA
HETATM    7  C12 UNL     1       7.911  41.388  18.478  1.00  0.00     0.200 C 
HETATM    8  O1  UNL     1       7.938  40.431  17.696  1.00  0.00    -0.284 OA
HETATM    9  C13 UNL     1       7.822  41.055  19.950  1.00  0.00     0.082 C 
HETATM   10  C14 UNL     1       6.517  40.370  19.990  1.00  0.00     0.030 C 
HETATM   11  C15 UNL     1       7.808  42.363  20.772  1.00  0.00     0.280 C 
HETATM   12  O2  UNL     1       7.281  41.971  22.025  1.00  0.00    -0.329 OA
HETATM   13  C16 UNL     1       7.622  40.785  22.529  1.00  0.00     0.274 C 
HETATM   14  O3  UNL     1       7.914  40.774  23.922  1.00  0.00    -0.350 OA
HETATM   15  C17 UNL     1       7.536  39.501  24.428  1.00  0.00     0.179 C 
HETATM   16  C19 UNL     1       7.626  38.389  23.481  1.00  0.00     0.178 C 
HETATM   17  C20 UNL     1       8.499  38.562  22.249  1.00  0.00     0.162 C 
HETATM   18  C21 UNL     1       8.780  40.038  21.963  1.00  0.00     0.039 C 
HETATM   19  C22 UNL     1      10.061  40.229  22.793  1.00  0.00     0.024 C 
HETATM   20  C23 UNL     1       9.024  40.330  20.481  1.00  0.00     0.025 C 
HETATM   21  C24 UNL     1      10.352  40.903  20.245  1.00  0.00     0.039 C 
HETATM   22  C25 UNL     1      10.747  41.850  19.227  1.00  0.00     0.130 C 
HETATM   23  C26 UNL     1      10.682  43.366  19.443  1.00  0.00     0.022 C 
HETATM   24  C27 UNL     1      12.056  43.689  20.011  1.00  0.00     0.022 C 
HETATM   25  C28 UNL     1       9.719  43.836  20.458  1.00  0.00     0.070 C 
HETATM   26  C29 UNL     1       8.863  45.019  20.334  1.00  0.00     0.047 C 
HETATM   27  O8  UNL     1       8.970  42.818  20.916  1.00  0.00    -0.348 OA
HETATM   28  C32 UNL     1      10.628  43.939  18.013  1.00  0.00    -0.015 C 
HETATM   29  C33 UNL     1      11.722  43.216  17.180  1.00  0.00     0.018 C 
HETATM   30  C34 UNL     1      11.235  45.311  18.077  1.00  0.00     0.020 C 
ENDROOT
BRANCH   3  31
HETATM   31  C6  UNL     1       9.431  45.158  13.940  1.00  0.00    -0.028 C 
HETATM   32  C7  UNL     1      10.806  45.439  13.310  1.00  0.00     0.019 C 
HETATM   33  C8  UNL     1       9.041  43.799  13.603  1.00  0.00     0.019 C 
HETATM   34  C9  UNL     1       8.490  46.117  13.198  1.00  0.00     0.019 C 
ENDBRANCH   3  31
BRANCH   1  35
HETATM   35  C2  UNL     1      11.579  47.617  17.564  1.00  0.00    -0.032 C 
HETATM   36  C1  UNL     1      11.018  48.783  17.765  1.00  0.00     0.007 C 
ENDBRANCH   1  35
BRANCH  22  37
HETATM   37  O7  UNL     1      12.162  41.574  19.021  1.00  0.00    -0.395 OA
ATOM     38  H7  UNL     1      12.383  42.078  18.247  1.00  0.00     0.210 HD
ENDBRANCH  22  37
BRANCH  25  39
HETATM   39  C30 UNL     1      10.407  44.185  21.832  1.00  0.00     0.034 C 
HETATM   40  C31 UNL     1       9.454  44.985  22.699  1.00  0.00     0.008 C 
ENDBRANCH  25  39
BRANCH  17  41
HETATM   41  O6  UNL     1       9.722  37.846  22.423  1.00  0.00    -0.392 OA
ATOM     42  H6  UNL     1      10.335  38.091  21.740  1.00  0.00     0.210 HD
ENDBRANCH  17  41
BRANCH  16  43
HETATM   43  O5  UNL     1       6.460  37.798  23.042  1.00  0.00    -0.390 OA
ATOM     44  H5  UNL     1       5.880  38.299  22.481  1.00  0.00     0.210 HD
ENDBRANCH  16  43
BRANCH  15  45
HETATM   45  C18 UNL     1       6.200  39.743  25.083  1.00  0.00     0.198 C 
BRANCH  45  46
HETATM   46  O4  UNL     1       5.649  38.629  25.689  1.00  0.00    -0.398 OA
ATOM     47  H4  UNL     1       4.705  38.663  25.790  1.00  0.00     0.209 HD
ENDBRANCH  45  46
ENDBRANCH  15  45
TORSDOF 8
ENDMDL
MODEL 3
REMARK VINA RESULT: -7.149293408      4.818      7.925
REMARK  8 active torsions:
REMARK  status: ('A' for Active; 'I' for Inactive)
REMARK    1  A    between atoms: C2_2  and  C3_3 
REMARK    2  A    between atoms: C5_5  and  C6_6 
REMARK    3  A    between atoms: C17_21  and  C18_22 
REMARK    4  A    between atoms: C18_22  and  O4_23 
REMARK    5  A    between atoms: C19_25  and  O5_26 
REMARK    6  A    between atoms: C20_28  and  O6_29 
REMARK    7  A    between atoms: C25_35  and  O7_36 
REMARK    8  A    between atoms: C28_40  and  C30_42 
ROOT
HETATM    1  C3  UNL     1       6.631  36.895  25.131  1.00  0.00     0.012 C 
HETATM    2  C4  UNL     1       7.251  37.813  24.156  1.00  0.00     0.043 C 
HETATM    3  C5  UNL     1       6.718  39.198  24.448  1.00  0.00    -0.074 C 
HETATM    4  C10 UNL     1       5.472  39.303  25.175  1.00  0.00    -0.007 C 
HETATM    5  C11 UNL     1       4.180  38.639  24.827  1.00  0.00     0.087 C 
HETATM    6  S1  UNL     1       3.053  39.510  25.969  1.00  0.00    -0.082 SA
HETATM    7  C12 UNL     1       1.416  39.644  25.669  1.00  0.00     0.200 C 
HETATM    8  O1  UNL     1       0.967  40.325  24.739  1.00  0.00    -0.284 OA
HETATM    9  C13 UNL     1       0.402  38.931  26.534  1.00  0.00     0.082 C 
HETATM   10  C14 UNL     1      -0.326  40.084  27.096  1.00  0.00     0.030 C 
HETATM   11  C15 UNL     1       1.137  38.129  27.631  1.00  0.00     0.280 C 
HETATM   12  O2  UNL     1       0.140  37.896  28.607  1.00  0.00    -0.329 OA
HETATM   13  C16 UNL     1      -1.106  37.636  28.212  1.00  0.00     0.274 C 
HETATM   14  O3  UNL     1      -1.768  36.596  28.921  1.00  0.00    -0.350 OA
HETATM   15  C17 UNL     1      -3.154  36.910  28.947  1.00  0.00     0.179 C 
HETATM   16  C19 UNL     1      -3.652  37.678  27.804  1.00  0.00     0.178 C 
HETATM   17  C20 UNL     1      -2.825  37.688  26.529  1.00  0.00     0.162 C 
HETATM   18  C21 UNL     1      -1.378  37.268  26.794  1.00  0.00     0.039 C 
HETATM   19  C22 UNL     1      -1.504  35.747  26.600  1.00  0.00     0.024 C 
HETATM   20  C23 UNL     1      -0.381  37.878  25.807  1.00  0.00     0.025 C 
HETATM   21  C24 UNL     1       0.347  36.852  25.056  1.00  0.00     0.039 C 
HETATM   22  C25 UNL     1       1.700  36.908  24.552  1.00  0.00     0.130 C 
HETATM   23  C26 UNL     1       2.907  36.449  25.378  1.00  0.00     0.022 C 
HETATM   24  C27 UNL     1       3.031  34.977  25.011  1.00  0.00     0.022 C 
HETATM   25  C28 UNL     1       2.737  36.473  26.843  1.00  0.00     0.070 C 
HETATM   26  C29 UNL     1       3.751  36.905  27.810  1.00  0.00     0.047 C 
HETATM   27  O8  UNL     1       1.564  37.037  27.180  1.00  0.00    -0.348 OA
HETATM   28  C32 UNL     1       4.097  37.186  24.732  1.00  0.00    -0.015 C 
HETATM   29  C33 UNL     1       3.969  37.018  23.193  1.00  0.00     0.018 C 
HETATM   30  C34 UNL     1       5.311  36.336  24.972  1.00  0.00     0.020 C 
ENDROOT
BRANCH   3  31
HETATM   31  C6  UNL     1       7.035  40.194  23.379  1.00  0.00    -0.028 C 
HETATM   32  C7  UNL     1       6.457  39.659  22.058  1.00  0.00     0.019 C 
HETATM   33  C8  UNL     1       6.626  41.581  23.530  1.00  0.00     0.019 C 
HETATM   34  C9  UNL     1       8.551  40.171  23.147  1.00  0.00     0.019 C 
ENDBRANCH   3  31
BRANCH   1  35
HETATM   35  C2  UNL     1       7.595  35.792  25.405  1.00  0.00    -0.032 C 
HETATM   36  C1  UNL     1       7.868  35.347  26.605  1.00  0.00     0.007 C 
ENDBRANCH   1  35
BRANCH  22  37
HETATM   37  O7  UNL     1       1.684  36.011  23.404  1.00  0.00    -0.395 OA
ATOM     38  H7  UNL     1       2.356  35.371  23.606  1.00  0.00     0.210 HD
ENDBRANCH  22  37
BRANCH  25  39
HETATM   39  C30 UNL     1       2.432  35.049  27.443  1.00  0.00     0.034 C 
HETATM   40  C31 UNL     1       1.866  35.188  28.844  1.00  0.00     0.008 C 
ENDBRANCH  25  39
BRANCH  17  41
HETATM   41  O6  UNL     1      -3.426  36.826  25.562  1.00  0.00    -0.392 OA
ATOM     42  H6  UNL     1      -3.785  37.345  24.852  1.00  0.00     0.210 HD
ENDBRANCH  17  41
BRANCH  16  43
HETATM   43  O5  UNL     1      -4.053  38.982  28.009  1.00  0.00    -0.390 OA
ATOM     44  H5  UNL     1      -3.416  39.677  27.895  1.00  0.00     0.210 HD
ENDBRANCH  16  43
BRANCH  15  45
HETATM   45  C18 UNL     1      -3.379  37.491  30.319  1.00  0.00     0.198 C 
BRANCH  45  46
HETATM   46  O4  UNL     1      -3.383  36.560  31.341  1.00  0.00    -0.398 OA
ATOM     47  H4  UNL     1      -4.195  36.517  31.831  1.00  0.00     0.209 HD
ENDBRANCH  45  46
ENDBRANCH  15  45
TORSDOF 8
ENDMDL
MODEL 4
REMARK VINA RESULT: -6.965634424      2.636      8.526
REMARK  8 active torsions:
REMARK  status: ('A' for Active; 'I' for Inactive)
REMARK    1  A    between atoms: C2_2  and  C3_3 
REMARK    2  A    between atoms: C5_5  and  C6_6 
REMARK    3  A    between atoms: C17_21  and  C18_22 
REMARK    4  A    between atoms: C18_22  and  O4_23 
REMARK    5  A    between atoms: C19_25  and  O5_26 
REMARK    6  A    between atoms: C20_28  and  O6_29 
REMARK    7  A    between atoms: C25_35  and  O7_36 
REMARK    8  A    between atoms: C28_40  and  C30_42 
ROOT
HETATM    1  C3  UNL     1       7.454  41.188  31.043  1.00  0.00     0.012 C 
HETATM    2  C4  UNL     1       6.814  42.004  32.093  1.00  0.00     0.043 C 
HETATM    3  C5  UNL     1       5.598  41.242  32.570  1.00  0.00    -0.074 C 
HETATM    4  C10 UNL     1       5.039  40.241  31.688  1.00  0.00    -0.007 C 
HETATM    5  C11 UNL     1       4.630  40.438  30.265  1.00  0.00     0.087 C 
HETATM    6  S1  UNL     1       3.733  38.876  29.970  1.00  0.00    -0.082 SA
HETATM    7  C12 UNL     1       2.558  38.737  28.791  1.00  0.00     0.200 C 
HETATM    8  O1  UNL     1       1.471  39.323  28.867  1.00  0.00    -0.284 OA
HETATM    9  C13 UNL     1       2.776  37.877  27.567  1.00  0.00     0.082 C 
HETATM   10  C14 UNL     1       1.708  36.877  27.751  1.00  0.00     0.030 C 
HETATM   11  C15 UNL     1       4.179  37.234  27.637  1.00  0.00     0.280 C 
HETATM   12  O2  UNL     1       4.100  36.147  26.734  1.00  0.00    -0.329 OA
HETATM   13  C16 UNL     1       3.409  36.293  25.604  1.00  0.00     0.274 C 
HETATM   14  O3  UNL     1       4.018  35.747  24.440  1.00  0.00    -0.350 OA
HETATM   15  C17 UNL     1       2.977  35.315  23.575  1.00  0.00     0.179 C 
HETATM   16  C19 UNL     1       1.724  36.066  23.666  1.00  0.00     0.178 C 
HETATM   17  C20 UNL     1       1.758  37.450  24.290  1.00  0.00     0.162 C 
HETATM   18  C21 UNL     1       3.015  37.652  25.140  1.00  0.00     0.039 C 
HETATM   19  C22 UNL     1       3.972  38.204  24.069  1.00  0.00     0.024 C 
HETATM   20  C23 UNL     1       2.817  38.650  26.283  1.00  0.00     0.025 C 
HETATM   21  C24 UNL     1       3.728  39.794  26.178  1.00  0.00     0.039 C 
HETATM   22  C25 UNL     1       4.313  40.568  27.248  1.00  0.00     0.130 C 
HETATM   23  C26 UNL     1       5.653  40.199  27.896  1.00  0.00     0.022 C 
HETATM   24  C27 UNL     1       6.662  40.959  27.047  1.00  0.00     0.022 C 
HETATM   25  C28 UNL     1       6.050  38.781  27.800  1.00  0.00     0.070 C 
HETATM   26  C29 UNL     1       6.680  38.002  28.870  1.00  0.00     0.047 C 
HETATM   27  O8  UNL     1       5.065  38.042  27.262  1.00  0.00    -0.348 OA
HETATM   28  C32 UNL     1       5.598  40.889  29.273  1.00  0.00    -0.015 C 
HETATM   29  C33 UNL     1       5.102  42.344  29.046  1.00  0.00     0.018 C 
HETATM   30  C34 UNL     1       7.018  41.173  29.668  1.00  0.00     0.020 C 
ENDROOT
BRANCH   3  31
HETATM   31  C6  UNL     1       4.689  42.055  33.435  1.00  0.00    -0.028 C 
HETATM   32  C7  UNL     1       4.424  43.385  32.711  1.00  0.00     0.019 C 
HETATM   33  C8  UNL     1       3.415  41.508  33.871  1.00  0.00     0.019 C 
HETATM   34  C9  UNL     1       5.476  42.474  34.685  1.00  0.00     0.019 C 
ENDBRANCH   3  31
BRANCH   1  35
HETATM   35  C2  UNL     1       8.920  41.447  31.085  1.00  0.00    -0.032 C 
HETATM   36  C1  UNL     1       9.795  40.791  30.366  1.00  0.00     0.007 C 
ENDBRANCH   1  35
BRANCH  22  37
HETATM   37  O7  UNL     1       4.548  41.874  26.647  1.00  0.00    -0.395 OA
ATOM     38  H7  UNL     1       3.957  42.451  27.116  1.00  0.00     0.210 HD
ENDBRANCH  22  37
BRANCH  25  39
HETATM   39  C30 UNL     1       7.110  38.522  26.665  1.00  0.00     0.034 C 
HETATM   40  C31 UNL     1       7.420  37.040  26.573  1.00  0.00     0.008 C 
ENDBRANCH  25  39
BRANCH  17  41
HETATM   41  O6  UNL     1       1.685  38.441  23.265  1.00  0.00    -0.392 OA
ATOM     42  H6  UNL     1       2.349  39.104  23.413  1.00  0.00     0.210 HD
ENDBRANCH  17  41
BRANCH  16  43
HETATM   43  O5  UNL     1       0.614  35.437  24.192  1.00  0.00    -0.390 OA
ATOM     44  H5  UNL     1      -0.246  35.765  23.960  1.00  0.00     0.210 HD
ENDBRANCH  16  43
BRANCH  15  45
HETATM   45  C18 UNL     1       2.907  33.825  23.791  1.00  0.00     0.198 C 
BRANCH  45  46
HETATM   46  O4  UNL     1       4.016  33.129  23.347  1.00  0.00    -0.398 OA
ATOM     47  H4  UNL     1       3.901  32.703  22.505  1.00  0.00     0.209 HD
ENDBRANCH  45  46
ENDBRANCH  15  45
TORSDOF 8
ENDMDL
MODEL 5
REMARK VINA RESULT: -6.916689332      4.422      7.946
REMARK  8 active torsions:
REMARK  status: ('A' for Active; 'I' for Inactive)
REMARK    1  A    between atoms: C2_2  and  C3_3 
REMARK    2  A    between atoms: C5_5  and  C6_6 
REMARK    3  A    between atoms: C17_21  and  C18_22 
REMARK    4  A    between atoms: C18_22  and  O4_23 
REMARK    5  A    between atoms: C19_25  and  O5_26 
REMARK    6  A    between atoms: C20_28  and  O6_29 
REMARK    7  A    between atoms: C25_35  and  O7_36 
REMARK    8  A    between atoms: C28_40  and  C30_42 
ROOT
HETATM    1  C3  UNL     1       8.165  41.312  22.946  1.00  0.00     0.012 C 
HETATM    2  C4  UNL     1       8.697  40.909  21.630  1.00  0.00     0.043 C 
HETATM    3  C5  UNL     1       7.510  40.562  20.758  1.00  0.00    -0.074 C 
HETATM    4  C10 UNL     1       6.268  40.218  21.415  1.00  0.00    -0.007 C 
HETATM    5  C11 UNL     1       6.077  39.178  22.470  1.00  0.00     0.087 C 
HETATM    6  S1  UNL     1       4.254  39.107  22.524  1.00  0.00    -0.082 SA
HETATM    7  C12 UNL     1       3.435  37.755  23.064  1.00  0.00     0.200 C 
HETATM    8  O1  UNL     1       3.438  36.688  22.440  1.00  0.00    -0.284 OA
HETATM    9  C13 UNL     1       2.644  37.783  24.352  1.00  0.00     0.082 C 
HETATM   10  C14 UNL     1       1.286  37.529  23.837  1.00  0.00     0.030 C 
HETATM   11  C15 UNL     1       2.759  39.184  24.994  1.00  0.00     0.280 C 
HETATM   12  O2  UNL     1       1.668  39.236  25.893  1.00  0.00    -0.329 OA
HETATM   13  C16 UNL     1       1.332  38.138  26.570  1.00  0.00     0.274 C 
HETATM   14  O3  UNL     1       1.009  38.339  27.941  1.00  0.00    -0.350 OA
HETATM   15  C17 UNL     1       0.035  37.368  28.298  1.00  0.00     0.179 C 
HETATM   16  C19 UNL     1       0.104  36.101  27.567  1.00  0.00     0.178 C 
HETATM   17  C20 UNL     1       1.401  35.750  26.858  1.00  0.00     0.162 C 
HETATM   18  C21 UNL     1       2.275  36.986  26.639  1.00  0.00     0.039 C 
HETATM   19  C22 UNL     1       3.085  36.972  27.947  1.00  0.00     0.024 C 
HETATM   20  C23 UNL     1       3.186  36.873  25.415  1.00  0.00     0.025 C 
HETATM   21  C24 UNL     1       4.604  36.975  25.773  1.00  0.00     0.039 C 
HETATM   22  C25 UNL     1       5.683  37.529  24.989  1.00  0.00     0.130 C 
HETATM   23  C26 UNL     1       6.076  39.010  25.057  1.00  0.00     0.022 C 
HETATM   24  C27 UNL     1       7.117  39.035  26.166  1.00  0.00     0.022 C 
HETATM   25  C28 UNL     1       5.017  39.941  25.493  1.00  0.00     0.070 C 
HETATM   26  C29 UNL     1       4.764  41.267  24.920  1.00  0.00     0.047 C 
HETATM   27  O8  UNL     1       3.841  39.304  25.622  1.00  0.00    -0.348 OA
HETATM   28  C32 UNL     1       6.813  39.256  23.726  1.00  0.00    -0.015 C 
HETATM   29  C33 UNL     1       7.819  38.088  23.528  1.00  0.00     0.018 C 
HETATM   30  C34 UNL     1       7.783  40.375  23.973  1.00  0.00     0.020 C 
ENDROOT
BRANCH   3  31
HETATM   31  C6  UNL     1       7.889  39.873  19.487  1.00  0.00    -0.028 C 
HETATM   32  C7  UNL     1       9.050  40.661  18.858  1.00  0.00     0.019 C 
HETATM   33  C8  UNL     1       8.243  38.463  19.498  1.00  0.00     0.019 C 
HETATM   34  C9  UNL     1       6.739  40.062  18.487  1.00  0.00     0.019 C 
ENDBRANCH   3  31
BRANCH   1  35
HETATM   35  C2  UNL     1       9.094  42.321  23.530  1.00  0.00    -0.032 C 
HETATM   36  C1  UNL     1      10.342  42.461  23.157  1.00  0.00     0.007 C 
ENDBRANCH   1  35
BRANCH  22  37
HETATM   37  O7  UNL     1       6.862  36.820  25.466  1.00  0.00    -0.395 OA
ATOM     38  H7  UNL     1       7.588  37.343  25.147  1.00  0.00     0.210 HD
ENDBRANCH  22  37
BRANCH  25  39
HETATM   39  C30 UNL     1       5.162  40.361  27.003  1.00  0.00     0.034 C 
HETATM   40  C31 UNL     1       4.256  41.541  27.302  1.00  0.00     0.008 C 
ENDBRANCH  25  39
BRANCH  17  41
HETATM   41  O6  UNL     1       2.109  34.766  27.613  1.00  0.00    -0.392 OA
ATOM     42  H6  UNL     1       1.533  34.390  28.268  1.00  0.00     0.210 HD
ENDBRANCH  17  41
BRANCH  16  43
HETATM   43  O5  UNL     1      -0.909  35.793  26.683  1.00  0.00    -0.390 OA
ATOM     44  H5  UNL     1      -0.806  36.034  25.771  1.00  0.00     0.210 HD
ENDBRANCH  16  43
BRANCH  15  45
HETATM   45  C18 UNL     1      -1.271  38.117  28.258  1.00  0.00     0.198 C 
BRANCH  45  46
HETATM   46  O4  UNL     1      -2.374  37.367  28.622  1.00  0.00    -0.398 OA
ATOM     47  H4  UNL     1      -2.499  36.577  28.108  1.00  0.00     0.209 HD
ENDBRANCH  45  46
ENDBRANCH  15  45
TORSDOF 8
ENDMDL
