MODEL 1
REMARK VINA RESULT: -6.586317268      0.000      0.000
REMARK  8 active torsions:
REMARK  status: ('A' for Active; 'I' for Inactive)
REMARK    1  A    between atoms: O1_2  and  C2_3 
REMARK    2  A    between atoms: C10_12  and  C11_13 
REMARK    3  A    between atoms: C11_13  and  O3_14 
REMARK    4  A    between atoms: C14_18  and  O4_19 
REMARK    5  A    between atoms: C17_23  and  O5_24 
REMARK    6  A    between atoms: C22_30  and  O6_31 
REMARK    7  A    between atoms: C32_42  and  O7_43 
REMARK    8  A    between atoms: C34_45  and  O8_46 
ROOT
HETATM    1  C2  UNL     1       8.185  39.987  20.808  1.00  0.00     0.073 C 
HETATM    2  C3  UNL     1       7.395  40.190  19.794  1.00  0.00     0.012 C 
HETATM    3  C4  UNL     1       7.706  40.650  18.431  1.00  0.00     0.009 C 
HETATM    4  C5  UNL     1       6.630  40.062  17.491  1.00  0.00     0.014 C 
HETATM    5  C6  UNL     1       7.592  42.153  18.378  1.00  0.00     0.040 C 
HETATM    6  C7  UNL     1       8.595  42.777  17.402  1.00  0.00     0.124 C 
HETATM    7  C8  UNL     1       8.426  42.139  16.070  1.00  0.00     0.040 C 
HETATM    8  O2  UNL     1       8.597  44.146  17.469  1.00  0.00    -0.358 OA
HETATM    9  C9  UNL     1       7.887  45.139  16.859  1.00  0.00     0.140 C 
HETATM   10  C10 UNL     1       8.375  45.847  15.834  1.00  0.00    -0.029 C 
HETATM   11  C12 UNL     1       9.751  45.610  15.283  1.00  0.00     0.044 C 
HETATM   12  C13 UNL     1       9.607  45.325  13.810  1.00  0.00     0.017 C 
HETATM   13  C14 UNL     1      10.607  46.856  15.430  1.00  0.00     0.132 C 
HETATM   14  C15 UNL     1      12.000  46.467  15.833  1.00  0.00     0.042 C 
HETATM   15  C16 UNL     1      12.760  45.702  14.789  1.00  0.00     0.015 C 
HETATM   16  C17 UNL     1      12.807  47.627  16.370  1.00  0.00     0.149 C 
HETATM   17  C19 UNL     1      13.087  47.469  17.873  1.00  0.00     0.106 C 
HETATM   18  C20 UNL     1      12.620  48.739  18.602  1.00  0.00     0.034 C 
HETATM   19  N1  UNL     1      14.421  47.239  18.186  1.00  0.00    -0.385 N 
HETATM   20  C21 UNL     1      15.411  48.019  17.534  1.00  0.00     0.146 C 
HETATM   21  C22 UNL     1      14.847  45.970  18.671  1.00  0.00     0.219 C 
HETATM   22  C23 UNL     1      14.578  45.764  20.156  1.00  0.00     0.030 C 
HETATM   23  C24 UNL     1      15.872  45.458  20.916  1.00  0.00     0.014 C 
HETATM   24  C25 UNL     1      13.617  44.637  20.327  1.00  0.00     0.012 C 
HETATM   25  C26 UNL     1      13.202  44.321  21.702  1.00  0.00    -0.018 C 
HETATM   26  C27 UNL     1      13.763  45.146  22.800  1.00  0.00     0.010 C 
HETATM   27  C28 UNL     1      13.571  42.861  21.982  1.00  0.00     0.008 C 
HETATM   28  C29 UNL     1      12.348  42.011  22.239  1.00  0.00    -0.016 C 
HETATM   29  C30 UNL     1      12.824  40.651  22.664  1.00  0.00     0.010 C 
HETATM   30  C31 UNL     1      11.459  41.871  21.050  1.00  0.00     0.039 C 
HETATM   31  C32 UNL     1      10.051  41.503  21.507  1.00  0.00     0.156 C 
HETATM   32  C34 UNL     1       9.646  40.169  20.864  1.00  0.00     0.203 C 
ENDROOT
BRANCH  10  33
HETATM   33  C11 UNL     1       7.520  46.902  15.243  1.00  0.00     0.200 C 
BRANCH  33  34
HETATM   34  O3  UNL     1       6.314  46.381  14.726  1.00  0.00    -0.397 OA
ATOM     35  H3  UNL     1       5.778  47.054  14.322  1.00  0.00     0.209 HD
ENDBRANCH  33  34
ENDBRANCH  10  33
BRANCH  13  36
HETATM   36  O4  UNL     1      10.550  47.689  14.342  1.00  0.00    -0.394 OA
ATOM     37  H4  UNL     1      10.673  48.605  14.561  1.00  0.00     0.210 HD
ENDBRANCH  13  36
BRANCH  16  38
HETATM   38  O5  UNL     1      12.104  48.792  16.115  1.00  0.00    -0.388 OA
HETATM   39  C18 UNL     1      12.881  49.716  15.389  1.00  0.00     0.202 C 
ENDBRANCH  16  38
BRANCH   1  40
HETATM   40  O1  UNL     1       7.573  39.532  22.014  1.00  0.00    -0.358 OA
HETATM   41  C1  UNL     1       8.204  38.511  22.766  1.00  0.00     0.209 C 
ENDBRANCH   1  40
BRANCH  21  42
HETATM   42  O6  UNL     1      14.494  44.891  17.893  1.00  0.00    -0.377 OA
ATOM     43  H6  UNL     1      14.954  44.082  18.086  1.00  0.00     0.212 HD
ENDBRANCH  21  42
BRANCH  32  44
HETATM   44  O8  UNL     1      10.314  39.968  19.674  1.00  0.00    -0.386 OA
ATOM     45  H8  UNL     1      11.198  39.631  19.755  1.00  0.00     0.210 HD
ENDBRANCH  32  44
BRANCH  31  46
HETATM   46  O7  UNL     1      10.017  41.467  22.882  1.00  0.00    -0.388 OA
HETATM   47  C33 UNL     1       9.117  42.326  23.474  1.00  0.00     0.202 C 
ENDBRANCH  31  46
TORSDOF 8
ENDMDL
MODEL 2
REMARK VINA RESULT: -5.986946793     11.385     16.221
REMARK  8 active torsions:
REMARK  status: ('A' for Active; 'I' for Inactive)
REMARK    1  A    between atoms: O1_2  and  C2_3 
REMARK    2  A    between atoms: C10_12  and  C11_13 
REMARK    3  A    between atoms: C11_13  and  O3_14 
REMARK    4  A    between atoms: C14_18  and  O4_19 
REMARK    5  A    between atoms: C17_23  and  O5_24 
REMARK    6  A    between atoms: C22_30  and  O6_31 
REMARK    7  A    between atoms: C32_42  and  O7_43 
REMARK    8  A    between atoms: C34_45  and  O8_46 
ROOT
HETATM    1  C2  UNL     1       5.307  42.626  33.388  1.00  0.00     0.073 C 
HETATM    2  C3  UNL     1       4.158  42.472  33.981  1.00  0.00     0.012 C 
HETATM    3  C4  UNL     1       3.278  41.294  34.044  1.00  0.00     0.009 C 
HETATM    4  C5  UNL     1       2.480  41.386  35.362  1.00  0.00     0.014 C 
HETATM    5  C6  UNL     1       2.293  41.349  32.903  1.00  0.00     0.040 C 
HETATM    6  C7  UNL     1       1.928  39.956  32.381  1.00  0.00     0.124 C 
HETATM    7  C8  UNL     1       1.447  39.129  33.519  1.00  0.00     0.040 C 
HETATM    8  O2  UNL     1       1.156  40.014  31.250  1.00  0.00    -0.358 OA
HETATM    9  C9  UNL     1      -0.184  40.095  31.004  1.00  0.00     0.140 C 
HETATM   10  C10 UNL     1      -0.916  39.031  30.652  1.00  0.00    -0.029 C 
HETATM   11  C12 UNL     1      -0.314  37.666  30.489  1.00  0.00     0.044 C 
HETATM   12  C13 UNL     1      -1.072  36.726  31.390  1.00  0.00     0.017 C 
HETATM   13  C14 UNL     1      -0.485  37.175  29.062  1.00  0.00     0.132 C 
HETATM   14  C15 UNL     1       0.764  36.469  28.618  1.00  0.00     0.042 C 
HETATM   15  C16 UNL     1       1.047  35.187  29.345  1.00  0.00     0.015 C 
HETATM   16  C17 UNL     1       0.840  36.287  27.119  1.00  0.00     0.149 C 
HETATM   17  C19 UNL     1       1.955  37.149  26.504  1.00  0.00     0.106 C 
HETATM   18  C20 UNL     1       1.357  38.005  25.377  1.00  0.00     0.034 C 
HETATM   19  N1  UNL     1       3.024  36.423  25.995  1.00  0.00    -0.385 N 
HETATM   20  C21 UNL     1       2.746  35.268  25.217  1.00  0.00     0.146 C 
HETATM   21  C22 UNL     1       4.296  36.453  26.635  1.00  0.00     0.219 C 
HETATM   22  C23 UNL     1       5.118  37.690  26.298  1.00  0.00     0.030 C 
HETATM   23  C24 UNL     1       6.467  37.307  25.681  1.00  0.00     0.014 C 
HETATM   24  C25 UNL     1       5.341  38.481  27.542  1.00  0.00     0.012 C 
HETATM   25  C26 UNL     1       6.083  39.743  27.402  1.00  0.00    -0.018 C 
HETATM   26  C27 UNL     1       6.541  40.128  26.044  1.00  0.00     0.010 C 
HETATM   27  C28 UNL     1       7.318  39.667  28.305  1.00  0.00     0.008 C 
HETATM   28  C29 UNL     1       7.279  40.707  29.401  1.00  0.00    -0.016 C 
HETATM   29  C30 UNL     1       8.598  40.658  30.118  1.00  0.00     0.010 C 
HETATM   30  C31 UNL     1       6.177  40.495  30.384  1.00  0.00     0.039 C 
HETATM   31  C32 UNL     1       5.863  41.811  31.087  1.00  0.00     0.156 C 
HETATM   32  C34 UNL     1       6.056  41.633  32.599  1.00  0.00     0.203 C 
ENDROOT
BRANCH  10  33
HETATM   33  C11 UNL     1      -2.363  39.229  30.410  1.00  0.00     0.200 C 
BRANCH  33  34
HETATM   34  O3  UNL     1      -3.029  39.735  31.548  1.00  0.00    -0.397 OA
ATOM     35  H3  UNL     1      -3.638  39.105  31.916  1.00  0.00     0.209 HD
ENDBRANCH  33  34
ENDBRANCH  10  33
BRANCH  13  36
HETATM   36  O4  UNL     1      -1.635  36.455  28.867  1.00  0.00    -0.394 OA
ATOM     37  H4  UNL     1      -2.380  36.991  28.623  1.00  0.00     0.210 HD
ENDBRANCH  13  36
BRANCH  16  38
HETATM   38  O5  UNL     1      -0.394  36.615  26.585  1.00  0.00    -0.388 OA
HETATM   39  C18 UNL     1      -0.948  35.539  25.865  1.00  0.00     0.202 C 
ENDBRANCH  16  38
BRANCH   1  40
HETATM   40  O1  UNL     1       5.922  43.906  33.513  1.00  0.00    -0.358 OA
HETATM   41  C1  UNL     1       7.292  43.983  33.866  1.00  0.00     0.209 C 
ENDBRANCH   1  40
BRANCH  21  42
HETATM   42  O6  UNL     1       4.290  36.144  27.976  1.00  0.00    -0.377 OA
ATOM     43  H6  UNL     1       5.142  36.127  28.394  1.00  0.00     0.212 HD
ENDBRANCH  21  42
BRANCH  32  44
HETATM   44  O8  UNL     1       5.869  40.318  32.971  1.00  0.00    -0.386 OA
ATOM     45  H8  UNL     1       6.037  39.675  32.293  1.00  0.00     0.210 HD
ENDBRANCH  32  44
BRANCH  31  46
HETATM   46  O7  UNL     1       6.654  42.806  30.560  1.00  0.00    -0.388 OA
HETATM   47  C33 UNL     1       5.976  43.879  30.022  1.00  0.00     0.202 C 
ENDBRANCH  31  46
TORSDOF 8
ENDMDL
MODEL 3
REMARK VINA RESULT: -5.970920920     10.939     15.829
REMARK  8 active torsions:
REMARK  status: ('A' for Active; 'I' for Inactive)
REMARK    1  A    between atoms: O1_2  and  C2_3 
REMARK    2  A    between atoms: C10_12  and  C11_13 
REMARK    3  A    between atoms: C11_13  and  O3_14 
REMARK    4  A    between atoms: C14_18  and  O4_19 
REMARK    5  A    between atoms: C17_23  and  O5_24 
REMARK    6  A    between atoms: C22_30  and  O6_31 
REMARK    7  A    between atoms: C32_42  and  O7_43 
REMARK    8  A    between atoms: C34_45  and  O8_46 
ROOT
HETATM    1  C2  UNL     1       3.213  35.736  24.826  1.00  0.00     0.073 C 
HETATM    2  C3  UNL     1       2.011  35.378  25.173  1.00  0.00     0.012 C 
HETATM    3  C4  UNL     1       0.957  36.146  25.854  1.00  0.00     0.009 C 
HETATM    4  C5  UNL     1      -0.401  35.563  25.404  1.00  0.00     0.014 C 
HETATM    5  C6  UNL     1       1.076  35.939  27.344  1.00  0.00     0.040 C 
HETATM    6  C7  UNL     1       0.666  37.184  28.138  1.00  0.00     0.124 C 
HETATM    7  C8  UNL     1      -0.702  37.589  27.720  1.00  0.00     0.040 C 
HETATM    8  O2  UNL     1       0.921  37.048  29.479  1.00  0.00    -0.358 OA
HETATM    9  C9  UNL     1       0.229  36.545  30.542  1.00  0.00     0.140 C 
HETATM   10  C10 UNL     1      -0.414  37.328  31.417  1.00  0.00    -0.029 C 
HETATM   11  C12 UNL     1      -0.412  38.825  31.300  1.00  0.00     0.044 C 
HETATM   12  C13 UNL     1      -1.849  39.277  31.255  1.00  0.00     0.017 C 
HETATM   13  C14 UNL     1       0.231  39.454  32.523  1.00  0.00     0.132 C 
HETATM   14  C15 UNL     1       1.085  40.616  32.103  1.00  0.00     0.042 C 
HETATM   15  C16 UNL     1       0.324  41.776  31.533  1.00  0.00     0.015 C 
HETATM   16  C17 UNL     1       2.053  41.059  33.178  1.00  0.00     0.149 C 
HETATM   17  C19 UNL     1       3.507  40.756  32.784  1.00  0.00     0.106 C 
HETATM   18  C20 UNL     1       4.168  39.944  33.909  1.00  0.00     0.034 C 
HETATM   19  N1  UNL     1       4.279  41.884  32.534  1.00  0.00    -0.385 N 
HETATM   20  C21 UNL     1       4.182  42.980  33.430  1.00  0.00     0.146 C 
HETATM   21  C22 UNL     1       4.708  42.195  31.212  1.00  0.00     0.219 C 
HETATM   22  C23 UNL     1       5.926  41.397  30.764  1.00  0.00     0.030 C 
HETATM   23  C24 UNL     1       7.078  42.324  30.366  1.00  0.00     0.014 C 
HETATM   24  C25 UNL     1       5.548  40.540  29.604  1.00  0.00     0.012 C 
HETATM   25  C26 UNL     1       6.592  39.659  29.061  1.00  0.00    -0.018 C 
HETATM   26  C27 UNL     1       7.927  39.690  29.710  1.00  0.00     0.010 C 
HETATM   27  C28 UNL     1       6.785  40.011  27.583  1.00  0.00     0.008 C 
HETATM   28  C29 UNL     1       6.423  38.857  26.677  1.00  0.00    -0.016 C 
HETATM   29  C30 UNL     1       6.803  39.244  25.277  1.00  0.00     0.010 C 
HETATM   30  C31 UNL     1       4.974  38.503  26.713  1.00  0.00     0.039 C 
HETATM   31  C32 UNL     1       4.790  37.063  26.247  1.00  0.00     0.156 C 
HETATM   32  C34 UNL     1       3.859  37.044  25.027  1.00  0.00     0.203 C 
ENDROOT
BRANCH  10  33
HETATM   33  C11 UNL     1      -1.135  36.680  32.535  1.00  0.00     0.200 C 
BRANCH  33  34
HETATM   34  O3  UNL     1      -0.383  36.688  33.730  1.00  0.00    -0.397 OA
ATOM     35  H3  UNL     1      -0.910  36.459  34.486  1.00  0.00     0.209 HD
ENDBRANCH  33  34
ENDBRANCH  10  33
BRANCH  13  36
HETATM   36  O4  UNL     1      -0.664  39.748  33.520  1.00  0.00    -0.394 OA
ATOM     37  H4  UNL     1      -0.251  40.037  34.325  1.00  0.00     0.210 HD
ENDBRANCH  13  36
BRANCH  16  38
HETATM   38  O5  UNL     1       1.711  40.413  34.353  1.00  0.00    -0.388 OA
HETATM   39  C18 UNL     1       1.493  41.329  35.401  1.00  0.00     0.202 C 
ENDBRANCH  16  38
BRANCH   1  40
HETATM   40  O1  UNL     1       4.008  34.750  24.169  1.00  0.00    -0.358 OA
HETATM   41  C1  UNL     1       3.368  33.660  23.530  1.00  0.00     0.209 C 
ENDBRANCH   1  40
BRANCH  21  42
HETATM   42  O6  UNL     1       3.710  42.255  30.266  1.00  0.00    -0.377 OA
ATOM     43  H6  UNL     1       3.123  42.998  30.341  1.00  0.00     0.212 HD
ENDBRANCH  21  42
BRANCH  32  44
HETATM   44  O8  UNL     1       3.008  38.130  25.035  1.00  0.00    -0.386 OA
ATOM     45  H8  UNL     1       2.997  38.646  24.238  1.00  0.00     0.210 HD
ENDBRANCH  32  44
BRANCH  31  46
HETATM   46  O7  UNL     1       6.023  36.510  25.989  1.00  0.00    -0.388 OA
HETATM   47  C33 UNL     1       6.449  35.563  26.895  1.00  0.00     0.202 C 
ENDBRANCH  31  46
TORSDOF 8
ENDMDL
MODEL 4
REMARK VINA RESULT: -5.810348842     11.432     16.053
REMARK  8 active torsions:
REMARK  status: ('A' for Active; 'I' for Inactive)
REMARK    1  A    between atoms: O1_2  and  C2_3 
REMARK    2  A    between atoms: C10_12  and  C11_13 
REMARK    3  A    between atoms: C11_13  and  O3_14 
REMARK    4  A    between atoms: C14_18  and  O4_19 
REMARK    5  A    between atoms: C17_23  and  O5_24 
REMARK    6  A    between atoms: C22_30  and  O6_31 
REMARK    7  A    between atoms: C32_42  and  O7_43 
REMARK    8  A    between atoms: C34_45  and  O8_46 
ROOT
HETATM    1  C2  UNL     1       6.238  42.085  33.283  1.00  0.00     0.073 C 
HETATM    2  C3  UNL     1       7.257  41.921  32.491  1.00  0.00     0.012 C 
HETATM    3  C4  UNL     1       7.302  41.783  31.026  1.00  0.00     0.009 C 
HETATM    4  C5  UNL     1       8.674  42.315  30.556  1.00  0.00     0.014 C 
HETATM    5  C6  UNL     1       7.225  40.321  30.664  1.00  0.00     0.040 C 
HETATM    6  C7  UNL     1       6.481  40.087  29.345  1.00  0.00     0.124 C 
HETATM    7  C8  UNL     1       7.116  40.912  28.284  1.00  0.00     0.040 C 
HETATM    8  O2  UNL     1       6.277  38.754  29.097  1.00  0.00    -0.358 OA
HETATM    9  C9  UNL     1       6.997  37.771  28.482  1.00  0.00     0.140 C 
HETATM   10  C10 UNL     1       6.742  37.367  27.232  1.00  0.00    -0.029 C 
HETATM   11  C12 UNL     1       5.633  37.958  26.412  1.00  0.00     0.044 C 
HETATM   12  C13 UNL     1       6.239  38.472  25.132  1.00  0.00     0.017 C 
HETATM   13  C14 UNL     1       4.614  36.894  26.045  1.00  0.00     0.132 C 
HETATM   14  C15 UNL     1       3.228  37.462  26.150  1.00  0.00     0.042 C 
HETATM   15  C16 UNL     1       2.917  38.534  25.147  1.00  0.00     0.015 C 
HETATM   16  C17 UNL     1       2.153  36.400  26.182  1.00  0.00     0.149 C 
HETATM   17  C19 UNL     1       1.467  36.335  27.556  1.00  0.00     0.106 C 
HETATM   18  C20 UNL     1       1.527  34.889  28.072  1.00  0.00     0.034 C 
HETATM   19  N1  UNL     1       0.143  36.755  27.555  1.00  0.00    -0.385 N 
HETATM   20  C21 UNL     1      -0.706  36.309  26.509  1.00  0.00     0.146 C 
HETATM   21  C22 UNL     1      -0.234  37.973  28.189  1.00  0.00     0.219 C 
HETATM   22  C23 UNL     1      -0.388  37.851  29.700  1.00  0.00     0.030 C 
HETATM   23  C24 UNL     1      -1.797  38.256  30.147  1.00  0.00     0.014 C 
HETATM   24  C25 UNL     1       0.620  38.724  30.365  1.00  0.00     0.012 C 
HETATM   25  C26 UNL     1       0.652  38.701  31.836  1.00  0.00    -0.018 C 
HETATM   26  C27 UNL     1      -0.312  37.813  32.533  1.00  0.00     0.010 C 
HETATM   27  C28 UNL     1       0.414  40.129  32.335  1.00  0.00     0.008 C 
HETATM   28  C29 UNL     1       1.608  40.669  33.087  1.00  0.00    -0.016 C 
HETATM   29  C30 UNL     1       1.213  41.995  33.671  1.00  0.00     0.010 C 
HETATM   30  C31 UNL     1       2.818  40.849  32.233  1.00  0.00     0.039 C 
HETATM   31  C32 UNL     1       4.065  40.852  33.110  1.00  0.00     0.156 C 
HETATM   32  C34 UNL     1       4.814  42.178  32.916  1.00  0.00     0.203 C 
ENDROOT
BRANCH  10  33
HETATM   33  C11 UNL     1       7.585  36.293  26.660  1.00  0.00     0.200 C 
BRANCH  33  34
HETATM   34  O3  UNL     1       7.704  35.188  27.532  1.00  0.00    -0.397 OA
ATOM     35  H3  UNL     1       7.604  34.360  27.077  1.00  0.00     0.209 HD
ENDBRANCH  33  34
ENDBRANCH  10  33
BRANCH  13  36
HETATM   36  O4  UNL     1       4.877  36.276  24.850  1.00  0.00    -0.394 OA
ATOM     37  H4  UNL     1       4.692  35.344  24.857  1.00  0.00     0.210 HD
ENDBRANCH  13  36
BRANCH  16  38
HETATM   38  O5  UNL     1       2.739  35.189  25.860  1.00  0.00    -0.388 OA
HETATM   39  C18 UNL     1       2.226  34.670  24.654  1.00  0.00     0.202 C 
ENDBRANCH  16  38
BRANCH   1  40
HETATM   40  O1  UNL     1       6.523  42.188  34.677  1.00  0.00    -0.358 OA
HETATM   41  C1  UNL     1       7.840  41.937  35.133  1.00  0.00     0.209 C 
ENDBRANCH   1  40
BRANCH  21  42
HETATM   42  O6  UNL     1       0.471  39.088  27.795  1.00  0.00    -0.377 OA
ATOM     43  H6  UNL     1       0.821  39.618  28.501  1.00  0.00     0.212 HD
ENDBRANCH  21  42
BRANCH  32  44
HETATM   44  O8  UNL     1       4.558  42.714  31.671  1.00  0.00    -0.386 OA
ATOM     45  H8  UNL     1       3.675  43.039  31.542  1.00  0.00     0.210 HD
ENDBRANCH  32  44
BRANCH  31  46
HETATM   46  O7  UNL     1       3.698  40.632  34.418  1.00  0.00    -0.388 OA
HETATM   47  C33 UNL     1       4.283  39.539  35.021  1.00  0.00     0.202 C 
ENDBRANCH  31  46
TORSDOF 8
ENDMDL
MODEL 5
REMARK VINA RESULT: -5.624967247     11.044     16.437
REMARK  8 active torsions:
REMARK  status: ('A' for Active; 'I' for Inactive)
REMARK    1  A    between atoms: O1_2  and  C2_3 
REMARK    2  A    between atoms: C10_12  and  C11_13 
REMARK    3  A    between atoms: C11_13  and  O3_14 
REMARK    4  A    between atoms: C14_18  and  O4_19 
REMARK    5  A    between atoms: C17_23  and  O5_24 
REMARK    6  A    between atoms: C22_30  and  O6_31 
REMARK    7  A    between atoms: C32_42  and  O7_43 
REMARK    8  A    between atoms: C34_45  and  O8_46 
ROOT
HETATM    1  C2  UNL     1       7.383  40.245  30.081  1.00  0.00     0.073 C 
HETATM    2  C3  UNL     1       6.761  40.854  31.049  1.00  0.00     0.012 C 
HETATM    3  C4  UNL     1       5.557  40.455  31.796  1.00  0.00     0.009 C 
HETATM    4  C5  UNL     1       5.656  41.090  33.200  1.00  0.00     0.014 C 
HETATM    5  C6  UNL     1       4.339  41.030  31.115  1.00  0.00     0.040 C 
HETATM    6  C7  UNL     1       3.117  40.114  31.241  1.00  0.00     0.124 C 
HETATM    7  C8  UNL     1       2.887  39.817  32.679  1.00  0.00     0.040 C 
HETATM    8  O2  UNL     1       2.058  40.562  30.493  1.00  0.00    -0.358 OA
HETATM    9  C9  UNL     1       1.023  41.423  30.713  1.00  0.00     0.140 C 
HETATM   10  C10 UNL     1      -0.213  41.003  31.007  1.00  0.00    -0.029 C 
HETATM   11  C12 UNL     1      -0.559  39.545  31.104  1.00  0.00     0.044 C 
HETATM   12  C13 UNL     1      -1.157  39.311  32.468  1.00  0.00     0.017 C 
HETATM   13  C14 UNL     1      -1.608  39.175  30.071  1.00  0.00     0.132 C 
HETATM   14  C15 UNL     1      -1.285  37.832  29.481  1.00  0.00     0.042 C 
HETATM   15  C16 UNL     1      -1.394  36.686  30.444  1.00  0.00     0.015 C 
HETATM   16  C17 UNL     1      -2.032  37.554  28.196  1.00  0.00     0.149 C 
HETATM   17  C19 UNL     1      -1.083  37.525  26.988  1.00  0.00     0.106 C 
HETATM   18  C20 UNL     1      -1.606  38.501  25.922  1.00  0.00     0.034 C 
HETATM   19  N1  UNL     1      -0.930  36.272  26.410  1.00  0.00    -0.385 N 
HETATM   20  C21 UNL     1      -2.088  35.478  26.202  1.00  0.00     0.146 C 
HETATM   21  C22 UNL     1       0.300  35.563  26.524  1.00  0.00     0.219 C 
HETATM   22  C23 UNL     1       1.364  36.027  25.537  1.00  0.00     0.030 C 
HETATM   23  C24 UNL     1       1.842  34.869  24.654  1.00  0.00     0.014 C 
HETATM   24  C25 UNL     1       2.518  36.592  26.293  1.00  0.00     0.012 C 
HETATM   25  C26 UNL     1       3.630  37.136  25.499  1.00  0.00    -0.018 C 
HETATM   26  C27 UNL     1       3.513  37.083  24.020  1.00  0.00     0.010 C 
HETATM   27  C28 UNL     1       4.903  36.380  25.892  1.00  0.00     0.008 C 
HETATM   28  C29 UNL     1       5.927  37.293  26.526  1.00  0.00    -0.016 C 
HETATM   29  C30 UNL     1       7.186  36.497  26.717  1.00  0.00     0.010 C 
HETATM   30  C31 UNL     1       5.494  37.851  27.840  1.00  0.00     0.039 C 
HETATM   31  C32 UNL     1       6.275  39.127  28.134  1.00  0.00     0.156 C 
HETATM   32  C34 UNL     1       7.038  38.957  29.455  1.00  0.00     0.203 C 
ENDROOT
BRANCH  10  33
HETATM   33  C11 UNL     1      -1.263  42.022  31.229  1.00  0.00     0.200 C 
BRANCH  33  34
HETATM   34  O3  UNL     1      -1.555  42.750  30.054  1.00  0.00    -0.397 OA
ATOM     35  H3  UNL     1      -2.093  43.513  30.231  1.00  0.00     0.209 HD
ENDBRANCH  33  34
ENDBRANCH  10  33
BRANCH  13  36
HETATM   36  O4  UNL     1      -2.894  39.289  30.533  1.00  0.00    -0.394 OA
ATOM     37  H4  UNL     1      -3.298  40.123  30.325  1.00  0.00     0.210 HD
ENDBRANCH  13  36
BRANCH  16  38
HETATM   38  O5  UNL     1      -3.001  38.531  28.046  1.00  0.00    -0.388 OA
HETATM   39  C18 UNL     1      -4.283  37.967  27.890  1.00  0.00     0.202 C 
ENDBRANCH  16  38
BRANCH   1  40
HETATM   40  O1  UNL     1       8.539  40.895  29.557  1.00  0.00    -0.358 OA
HETATM   41  C1  UNL     1       9.756  40.828  30.280  1.00  0.00     0.209 C 
ENDBRANCH   1  40
BRANCH  21  42
HETATM   42  O6  UNL     1       0.772  35.400  27.806  1.00  0.00    -0.377 OA
ATOM     43  H6  UNL     1       0.258  35.821  28.486  1.00  0.00     0.212 HD
ENDBRANCH  21  42
BRANCH  32  44
HETATM   44  O8  UNL     1       6.406  38.049  30.279  1.00  0.00    -0.386 OA
ATOM     45  H8  UNL     1       6.218  37.204  29.887  1.00  0.00     0.210 HD
ENDBRANCH  32  44
BRANCH  31  46
HETATM   46  O7  UNL     1       7.102  39.405  27.070  1.00  0.00    -0.388 OA
HETATM   47  C33 UNL     1       6.785  40.541  26.356  1.00  0.00     0.202 C 
ENDBRANCH  31  46
TORSDOF 8
ENDMDL
