MODEL 1
REMARK VINA RESULT: -6.539379094      0.000      0.000
REMARK  8 active torsions:
REMARK  status: ('A' for Active; 'I' for Inactive)
REMARK    1  A    between atoms: N1_2  and  N2_3 
REMARK    2  A    between atoms: N1_2  and  C2_7 
REMARK    3  A    between atoms: N2_3  and  O1_5 
REMARK    4  A    between atoms: C2_7  and  C3_8 
REMARK    5  A    between atoms: C3_8  and  C4_9 
REMARK    6  A    between atoms: C4_9  and  N4_13 
REMARK    7  A    between atoms: N4_13  and  C5_15 
REMARK    8  A    between atoms: N5_19  and  C9_21 
ROOT
HETATM    1  C2  UNL     1     -43.591   1.050  72.802  1.00  0.00     0.103 C 
HETATM    2  N5  UNL     1     -43.640  -0.191  72.951  1.00  0.00    -0.370 N 
ATOM      3  H5  UNL     1     -44.453  -0.624  72.514  1.00  0.00     0.161 HD
ENDROOT
BRANCH   1   4
HETATM    4  N1  UNL     1     -42.530   1.806  73.347  1.00  0.00    -0.265 N 
HETATM    5  C1  UNL     1     -41.227   1.735  72.752  1.00  0.00     0.181 C 
BRANCH   4   6
HETATM    6  N2  UNL     1     -42.739   2.619  74.444  1.00  0.00    -0.207 N 
ATOM      7  H2  UNL     1     -43.593   2.528  74.994  1.00  0.00     0.216 HD
BRANCH   6   8
HETATM    8  O1  UNL     1     -41.886   3.455  74.752  1.00  0.00    -0.274 OA
ATOM      9  H1  UNL     1     -41.999   3.968  75.543  1.00  0.00     0.246 HD
ENDBRANCH   6   8
ENDBRANCH   4   6
ENDBRANCH   1   4
BRANCH   1  10
HETATM   10  C3  UNL     1     -44.607   1.828  72.064  1.00  0.00     0.153 C 
BRANCH  10  11
HETATM   11  C4  UNL     1     -44.205   2.357  70.767  1.00  0.00     0.078 C 
HETATM   12  N3  UNL     1     -44.758   3.402  70.270  1.00  0.00    -0.389 N 
ATOM     13  H32 UNL     1     -45.491   3.827  70.838  1.00  0.00     0.157 HD
ATOM     14  H31 UNL     1     -44.477   3.772  69.363  1.00  0.00     0.157 HD
BRANCH  11  15
HETATM   15  N4  UNL     1     -43.177   1.761  69.971  1.00  0.00    -0.372 N 
ATOM     16  H4  UNL     1     -42.209   2.008  70.174  1.00  0.00     0.161 HD
BRANCH  15  17
HETATM   17  C5  UNL     1     -43.425   0.842  68.910  1.00  0.00     0.020 C 
HETATM   18  C6  UNL     1     -44.578   1.330  68.072  1.00  0.00     0.037 C 
HETATM   19  C7  UNL     1     -42.211   0.784  67.981  1.00  0.00     0.037 C 
HETATM   20  C8  UNL     1     -43.656  -0.571  69.391  1.00  0.00     0.037 C 
ENDBRANCH  15  17
ENDBRANCH  11  15
ENDBRANCH  10  11
ENDBRANCH   1  10
BRANCH   2  21
HETATM   21  C9  UNL     1     -42.792  -1.114  73.607  1.00  0.00     0.020 C 
HETATM   22  C10 UNL     1     -43.569  -2.445  73.647  1.00  0.00     0.037 C 
HETATM   23  C11 UNL     1     -42.444  -0.770  75.015  1.00  0.00     0.037 C 
HETATM   24  C12 UNL     1     -41.513  -1.453  72.856  1.00  0.00     0.037 C 
ENDBRANCH   2  21
TORSDOF 8
ENDMDL
MODEL 2
REMARK VINA RESULT: -6.529143287      2.711      4.326
REMARK  8 active torsions:
REMARK  status: ('A' for Active; 'I' for Inactive)
REMARK    1  A    between atoms: N1_2  and  N2_3 
REMARK    2  A    between atoms: N1_2  and  C2_7 
REMARK    3  A    between atoms: N2_3  and  O1_5 
REMARK    4  A    between atoms: C2_7  and  C3_8 
REMARK    5  A    between atoms: C3_8  and  C4_9 
REMARK    6  A    between atoms: C4_9  and  N4_13 
REMARK    7  A    between atoms: N4_13  and  C5_15 
REMARK    8  A    between atoms: N5_19  and  C9_21 
ROOT
HETATM    1  C2  UNL     1     -41.954  -1.045  72.795  1.00  0.00     0.103 C 
HETATM    2  N5  UNL     1     -41.901   0.195  72.946  1.00  0.00    -0.370 N 
ATOM      3  H5  UNL     1     -41.087   0.626  72.507  1.00  0.00     0.161 HD
ENDROOT
BRANCH   1   4
HETATM    4  N1  UNL     1     -43.015  -1.798  73.342  1.00  0.00    -0.265 N 
HETATM    5  C1  UNL     1     -44.318  -1.728  72.745  1.00  0.00     0.181 C 
BRANCH   4   6
HETATM    6  N2  UNL     1     -42.808  -2.607  74.441  1.00  0.00    -0.207 N 
ATOM      7  H2  UNL     1     -41.962  -2.506  75.001  1.00  0.00     0.216 HD
BRANCH   6   8
HETATM    8  O1  UNL     1     -43.654  -3.454  74.741  1.00  0.00    -0.274 OA
ATOM      9  H1  UNL     1     -43.640  -3.844  75.607  1.00  0.00     0.246 HD
ENDBRANCH   6   8
ENDBRANCH   4   6
ENDBRANCH   1   4
BRANCH   1  10
HETATM   10  C3  UNL     1     -40.942  -1.825  72.054  1.00  0.00     0.153 C 
BRANCH  10  11
HETATM   11  C4  UNL     1     -41.348  -2.350  70.756  1.00  0.00     0.078 C 
HETATM   12  N3  UNL     1     -40.798  -3.394  70.255  1.00  0.00    -0.389 N 
ATOM     13  H32 UNL     1     -40.064  -3.822  70.821  1.00  0.00     0.157 HD
ATOM     14  H31 UNL     1     -41.082  -3.762  69.348  1.00  0.00     0.157 HD
BRANCH  11  15
HETATM   15  N4  UNL     1     -42.376  -1.750  69.965  1.00  0.00    -0.372 N 
ATOM     16  H4  UNL     1     -43.344  -1.996  70.169  1.00  0.00     0.161 HD
BRANCH  15  17
HETATM   17  C5  UNL     1     -42.129  -0.827  68.907  1.00  0.00     0.020 C 
HETATM   18  C6  UNL     1     -40.972  -1.308  68.071  1.00  0.00     0.037 C 
HETATM   19  C7  UNL     1     -43.341  -0.773  67.974  1.00  0.00     0.037 C 
HETATM   20  C8  UNL     1     -41.907   0.586  69.391  1.00  0.00     0.037 C 
ENDBRANCH  15  17
ENDBRANCH  11  15
ENDBRANCH  10  11
ENDBRANCH   1  10
BRANCH   2  21
HETATM   21  C9  UNL     1     -42.744   1.121  73.605  1.00  0.00     0.020 C 
HETATM   22  C10 UNL     1     -41.957   2.446  73.656  1.00  0.00     0.037 C 
HETATM   23  C11 UNL     1     -43.099   0.770  75.009  1.00  0.00     0.037 C 
HETATM   24  C12 UNL     1     -44.018   1.474  72.852  1.00  0.00     0.037 C 
ENDBRANCH   2  21
TORSDOF 8
ENDMDL
MODEL 3
REMARK VINA RESULT: -6.332252154      0.974      1.309
REMARK  8 active torsions:
REMARK  status: ('A' for Active; 'I' for Inactive)
REMARK    1  A    between atoms: N1_2  and  N2_3 
REMARK    2  A    between atoms: N1_2  and  C2_7 
REMARK    3  A    between atoms: N2_3  and  O1_5 
REMARK    4  A    between atoms: C2_7  and  C3_8 
REMARK    5  A    between atoms: C3_8  and  C4_9 
REMARK    6  A    between atoms: C4_9  and  N4_13 
REMARK    7  A    between atoms: N4_13  and  C5_15 
REMARK    8  A    between atoms: N5_19  and  C9_21 
ROOT
HETATM    1  C2  UNL     1     -43.272   0.994  72.275  1.00  0.00     0.103 C 
HETATM    2  N5  UNL     1     -43.466  -0.210  72.555  1.00  0.00    -0.370 N 
ATOM      3  H5  UNL     1     -44.195  -0.648  71.991  1.00  0.00     0.161 HD
ENDROOT
BRANCH   1   4
HETATM    4  N1  UNL     1     -42.298   1.751  72.963  1.00  0.00    -0.265 N 
HETATM    5  C1  UNL     1     -40.914   1.622  72.605  1.00  0.00     0.181 C 
BRANCH   4   6
HETATM    6  N2  UNL     1     -42.667   2.620  73.970  1.00  0.00    -0.207 N 
ATOM      7  H2  UNL     1     -43.634   2.648  74.295  1.00  0.00     0.216 HD
BRANCH   6   8
HETATM    8  O1  UNL     1     -41.820   3.362  74.474  1.00  0.00    -0.274 OA
ATOM      9  H1  UNL     1     -40.922   3.064  74.548  1.00  0.00     0.246 HD
ENDBRANCH   6   8
ENDBRANCH   4   6
ENDBRANCH   1   4
BRANCH   1  10
HETATM   10  C3  UNL     1     -44.019   1.724  71.231  1.00  0.00     0.153 C 
BRANCH  10  11
HETATM   11  C4  UNL     1     -43.567   1.539  69.858  1.00  0.00     0.078 C 
HETATM   12  N3  UNL     1     -44.140   2.138  68.879  1.00  0.00    -0.389 N 
ATOM     13  H32 UNL     1     -44.924   2.742  69.127  1.00  0.00     0.157 HD
ATOM     14  H31 UNL     1     -43.824   2.008  67.918  1.00  0.00     0.157 HD
BRANCH  11  15
HETATM   15  N4  UNL     1     -42.469   0.693  69.511  1.00  0.00    -0.372 N 
ATOM     16  H4  UNL     1     -41.532   0.984  69.791  1.00  0.00     0.161 HD
BRANCH  15  17
HETATM   17  C5  UNL     1     -42.603  -0.533  68.797  1.00  0.00     0.020 C 
HETATM   18  C6  UNL     1     -42.140  -0.349  67.376  1.00  0.00     0.037 C 
HETATM   19  C7  UNL     1     -41.690  -1.595  69.415  1.00  0.00     0.037 C 
HETATM   20  C8  UNL     1     -44.002  -1.100  68.850  1.00  0.00     0.037 C 
ENDBRANCH  15  17
ENDBRANCH  11  15
ENDBRANCH  10  11
ENDBRANCH   1  10
BRANCH   2  21
HETATM   21  C9  UNL     1     -42.876  -1.085  73.496  1.00  0.00     0.020 C 
HETATM   22  C10 UNL     1     -43.745  -2.359  73.489  1.00  0.00     0.037 C 
HETATM   23  C11 UNL     1     -42.848  -0.585  74.900  1.00  0.00     0.037 C 
HETATM   24  C12 UNL     1     -41.486  -1.581  73.126  1.00  0.00     0.037 C 
ENDBRANCH   2  21
TORSDOF 8
ENDMDL
MODEL 4
REMARK VINA RESULT: -6.329878549      2.493      3.952
REMARK  8 active torsions:
REMARK  status: ('A' for Active; 'I' for Inactive)
REMARK    1  A    between atoms: N1_2  and  N2_3 
REMARK    2  A    between atoms: N1_2  and  C2_7 
REMARK    3  A    between atoms: N2_3  and  O1_5 
REMARK    4  A    between atoms: C2_7  and  C3_8 
REMARK    5  A    between atoms: C3_8  and  C4_9 
REMARK    6  A    between atoms: C4_9  and  N4_13 
REMARK    7  A    between atoms: N4_13  and  C5_15 
REMARK    8  A    between atoms: N5_19  and  C9_21 
ROOT
HETATM    1  C2  UNL     1     -42.272  -0.991  72.276  1.00  0.00     0.103 C 
HETATM    2  N5  UNL     1     -42.079   0.211  72.562  1.00  0.00    -0.370 N 
ATOM      3  H5  UNL     1     -41.349   0.652  72.001  1.00  0.00     0.161 HD
ENDROOT
BRANCH   1   4
HETATM    4  N1  UNL     1     -43.245  -1.752  72.959  1.00  0.00    -0.265 N 
HETATM    5  C1  UNL     1     -44.629  -1.620  72.603  1.00  0.00     0.181 C 
BRANCH   4   6
HETATM    6  N2  UNL     1     -42.876  -2.628  73.960  1.00  0.00    -0.207 N 
ATOM      7  H2  UNL     1     -41.905  -2.676  74.268  1.00  0.00     0.216 HD
BRANCH   6   8
HETATM    8  O1  UNL     1     -43.729  -3.353  74.479  1.00  0.00    -0.274 OA
ATOM      9  H1  UNL     1     -44.407  -2.965  75.019  1.00  0.00     0.246 HD
ENDBRANCH   6   8
ENDBRANCH   4   6
ENDBRANCH   1   4
BRANCH   1  10
HETATM   10  C3  UNL     1     -41.523  -1.716  71.229  1.00  0.00     0.153 C 
BRANCH  10  11
HETATM   11  C4  UNL     1     -41.984  -1.535  69.858  1.00  0.00     0.078 C 
HETATM   12  N3  UNL     1     -41.418  -2.137  68.877  1.00  0.00    -0.389 N 
ATOM     13  H32 UNL     1     -40.632  -2.741  69.122  1.00  0.00     0.157 HD
ATOM     14  H31 UNL     1     -41.740  -2.011  67.918  1.00  0.00     0.157 HD
BRANCH  11  15
HETATM   15  N4  UNL     1     -43.085  -0.690  69.515  1.00  0.00    -0.372 N 
ATOM     16  H4  UNL     1     -44.021  -0.985  69.794  1.00  0.00     0.161 HD
BRANCH  15  17
HETATM   17  C5  UNL     1     -42.954   0.539  68.806  1.00  0.00     0.020 C 
HETATM   18  C6  UNL     1     -43.437   0.365  67.390  1.00  0.00     0.037 C 
HETATM   19  C7  UNL     1     -43.854   1.601  69.441  1.00  0.00     0.037 C 
HETATM   20  C8  UNL     1     -41.552   1.099  68.844  1.00  0.00     0.037 C 
ENDBRANCH  15  17
ENDBRANCH  11  15
ENDBRANCH  10  11
ENDBRANCH   1  10
BRANCH   2  21
HETATM   21  C9  UNL     1     -42.669   1.081  73.507  1.00  0.00     0.020 C 
HETATM   22  C10 UNL     1     -41.802   2.357  73.506  1.00  0.00     0.037 C 
HETATM   23  C11 UNL     1     -42.695   0.574  74.909  1.00  0.00     0.037 C 
HETATM   24  C12 UNL     1     -44.060   1.577  73.140  1.00  0.00     0.037 C 
ENDBRANCH   2  21
TORSDOF 8
ENDMDL
MODEL 5
REMARK VINA RESULT: -6.311232676      2.670      3.761
REMARK  8 active torsions:
REMARK  status: ('A' for Active; 'I' for Inactive)
REMARK    1  A    between atoms: N1_2  and  N2_3 
REMARK    2  A    between atoms: N1_2  and  C2_7 
REMARK    3  A    between atoms: N2_3  and  O1_5 
REMARK    4  A    between atoms: C2_7  and  C3_8 
REMARK    5  A    between atoms: C3_8  and  C4_9 
REMARK    6  A    between atoms: C4_9  and  N4_13 
REMARK    7  A    between atoms: N4_13  and  C5_15 
REMARK    8  A    between atoms: N5_19  and  C9_21 
ROOT
HETATM    1  C2  UNL     1     -42.955  -0.754  71.877  1.00  0.00     0.103 C 
HETATM    2  N5  UNL     1     -42.838   0.390  72.370  1.00  0.00    -0.370 N 
ATOM      3  H5  UNL     1     -43.354   1.109  71.861  1.00  0.00     0.161 HD
ENDROOT
BRANCH   1   4
HETATM    4  N1  UNL     1     -42.302  -1.863  72.457  1.00  0.00    -0.265 N 
HETATM    5  C1  UNL     1     -42.941  -2.589  73.518  1.00  0.00     0.181 C 
BRANCH   4   6
HETATM    6  N2  UNL     1     -41.059  -2.261  72.007  1.00  0.00    -0.207 N 
ATOM      7  H2  UNL     1     -40.214  -1.883  72.435  1.00  0.00     0.216 HD
BRANCH   6   8
HETATM    8  O1  UNL     1     -40.979  -3.076  71.084  1.00  0.00    -0.274 OA
ATOM      9  H1  UNL     1     -41.022  -2.770  70.186  1.00  0.00     0.246 HD
ENDBRANCH   6   8
ENDBRANCH   4   6
ENDBRANCH   1   4
BRANCH   1  10
HETATM   10  C3  UNL     1     -43.760  -1.051  70.676  1.00  0.00     0.153 C 
BRANCH  10  11
HETATM   11  C4  UNL     1     -43.140  -0.759  69.389  1.00  0.00     0.078 C 
HETATM   12  N3  UNL     1     -42.182  -1.476  68.931  1.00  0.00    -0.389 N 
ATOM     13  H32 UNL     1     -41.887  -2.253  69.524  1.00  0.00     0.157 HD
ATOM     14  H31 UNL     1     -41.748  -1.272  68.031  1.00  0.00     0.157 HD
BRANCH  11  15
HETATM   15  N4  UNL     1     -43.554   0.329  68.559  1.00  0.00    -0.372 N 
ATOM     16  H4  UNL     1     -43.221   1.264  68.792  1.00  0.00     0.161 HD
BRANCH  15  17
HETATM   17  C5  UNL     1     -44.404   0.185  67.424  1.00  0.00     0.020 C 
HETATM   18  C6  UNL     1     -45.262   1.413  67.271  1.00  0.00     0.037 C 
HETATM   19  C7  UNL     1     -43.558   0.089  66.153  1.00  0.00     0.037 C 
HETATM   20  C8  UNL     1     -45.243  -1.070  67.467  1.00  0.00     0.037 C 
ENDBRANCH  15  17
ENDBRANCH  11  15
ENDBRANCH  10  11
ENDBRANCH   1  10
BRANCH   2  21
HETATM   21  C9  UNL     1     -42.133   0.887  73.490  1.00  0.00     0.020 C 
HETATM   22  C10 UNL     1     -42.399   2.406  73.517  1.00  0.00     0.037 C 
HETATM   23  C11 UNL     1     -40.654   0.706  73.443  1.00  0.00     0.037 C 
HETATM   24  C12 UNL     1     -42.643   0.397  74.837  1.00  0.00     0.037 C 
ENDBRANCH   2  21
TORSDOF 8
ENDMDL
