MODEL 1
REMARK VINA RESULT: -7.081898408      0.000      0.000
REMARK  4 active torsions:
REMARK  status: ('A' for Active; 'I' for Inactive)
REMARK    1  A    between atoms: C2_2  and  C3_3 
REMARK    2  A    between atoms: C3_3  and  C4_4 
REMARK    3  A    between atoms: C7_9  and  O3_10 
REMARK    4  A    between atoms: C10_14  and  O4_15 
ROOT
HETATM    1  C4  UNL     1     -42.903  -0.016  70.292  1.00  0.00     0.163 C 
HETATM    2  C5  UNL     1     -43.372   0.948  71.362  1.00  0.00     0.080 C 
HETATM    3  C6  UNL     1     -42.910   0.226  72.615  1.00  0.00     0.133 C 
HETATM    4  O1  UNL     1     -42.284  -0.910  72.077  1.00  0.00    -0.226 OA
HETATM    5  O2  UNL     1     -42.964  -1.214  70.969  1.00  0.00    -0.234 OA
HETATM    6  C7  UNL     1     -44.101  -0.312  73.412  1.00  0.00     0.157 C 
HETATM    7  C8  UNL     1     -43.574  -1.116  74.561  1.00  0.00     0.037 C 
HETATM    8  C9  UNL     1     -42.618  -0.389  75.439  1.00  0.00     0.035 C 
HETATM    9  C10 UNL     1     -42.466   1.017  74.921  1.00  0.00     0.129 C 
HETATM   10  C11 UNL     1     -41.997   1.032  73.469  1.00  0.00     0.015 C 
HETATM   11  C12 UNL     1     -40.600   0.474  73.331  1.00  0.00     0.021 C 
HETATM   12  C13 UNL     1     -41.938   2.498  73.090  1.00  0.00     0.021 C 
ENDROOT
BRANCH   6  13
HETATM   13  O3  UNL     1     -44.792  -1.228  72.585  1.00  0.00    -0.392 OA
ATOM     14  H3  UNL     1     -45.700  -1.239  72.863  1.00  0.00     0.210 HD
ENDBRANCH   6  13
BRANCH   1  15
HETATM   15  C3  UNL     1     -43.646   0.047  69.025  1.00  0.00     0.035 C 
BRANCH  15  16
HETATM   16  C2  UNL     1     -44.030   1.398  68.541  1.00  0.00    -0.002 C 
HETATM   17  C1  UNL     1     -45.054   1.260  67.430  1.00  0.00     0.005 C 
ENDBRANCH  15  16
ENDBRANCH   1  15
BRANCH   9  18
HETATM   18  O4  UNL     1     -41.732   1.841  75.732  1.00  0.00    -0.395 OA
ATOM     19  H4  UNL     1     -41.157   2.438  75.266  1.00  0.00     0.210 HD
ENDBRANCH   9  18
TORSDOF 4
ENDMDL
MODEL 2
REMARK VINA RESULT: -7.075306698      1.897      3.089
REMARK  4 active torsions:
REMARK  status: ('A' for Active; 'I' for Inactive)
REMARK    1  A    between atoms: C2_2  and  C3_3 
REMARK    2  A    between atoms: C3_3  and  C4_4 
REMARK    3  A    between atoms: C7_9  and  O3_10 
REMARK    4  A    between atoms: C10_14  and  O4_15 
ROOT
HETATM    1  C4  UNL     1     -42.569   0.178  70.380  1.00  0.00     0.163 C 
HETATM    2  C5  UNL     1     -42.110  -0.836  71.407  1.00  0.00     0.080 C 
HETATM    3  C6  UNL     1     -42.591  -0.178  72.688  1.00  0.00     0.133 C 
HETATM    4  O1  UNL     1     -43.214   0.981  72.198  1.00  0.00    -0.226 OA
HETATM    5  O2  UNL     1     -42.522   1.342  71.115  1.00  0.00    -0.234 OA
HETATM    6  C7  UNL     1     -41.412   0.325  73.525  1.00  0.00     0.157 C 
HETATM    7  C8  UNL     1     -41.957   1.069  74.706  1.00  0.00     0.037 C 
HETATM    8  C9  UNL     1     -42.921   0.296  75.534  1.00  0.00     0.035 C 
HETATM    9  C10 UNL     1     -43.060  -1.082  74.946  1.00  0.00     0.129 C 
HETATM   10  C11 UNL     1     -43.511  -1.028  73.490  1.00  0.00     0.015 C 
HETATM   11  C12 UNL     1     -44.909  -0.469  73.361  1.00  0.00     0.021 C 
HETATM   12  C13 UNL     1     -43.559  -2.474  73.038  1.00  0.00     0.021 C 
ENDROOT
BRANCH   6  13
HETATM   13  O3  UNL     1     -40.715   1.282  72.753  1.00  0.00    -0.392 OA
ATOM     14  H3  UNL     1     -40.788   2.118  73.197  1.00  0.00     0.210 HD
ENDBRANCH   6  13
BRANCH   1  15
HETATM   15  C3  UNL     1     -41.810   0.180  69.121  1.00  0.00     0.035 C 
BRANCH  15  16
HETATM   16  C2  UNL     1     -41.837   1.433  68.325  1.00  0.00    -0.002 C 
HETATM   17  C1  UNL     1     -40.414   1.861  68.016  1.00  0.00     0.005 C 
ENDBRANCH  15  16
ENDBRANCH   1  15
BRANCH   9  18
HETATM   18  O4  UNL     1     -43.802  -1.948  75.706  1.00  0.00    -0.395 OA
ATOM     19  H4  UNL     1     -44.740  -1.808  75.657  1.00  0.00     0.210 HD
ENDBRANCH   9  18
TORSDOF 4
ENDMDL
MODEL 3
REMARK VINA RESULT: -7.067908945      1.938      3.217
REMARK  4 active torsions:
REMARK  status: ('A' for Active; 'I' for Inactive)
REMARK    1  A    between atoms: C2_2  and  C3_3 
REMARK    2  A    between atoms: C3_3  and  C4_4 
REMARK    3  A    between atoms: C7_9  and  O3_10 
REMARK    4  A    between atoms: C10_14  and  O4_15 
ROOT
HETATM    1  C4  UNL     1     -42.617  -0.044  70.277  1.00  0.00     0.163 C 
HETATM    2  C5  UNL     1     -42.149  -0.986  71.367  1.00  0.00     0.080 C 
HETATM    3  C6  UNL     1     -42.614  -0.239  72.604  1.00  0.00     0.133 C 
HETATM    4  O1  UNL     1     -43.240   0.885  72.042  1.00  0.00    -0.226 OA
HETATM    5  O2  UNL     1     -42.559   1.167  70.930  1.00  0.00    -0.234 OA
HETATM    6  C7  UNL     1     -41.425   0.317  73.392  1.00  0.00     0.157 C 
HETATM    7  C8  UNL     1     -41.955   1.143  74.524  1.00  0.00     0.037 C 
HETATM    8  C9  UNL     1     -42.912   0.432  75.415  1.00  0.00     0.035 C 
HETATM    9  C10 UNL     1     -43.061  -0.983  74.926  1.00  0.00     0.129 C 
HETATM   10  C11 UNL     1     -43.528  -1.028  73.473  1.00  0.00     0.015 C 
HETATM   11  C12 UNL     1     -44.925  -0.475  73.321  1.00  0.00     0.021 C 
HETATM   12  C13 UNL     1     -43.585  -2.502  73.124  1.00  0.00     0.021 C 
ENDROOT
BRANCH   6  13
HETATM   13  O3  UNL     1     -40.734   1.216  72.548  1.00  0.00    -0.392 OA
ATOM     14  H3  UNL     1     -39.805   1.103  72.706  1.00  0.00     0.210 HD
ENDBRANCH   6  13
BRANCH   1  15
HETATM   15  C3  UNL     1     -41.871  -0.133  69.014  1.00  0.00     0.035 C 
BRANCH  15  16
HETATM   16  C2  UNL     1     -41.476  -1.491  68.562  1.00  0.00    -0.002 C 
HETATM   17  C1  UNL     1     -40.460  -1.372  67.442  1.00  0.00     0.005 C 
ENDBRANCH  15  16
ENDBRANCH   1  15
BRANCH   9  18
HETATM   18  O4  UNL     1     -43.796  -1.792  75.751  1.00  0.00    -0.395 OA
ATOM     19  H4  UNL     1     -44.031  -1.395  76.582  1.00  0.00     0.210 HD
ENDBRANCH   9  18
TORSDOF 4
ENDMDL
MODEL 4
REMARK VINA RESULT: -6.945614114      1.422      1.558
REMARK  4 active torsions:
REMARK  status: ('A' for Active; 'I' for Inactive)
REMARK    1  A    between atoms: C2_2  and  C3_3 
REMARK    2  A    between atoms: C3_3  and  C4_4 
REMARK    3  A    between atoms: C7_9  and  O3_10 
REMARK    4  A    between atoms: C10_14  and  O4_15 
ROOT
HETATM    1  C4  UNL     1     -42.316  -0.943  70.258  1.00  0.00     0.163 C 
HETATM    2  C5  UNL     1     -43.399  -0.243  71.053  1.00  0.00     0.080 C 
HETATM    3  C6  UNL     1     -42.740  -0.163  72.418  1.00  0.00     0.133 C 
HETATM    4  O1  UNL     1     -41.490  -0.754  72.169  1.00  0.00    -0.226 OA
HETATM    5  O2  UNL     1     -41.705  -1.690  71.241  1.00  0.00    -0.234 OA
HETATM    6  C7  UNL     1     -43.430  -1.093  73.419  1.00  0.00     0.157 C 
HETATM    7  C8  UNL     1     -42.658  -1.060  74.703  1.00  0.00     0.037 C 
HETATM    8  C9  UNL     1     -42.461   0.301  75.272  1.00  0.00     0.035 C 
HETATM    9  C10 UNL     1     -43.147   1.298  74.378  1.00  0.00     0.129 C 
HETATM   10  C11 UNL     1     -42.622   1.222  72.947  1.00  0.00     0.015 C 
HETATM   11  C12 UNL     1     -41.173   1.642  72.864  1.00  0.00     0.021 C 
HETATM   12  C13 UNL     1     -43.433   2.244  72.175  1.00  0.00     0.021 C 
ENDROOT
BRANCH   6  13
HETATM   13  O3  UNL     1     -43.310  -2.414  72.930  1.00  0.00    -0.392 OA
ATOM     14  H3  UNL     1     -42.545  -2.803  73.337  1.00  0.00     0.210 HD
ENDBRANCH   6  13
BRANCH   1  15
HETATM   15  C3  UNL     1     -42.788  -1.688  69.082  1.00  0.00     0.035 C 
BRANCH  15  16
HETATM   16  C2  UNL     1     -43.744  -0.990  68.186  1.00  0.00    -0.002 C 
HETATM   17  C1  UNL     1     -44.985  -1.846  68.012  1.00  0.00     0.005 C 
ENDBRANCH  15  16
ENDBRANCH   1  15
BRANCH   9  18
HETATM   18  O4  UNL     1     -43.174   2.575  74.872  1.00  0.00    -0.395 OA
ATOM     19  H4  UNL     1     -43.953   2.784  75.376  1.00  0.00     0.210 HD
ENDBRANCH   9  18
TORSDOF 4
ENDMDL
MODEL 5
REMARK VINA RESULT: -6.945275891      1.996      3.006
REMARK  4 active torsions:
REMARK  status: ('A' for Active; 'I' for Inactive)
REMARK    1  A    between atoms: C2_2  and  C3_3 
REMARK    2  A    between atoms: C3_3  and  C4_4 
REMARK    3  A    between atoms: C7_9  and  O3_10 
REMARK    4  A    between atoms: C10_14  and  O4_15 
ROOT
HETATM    1  C4  UNL     1     -43.243   0.951  70.264  1.00  0.00     0.163 C 
HETATM    2  C5  UNL     1     -42.160   0.256  71.063  1.00  0.00     0.080 C 
HETATM    3  C6  UNL     1     -42.825   0.170  72.425  1.00  0.00     0.133 C 
HETATM    4  O1  UNL     1     -44.077   0.755  72.171  1.00  0.00    -0.226 OA
HETATM    5  O2  UNL     1     -43.863   1.693  71.245  1.00  0.00    -0.234 OA
HETATM    6  C7  UNL     1     -42.145   1.103  73.431  1.00  0.00     0.157 C 
HETATM    7  C8  UNL     1     -42.923   1.064  74.710  1.00  0.00     0.037 C 
HETATM    8  C9  UNL     1     -43.115  -0.298  75.277  1.00  0.00     0.035 C 
HETATM    9  C10 UNL     1     -42.419  -1.291  74.385  1.00  0.00     0.129 C 
HETATM   10  C11 UNL     1     -42.938  -1.216  72.952  1.00  0.00     0.015 C 
HETATM   11  C12 UNL     1     -44.384  -1.644  72.861  1.00  0.00     0.021 C 
HETATM   12  C13 UNL     1     -42.117  -2.232  72.183  1.00  0.00     0.021 C 
ENDROOT
BRANCH   6  13
HETATM   13  O3  UNL     1     -42.271   2.424  72.943  1.00  0.00    -0.392 OA
ATOM     14  H3  UNL     1     -41.631   2.537  72.250  1.00  0.00     0.210 HD
ENDBRANCH   6  13
BRANCH   1  15
HETATM   15  C3  UNL     1     -42.770   1.700  69.091  1.00  0.00     0.035 C 
BRANCH  15  16
HETATM   16  C2  UNL     1     -41.830   0.997  68.182  1.00  0.00    -0.002 C 
HETATM   17  C1  UNL     1     -40.576   1.835  68.012  1.00  0.00     0.005 C 
ENDBRANCH  15  16
ENDBRANCH   1  15
BRANCH   9  18
HETATM   18  O4  UNL     1     -42.386  -2.568  74.878  1.00  0.00    -0.395 OA
ATOM     19  H4  UNL     1     -41.638  -2.755  75.434  1.00  0.00     0.210 HD
ENDBRANCH   9  18
TORSDOF 4
ENDMDL
