MODEL 1
REMARK VINA RESULT: -7.641704074      0.000      0.000
REMARK  11 active torsions:
REMARK  status: ('A' for Active; 'I' for Inactive)
REMARK    1  A    between atoms: O1_2  and  C2_3 
REMARK    2  A    between atoms: C2_3  and  C3_4 
REMARK    3  A    between atoms: C3_4  and  N1_5 
REMARK    4  A    between atoms: N1_5  and  C4_8 
REMARK    5  A    between atoms: C4_8  and  C5_9 
REMARK    6  A    between atoms: C5_9  and  O2_10 
REMARK    7  A    between atoms: C5_9  and  C6_12 
REMARK    8  A    between atoms: C6_12  and  O3_13 
REMARK    9  A    between atoms: O3_13  and  C7_14 
REMARK   10  A    between atoms: C10_17  and  C11_18 
REMARK   11  A    between atoms: C11_18  and  C12_19 
ROOT
HETATM    1  C7  UNL     1      40.133  14.308  21.642  1.00  0.00     0.110 A 
HETATM    2  C8  UNL     1      39.804  15.597  21.960  1.00  0.00     0.045 A 
HETATM    3  C9  UNL     1      38.521  15.831  22.316  1.00  0.00     0.018 A 
HETATM    4  C10 UNL     1      37.664  14.775  22.330  1.00  0.00    -0.011 A 
HETATM    5  S1  UNL     1      38.673  13.467  21.843  1.00  0.00    -0.070 SA
ENDROOT
BRANCH   1   6
HETATM    6  O3  UNL     1      41.385  13.794  21.242  1.00  0.00    -0.341 OA
BRANCH   6   7
HETATM    7  C6  UNL     1      41.543  12.444  20.817  1.00  0.00     0.209 C 
BRANCH   7   8
HETATM    8  C5  UNL     1      41.745  11.534  21.989  1.00  0.00     0.168 C 
BRANCH   8   9
HETATM    9  C4  UNL     1      43.183  11.108  22.117  1.00  0.00     0.266 C 
BRANCH   9  10
HETATM   10  N1  UNL     1      43.296   9.712  21.863  1.00  0.00    -0.071 N 
ATOM     11  H12 UNL     1      42.384   9.301  21.661  1.00  0.00     0.277 HD
ATOM     12  H11 UNL     1      43.522   9.201  22.717  1.00  0.00     0.277 HD
BRANCH  10  13
HETATM   13  C3  UNL     1      44.249   9.408  20.807  1.00  0.00     0.258 C 
BRANCH  13  14
HETATM   14  C2  UNL     1      43.504   9.523  19.495  1.00  0.00     0.194 C 
BRANCH  14  15
HETATM   15  O1  UNL     1      42.327   8.820  19.585  1.00  0.00    -0.394 OA
HETATM   16  C1  UNL     1      41.329   9.232  18.733  1.00  0.00     0.201 C 
ENDBRANCH  14  15
ENDBRANCH  13  14
ENDBRANCH  10  13
ENDBRANCH   9  10
ENDBRANCH   8   9
BRANCH   8  17
HETATM   17  O2  UNL     1      40.963  10.389  21.921  1.00  0.00    -0.392 OA
ATOM     18  H2  UNL     1      40.103  10.600  22.266  1.00  0.00     0.210 HD
ENDBRANCH   8  17
ENDBRANCH   7   8
ENDBRANCH   6   7
ENDBRANCH   1   6
BRANCH   4  19
HETATM   19  C11 UNL     1      36.192  14.713  22.678  1.00  0.00     0.088 C 
BRANCH  19  20
HETATM   20  C12 UNL     1      35.917  15.355  23.974  1.00  0.00    -0.010 A 
HETATM   21  C13 UNL     1      35.377  16.651  23.989  1.00  0.00     0.012 A 
HETATM   22  C14 UNL     1      35.060  17.264  25.176  1.00  0.00     0.018 A 
HETATM   23  C15 UNL     1      35.265  16.623  26.376  1.00  0.00     0.089 A 
HETATM   24  N2  UNL     1      35.781  15.390  26.335  1.00  0.00    -0.352 N 
HETATM   25  C16 UNL     1      36.112  14.742  25.179  1.00  0.00     0.105 A 
ATOM     26  H2  UNL     1      35.937  14.905  27.218  1.00  0.00     0.166 HD
HETATM   27  N3  UNL     1      36.652  13.569  25.277  1.00  0.00    -0.385 N 
ATOM     28  H32 UNL     1      36.899  13.086  24.414  1.00  0.00     0.157 HD
ATOM     29  H31 UNL     1      36.797  13.111  26.177  1.00  0.00     0.157 HD
ENDBRANCH  19  20
ENDBRANCH   4  19
TORSDOF 11
ENDMDL
MODEL 2
REMARK VINA RESULT: -7.605894201      2.646      8.350
REMARK  11 active torsions:
REMARK  status: ('A' for Active; 'I' for Inactive)
REMARK    1  A    between atoms: O1_2  and  C2_3 
REMARK    2  A    between atoms: C2_3  and  C3_4 
REMARK    3  A    between atoms: C3_4  and  N1_5 
REMARK    4  A    between atoms: N1_5  and  C4_8 
REMARK    5  A    between atoms: C4_8  and  C5_9 
REMARK    6  A    between atoms: C5_9  and  O2_10 
REMARK    7  A    between atoms: C5_9  and  C6_12 
REMARK    8  A    between atoms: C6_12  and  O3_13 
REMARK    9  A    between atoms: O3_13  and  C7_14 
REMARK   10  A    between atoms: C10_17  and  C11_18 
REMARK   11  A    between atoms: C11_18  and  C12_19 
ROOT
HETATM    1  C7  UNL     1      38.797  14.515  22.622  1.00  0.00     0.110 A 
HETATM    2  C8  UNL     1      39.523  15.537  22.075  1.00  0.00     0.045 A 
HETATM    3  C9  UNL     1      40.400  15.209  21.100  1.00  0.00     0.018 A 
HETATM    4  C10 UNL     1      40.492  13.900  20.742  1.00  0.00    -0.011 A 
HETATM    5  S1  UNL     1      39.344  13.146  21.781  1.00  0.00    -0.070 SA
ENDROOT
BRANCH   1   6
HETATM    6  O3  UNL     1      37.824  14.577  23.643  1.00  0.00    -0.341 OA
BRANCH   6   7
HETATM    7  C6  UNL     1      37.664  13.530  24.594  1.00  0.00     0.209 C 
BRANCH   7   8
HETATM    8  C5  UNL     1      36.216  13.303  24.901  1.00  0.00     0.168 C 
BRANCH   8   9
HETATM    9  C4  UNL     1      35.801  14.002  26.168  1.00  0.00     0.266 C 
BRANCH   9  10
HETATM   10  N1  UNL     1      36.351  15.316  26.195  1.00  0.00    -0.071 N 
ATOM     11  H12 UNL     1      36.890  15.504  25.349  1.00  0.00     0.277 HD
ATOM     12  H11 UNL     1      37.098  15.385  26.886  1.00  0.00     0.277 HD
BRANCH  10  13
HETATM   13  C3  UNL     1      35.344  16.343  26.410  1.00  0.00     0.258 C 
BRANCH  13  14
HETATM   14  C2  UNL     1      35.554  17.395  25.343  1.00  0.00     0.194 C 
BRANCH  14  15
HETATM   15  O1  UNL     1      36.893  17.466  25.041  1.00  0.00    -0.394 OA
HETATM   16  C1  UNL     1      37.195  18.090  23.853  1.00  0.00     0.201 C 
ENDBRANCH  14  15
ENDBRANCH  13  14
ENDBRANCH  10  13
ENDBRANCH   9  10
ENDBRANCH   8   9
BRANCH   8  17
HETATM   17  O2  UNL     1      35.898  11.957  25.031  1.00  0.00    -0.392 OA
ATOM     18  H2  UNL     1      36.559  11.552  25.580  1.00  0.00     0.210 HD
ENDBRANCH   8  17
ENDBRANCH   7   8
ENDBRANCH   6   7
ENDBRANCH   1   6
BRANCH   4  19
HETATM   19  C11 UNL     1      41.363  13.227  19.703  1.00  0.00     0.088 C 
BRANCH  19  20
HETATM   20  C12 UNL     1      42.175  12.152  20.295  1.00  0.00    -0.010 A 
HETATM   21  C13 UNL     1      43.117  12.477  21.284  1.00  0.00     0.012 A 
HETATM   22  C14 UNL     1      43.858  11.495  21.896  1.00  0.00     0.018 A 
HETATM   23  C15 UNL     1      43.693  10.173  21.553  1.00  0.00     0.089 A 
HETATM   24  N2  UNL     1      42.791   9.889  20.608  1.00  0.00    -0.352 N 
HETATM   25  C16 UNL     1      42.033  10.831  19.973  1.00  0.00     0.105 A 
ATOM     26  H2  UNL     1      42.660   8.913  20.346  1.00  0.00     0.166 HD
HETATM   27  N3  UNL     1      41.230  10.432  19.039  1.00  0.00    -0.385 N 
ATOM     28  H32 UNL     1      40.665  11.136  18.564  1.00  0.00     0.157 HD
ATOM     29  H31 UNL     1      41.124   9.446  18.798  1.00  0.00     0.157 HD
ENDBRANCH  19  20
ENDBRANCH   4  19
TORSDOF 11
ENDMDL
MODEL 3
REMARK VINA RESULT: -7.548664413      1.444      2.050
REMARK  11 active torsions:
REMARK  status: ('A' for Active; 'I' for Inactive)
REMARK    1  A    between atoms: O1_2  and  C2_3 
REMARK    2  A    between atoms: C2_3  and  C3_4 
REMARK    3  A    between atoms: C3_4  and  N1_5 
REMARK    4  A    between atoms: N1_5  and  C4_8 
REMARK    5  A    between atoms: C4_8  and  C5_9 
REMARK    6  A    between atoms: C5_9  and  O2_10 
REMARK    7  A    between atoms: C5_9  and  C6_12 
REMARK    8  A    between atoms: C6_12  and  O3_13 
REMARK    9  A    between atoms: O3_13  and  C7_14 
REMARK   10  A    between atoms: C10_17  and  C11_18 
REMARK   11  A    between atoms: C11_18  and  C12_19 
ROOT
HETATM    1  C7  UNL     1      39.873  14.190  21.565  1.00  0.00     0.110 A 
HETATM    2  C8  UNL     1      39.540  15.371  22.169  1.00  0.00     0.045 A 
HETATM    3  C9  UNL     1      38.400  15.386  22.896  1.00  0.00     0.018 A 
HETATM    4  C10 UNL     1      37.678  14.235  22.968  1.00  0.00    -0.011 A 
HETATM    5  S1  UNL     1      38.612  13.147  22.014  1.00  0.00    -0.070 SA
ENDROOT
BRANCH   1   6
HETATM    6  O3  UNL     1      40.995  13.901  20.759  1.00  0.00    -0.341 OA
BRANCH   6   7
HETATM    7  C6  UNL     1      42.019  14.863  20.524  1.00  0.00     0.209 C 
BRANCH   7   8
HETATM    8  C5  UNL     1      43.338  14.192  20.291  1.00  0.00     0.168 C 
BRANCH   8   9
HETATM    9  C4  UNL     1      43.252  12.706  20.517  1.00  0.00     0.266 C 
BRANCH   9  10
HETATM   10  N1  UNL     1      44.348  12.277  21.318  1.00  0.00    -0.071 N 
ATOM     11  H12 UNL     1      44.860  13.074  21.695  1.00  0.00     0.277 HD
ATOM     12  H11 UNL     1      45.082  11.866  20.742  1.00  0.00     0.277 HD
BRANCH  10  13
HETATM   13  C3  UNL     1      43.946  11.366  22.379  1.00  0.00     0.258 C 
BRANCH  13  14
HETATM   14  C2  UNL     1      42.662  10.705  21.929  1.00  0.00     0.194 C 
BRANCH  14  15
HETATM   15  O1  UNL     1      42.899   9.370  21.706  1.00  0.00    -0.394 OA
HETATM   16  C1  UNL     1      43.170   9.031  20.401  1.00  0.00     0.201 C 
ENDBRANCH  14  15
ENDBRANCH  13  14
ENDBRANCH  10  13
ENDBRANCH   9  10
ENDBRANCH   8   9
BRANCH   8  17
HETATM   17  O2  UNL     1      44.346  14.691  21.105  1.00  0.00    -0.392 OA
ATOM     18  H2  UNL     1      45.178  14.388  20.760  1.00  0.00     0.210 HD
ENDBRANCH   8  17
ENDBRANCH   7   8
ENDBRANCH   6   7
ENDBRANCH   1   6
BRANCH   4  19
HETATM   19  C11 UNL     1      36.381  13.936  23.689  1.00  0.00     0.088 C 
BRANCH  19  20
HETATM   20  C12 UNL     1      35.951  15.074  24.517  1.00  0.00    -0.010 A 
HETATM   21  C13 UNL     1      35.384  16.195  23.890  1.00  0.00     0.012 A 
HETATM   22  C14 UNL     1      34.924  17.255  24.631  1.00  0.00     0.018 A 
HETATM   23  C15 UNL     1      35.009  17.244  26.005  1.00  0.00     0.089 A 
HETATM   24  N2  UNL     1      35.554  16.165  26.578  1.00  0.00    -0.352 N 
HETATM   25  C16 UNL     1      36.025  15.089  25.881  1.00  0.00     0.105 A 
ATOM     26  H2  UNL     1      35.623  16.145  27.595  1.00  0.00     0.166 HD
HETATM   27  N3  UNL     1      36.577  14.129  26.553  1.00  0.00    -0.385 N 
ATOM     28  H32 UNL     1      36.929  13.326  26.032  1.00  0.00     0.157 HD
ATOM     29  H31 UNL     1      36.633  14.140  27.571  1.00  0.00     0.157 HD
ENDBRANCH  19  20
ENDBRANCH   4  19
TORSDOF 11
ENDMDL
MODEL 4
REMARK VINA RESULT: -7.532644648      2.840      8.663
REMARK  11 active torsions:
REMARK  status: ('A' for Active; 'I' for Inactive)
REMARK    1  A    between atoms: O1_2  and  C2_3 
REMARK    2  A    between atoms: C2_3  and  C3_4 
REMARK    3  A    between atoms: C3_4  and  N1_5 
REMARK    4  A    between atoms: N1_5  and  C4_8 
REMARK    5  A    between atoms: C4_8  and  C5_9 
REMARK    6  A    between atoms: C5_9  and  O2_10 
REMARK    7  A    between atoms: C5_9  and  C6_12 
REMARK    8  A    between atoms: C6_12  and  O3_13 
REMARK    9  A    between atoms: O3_13  and  C7_14 
REMARK   10  A    between atoms: C10_17  and  C11_18 
REMARK   11  A    between atoms: C11_18  and  C12_19 
ROOT
HETATM    1  C7  UNL     1      38.382  13.809  23.222  1.00  0.00     0.110 A 
HETATM    2  C8  UNL     1      38.614  12.466  23.100  1.00  0.00     0.045 A 
HETATM    3  C9  UNL     1      39.527  12.085  22.178  1.00  0.00     0.018 A 
HETATM    4  C10 UNL     1      40.137  13.059  21.449  1.00  0.00    -0.011 A 
HETATM    5  S1  UNL     1      39.420  14.496  22.069  1.00  0.00    -0.070 SA
ENDROOT
BRANCH   1   6
HETATM    6  O3  UNL     1      37.492  14.470  24.095  1.00  0.00    -0.341 OA
BRANCH   6   7
HETATM    7  C6  UNL     1      37.154  13.935  25.371  1.00  0.00     0.209 C 
BRANCH   7   8
HETATM    8  C5  UNL     1      35.685  13.654  25.461  1.00  0.00     0.168 C 
BRANCH   8   9
HETATM    9  C4  UNL     1      34.892  14.918  25.663  1.00  0.00     0.266 C 
BRANCH   9  10
HETATM   10  N1  UNL     1      35.702  15.899  26.303  1.00  0.00    -0.071 N 
ATOM     11  H12 UNL     1      36.687  15.763  26.077  1.00  0.00     0.277 HD
ATOM     12  H11 UNL     1      35.740  15.741  27.310  1.00  0.00     0.277 HD
BRANCH  10  13
HETATM   13  C3  UNL     1      35.281  17.259  26.003  1.00  0.00     0.258 C 
BRANCH  13  14
HETATM   14  C2  UNL     1      35.753  17.566  24.599  1.00  0.00     0.194 C 
BRANCH  14  15
HETATM   15  O1  UNL     1      37.112  17.773  24.618  1.00  0.00    -0.394 OA
HETATM   16  C1  UNL     1      37.696  17.955  23.386  1.00  0.00     0.201 C 
ENDBRANCH  14  15
ENDBRANCH  13  14
ENDBRANCH  10  13
ENDBRANCH   9  10
ENDBRANCH   8   9
BRANCH   8  17
HETATM   17  O2  UNL     1      35.367  12.780  26.492  1.00  0.00    -0.392 OA
ATOM     18  H2  UNL     1      35.227  11.919  26.113  1.00  0.00     0.210 HD
ENDBRANCH   8  17
ENDBRANCH   7   8
ENDBRANCH   6   7
ENDBRANCH   1   6
BRANCH   4  19
HETATM   19  C11 UNL     1      41.184  12.955  20.361  1.00  0.00     0.088 C 
BRANCH  19  20
HETATM   20  C12 UNL     1      42.114  11.842  20.611  1.00  0.00    -0.010 A 
HETATM   21  C13 UNL     1      43.109  11.995  21.590  1.00  0.00     0.012 A 
HETATM   22  C14 UNL     1      43.963  10.963  21.888  1.00  0.00     0.018 A 
HETATM   23  C15 UNL     1      43.864   9.756  21.235  1.00  0.00     0.089 A 
HETATM   24  N2  UNL     1      42.909   9.636  20.306  1.00  0.00    -0.352 N 
HETATM   25  C16 UNL     1      42.039  10.635  19.977  1.00  0.00     0.105 A 
ATOM     26  H2  UNL     1      42.826   8.746  19.816  1.00  0.00     0.166 HD
HETATM   27  N3  UNL     1      41.191  10.409  19.023  1.00  0.00    -0.385 N 
ATOM     28  H32 UNL     1      40.542  11.155  18.777  1.00  0.00     0.157 HD
ATOM     29  H31 UNL     1      41.135   9.507  18.549  1.00  0.00     0.157 HD
ENDBRANCH  19  20
ENDBRANCH   4  19
TORSDOF 11
ENDMDL
MODEL 5
REMARK VINA RESULT: -7.488921899      1.318      2.115
REMARK  11 active torsions:
REMARK  status: ('A' for Active; 'I' for Inactive)
REMARK    1  A    between atoms: O1_2  and  C2_3 
REMARK    2  A    between atoms: C2_3  and  C3_4 
REMARK    3  A    between atoms: C3_4  and  N1_5 
REMARK    4  A    between atoms: N1_5  and  C4_8 
REMARK    5  A    between atoms: C4_8  and  C5_9 
REMARK    6  A    between atoms: C5_9  and  O2_10 
REMARK    7  A    between atoms: C5_9  and  C6_12 
REMARK    8  A    between atoms: C6_12  and  O3_13 
REMARK    9  A    between atoms: O3_13  and  C7_14 
REMARK   10  A    between atoms: C10_17  and  C11_18 
REMARK   11  A    between atoms: C11_18  and  C12_19 
ROOT
HETATM    1  C7  UNL     1      40.007  15.035  21.740  1.00  0.00     0.110 A 
HETATM    2  C8  UNL     1      39.486  16.286  21.928  1.00  0.00     0.045 A 
HETATM    3  C9  UNL     1      38.189  16.357  22.305  1.00  0.00     0.018 A 
HETATM    4  C10 UNL     1      37.509  15.189  22.465  1.00  0.00    -0.011 A 
HETATM    5  S1  UNL     1      38.702  14.007  22.084  1.00  0.00    -0.070 SA
ENDROOT
BRANCH   1   6
HETATM    6  O3  UNL     1      41.316  14.679  21.351  1.00  0.00    -0.341 OA
BRANCH   6   7
HETATM    7  C6  UNL     1      41.675  14.509  19.983  1.00  0.00     0.209 C 
BRANCH   7   8
HETATM    8  C5  UNL     1      41.005  13.303  19.401  1.00  0.00     0.168 C 
BRANCH   8   9
HETATM    9  C4  UNL     1      41.698  12.032  19.814  1.00  0.00     0.266 C 
BRANCH   9  10
HETATM   10  N1  UNL     1      40.796  11.206  20.544  1.00  0.00    -0.071 N 
ATOM     11  H12 UNL     1      40.752  10.269  20.144  1.00  0.00     0.277 HD
ATOM     12  H11 UNL     1      39.830  11.497  20.391  1.00  0.00     0.277 HD
BRANCH  10  13
HETATM   13  C3  UNL     1      41.107  11.153  21.964  1.00  0.00     0.258 C 
BRANCH  13  14
HETATM   14  C2  UNL     1      42.597  10.920  22.080  1.00  0.00     0.194 C 
BRANCH  14  15
HETATM   15  O1  UNL     1      42.859   9.584  21.893  1.00  0.00    -0.394 OA
HETATM   16  C1  UNL     1      43.777   9.297  20.911  1.00  0.00     0.201 C 
ENDBRANCH  14  15
ENDBRANCH  13  14
ENDBRANCH  10  13
ENDBRANCH   9  10
ENDBRANCH   8   9
BRANCH   8  17
HETATM   17  O2  UNL     1      40.955  13.332  18.014  1.00  0.00    -0.392 OA
ATOM     18  H2  UNL     1      41.788  13.015  17.684  1.00  0.00     0.210 HD
ENDBRANCH   8  17
ENDBRANCH   7   8
ENDBRANCH   6   7
ENDBRANCH   1   6
BRANCH   4  19
HETATM   19  C11 UNL     1      36.073  14.940  22.872  1.00  0.00     0.088 C 
BRANCH  19  20
HETATM   20  C12 UNL     1      35.747  15.615  24.139  1.00  0.00    -0.010 A 
HETATM   21  C13 UNL     1      34.996  16.801  24.102  1.00  0.00     0.012 A 
HETATM   22  C14 UNL     1      34.629  17.434  25.264  1.00  0.00     0.018 A 
HETATM   23  C15 UNL     1      34.989  16.921  26.489  1.00  0.00     0.089 A 
HETATM   24  N2  UNL     1      35.705  15.791  26.497  1.00  0.00    -0.352 N 
HETATM   25  C16 UNL     1      36.093  15.129  25.367  1.00  0.00     0.105 A 
ATOM     26  H2  UNL     1      35.978  15.402  27.399  1.00  0.00     0.166 HD
HETATM   27  N3  UNL     1      36.828  14.072  25.509  1.00  0.00    -0.385 N 
ATOM     28  H32 UNL     1      37.118  13.578  24.665  1.00  0.00     0.157 HD
ATOM     29  H31 UNL     1      37.087  13.709  26.426  1.00  0.00     0.157 HD
ENDBRANCH  19  20
ENDBRANCH   4  19
TORSDOF 11
ENDMDL
