MODEL 1
REMARK VINA RESULT: -7.783241749      0.000      0.000
REMARK  9 active torsions:
REMARK  status: ('A' for Active; 'I' for Inactive)
REMARK    1  A    between atoms: C1_2  and  O2_3 
REMARK       I    between atoms: C1_2  and  N1_13 
REMARK    2  A    between atoms: O2_3  and  C2_4 
REMARK    3  A    between atoms: C2_4  and  C3_5 
REMARK    4  A    between atoms: N1_13  and  C9_14 
REMARK    5  A    between atoms: N1_13  and  C17_25 
REMARK    6  A    between atoms: C9_14  and  C10_15 
REMARK    7  A    between atoms: C10_15  and  C11_16 
REMARK    8  A    between atoms: C11_16  and  C12_17 
REMARK    9  A    between atoms: C12_17  and  N2_18 
ROOT
HETATM    1  O1  UNL     1      -6.927  19.733 -18.957  1.00  0.00    -0.238 OA
HETATM    2  C1  UNL     1      -7.099  18.494 -19.106  1.00  0.00     0.363 C 
HETATM    3  N1  UNL     1      -8.054  17.993 -20.067  1.00  0.00    -0.323 N 
ENDROOT
BRANCH   3   4
HETATM    4  C9  UNL     1      -8.211  16.571 -20.196  1.00  0.00     0.129 C 
BRANCH   4   5
HETATM    5  C10 UNL     1      -9.370  16.098 -19.369  1.00  0.00     0.022 C 
BRANCH   5   6
HETATM    6  C11 UNL     1      -8.957  15.596 -18.026  1.00  0.00     0.032 C 
BRANCH   6   7
HETATM    7  C12 UNL     1      -9.750  16.117 -16.871  1.00  0.00     0.272 C 
BRANCH   7   8
HETATM    8  N2  UNL     1     -10.482  15.002 -16.315  1.00  0.00     0.091 N 
HETATM    9  C13 UNL     1      -9.666  13.865 -16.071  1.00  0.00     0.291 C 
HETATM   10  C14 UNL     1     -10.274  12.552 -16.476  1.00  0.00     0.144 C 
HETATM   11  N3  UNL     1     -11.663  12.409 -16.200  1.00  0.00    -0.418 N 
HETATM   12  C15 UNL     1     -12.401  13.639 -16.119  1.00  0.00     0.144 C 
ATOM     13  H3  UNL     1     -12.103  11.498 -16.070  1.00  0.00     0.153 HD
HETATM   14  C16 UNL     1     -11.745  14.740 -16.928  1.00  0.00     0.291 C 
ENDBRANCH   7   8
ENDBRANCH   6   7
ENDBRANCH   5   6
ENDBRANCH   4   5
ENDBRANCH   3   4
BRANCH   3  15
HETATM   15  C17 UNL     1      -8.838  18.880 -20.885  1.00  0.00     0.089 C 
HETATM   16  C18 UNL     1      -7.968  19.746 -21.722  1.00  0.00     0.025 C 
HETATM   17  C19 UNL     1      -8.667  20.943 -22.310  1.00  0.00     0.002 C 
HETATM   18  C20 UNL     1     -10.153  20.930 -22.018  1.00  0.00     0.000 C 
HETATM   19  C21 UNL     1     -10.287  20.919 -20.510  1.00  0.00     0.002 C 
HETATM   20  C22 UNL     1      -9.823  19.599 -20.003  1.00  0.00     0.025 C 
ENDBRANCH   3  15
BRANCH   2  21
HETATM   21  O2  UNL     1      -6.361  17.633 -18.336  1.00  0.00    -0.299 OA
BRANCH  21  22
HETATM   22  C2  UNL     1      -5.670  18.020 -17.175  1.00  0.00     0.219 C 
BRANCH  22  23
HETATM   23  C3  UNL     1      -6.322  17.553 -15.930  1.00  0.00    -0.032 A 
HETATM   24  C4  UNL     1      -6.300  16.195 -15.668  1.00  0.00     0.011 A 
HETATM   25  C5  UNL     1      -6.909  15.726 -14.508  1.00  0.00     0.026 A 
HETATM   26  C6  UNL     1      -7.525  16.600 -13.633  1.00  0.00     0.055 A 
HETATM   27 CL1  UNL     1      -8.297  16.002 -12.158  1.00  0.00    -0.083 Cl
HETATM   28  C7  UNL     1      -7.557  17.959 -13.876  1.00  0.00     0.056 A 
HETATM   29 CL2  UNL     1      -8.342  19.026 -12.752  1.00  0.00    -0.083 Cl
HETATM   30  C8  UNL     1      -6.941  18.402 -15.042  1.00  0.00     0.035 A 
ENDBRANCH  22  23
ENDBRANCH  21  22
ENDBRANCH   2  21
TORSDOF 9
ENDMDL
MODEL 2
REMARK VINA RESULT: -7.639857090      2.909      6.629
REMARK  9 active torsions:
REMARK  status: ('A' for Active; 'I' for Inactive)
REMARK    1  A    between atoms: C1_2  and  O2_3 
REMARK       I    between atoms: C1_2  and  N1_13 
REMARK    2  A    between atoms: O2_3  and  C2_4 
REMARK    3  A    between atoms: C2_4  and  C3_5 
REMARK    4  A    between atoms: N1_13  and  C9_14 
REMARK    5  A    between atoms: N1_13  and  C17_25 
REMARK    6  A    between atoms: C9_14  and  C10_15 
REMARK    7  A    between atoms: C10_15  and  C11_16 
REMARK    8  A    between atoms: C11_16  and  C12_17 
REMARK    9  A    between atoms: C12_17  and  N2_18 
ROOT
HETATM    1  O1  UNL     1      -7.877  15.015 -13.919  1.00  0.00    -0.238 OA
HETATM    2  C1  UNL     1      -7.147  15.196 -14.930  1.00  0.00     0.363 C 
HETATM    3  N1  UNL     1      -6.676  16.518 -15.271  1.00  0.00    -0.323 N 
ENDROOT
BRANCH   3   4
HETATM    4  C9  UNL     1      -5.847  16.669 -16.434  1.00  0.00     0.129 C 
BRANCH   4   5
HETATM    5  C10 UNL     1      -5.669  18.122 -16.761  1.00  0.00     0.022 C 
BRANCH   5   6
HETATM    6  C11 UNL     1      -5.981  18.437 -18.186  1.00  0.00     0.032 C 
BRANCH   6   7
HETATM    7  C12 UNL     1      -7.353  18.059 -18.645  1.00  0.00     0.272 C 
BRANCH   7   8
HETATM    8  N2  UNL     1      -7.756  19.030 -19.637  1.00  0.00     0.091 N 
HETATM    9  C13 UNL     1      -9.157  19.268 -19.647  1.00  0.00     0.291 C 
HETATM   10  C14 UNL     1      -9.774  19.349 -21.015  1.00  0.00     0.144 C 
HETATM   11  N3  UNL     1      -9.004  20.037 -21.995  1.00  0.00    -0.418 N 
HETATM   12  C15 UNL     1      -7.587  20.060 -21.756  1.00  0.00     0.144 C 
ATOM     13  H3  UNL     1      -9.428  20.482 -22.809  1.00  0.00     0.153 HD
HETATM   14  C16 UNL     1      -7.142  18.878 -20.918  1.00  0.00     0.291 C 
ENDBRANCH   7   8
ENDBRANCH   6   7
ENDBRANCH   5   6
ENDBRANCH   4   5
ENDBRANCH   3   4
BRANCH   3  15
HETATM   15  C17 UNL     1      -7.019  17.670 -14.477  1.00  0.00     0.089 C 
HETATM   16  C18 UNL     1      -7.070  17.328 -13.032  1.00  0.00     0.025 C 
HETATM   17  C19 UNL     1      -7.780  18.347 -12.180  1.00  0.00     0.002 C 
HETATM   18  C20 UNL     1      -8.178  19.572 -12.977  1.00  0.00     0.000 C 
HETATM   19  C21 UNL     1      -9.083  19.078 -14.086  1.00  0.00     0.002 C 
HETATM   20  C22 UNL     1      -8.265  18.291 -15.049  1.00  0.00     0.025 C 
ENDBRANCH   3  15
BRANCH   2  21
HETATM   21  O2  UNL     1      -6.810  14.111 -15.697  1.00  0.00    -0.299 OA
BRANCH  21  22
HETATM   22  C2  UNL     1      -7.551  13.680 -16.809  1.00  0.00     0.219 C 
BRANCH  22  23
HETATM   23  C3  UNL     1      -8.949  14.169 -16.800  1.00  0.00    -0.032 A 
HETATM   24  C4  UNL     1      -9.188  15.428 -17.323  1.00  0.00     0.011 A 
HETATM   25  C5  UNL     1     -10.490  15.918 -17.323  1.00  0.00     0.026 A 
HETATM   26  C6  UNL     1     -11.526  15.161 -16.811  1.00  0.00     0.055 A 
HETATM   27 CL1  UNL     1     -13.182  15.785 -16.814  1.00  0.00    -0.083 Cl
HETATM   28  C7  UNL     1     -11.309  13.903 -16.286  1.00  0.00     0.056 A 
HETATM   29 CL2  UNL     1     -12.639  12.983 -15.651  1.00  0.00    -0.083 Cl
HETATM   30  C8  UNL     1      -9.999  13.437 -16.298  1.00  0.00     0.035 A 
ENDBRANCH  22  23
ENDBRANCH  21  22
ENDBRANCH   2  21
TORSDOF 9
ENDMDL
MODEL 3
REMARK VINA RESULT: -7.523478667      2.689      6.034
REMARK  9 active torsions:
REMARK  status: ('A' for Active; 'I' for Inactive)
REMARK    1  A    between atoms: C1_2  and  O2_3 
REMARK       I    between atoms: C1_2  and  N1_13 
REMARK    2  A    between atoms: O2_3  and  C2_4 
REMARK    3  A    between atoms: C2_4  and  C3_5 
REMARK    4  A    between atoms: N1_13  and  C9_14 
REMARK    5  A    between atoms: N1_13  and  C17_25 
REMARK    6  A    between atoms: C9_14  and  C10_15 
REMARK    7  A    between atoms: C10_15  and  C11_16 
REMARK    8  A    between atoms: C11_16  and  C12_17 
REMARK    9  A    between atoms: C12_17  and  N2_18 
ROOT
HETATM    1  O1  UNL     1      -4.887  17.397 -16.553  1.00  0.00    -0.238 OA
HETATM    2  C1  UNL     1      -5.960  18.017 -16.784  1.00  0.00     0.363 C 
HETATM    3  N1  UNL     1      -7.009  18.065 -15.793  1.00  0.00    -0.323 N 
ENDROOT
BRANCH   3   4
HETATM    4  C9  UNL     1      -8.212  18.785 -16.107  1.00  0.00     0.129 C 
BRANCH   4   5
HETATM    5  C10 UNL     1      -9.406  17.885 -15.977  1.00  0.00     0.022 C 
BRANCH   5   6
HETATM    6  C11 UNL     1      -9.786  17.237 -17.265  1.00  0.00     0.032 C 
BRANCH   6   7
HETATM    7  C12 UNL     1      -9.303  15.834 -17.449  1.00  0.00     0.272 C 
BRANCH   7   8
HETATM    8  N2  UNL     1     -10.175  14.975 -16.680  1.00  0.00     0.091 N 
HETATM    9  C13 UNL     1      -9.550  13.765 -16.274  1.00  0.00     0.291 C 
HETATM   10  C14 UNL     1     -10.400  12.535 -16.421  1.00  0.00     0.144 C 
HETATM   11  N3  UNL     1     -11.771  12.692 -16.072  1.00  0.00    -0.418 N 
HETATM   12  C15 UNL     1     -12.281  14.032 -16.177  1.00  0.00     0.144 C 
ATOM     13  H3  UNL     1     -12.351  11.909 -15.768  1.00  0.00     0.153 HD
HETATM   14  C16 UNL     1     -11.503  14.848 -17.190  1.00  0.00     0.291 C 
ENDBRANCH   7   8
ENDBRANCH   6   7
ENDBRANCH   5   6
ENDBRANCH   4   5
ENDBRANCH   3   4
BRANCH   3  15
HETATM   15  C17 UNL     1      -6.873  17.415 -14.516  1.00  0.00     0.089 C 
HETATM   16  C18 UNL     1      -7.488  16.063 -14.535  1.00  0.00     0.025 C 
HETATM   17  C19 UNL     1      -7.731  15.475 -13.170  1.00  0.00     0.002 C 
HETATM   18  C20 UNL     1      -7.169  16.350 -12.068  1.00  0.00     0.000 C 
HETATM   19  C21 UNL     1      -7.857  17.693 -12.203  1.00  0.00     0.002 C 
HETATM   20  C22 UNL     1      -7.373  18.350 -13.448  1.00  0.00     0.025 C 
ENDBRANCH   3  15
BRANCH   2  21
HETATM   21  O2  UNL     1      -6.107  18.642 -17.995  1.00  0.00    -0.299 OA
BRANCH  21  22
HETATM   22  C2  UNL     1      -6.539  17.992 -19.163  1.00  0.00     0.219 C 
BRANCH  22  23
HETATM   23  C3  UNL     1      -7.520  18.784 -19.939  1.00  0.00    -0.032 A 
HETATM   24  C4  UNL     1      -7.174  19.140 -21.230  1.00  0.00     0.011 A 
HETATM   25  C5  UNL     1      -8.073  19.889 -21.983  1.00  0.00     0.026 A 
HETATM   26  C6  UNL     1      -9.290  20.270 -21.451  1.00  0.00     0.055 A 
HETATM   27 CL1  UNL     1     -10.434  21.220 -22.410  1.00  0.00    -0.083 Cl
HETATM   28  C7  UNL     1      -9.655  19.923 -20.165  1.00  0.00     0.056 A 
HETATM   29 CL2  UNL     1     -11.194  20.421 -19.532  1.00  0.00    -0.083 Cl
HETATM   30  C8  UNL     1      -8.738  19.175 -19.434  1.00  0.00     0.035 A 
ENDBRANCH  22  23
ENDBRANCH  21  22
ENDBRANCH   2  21
TORSDOF 9
ENDMDL
MODEL 4
REMARK VINA RESULT: -7.411058570      2.646      4.312
REMARK  9 active torsions:
REMARK  status: ('A' for Active; 'I' for Inactive)
REMARK    1  A    between atoms: C1_2  and  O2_3 
REMARK       I    between atoms: C1_2  and  N1_13 
REMARK    2  A    between atoms: O2_3  and  C2_4 
REMARK    3  A    between atoms: C2_4  and  C3_5 
REMARK    4  A    between atoms: N1_13  and  C9_14 
REMARK    5  A    between atoms: N1_13  and  C17_25 
REMARK    6  A    between atoms: C9_14  and  C10_15 
REMARK    7  A    between atoms: C10_15  and  C11_16 
REMARK    8  A    between atoms: C11_16  and  C12_17 
REMARK    9  A    between atoms: C12_17  and  N2_18 
ROOT
HETATM    1  O1  UNL     1      -8.339  16.041 -19.980  1.00  0.00    -0.238 OA
HETATM    2  C1  UNL     1      -8.172  16.798 -18.987  1.00  0.00     0.363 C 
HETATM    3  N1  UNL     1      -8.391  18.220 -19.100  1.00  0.00    -0.323 N 
ENDROOT
BRANCH   3   4
HETATM    4  C9  UNL     1      -8.186  19.037 -17.937  1.00  0.00     0.129 C 
BRANCH   4   5
HETATM    5  C10 UNL     1      -9.162  18.665 -16.860  1.00  0.00     0.022 C 
BRANCH   5   6
HETATM    6  C11 UNL     1      -8.608  18.847 -15.487  1.00  0.00     0.032 C 
BRANCH   6   7
HETATM    7  C12 UNL     1      -7.165  18.490 -15.322  1.00  0.00     0.272 C 
BRANCH   7   8
HETATM    8  N2  UNL     1      -7.063  17.644 -14.155  1.00  0.00     0.091 N 
HETATM    9  C13 UNL     1      -6.969  16.262 -14.474  1.00  0.00     0.291 C 
HETATM   10  C14 UNL     1      -7.805  15.357 -13.613  1.00  0.00     0.144 C 
HETATM   11  N3  UNL     1      -7.843  15.690 -12.230  1.00  0.00    -0.418 N 
HETATM   12  C15 UNL     1      -7.589  17.071 -11.925  1.00  0.00     0.144 C 
ATOM     13  H3  UNL     1      -8.037  14.997 -11.507  1.00  0.00     0.153 HD
HETATM   14  C16 UNL     1      -7.950  17.977 -13.086  1.00  0.00     0.291 C 
ENDBRANCH   7   8
ENDBRANCH   6   7
ENDBRANCH   5   6
ENDBRANCH   4   5
ENDBRANCH   3   4
BRANCH   3  15
HETATM   15  C17 UNL     1      -8.805  18.824 -20.339  1.00  0.00     0.089 C 
HETATM   16  C18 UNL     1      -7.642  19.385 -21.076  1.00  0.00     0.025 C 
HETATM   17  C19 UNL     1      -8.011  20.353 -22.169  1.00  0.00     0.002 C 
HETATM   18  C20 UNL     1      -9.511  20.443 -22.363  1.00  0.00     0.000 C 
HETATM   19  C21 UNL     1     -10.081  20.894 -21.034  1.00  0.00     0.002 C 
HETATM   20  C22 UNL     1      -9.925  19.786 -20.052  1.00  0.00     0.025 C 
ENDBRANCH   3  15
BRANCH   2  21
HETATM   21  O2  UNL     1      -7.779  16.240 -17.798  1.00  0.00    -0.299 OA
BRANCH  21  22
HETATM   22  C2  UNL     1      -7.823  14.862 -17.528  1.00  0.00     0.219 C 
BRANCH  22  23
HETATM   23  C3  UNL     1      -9.138  14.412 -17.018  1.00  0.00    -0.032 A 
HETATM   24  C4  UNL     1      -9.189  13.186 -16.377  1.00  0.00     0.011 A 
HETATM   25  C5  UNL     1     -10.412  12.734 -15.892  1.00  0.00     0.026 A 
HETATM   26  C6  UNL     1     -11.555  13.494 -16.045  1.00  0.00     0.055 A 
HETATM   27 CL1  UNL     1     -13.108  12.918 -15.425  1.00  0.00    -0.083 Cl
HETATM   28  C7  UNL     1     -11.525  14.720 -16.680  1.00  0.00     0.056 A 
HETATM   29 CL2  UNL     1     -12.985  15.646 -16.854  1.00  0.00    -0.083 Cl
HETATM   30  C8  UNL     1     -10.291  15.149 -17.157  1.00  0.00     0.035 A 
ENDBRANCH  22  23
ENDBRANCH  21  22
ENDBRANCH   2  21
TORSDOF 9
ENDMDL
MODEL 5
REMARK VINA RESULT: -7.377022478      2.630      4.437
REMARK  9 active torsions:
REMARK  status: ('A' for Active; 'I' for Inactive)
REMARK    1  A    between atoms: C1_2  and  O2_3 
REMARK       I    between atoms: C1_2  and  N1_13 
REMARK    2  A    between atoms: O2_3  and  C2_4 
REMARK    3  A    between atoms: C2_4  and  C3_5 
REMARK    4  A    between atoms: N1_13  and  C9_14 
REMARK    5  A    between atoms: N1_13  and  C17_25 
REMARK    6  A    between atoms: C9_14  and  C10_15 
REMARK    7  A    between atoms: C10_15  and  C11_16 
REMARK    8  A    between atoms: C11_16  and  C12_17 
REMARK    9  A    between atoms: C12_17  and  N2_18 
ROOT
HETATM    1  O1  UNL     1      -9.540  16.059 -20.473  1.00  0.00    -0.238 OA
HETATM    2  C1  UNL     1      -8.533  16.482 -19.845  1.00  0.00     0.363 C 
HETATM    3  N1  UNL     1      -8.091  17.849 -19.996  1.00  0.00    -0.323 N 
ENDROOT
BRANCH   3   4
HETATM    4  C9  UNL     1      -6.938  18.279 -19.257  1.00  0.00     0.129 C 
BRANCH   4   5
HETATM    5  C10 UNL     1      -7.329  19.295 -18.224  1.00  0.00     0.022 C 
BRANCH   5   6
HETATM    6  C11 UNL     1      -7.353  18.735 -16.841  1.00  0.00     0.032 C 
BRANCH   6   7
HETATM    7  C12 UNL     1      -8.675  18.790 -16.145  1.00  0.00     0.272 C 
BRANCH   7   8
HETATM    8  N2  UNL     1      -8.500  18.185 -14.844  1.00  0.00     0.091 N 
HETATM    9  C13 UNL     1      -8.649  19.110 -13.775  1.00  0.00     0.291 C 
HETATM   10  C14 UNL     1      -7.631  18.977 -12.678  1.00  0.00     0.144 C 
HETATM   11  N3  UNL     1      -7.283  17.644 -12.323  1.00  0.00    -0.418 N 
HETATM   12  C15 UNL     1      -7.475  16.664 -13.357  1.00  0.00     0.144 C 
ATOM     13  H3  UNL     1      -6.923  17.401 -11.400  1.00  0.00     0.153 HD
HETATM   14  C16 UNL     1      -7.397  17.284 -14.737  1.00  0.00     0.291 C 
ENDBRANCH   7   8
ENDBRANCH   6   7
ENDBRANCH   5   6
ENDBRANCH   4   5
ENDBRANCH   3   4
BRANCH   3  15
HETATM   15  C17 UNL     1      -8.778  18.773 -20.860  1.00  0.00     0.089 C 
HETATM   16  C18 UNL     1      -7.817  19.654 -21.574  1.00  0.00     0.025 C 
HETATM   17  C19 UNL     1      -8.440  20.878 -22.190  1.00  0.00     0.002 C 
HETATM   18  C20 UNL     1      -9.949  20.875 -22.054  1.00  0.00     0.000 C 
HETATM   19  C21 UNL     1     -10.238  20.816 -20.569  1.00  0.00     0.002 C 
HETATM   20  C22 UNL     1      -9.842  19.474 -20.061  1.00  0.00     0.025 C 
ENDBRANCH   3  15
BRANCH   2  21
HETATM   21  O2  UNL     1      -7.867  15.616 -19.016  1.00  0.00    -0.299 OA
BRANCH  21  22
HETATM   22  C2  UNL     1      -7.972  15.639 -17.616  1.00  0.00     0.219 C 
BRANCH  22  23
HETATM   23  C3  UNL     1      -9.190  14.964 -17.114  1.00  0.00    -0.032 A 
HETATM   24  C4  UNL     1      -9.042  13.701 -16.567  1.00  0.00     0.011 A 
HETATM   25  C5  UNL     1     -10.169  13.039 -16.093  1.00  0.00     0.026 A 
HETATM   26  C6  UNL     1     -11.416  13.631 -16.165  1.00  0.00     0.055 A 
HETATM   27 CL1  UNL     1     -12.848  12.788 -15.559  1.00  0.00    -0.083 Cl
HETATM   28  C7  UNL     1     -11.585  14.890 -16.706  1.00  0.00     0.056 A 
HETATM   29 CL2  UNL     1     -13.169  15.599 -16.780  1.00  0.00    -0.083 Cl
HETATM   30  C8  UNL     1     -10.442  15.530 -17.173  1.00  0.00     0.035 A 
ENDBRANCH  22  23
ENDBRANCH  21  22
ENDBRANCH   2  21
TORSDOF 9
ENDMDL
