MODEL 1
REMARK VINA RESULT: -7.028321477      0.000      0.000
REMARK  8 active torsions:
REMARK  status: ('A' for Active; 'I' for Inactive)
REMARK    1  A    between atoms: C2_2  and  C3_3 
REMARK    2  A    between atoms: C2_2  and  C19_29 
REMARK    3  A    between atoms: C3_3  and  N1_4 
REMARK    4  A    between atoms: C4_5  and  S1_6 
REMARK    5  A    between atoms: S1_6  and  C5_7 
REMARK    6  A    between atoms: C5_7  and  C6_8 
REMARK       I    between atoms: C6_8  and  N2_10 
REMARK    7  A    between atoms: N2_10  and  C7_12 
REMARK    8  A    between atoms: C7_12  and  C8_13 
ROOT
HETATM    1  N1  UNL     1      -7.902  17.187 -16.277  1.00  0.00    -0.322 N 
HETATM    2  C4  UNL     1      -8.319  18.278 -16.940  1.00  0.00     0.148 A 
HETATM    3  N4  UNL     1      -9.485  17.924 -17.534  1.00  0.00    -0.335 N 
ATOM      4  H4  UNL     1     -10.049  18.544 -18.115  1.00  0.00     0.168 HD
HETATM    5  C13 UNL     1      -9.798  16.649 -17.256  1.00  0.00     0.063 A 
HETATM    6  C14 UNL     1     -10.865  15.833 -17.617  1.00  0.00     0.057 A 
HETATM    7  C15 UNL     1     -10.880  14.536 -17.146  1.00  0.00     0.058 A 
HETATM    8 CL1  UNL     1     -12.239  13.518 -17.614  1.00  0.00    -0.082 Cl
HETATM    9  C16 UNL     1      -9.876  14.030 -16.334  1.00  0.00     0.058 A 
HETATM   10 CL2  UNL     1      -9.960  12.367 -15.770  1.00  0.00    -0.082 Cl
HETATM   11  C17 UNL     1      -8.833  14.862 -15.993  1.00  0.00     0.057 A 
HETATM   12  C18 UNL     1      -8.792  16.162 -16.449  1.00  0.00     0.065 A 
ENDROOT
BRANCH   2  13
HETATM   13  S1  UNL     1      -7.527  19.898 -17.083  1.00  0.00    -0.084 SA
BRANCH  13  14
HETATM   14  C5  UNL     1      -5.926  19.660 -17.919  1.00  0.00     0.185 C 
BRANCH  14  15
HETATM   15  C6  UNL     1      -6.140  19.310 -19.354  1.00  0.00     0.227 C 
HETATM   16  O1  UNL     1      -5.727  18.219 -19.824  1.00  0.00    -0.273 OA
HETATM   17  N2  UNL     1      -6.815  20.194 -20.235  1.00  0.00    -0.358 N 
ATOM     18  H2  UNL     1      -7.153  21.081 -19.862  1.00  0.00     0.162 HD
BRANCH  17  19
HETATM   19  C7  UNL     1      -7.047  19.907 -21.614  1.00  0.00     0.158 C 
BRANCH  19  20
HETATM   20  C8  UNL     1      -8.332  19.162 -21.890  1.00  0.00     0.240 C 
HETATM   21  C9  UNL     1      -8.248  17.720 -21.413  1.00  0.00     0.039 C 
HETATM   22  C10 UNL     1      -9.646  17.412 -20.942  1.00  0.00     0.032 C 
HETATM   23  C11 UNL     1     -10.293  18.742 -20.707  1.00  0.00     0.272 C 
HETATM   24  N3  UNL     1      -9.344  19.761 -21.036  1.00  0.00     0.090 N 
HETATM   25  C12 UNL     1      -9.982  20.893 -21.676  1.00  0.00     0.310 C 
ENDBRANCH  19  20
ENDBRANCH  17  19
ENDBRANCH  14  15
ENDBRANCH  13  14
ENDBRANCH   2  13
BRANCH   1  26
HETATM   26  C3  UNL     1      -6.724  17.098 -15.482  1.00  0.00     0.165 C 
BRANCH  26  27
HETATM   27  C2  UNL     1      -6.921  17.304 -14.019  1.00  0.00    -0.067 C 
HETATM   28  C1  UNL     1      -6.866  16.233 -13.262  1.00  0.00     0.016 C 
BRANCH  27  29
HETATM   29  C19 UNL     1      -7.166  18.626 -13.424  1.00  0.00     0.015 A 
HETATM   30  C20 UNL     1      -7.994  18.781 -12.184  1.00  0.00     0.010 A 
HETATM   31  C21 UNL     1      -8.541  19.271 -13.473  1.00  0.00     0.010 A 
ENDBRANCH  27  29
ENDBRANCH  26  27
ENDBRANCH   1  26
TORSDOF 8
ENDMDL
MODEL 2
REMARK VINA RESULT: -6.698931726      1.028      1.067
REMARK  8 active torsions:
REMARK  status: ('A' for Active; 'I' for Inactive)
REMARK    1  A    between atoms: C2_2  and  C3_3 
REMARK    2  A    between atoms: C2_2  and  C19_29 
REMARK    3  A    between atoms: C3_3  and  N1_4 
REMARK    4  A    between atoms: C4_5  and  S1_6 
REMARK    5  A    between atoms: S1_6  and  C5_7 
REMARK    6  A    between atoms: C5_7  and  C6_8 
REMARK       I    between atoms: C6_8  and  N2_10 
REMARK    7  A    between atoms: N2_10  and  C7_12 
REMARK    8  A    between atoms: C7_12  and  C8_13 
ROOT
HETATM    1  N1  UNL     1      -7.507  16.018 -15.747  1.00  0.00    -0.322 N 
HETATM    2  C4  UNL     1      -7.082  16.802 -16.750  1.00  0.00     0.148 A 
HETATM    3  N4  UNL     1      -8.006  16.673 -17.734  1.00  0.00    -0.335 N 
ATOM      4  H4  UNL     1      -7.963  17.150 -18.634  1.00  0.00     0.168 HD
HETATM    5  C13 UNL     1      -8.986  15.832 -17.365  1.00  0.00     0.063 A 
HETATM    6  C14 UNL     1     -10.136  15.378 -18.002  1.00  0.00     0.057 A 
HETATM    7  C15 UNL     1     -10.949  14.494 -17.322  1.00  0.00     0.058 A 
HETATM    8 CL1  UNL     1     -12.401  13.930 -18.145  1.00  0.00    -0.082 Cl
HETATM    9  C16 UNL     1     -10.656  14.052 -16.041  1.00  0.00     0.058 A 
HETATM   10 CL2  UNL     1     -11.738  12.925 -15.234  1.00  0.00    -0.082 Cl
HETATM   11  C17 UNL     1      -9.511  14.519 -15.437  1.00  0.00     0.057 A 
HETATM   12  C18 UNL     1      -8.681  15.404 -16.092  1.00  0.00     0.065 A 
ENDROOT
BRANCH   2  13
HETATM   13  S1  UNL     1      -5.589  17.817 -16.851  1.00  0.00    -0.084 SA
BRANCH  13  14
HETATM   14  C5  UNL     1      -6.034  19.376 -17.683  1.00  0.00     0.185 C 
BRANCH  14  15
HETATM   15  C6  UNL     1      -6.202  19.148 -19.150  1.00  0.00     0.227 C 
HETATM   16  O1  UNL     1      -5.765  18.104 -19.698  1.00  0.00    -0.273 OA
HETATM   17  N2  UNL     1      -6.859  20.098 -19.972  1.00  0.00    -0.358 N 
ATOM     18  H2  UNL     1      -7.216  20.948 -19.536  1.00  0.00     0.162 HD
BRANCH  17  19
HETATM   19  C7  UNL     1      -7.046  19.928 -21.377  1.00  0.00     0.158 C 
BRANCH  19  20
HETATM   20  C8  UNL     1      -8.297  19.169 -21.753  1.00  0.00     0.240 C 
HETATM   21  C9  UNL     1      -8.172  17.693 -21.407  1.00  0.00     0.039 C 
HETATM   22  C10 UNL     1      -9.568  17.296 -21.003  1.00  0.00     0.032 C 
HETATM   23  C11 UNL     1     -10.268  18.575 -20.665  1.00  0.00     0.272 C 
HETATM   24  N3  UNL     1      -9.350  19.652 -20.876  1.00  0.00     0.090 N 
HETATM   25  C12 UNL     1     -10.013  20.815 -21.427  1.00  0.00     0.310 C 
ENDBRANCH  19  20
ENDBRANCH  17  19
ENDBRANCH  14  15
ENDBRANCH  13  14
ENDBRANCH   2  13
BRANCH   1  26
HETATM   26  C3  UNL     1      -6.861  15.855 -14.488  1.00  0.00     0.165 C 
BRANCH  26  27
HETATM   27  C2  UNL     1      -7.304  16.789 -13.415  1.00  0.00    -0.067 C 
HETATM   28  C1  UNL     1      -7.701  16.243 -12.289  1.00  0.00     0.016 C 
BRANCH  27  29
HETATM   29  C19 UNL     1      -7.309  18.250 -13.578  1.00  0.00     0.015 A 
HETATM   30  C20 UNL     1      -8.183  19.126 -12.733  1.00  0.00     0.010 A 
HETATM   31  C21 UNL     1      -8.505  18.974 -14.172  1.00  0.00     0.010 A 
ENDBRANCH  27  29
ENDBRANCH  26  27
ENDBRANCH   1  26
TORSDOF 8
ENDMDL
MODEL 3
REMARK VINA RESULT: -6.406317971      1.553      2.170
REMARK  8 active torsions:
REMARK  status: ('A' for Active; 'I' for Inactive)
REMARK    1  A    between atoms: C2_2  and  C3_3 
REMARK    2  A    between atoms: C2_2  and  C19_29 
REMARK    3  A    between atoms: C3_3  and  N1_4 
REMARK    4  A    between atoms: C4_5  and  S1_6 
REMARK    5  A    between atoms: S1_6  and  C5_7 
REMARK    6  A    between atoms: C5_7  and  C6_8 
REMARK       I    between atoms: C6_8  and  N2_10 
REMARK    7  A    between atoms: N2_10  and  C7_12 
REMARK    8  A    between atoms: C7_12  and  C8_13 
ROOT
HETATM    1  N1  UNL     1      -7.728  15.658 -15.496  1.00  0.00    -0.322 N 
HETATM    2  C4  UNL     1      -7.180  16.351 -16.507  1.00  0.00     0.148 A 
HETATM    3  N4  UNL     1      -8.017  16.186 -17.561  1.00  0.00    -0.335 N 
ATOM      4  H4  UNL     1      -7.872  16.595 -18.484  1.00  0.00     0.168 HD
HETATM    5  C13 UNL     1      -9.062  15.412 -17.227  1.00  0.00     0.063 A 
HETATM    6  C14 UNL     1     -10.170  14.957 -17.935  1.00  0.00     0.057 A 
HETATM    7  C15 UNL     1     -11.079  14.157 -17.274  1.00  0.00     0.058 A 
HETATM    8 CL1  UNL     1     -12.476  13.590 -18.186  1.00  0.00    -0.082 Cl
HETATM    9  C16 UNL     1     -10.923  13.798 -15.944  1.00  0.00     0.058 A 
HETATM   10 CL2  UNL     1     -12.121  12.775 -15.165  1.00  0.00    -0.082 Cl
HETATM   11  C17 UNL     1      -9.816  14.264 -15.270  1.00  0.00     0.057 A 
HETATM   12  C18 UNL     1      -8.892  15.066 -15.905  1.00  0.00     0.065 A 
ENDROOT
BRANCH   2  13
HETATM   13  S1  UNL     1      -5.640  17.298 -16.539  1.00  0.00    -0.084 SA
BRANCH  13  14
HETATM   14  C5  UNL     1      -5.749  18.486 -17.916  1.00  0.00     0.185 C 
BRANCH  14  15
HETATM   15  C6  UNL     1      -7.118  19.079 -17.979  1.00  0.00     0.227 C 
HETATM   16  O1  UNL     1      -7.469  19.987 -17.183  1.00  0.00    -0.273 OA
HETATM   17  N2  UNL     1      -8.068  18.639 -18.936  1.00  0.00    -0.358 N 
ATOM     18  H2  UNL     1      -7.793  17.902 -19.585  1.00  0.00     0.162 HD
BRANCH  17  19
HETATM   19  C7  UNL     1      -9.388  19.173 -19.038  1.00  0.00     0.158 C 
BRANCH  19  20
HETATM   20  C8  UNL     1      -9.870  19.379 -20.455  1.00  0.00     0.240 C 
HETATM   21  C9  UNL     1     -10.217  20.837 -20.714  1.00  0.00     0.039 C 
HETATM   22  C10 UNL     1      -9.828  21.052 -22.154  1.00  0.00     0.032 C 
HETATM   23  C11 UNL     1      -8.873  19.946 -22.482  1.00  0.00     0.272 C 
HETATM   24  N3  UNL     1      -8.729  19.126 -21.318  1.00  0.00     0.090 N 
HETATM   25  C12 UNL     1      -8.621  17.724 -21.667  1.00  0.00     0.310 C 
ENDBRANCH  19  20
ENDBRANCH  17  19
ENDBRANCH  14  15
ENDBRANCH  13  14
ENDBRANCH   2  13
BRANCH   1  26
HETATM   26  C3  UNL     1      -7.204  15.563 -14.174  1.00  0.00     0.165 C 
BRANCH  26  27
HETATM   27  C2  UNL     1      -7.546  16.695 -13.267  1.00  0.00    -0.067 C 
HETATM   28  C1  UNL     1      -7.911  16.379 -12.047  1.00  0.00     0.016 C 
BRANCH  27  29
HETATM   29  C19 UNL     1      -7.487  18.102 -13.687  1.00  0.00     0.015 A 
HETATM   30  C20 UNL     1      -8.213  19.173 -12.931  1.00  0.00     0.010 A 
HETATM   31  C21 UNL     1      -8.698  18.800 -14.282  1.00  0.00     0.010 A 
ENDBRANCH  27  29
ENDBRANCH  26  27
ENDBRANCH   1  26
TORSDOF 8
ENDMDL
MODEL 4
REMARK VINA RESULT: -6.339175829      3.374      6.411
REMARK  8 active torsions:
REMARK  status: ('A' for Active; 'I' for Inactive)
REMARK    1  A    between atoms: C2_2  and  C3_3 
REMARK    2  A    between atoms: C2_2  and  C19_29 
REMARK    3  A    between atoms: C3_3  and  N1_4 
REMARK    4  A    between atoms: C4_5  and  S1_6 
REMARK    5  A    between atoms: S1_6  and  C5_7 
REMARK    6  A    between atoms: C5_7  and  C6_8 
REMARK       I    between atoms: C6_8  and  N2_10 
REMARK    7  A    between atoms: N2_10  and  C7_12 
REMARK    8  A    between atoms: C7_12  and  C8_13 
ROOT
HETATM    1  N1  UNL     1      -9.595  16.112 -17.521  1.00  0.00    -0.322 N 
HETATM    2  C4  UNL     1      -8.684  15.145 -17.714  1.00  0.00     0.148 A 
HETATM    3  N4  UNL     1      -7.925  15.558 -18.758  1.00  0.00    -0.335 N 
ATOM      4  H4  UNL     1      -7.141  15.034 -19.147  1.00  0.00     0.168 HD
HETATM    5  C13 UNL     1      -8.342  16.751 -19.212  1.00  0.00     0.063 A 
HETATM    6  C14 UNL     1      -7.906  17.580 -20.240  1.00  0.00     0.057 A 
HETATM    7  C15 UNL     1      -8.576  18.770 -20.444  1.00  0.00     0.058 A 
HETATM    8 CL1  UNL     1      -8.010  19.807 -21.751  1.00  0.00    -0.082 Cl
HETATM    9  C16 UNL     1      -9.656  19.156 -19.665  1.00  0.00     0.058 A 
HETATM   10 CL2  UNL     1     -10.463  20.685 -19.981  1.00  0.00    -0.082 Cl
HETATM   11  C17 UNL     1     -10.064  18.314 -18.655  1.00  0.00     0.057 A 
HETATM   12  C18 UNL     1      -9.413  17.120 -18.428  1.00  0.00     0.065 A 
ENDROOT
BRANCH   2  13
HETATM   13  S1  UNL     1      -8.475  13.580 -16.831  1.00  0.00    -0.084 SA
BRANCH  13  14
HETATM   14  C5  UNL     1      -8.534  13.941 -15.046  1.00  0.00     0.185 C 
BRANCH  14  15
HETATM   15  C6  UNL     1      -7.477  14.932 -14.684  1.00  0.00     0.227 C 
HETATM   16  O1  UNL     1      -6.331  14.875 -15.199  1.00  0.00    -0.273 OA
HETATM   17  N2  UNL     1      -7.730  15.969 -13.750  1.00  0.00    -0.358 N 
ATOM     18  H2  UNL     1      -8.656  16.023 -13.327  1.00  0.00     0.162 HD
BRANCH  17  19
HETATM   19  C7  UNL     1      -6.756  16.942 -13.371  1.00  0.00     0.158 C 
BRANCH  19  20
HETATM   20  C8  UNL     1      -6.750  18.187 -14.228  1.00  0.00     0.240 C 
HETATM   21  C9  UNL     1      -6.245  17.889 -15.631  1.00  0.00     0.039 C 
HETATM   22  C10 UNL     1      -7.050  18.812 -16.509  1.00  0.00     0.032 C 
HETATM   23  C11 UNL     1      -8.247  19.197 -15.697  1.00  0.00     0.272 C 
HETATM   24  N3  UNL     1      -8.142  18.557 -14.422  1.00  0.00     0.090 N 
HETATM   25  C12 UNL     1      -8.621  19.415 -13.357  1.00  0.00     0.310 C 
ENDBRANCH  19  20
ENDBRANCH  17  19
ENDBRANCH  14  15
ENDBRANCH  13  14
ENDBRANCH   2  13
BRANCH   1  26
HETATM   26  C3  UNL     1     -10.596  16.119 -16.508  1.00  0.00     0.165 C 
BRANCH  26  27
HETATM   27  C2  UNL     1     -11.719  15.160 -16.710  1.00  0.00    -0.067 C 
HETATM   28  C1  UNL     1     -12.911  15.681 -16.886  1.00  0.00     0.016 C 
BRANCH  27  29
HETATM   29  C19 UNL     1     -11.533  13.702 -16.719  1.00  0.00     0.015 A 
HETATM   30  C20 UNL     1     -12.478  12.800 -17.454  1.00  0.00     0.010 A 
HETATM   31  C21 UNL     1     -12.482  12.781 -15.971  1.00  0.00     0.010 A 
ENDBRANCH  27  29
ENDBRANCH  26  27
ENDBRANCH   1  26
TORSDOF 8
ENDMDL
MODEL 5
REMARK VINA RESULT: -5.903527933      1.703      2.436
REMARK  8 active torsions:
REMARK  status: ('A' for Active; 'I' for Inactive)
REMARK    1  A    between atoms: C2_2  and  C3_3 
REMARK    2  A    between atoms: C2_2  and  C19_29 
REMARK    3  A    between atoms: C3_3  and  N1_4 
REMARK    4  A    between atoms: C4_5  and  S1_6 
REMARK    5  A    between atoms: S1_6  and  C5_7 
REMARK    6  A    between atoms: C5_7  and  C6_8 
REMARK       I    between atoms: C6_8  and  N2_10 
REMARK    7  A    between atoms: N2_10  and  C7_12 
REMARK    8  A    between atoms: C7_12  and  C8_13 
ROOT
HETATM    1  N1  UNL     1      -8.258  16.785 -15.692  1.00  0.00    -0.322 N 
HETATM    2  C4  UNL     1      -6.966  16.581 -15.996  1.00  0.00     0.148 A 
HETATM    3  N4  UNL     1      -6.885  15.295 -16.415  1.00  0.00    -0.335 N 
ATOM      4  H4  UNL     1      -6.025  14.838 -16.718  1.00  0.00     0.168 HD
HETATM    5  C13 UNL     1      -8.089  14.701 -16.377  1.00  0.00     0.063 A 
HETATM    6  C14 UNL     1      -8.525  13.420 -16.697  1.00  0.00     0.057 A 
HETATM    7  C15 UNL     1      -9.865  13.131 -16.538  1.00  0.00     0.058 A 
HETATM    8 CL1  UNL     1     -10.399  11.503 -16.948  1.00  0.00    -0.082 Cl
HETATM    9  C16 UNL     1     -10.776  14.068 -16.074  1.00  0.00     0.058 A 
HETATM   10 CL2  UNL     1     -12.469  13.630 -15.895  1.00  0.00    -0.082 Cl
HETATM   11  C17 UNL     1     -10.314  15.327 -15.765  1.00  0.00     0.057 A 
HETATM   12  C18 UNL     1      -8.981  15.644 -15.915  1.00  0.00     0.065 A 
ENDROOT
BRANCH   2  13
HETATM   13  S1  UNL     1      -5.570  17.724 -15.868  1.00  0.00    -0.084 SA
BRANCH  13  14
HETATM   14  C5  UNL     1      -5.131  18.252 -17.555  1.00  0.00     0.185 C 
BRANCH  14  15
HETATM   15  C6  UNL     1      -6.319  18.849 -18.235  1.00  0.00     0.227 C 
HETATM   16  O1  UNL     1      -7.117  19.593 -17.611  1.00  0.00    -0.273 OA
HETATM   17  N2  UNL     1      -6.587  18.597 -19.605  1.00  0.00    -0.358 N 
ATOM     18  H2  UNL     1      -5.945  17.993 -20.119  1.00  0.00     0.162 HD
BRANCH  17  19
HETATM   19  C7  UNL     1      -7.707  19.143 -20.302  1.00  0.00     0.158 C 
BRANCH  19  20
HETATM   20  C8  UNL     1      -8.797  18.144 -20.613  1.00  0.00     0.240 C 
HETATM   21  C9  UNL     1      -8.282  17.025 -21.506  1.00  0.00     0.039 C 
HETATM   22  C10 UNL     1      -9.041  15.810 -21.040  1.00  0.00     0.032 C 
HETATM   23  C11 UNL     1      -9.537  16.148 -19.669  1.00  0.00     0.272 C 
HETATM   24  N3  UNL     1      -9.114  17.479 -19.360  1.00  0.00     0.090 N 
HETATM   25  C12 UNL     1     -10.127  18.199 -18.615  1.00  0.00     0.310 C 
ENDBRANCH  19  20
ENDBRANCH  17  19
ENDBRANCH  14  15
ENDBRANCH  13  14
ENDBRANCH   2  13
BRANCH   1  26
HETATM   26  C3  UNL     1      -8.820  18.008 -15.228  1.00  0.00     0.165 C 
BRANCH  26  27
HETATM   27  C2  UNL     1      -8.382  18.440 -13.870  1.00  0.00    -0.067 C 
HETATM   28  C1  UNL     1      -8.747  19.642 -13.490  1.00  0.00     0.016 C 
BRANCH  27  29
HETATM   29  C19 UNL     1      -7.583  17.587 -12.979  1.00  0.00     0.015 A 
HETATM   30  C20 UNL     1      -8.049  16.217 -12.588  1.00  0.00     0.010 A 
HETATM   31  C21 UNL     1      -8.035  17.286 -11.560  1.00  0.00     0.010 A 
ENDBRANCH  27  29
ENDBRANCH  26  27
ENDBRANCH   1  26
TORSDOF 8
ENDMDL
