MODEL 1
REMARK VINA RESULT: -7.236970445      0.000      0.000
REMARK  9 active torsions:
REMARK  status: ('A' for Active; 'I' for Inactive)
REMARK    1  A    between atoms: C2_2  and  C3_3 
REMARK    2  A    between atoms: C2_2  and  C17_28 
REMARK       I    between atoms: C3_3  and  N1_5 
REMARK    3  A    between atoms: N1_5  and  C4_6 
REMARK    4  A    between atoms: N1_5  and  C14_25 
REMARK    5  A    between atoms: C4_6  and  C5_7 
REMARK    6  A    between atoms: C5_7  and  O2_8 
REMARK    7  A    between atoms: O2_8  and  C6_9 
REMARK    8  A    between atoms: C6_9  and  C7_13 
REMARK    9  A    between atoms: C8_16  and  N4_17 
ROOT
HETATM    1  O2  UNL     1      -6.737  18.372 -15.751  1.00  0.00    -0.333 OA
ENDROOT
BRANCH   1   2
HETATM    2  C5  UNL     1      -8.126  18.742 -15.769  1.00  0.00     0.197 C 
BRANCH   2   3
HETATM    3  C4  UNL     1      -8.887  17.490 -15.320  1.00  0.00     0.153 C 
BRANCH   3   4
HETATM    4  N1  UNL     1      -8.037  16.529 -14.672  1.00  0.00    -0.345 N 
HETATM    5  C3  UNL     1      -7.890  15.228 -15.172  1.00  0.00     0.224 C 
HETATM    6  O1  UNL     1      -7.090  14.464 -14.537  1.00  0.00    -0.273 OA
BRANCH   5   7
HETATM    7  C2  UNL     1      -8.561  14.648 -16.353  1.00  0.00     0.078 C 
HETATM    8  C1  UNL     1      -8.586  15.584 -17.540  1.00  0.00     0.020 C 
BRANCH   7   9
HETATM    9  C17 UNL     1      -9.967  14.128 -16.048  1.00  0.00    -0.002 C 
HETATM   10  C18 UNL     1     -10.087  12.657 -16.168  1.00  0.00     0.005 C 
HETATM   11  C19 UNL     1     -11.343  12.170 -16.846  1.00  0.00     0.000 C 
HETATM   12  C20 UNL     1     -12.483  12.979 -16.223  1.00  0.00     0.000 C 
HETATM   13  C21 UNL     1     -12.371  14.351 -16.816  1.00  0.00     0.000 C 
HETATM   14  C22 UNL     1     -11.019  14.944 -16.713  1.00  0.00     0.005 C 
ENDBRANCH   7   9
ENDBRANCH   5   7
BRANCH   4  15
HETATM   15  C14 UNL     1      -7.325  16.931 -13.479  1.00  0.00     0.087 A 
HETATM   16  C15 UNL     1      -7.959  16.373 -12.177  1.00  0.00     0.027 A 
HETATM   17  C16 UNL     1      -7.860  17.841 -12.472  1.00  0.00     0.027 A 
ENDBRANCH   4  15
ENDBRANCH   3   4
ENDBRANCH   2   3
ENDBRANCH   1   2
BRANCH   1  18
HETATM   18  C6  UNL     1      -6.068  17.996 -16.880  1.00  0.00     0.165 C 
HETATM   19  N2  UNL     1      -5.110  17.146 -16.783  1.00  0.00    -0.378 N 
ATOM     20  H22 UNL     1      -4.862  16.766 -15.871  1.00  0.00     0.158 HD
ATOM     21  H21 UNL     1      -4.611  16.866 -17.627  1.00  0.00     0.158 HD
BRANCH  18  22
HETATM   22  C7  UNL     1      -6.429  18.549 -18.206  1.00  0.00     0.106 A 
HETATM   23  N3  UNL     1      -7.413  17.978 -18.911  1.00  0.00    -0.336 N 
HETATM   24  C8  UNL     1      -7.827  18.402 -20.141  1.00  0.00     0.125 A 
ATOM     25  H3  UNL     1      -7.885  17.171 -18.503  1.00  0.00     0.168 HD
HETATM   26  C11 UNL     1      -7.154  19.487 -20.633  1.00  0.00     0.079 A 
HETATM   27 CL1  UNL     1      -7.566  20.148 -22.192  1.00  0.00    -0.080 Cl
HETATM   28  C12 UNL     1      -6.125  20.128 -19.955  1.00  0.00     0.054 A 
HETATM   29  C13 UNL     1      -5.779  19.625 -18.720  1.00  0.00     0.066 A 
HETATM   30 CL2  UNL     1      -4.483  20.419 -17.846  1.00  0.00    -0.082 Cl
BRANCH  24  31
HETATM   31  N4  UNL     1      -8.873  17.746 -20.819  1.00  0.00    -0.375 N 
HETATM   32  C9  UNL     1     -10.217  18.335 -20.662  1.00  0.00     0.150 C 
HETATM   33  C10 UNL     1      -8.793  16.582 -21.640  1.00  0.00     0.150 C 
ENDBRANCH  24  31
ENDBRANCH  18  22
ENDBRANCH   1  18
TORSDOF 9
ENDMDL
MODEL 2
REMARK VINA RESULT: -6.780925013      1.895      4.306
REMARK  9 active torsions:
REMARK  status: ('A' for Active; 'I' for Inactive)
REMARK    1  A    between atoms: C2_2  and  C3_3 
REMARK    2  A    between atoms: C2_2  and  C17_28 
REMARK       I    between atoms: C3_3  and  N1_5 
REMARK    3  A    between atoms: N1_5  and  C4_6 
REMARK    4  A    between atoms: N1_5  and  C14_25 
REMARK    5  A    between atoms: C4_6  and  C5_7 
REMARK    6  A    between atoms: C5_7  and  O2_8 
REMARK    7  A    between atoms: O2_8  and  C6_9 
REMARK    8  A    between atoms: C6_9  and  C7_13 
REMARK    9  A    between atoms: C8_16  and  N4_17 
ROOT
HETATM    1  O2  UNL     1      -9.639  16.856 -17.637  1.00  0.00    -0.333 OA
ENDROOT
BRANCH   1   2
HETATM    2  C5  UNL     1     -10.819  16.034 -17.657  1.00  0.00     0.197 C 
BRANCH   2   3
HETATM    3  C4  UNL     1     -11.005  15.553 -16.214  1.00  0.00     0.153 C 
BRANCH   3   4
HETATM    4  N1  UNL     1     -10.412  14.265 -15.979  1.00  0.00    -0.345 N 
HETATM    5  C3  UNL     1      -9.059  14.135 -15.636  1.00  0.00     0.224 C 
HETATM    6  O1  UNL     1      -8.640  12.949 -15.422  1.00  0.00    -0.273 OA
BRANCH   5   7
HETATM    7  C2  UNL     1      -8.068  15.221 -15.497  1.00  0.00     0.078 C 
HETATM    8  C1  UNL     1      -6.642  14.722 -15.472  1.00  0.00     0.020 C 
BRANCH   7   9
HETATM    9  C17 UNL     1      -8.341  16.131 -14.298  1.00  0.00    -0.002 C 
HETATM   10  C18 UNL     1      -8.222  17.572 -14.616  1.00  0.00     0.005 C 
HETATM   11  C19 UNL     1      -7.515  18.403 -13.575  1.00  0.00     0.000 C 
HETATM   12  C20 UNL     1      -8.108  17.965 -12.233  1.00  0.00     0.000 C 
HETATM   13  C21 UNL     1      -7.514  16.618 -11.953  1.00  0.00     0.000 C 
HETATM   14  C22 UNL     1      -7.647  15.656 -13.070  1.00  0.00     0.005 C 
ENDBRANCH   7   9
ENDBRANCH   5   7
BRANCH   4  15
HETATM   15  C14 UNL     1     -11.244  13.088 -16.102  1.00  0.00     0.087 A 
HETATM   16  C15 UNL     1     -11.965  12.997 -17.473  1.00  0.00     0.027 A 
HETATM   17  C16 UNL     1     -12.701  13.117 -16.171  1.00  0.00     0.027 A 
ENDBRANCH   4  15
ENDBRANCH   3   4
ENDBRANCH   2   3
ENDBRANCH   1   2
BRANCH   1  18
HETATM   18  C6  UNL     1      -8.593  16.649 -18.488  1.00  0.00     0.165 C 
HETATM   19  N2  UNL     1      -8.274  15.445 -18.803  1.00  0.00    -0.378 N 
ATOM     20  H22 UNL     1      -8.803  14.664 -18.416  1.00  0.00     0.158 HD
ATOM     21  H21 UNL     1      -7.492  15.291 -19.439  1.00  0.00     0.158 HD
BRANCH  18  22
HETATM   22  C7  UNL     1      -7.825  17.784 -19.050  1.00  0.00     0.106 A 
HETATM   23  N3  UNL     1      -8.301  18.434 -20.120  1.00  0.00    -0.336 N 
HETATM   24  C8  UNL     1      -7.678  19.490 -20.720  1.00  0.00     0.125 A 
ATOM     25  H3  UNL     1      -9.188  18.119 -20.512  1.00  0.00     0.168 HD
HETATM   26  C11 UNL     1      -6.492  19.862 -20.146  1.00  0.00     0.079 A 
HETATM   27 CL1  UNL     1      -5.577  21.195 -20.798  1.00  0.00    -0.080 Cl
HETATM   28  C12 UNL     1      -5.942  19.233 -19.037  1.00  0.00     0.054 A 
HETATM   29  C13 UNL     1      -6.646  18.175 -18.502  1.00  0.00     0.066 A 
HETATM   30 CL2  UNL     1      -5.970  17.366 -17.102  1.00  0.00    -0.082 Cl
BRANCH  24  31
HETATM   31  N4  UNL     1      -8.246  20.122 -21.843  1.00  0.00    -0.375 N 
HETATM   32  C9  UNL     1      -9.617  20.642 -21.670  1.00  0.00     0.150 C 
HETATM   33  C10 UNL     1      -7.660  20.324 -23.128  1.00  0.00     0.150 C 
ENDBRANCH  24  31
ENDBRANCH  18  22
ENDBRANCH   1  18
TORSDOF 9
ENDMDL
MODEL 3
REMARK VINA RESULT: -6.481322590      1.900      4.273
REMARK  9 active torsions:
REMARK  status: ('A' for Active; 'I' for Inactive)
REMARK    1  A    between atoms: C2_2  and  C3_3 
REMARK    2  A    between atoms: C2_2  and  C17_28 
REMARK       I    between atoms: C3_3  and  N1_5 
REMARK    3  A    between atoms: N1_5  and  C4_6 
REMARK    4  A    between atoms: N1_5  and  C14_25 
REMARK    5  A    between atoms: C4_6  and  C5_7 
REMARK    6  A    between atoms: C5_7  and  O2_8 
REMARK    7  A    between atoms: O2_8  and  C6_9 
REMARK    8  A    between atoms: C6_9  and  C7_13 
REMARK    9  A    between atoms: C8_16  and  N4_17 
ROOT
HETATM    1  O2  UNL     1     -10.122  17.625 -17.424  1.00  0.00    -0.333 OA
ENDROOT
BRANCH   1   2
HETATM    2  C5  UNL     1      -9.831  16.238 -17.668  1.00  0.00     0.197 C 
BRANCH   2   3
HETATM    3  C4  UNL     1     -10.771  15.456 -16.743  1.00  0.00     0.153 C 
BRANCH   3   4
HETATM    4  N1  UNL     1     -10.201  14.213 -16.300  1.00  0.00    -0.345 N 
HETATM    5  C3  UNL     1      -8.893  14.144 -15.802  1.00  0.00     0.224 C 
HETATM    6  O1  UNL     1      -8.495  12.998 -15.410  1.00  0.00    -0.273 OA
BRANCH   5   7
HETATM    7  C2  UNL     1      -7.927  15.255 -15.684  1.00  0.00     0.078 C 
HETATM    8  C1  UNL     1      -6.488  14.798 -15.750  1.00  0.00     0.020 C 
BRANCH   7   9
HETATM    9  C17 UNL     1      -8.159  16.124 -14.446  1.00  0.00    -0.002 C 
HETATM   10  C18 UNL     1      -7.503  17.448 -14.527  1.00  0.00     0.005 C 
HETATM   11  C19 UNL     1      -6.828  17.908 -13.259  1.00  0.00     0.000 C 
HETATM   12  C20 UNL     1      -7.830  17.621 -12.138  1.00  0.00     0.000 C 
HETATM   13  C21 UNL     1      -7.794  16.136 -11.939  1.00  0.00     0.000 C 
HETATM   14  C22 UNL     1      -7.969  15.356 -13.185  1.00  0.00     0.005 C 
ENDBRANCH   7   9
ENDBRANCH   5   7
BRANCH   4  15
HETATM   15  C14 UNL     1     -11.011  13.017 -16.375  1.00  0.00     0.087 A 
HETATM   16  C15 UNL     1     -12.180  13.139 -17.387  1.00  0.00     0.027 A 
HETATM   17  C16 UNL     1     -12.393  12.932 -15.917  1.00  0.00     0.027 A 
ENDBRANCH   4  15
ENDBRANCH   3   4
ENDBRANCH   2   3
ENDBRANCH   1   2
BRANCH   1  18
HETATM   18  C6  UNL     1      -9.140  18.569 -17.327  1.00  0.00     0.165 C 
HETATM   19  N2  UNL     1      -8.893  19.096 -16.182  1.00  0.00    -0.378 N 
ATOM     20  H22 UNL     1      -9.430  18.805 -15.365  1.00  0.00     0.158 HD
ATOM     21  H21 UNL     1      -8.160  19.801 -16.109  1.00  0.00     0.158 HD
BRANCH  18  22
HETATM   22  C7  UNL     1      -8.361  18.991 -18.513  1.00  0.00     0.106 A 
HETATM   23  N3  UNL     1      -9.007  19.425 -19.604  1.00  0.00    -0.336 N 
HETATM   24  C8  UNL     1      -8.392  19.837 -20.750  1.00  0.00     0.125 A 
ATOM     25  H3  UNL     1     -10.026  19.449 -19.575  1.00  0.00     0.168 HD
HETATM   26  C11 UNL     1      -7.025  19.779 -20.725  1.00  0.00     0.079 A 
HETATM   27 CL1  UNL     1      -6.095  20.271 -22.115  1.00  0.00    -0.080 Cl
HETATM   28  C12 UNL     1      -6.293  19.341 -19.629  1.00  0.00     0.054 A 
HETATM   29  C13 UNL     1      -7.004  18.945 -18.517  1.00  0.00     0.066 A 
HETATM   30 CL2  UNL     1      -6.101  18.389 -17.122  1.00  0.00    -0.082 Cl
BRANCH  24  31
HETATM   31  N4  UNL     1      -9.145  20.281 -21.855  1.00  0.00    -0.375 N 
HETATM   32  C9  UNL     1      -9.103  19.420 -23.055  1.00  0.00     0.150 C 
HETATM   33  C10 UNL     1      -9.943  21.458 -21.958  1.00  0.00     0.150 C 
ENDBRANCH  24  31
ENDBRANCH  18  22
ENDBRANCH   1  18
TORSDOF 9
ENDMDL
MODEL 4
REMARK VINA RESULT: -6.342298531      1.617      2.105
REMARK  9 active torsions:
REMARK  status: ('A' for Active; 'I' for Inactive)
REMARK    1  A    between atoms: C2_2  and  C3_3 
REMARK    2  A    between atoms: C2_2  and  C17_28 
REMARK       I    between atoms: C3_3  and  N1_5 
REMARK    3  A    between atoms: N1_5  and  C4_6 
REMARK    4  A    between atoms: N1_5  and  C14_25 
REMARK    5  A    between atoms: C4_6  and  C5_7 
REMARK    6  A    between atoms: C5_7  and  O2_8 
REMARK    7  A    between atoms: O2_8  and  C6_9 
REMARK    8  A    between atoms: C6_9  and  C7_13 
REMARK    9  A    between atoms: C8_16  and  N4_17 
ROOT
HETATM    1  O2  UNL     1      -5.955  16.770 -15.776  1.00  0.00    -0.333 OA
ENDROOT
BRANCH   1   2
HETATM    2  C5  UNL     1      -6.233  15.362 -15.866  1.00  0.00     0.197 C 
BRANCH   2   3
HETATM    3  C4  UNL     1      -7.260  15.078 -14.765  1.00  0.00     0.153 C 
BRANCH   3   4
HETATM    4  N1  UNL     1      -8.168  16.173 -14.560  1.00  0.00    -0.345 N 
HETATM    5  C3  UNL     1      -9.268  16.378 -15.404  1.00  0.00     0.224 C 
HETATM    6  O1  UNL     1     -10.027  17.362 -15.117  1.00  0.00    -0.273 OA
BRANCH   5   7
HETATM    7  C2  UNL     1      -9.641  15.579 -16.588  1.00  0.00     0.078 C 
HETATM    8  C1  UNL     1     -10.188  16.417 -17.721  1.00  0.00     0.020 C 
BRANCH   7   9
HETATM    9  C17 UNL     1     -10.597  14.430 -16.260  1.00  0.00    -0.002 C 
HETATM   10  C18 UNL     1      -9.935  13.106 -16.234  1.00  0.00     0.005 C 
HETATM   11  C19 UNL     1     -10.711  11.988 -16.883  1.00  0.00     0.000 C 
HETATM   12  C20 UNL     1     -12.145  12.134 -16.367  1.00  0.00     0.000 C 
HETATM   13  C21 UNL     1     -12.714  13.315 -17.093  1.00  0.00     0.000 C 
HETATM   14  C22 UNL     1     -11.870  14.529 -17.025  1.00  0.00     0.005 C 
ENDBRANCH   7   9
ENDBRANCH   5   7
BRANCH   4  15
HETATM   15  C14 UNL     1      -7.928  17.072 -13.453  1.00  0.00     0.087 A 
HETATM   16  C15 UNL     1      -6.863  16.539 -12.459  1.00  0.00     0.027 A 
HETATM   17  C16 UNL     1      -8.291  16.786 -12.070  1.00  0.00     0.027 A 
ENDBRANCH   4  15
ENDBRANCH   3   4
ENDBRANCH   2   3
ENDBRANCH   1   2
BRANCH   1  18
HETATM   18  C6  UNL     1      -5.759  17.546 -16.882  1.00  0.00     0.165 C 
HETATM   19  N2  UNL     1      -4.568  17.689 -17.339  1.00  0.00    -0.378 N 
ATOM     20  H22 UNL     1      -3.788  17.226 -16.874  1.00  0.00     0.158 HD
ATOM     21  H21 UNL     1      -4.422  18.269 -18.166  1.00  0.00     0.158 HD
BRANCH  18  22
HETATM   22  C7  UNL     1      -6.892  18.220 -17.557  1.00  0.00     0.106 A 
HETATM   23  N3  UNL     1      -7.129  17.970 -18.851  1.00  0.00    -0.336 N 
HETATM   24  C8  UNL     1      -8.141  18.534 -19.572  1.00  0.00     0.125 A 
ATOM     25  H3  UNL     1      -6.511  17.315 -19.330  1.00  0.00     0.168 HD
HETATM   26  C11 UNL     1      -8.933  19.404 -18.873  1.00  0.00     0.079 A 
HETATM   27 CL1  UNL     1     -10.269  20.205 -19.655  1.00  0.00    -0.080 Cl
HETATM   28  C12 UNL     1      -8.744  19.707 -17.530  1.00  0.00     0.054 A 
HETATM   29  C13 UNL     1      -7.695  19.087 -16.888  1.00  0.00     0.066 A 
HETATM   30 CL2  UNL     1      -7.439  19.455 -15.194  1.00  0.00    -0.082 Cl
BRANCH  24  31
HETATM   31  N4  UNL     1      -8.323  18.218 -20.933  1.00  0.00    -0.375 N 
HETATM   32  C9  UNL     1      -8.533  16.789 -21.244  1.00  0.00     0.150 C 
HETATM   33  C10 UNL     1      -8.333  19.107 -22.048  1.00  0.00     0.150 C 
ENDBRANCH  24  31
ENDBRANCH  18  22
ENDBRANCH   1  18
TORSDOF 9
ENDMDL
MODEL 5
REMARK VINA RESULT: -6.112664047      2.545      6.151
REMARK  9 active torsions:
REMARK  status: ('A' for Active; 'I' for Inactive)
REMARK    1  A    between atoms: C2_2  and  C3_3 
REMARK    2  A    between atoms: C2_2  and  C17_28 
REMARK       I    between atoms: C3_3  and  N1_5 
REMARK    3  A    between atoms: N1_5  and  C4_6 
REMARK    4  A    between atoms: N1_5  and  C14_25 
REMARK    5  A    between atoms: C4_6  and  C5_7 
REMARK    6  A    between atoms: C5_7  and  O2_8 
REMARK    7  A    between atoms: O2_8  and  C6_9 
REMARK    8  A    between atoms: C6_9  and  C7_13 
REMARK    9  A    between atoms: C8_16  and  N4_17 
ROOT
HETATM    1  O2  UNL     1      -7.559  14.239 -16.650  1.00  0.00    -0.333 OA
ENDROOT
BRANCH   1   2
HETATM    2  C5  UNL     1      -8.824  13.985 -16.014  1.00  0.00     0.197 C 
BRANCH   2   3
HETATM    3  C4  UNL     1      -9.805  13.702 -17.156  1.00  0.00     0.153 C 
BRANCH   3   4
HETATM    4  N1  UNL     1     -11.045  14.415 -17.009  1.00  0.00    -0.345 N 
HETATM    5  C3  UNL     1     -11.098  15.813 -17.090  1.00  0.00     0.224 C 
HETATM    6  O1  UNL     1     -12.252  16.344 -16.973  1.00  0.00    -0.273 OA
BRANCH   5   7
HETATM    7  C2  UNL     1      -9.963  16.736 -17.292  1.00  0.00     0.078 C 
HETATM    8  C1  UNL     1      -9.892  17.825 -16.247  1.00  0.00     0.020 C 
BRANCH   7   9
HETATM    9  C17 UNL     1      -9.921  17.336 -18.698  1.00  0.00    -0.002 C 
HETATM   10  C18 UNL     1      -9.009  16.618 -19.616  1.00  0.00     0.005 C 
HETATM   11  C19 UNL     1      -8.166  17.500 -20.503  1.00  0.00     0.000 C 
HETATM   12  C20 UNL     1      -9.126  18.557 -21.055  1.00  0.00     0.000 C 
HETATM   13  C21 UNL     1      -9.389  19.494 -19.915  1.00  0.00     0.000 C 
HETATM   14  C22 UNL     1      -9.810  18.820 -18.667  1.00  0.00     0.005 C 
ENDBRANCH   7   9
ENDBRANCH   5   7
BRANCH   4  15
HETATM   15  C14 UNL     1     -12.254  13.657 -16.777  1.00  0.00     0.087 A 
HETATM   16  C15 UNL     1     -12.294  12.993 -15.375  1.00  0.00     0.027 A 
HETATM   17  C16 UNL     1     -12.301  12.204 -16.651  1.00  0.00     0.027 A 
ENDBRANCH   4  15
ENDBRANCH   3   4
ENDBRANCH   2   3
ENDBRANCH   1   2
BRANCH   1  18
HETATM   18  C6  UNL     1      -6.535  14.873 -16.008  1.00  0.00     0.165 C 
HETATM   19  N2  UNL     1      -5.355  14.370 -16.070  1.00  0.00    -0.378 N 
ATOM     20  H22 UNL     1      -5.199  13.508 -16.593  1.00  0.00     0.158 HD
ATOM     21  H21 UNL     1      -4.589  14.843 -15.590  1.00  0.00     0.158 HD
BRANCH  18  22
HETATM   22  C7  UNL     1      -6.762  16.123 -15.248  1.00  0.00     0.106 A 
HETATM   23  N3  UNL     1      -7.094  16.054 -13.953  1.00  0.00    -0.336 N 
HETATM   24  C8  UNL     1      -7.326  17.139 -13.158  1.00  0.00     0.125 A 
ATOM     25  H3  UNL     1      -7.178  15.129 -13.532  1.00  0.00     0.168 HD
HETATM   26  C11 UNL     1      -7.198  18.350 -13.782  1.00  0.00     0.079 A 
HETATM   27 CL1  UNL     1      -7.463  19.830 -12.900  1.00  0.00    -0.080 Cl
HETATM   28  C12 UNL     1      -6.856  18.493 -15.121  1.00  0.00     0.054 A 
HETATM   29  C13 UNL     1      -6.641  17.339 -15.841  1.00  0.00     0.066 A 
HETATM   30 CL2  UNL     1      -6.209  17.497 -17.532  1.00  0.00    -0.082 Cl
BRANCH  24  31
HETATM   31  N4  UNL     1      -7.670  16.981 -11.801  1.00  0.00    -0.375 N 
HETATM   32  C9  UNL     1      -6.891  15.978 -11.047  1.00  0.00     0.150 C 
HETATM   33  C10 UNL     1      -8.677  17.672 -11.063  1.00  0.00     0.150 C 
ENDBRANCH  24  31
ENDBRANCH  18  22
ENDBRANCH   1  18
TORSDOF 9
ENDMDL
