MODEL 1
REMARK VINA RESULT: -5.127277273      0.000      0.000
REMARK  4 active torsions:
REMARK  status: ('A' for Active; 'I' for Inactive)
REMARK    1  A    between atoms: C2_2  and  C4_4 
REMARK    2  A    between atoms: N2_9  and  N3_10 
REMARK    3  A    between atoms: C6_13  and  N4_14 
REMARK    4  A    between atoms: C7_17  and  C8_18 
ROOT
HETATM    1  C8  UNL     1      13.418  46.848  40.169  1.00  0.00     0.267 C 
HETATM    2  O2  UNL     1      13.822  46.246  41.141  1.00  0.00    -0.275 OA
HETATM    3  C9  UNL     1      13.088  48.256  40.261  1.00  0.00     0.144 C 
HETATM    4  N5  UNL     1      12.843  49.384  40.307  1.00  0.00    -0.188 NA
ENDROOT
BRANCH   1   5
HETATM    5  C7  UNL     1      13.243  46.274  38.870  1.00  0.00     0.097 A 
HETATM    6  C4  UNL     1      14.173  46.432  37.889  1.00  0.00     0.056 A 
HETATM    7  N1  UNL     1      13.854  45.866  36.666  1.00  0.00    -0.306 N 
HETATM    8  C5  UNL     1      12.708  45.211  36.455  1.00  0.00     0.347 A 
ATOM      9  H1  UNL     1      14.518  45.953  35.897  1.00  0.00     0.171 HD
HETATM   10  O1  UNL     1      12.434  44.682  35.338  1.00  0.00    -0.245 OA
HETATM   11  N2  UNL     1      11.791  45.072  37.456  1.00  0.00    -0.195 N 
HETATM   12  C6  UNL     1      12.032  45.587  38.667  1.00  0.00     0.142 A 
BRANCH   6  13
HETATM   13  C2  UNL     1      15.474  47.080  38.052  1.00  0.00    -0.060 C 
HETATM   14  C1  UNL     1      16.419  46.058  38.732  1.00  0.00     0.045 C 
HETATM   15  C3  UNL     1      16.049  48.022  37.148  1.00  0.00     0.045 C 
ENDBRANCH   6  13
BRANCH  11  16
HETATM   16  N3  UNL     1      10.549  44.448  37.251  1.00  0.00    -0.333 N 
ATOM     17  H32 UNL     1      10.523  43.428  37.284  1.00  0.00     0.177 HD
ATOM     18  H31 UNL     1       9.690  44.980  37.118  1.00  0.00     0.177 HD
ENDBRANCH  11  16
BRANCH  12  19
HETATM   19  N4  UNL     1      11.174  45.557  39.657  1.00  0.00    -0.383 N 
ATOM     20  H42 UNL     1      10.882  44.643  40.005  1.00  0.00     0.157 HD
ATOM     21  H41 UNL     1      10.828  46.389  40.135  1.00  0.00     0.157 HD
ENDBRANCH  12  19
ENDBRANCH   1   5
TORSDOF 4
ENDMDL
MODEL 2
REMARK VINA RESULT: -5.059211384      2.325      4.912
REMARK  4 active torsions:
REMARK  status: ('A' for Active; 'I' for Inactive)
REMARK    1  A    between atoms: C2_2  and  C4_4 
REMARK    2  A    between atoms: N2_9  and  N3_10 
REMARK    3  A    between atoms: C6_13  and  N4_14 
REMARK    4  A    between atoms: C7_17  and  C8_18 
ROOT
HETATM    1  C8  UNL     1      13.377  45.912  36.573  1.00  0.00     0.267 C 
HETATM    2  O2  UNL     1      14.220  46.725  36.253  1.00  0.00    -0.275 OA
HETATM    3  C9  UNL     1      12.899  44.935  35.617  1.00  0.00     0.144 C 
HETATM    4  N5  UNL     1      12.521  44.133  34.876  1.00  0.00    -0.188 NA
ENDROOT
BRANCH   1   5
HETATM    5  C7  UNL     1      12.797  45.812  37.876  1.00  0.00     0.097 A 
HETATM    6  C4  UNL     1      11.454  45.921  38.069  1.00  0.00     0.056 A 
HETATM    7  N1  UNL     1      11.032  45.856  39.387  1.00  0.00    -0.306 N 
HETATM    8  C5  UNL     1      11.882  45.703  40.406  1.00  0.00     0.347 A 
ATOM      9  H1  UNL     1      10.035  45.929  39.586  1.00  0.00     0.171 HD
HETATM   10  O1  UNL     1      11.485  45.627  41.605  1.00  0.00    -0.245 OA
HETATM   11  N2  UNL     1      13.225  45.602  40.183  1.00  0.00    -0.195 N 
HETATM   12  C6  UNL     1      13.707  45.650  38.937  1.00  0.00     0.142 A 
BRANCH   6  13
HETATM   13  C2  UNL     1      10.453  46.030  37.009  1.00  0.00    -0.060 C 
HETATM   14  C1  UNL     1       9.457  44.856  37.189  1.00  0.00     0.045 C 
HETATM   15  C3  UNL     1       9.953  47.250  36.463  1.00  0.00     0.045 C 
ENDBRANCH   6  13
BRANCH  11  16
HETATM   16  N3  UNL     1      14.152  45.506  41.235  1.00  0.00    -0.333 N 
ATOM     17  H32 UNL     1      13.880  45.892  42.140  1.00  0.00     0.177 HD
ATOM     18  H31 UNL     1      15.049  45.033  41.126  1.00  0.00     0.177 HD
ENDBRANCH  11  16
BRANCH  12  19
HETATM   19  N4  UNL     1      14.985  45.631  38.647  1.00  0.00    -0.383 N 
ATOM     20  H42 UNL     1      15.577  46.353  39.059  1.00  0.00     0.157 HD
ATOM     21  H41 UNL     1      15.429  44.906  38.083  1.00  0.00     0.157 HD
ENDBRANCH  12  19
ENDBRANCH   1   5
TORSDOF 4
ENDMDL
MODEL 3
REMARK VINA RESULT: -5.000686874      1.525      1.575
REMARK  4 active torsions:
REMARK  status: ('A' for Active; 'I' for Inactive)
REMARK    1  A    between atoms: C2_2  and  C4_4 
REMARK    2  A    between atoms: N2_9  and  N3_10 
REMARK    3  A    between atoms: C6_13  and  N4_14 
REMARK    4  A    between atoms: C7_17  and  C8_18 
ROOT
HETATM    1  C8  UNL     1      12.760  46.732  39.476  1.00  0.00     0.267 C 
HETATM    2  O2  UNL     1      12.307  47.837  39.691  1.00  0.00    -0.275 OA
HETATM    3  C9  UNL     1      13.284  45.928  40.561  1.00  0.00     0.144 C 
HETATM    4  N5  UNL     1      13.685  45.262  41.415  1.00  0.00    -0.188 NA
ENDROOT
BRANCH   1   5
HETATM    5  C7  UNL     1      12.812  46.111  38.188  1.00  0.00     0.097 A 
HETATM    6  C4  UNL     1      13.882  46.270  37.362  1.00  0.00     0.056 A 
HETATM    7  N1  UNL     1      13.778  45.656  36.125  1.00  0.00    -0.306 N 
HETATM    8  C5  UNL     1      12.700  44.956  35.759  1.00  0.00     0.347 A 
ATOM      9  H1  UNL     1      14.554  45.740  35.469  1.00  0.00     0.171 HD
HETATM   10  O1  UNL     1      12.623  44.383  34.633  1.00  0.00    -0.245 OA
HETATM   11  N2  UNL     1      11.639  44.818  36.606  1.00  0.00    -0.195 N 
HETATM   12  C6  UNL     1      11.668  45.378  37.819  1.00  0.00     0.142 A 
BRANCH   6  13
HETATM   13  C2  UNL     1      15.121  46.965  37.706  1.00  0.00    -0.060 C 
HETATM   14  C1  UNL     1      16.013  45.967  38.485  1.00  0.00     0.045 C 
HETATM   15  C3  UNL     1      15.768  47.951  36.902  1.00  0.00     0.045 C 
ENDBRANCH   6  13
BRANCH  11  16
HETATM   16  N3  UNL     1      10.464  44.146  36.229  1.00  0.00    -0.333 N 
ATOM     17  H32 UNL     1       9.627  44.709  36.078  1.00  0.00     0.177 HD
ATOM     18  H31 UNL     1      10.443  43.139  36.065  1.00  0.00     0.177 HD
ENDBRANCH  11  16
BRANCH  12  19
HETATM   19  N4  UNL     1      10.664  45.350  38.661  1.00  0.00    -0.383 N 
ATOM     20  H42 UNL     1       9.737  45.146  38.288  1.00  0.00     0.157 HD
ATOM     21  H41 UNL     1      10.765  45.463  39.671  1.00  0.00     0.157 HD
ENDBRANCH  12  19
ENDBRANCH   1   5
TORSDOF 4
ENDMDL
MODEL 4
REMARK VINA RESULT: -4.906241448      2.510      4.870
REMARK  4 active torsions:
REMARK  status: ('A' for Active; 'I' for Inactive)
REMARK    1  A    between atoms: C2_2  and  C4_4 
REMARK    2  A    between atoms: N2_9  and  N3_10 
REMARK    3  A    between atoms: C6_13  and  N4_14 
REMARK    4  A    between atoms: C7_17  and  C8_18 
ROOT
HETATM    1  C8  UNL     1      10.290  44.689  36.931  1.00  0.00     0.267 C 
HETATM    2  O2  UNL     1       9.306  45.370  37.135  1.00  0.00    -0.275 OA
HETATM    3  C9  UNL     1      10.174  43.252  36.795  1.00  0.00     0.144 C 
HETATM    4  N5  UNL     1      10.100  42.107  36.660  1.00  0.00    -0.188 NA
ENDROOT
BRANCH   1   5
HETATM    5  C7  UNL     1      11.618  45.201  36.789  1.00  0.00     0.097 A 
HETATM    6  C4  UNL     1      12.384  44.908  35.703  1.00  0.00     0.056 A 
HETATM    7  N1  UNL     1      13.667  45.428  35.718  1.00  0.00    -0.306 N 
HETATM    8  C5  UNL     1      14.131  46.165  36.731  1.00  0.00     0.347 A 
ATOM      9  H1  UNL     1      14.281  45.241  34.926  1.00  0.00     0.171 HD
HETATM   10  O1  UNL     1      15.300  46.651  36.726  1.00  0.00    -0.245 OA
HETATM   11  N2  UNL     1      13.342  46.440  37.811  1.00  0.00    -0.195 N 
HETATM   12  C6  UNL     1      12.090  45.976  37.866  1.00  0.00     0.142 A 
BRANCH   6  13
HETATM   13  C2  UNL     1      11.935  44.161  34.528  1.00  0.00    -0.060 C 
HETATM   14  C1  UNL     1      11.254  45.170  33.569  1.00  0.00     0.045 C 
HETATM   15  C3  UNL     1      12.607  43.042  33.951  1.00  0.00     0.045 C 
ENDBRANCH   6  13
BRANCH  11  16
HETATM   16  N3  UNL     1      13.819  47.155  38.922  1.00  0.00    -0.333 N 
ATOM     17  H32 UNL     1      14.140  48.111  38.765  1.00  0.00     0.177 HD
ATOM     18  H31 UNL     1      13.810  46.764  39.864  1.00  0.00     0.177 HD
ENDBRANCH  11  16
BRANCH  12  19
HETATM   19  N4  UNL     1      11.296  46.136  38.896  1.00  0.00    -0.383 N 
ATOM     20  H42 UNL     1      11.417  45.509  39.691  1.00  0.00     0.157 HD
ATOM     21  H41 UNL     1      10.606  46.885  38.972  1.00  0.00     0.157 HD
ENDBRANCH  12  19
ENDBRANCH   1   5
TORSDOF 4
ENDMDL
MODEL 5
REMARK VINA RESULT: -4.732276733      2.042      3.678
REMARK  4 active torsions:
REMARK  status: ('A' for Active; 'I' for Inactive)
REMARK    1  A    between atoms: C2_2  and  C4_4 
REMARK    2  A    between atoms: N2_9  and  N3_10 
REMARK    3  A    between atoms: C6_13  and  N4_14 
REMARK    4  A    between atoms: C7_17  and  C8_18 
ROOT
HETATM    1  C8  UNL     1      14.378  46.386  39.012  1.00  0.00     0.267 C 
HETATM    2  O2  UNL     1      14.900  47.463  38.813  1.00  0.00    -0.275 OA
HETATM    3  C9  UNL     1      15.072  45.360  39.762  1.00  0.00     0.144 C 
HETATM    4  N5  UNL     1      15.599  44.537  40.378  1.00  0.00    -0.188 NA
ENDROOT
BRANCH   1   5
HETATM    5  C7  UNL     1      13.068  46.023  38.567  1.00  0.00     0.097 A 
HETATM    6  C4  UNL     1      12.031  45.883  39.438  1.00  0.00     0.056 A 
HETATM    7  N1  UNL     1      10.831  45.479  38.879  1.00  0.00    -0.306 N 
HETATM    8  C5  UNL     1      10.693  45.236  37.572  1.00  0.00     0.347 A 
ATOM      9  H1  UNL     1      10.021  45.362  39.488  1.00  0.00     0.171 HD
HETATM   10  O1  UNL     1       9.586  44.885  37.068  1.00  0.00    -0.245 OA
HETATM   11  N2  UNL     1      11.751  45.380  36.722  1.00  0.00    -0.195 N 
HETATM   12  C6  UNL     1      12.941  45.772  37.188  1.00  0.00     0.142 A 
BRANCH   6  13
HETATM   13  C2  UNL     1      12.081  46.185  40.868  1.00  0.00    -0.060 C 
HETATM   14  C1  UNL     1      12.198  47.723  41.014  1.00  0.00     0.045 C 
HETATM   15  C3  UNL     1      11.389  45.469  41.891  1.00  0.00     0.045 C 
ENDBRANCH   6  13
BRANCH  11  16
HETATM   16  N3  UNL     1      11.659  45.071  35.355  1.00  0.00    -0.333 N 
ATOM     17  H32 UNL     1      12.294  44.361  34.988  1.00  0.00     0.177 HD
ATOM     18  H31 UNL     1      10.959  45.497  34.748  1.00  0.00     0.177 HD
ENDBRANCH  11  16
BRANCH  12  19
HETATM   19  N4  UNL     1      14.020  45.866  36.449  1.00  0.00    -0.383 N 
ATOM     20  H42 UNL     1      14.534  45.008  36.250  1.00  0.00     0.157 HD
ATOM     21  H41 UNL     1      14.340  46.733  36.017  1.00  0.00     0.157 HD
ENDBRANCH  12  19
ENDBRANCH   1   5
TORSDOF 4
ENDMDL
