MODEL 1
REMARK VINA RESULT: -9.915893716      0.000      0.000
REMARK  8 active torsions:
REMARK  status: ('A' for Active; 'I' for Inactive)
REMARK    1  A    between atoms: C7_9  and  C8_10 
REMARK    2  A    between atoms: C8_10  and  O1_11 
REMARK    3  A    between atoms: N2_19  and  C15_20 
REMARK    4  A    between atoms: C15_20  and  C16_21 
REMARK    5  A    between atoms: C16_21  and  C17_22 
REMARK    6  A    between atoms: C17_22  and  N3_23 
REMARK    7  A    between atoms: N4_26  and  C20_27 
REMARK    8  A    between atoms: C20_27  and  C21_28 
ROOT
HETATM    1  C1  UNL     1      31.530  19.949  -6.734  1.00  0.00     0.018 C 
HETATM    2  C2  UNL     1      31.117  18.944  -6.205  1.00  0.00    -0.078 C 
HETATM    3  C3  UNL     1      30.620  17.741  -5.601  1.00  0.00     0.018 A 
HETATM    4  C4  UNL     1      31.490  16.692  -5.388  1.00  0.00     0.023 A 
HETATM    5  C5  UNL     1      31.009  15.530  -4.816  1.00  0.00     0.032 A 
HETATM    6  C6  UNL     1      29.676  15.427  -4.463  1.00  0.00     0.046 A 
HETATM    7  N1  UNL     1      29.277  14.279  -3.923  1.00  0.00    -0.356 N 
ATOM      8  H1  UNL     1      29.958  13.532  -3.786  1.00  0.00     0.166 HD
HETATM    9  C7  UNL     1      27.963  14.071  -3.542  1.00  0.00     0.048 A 
HETATM   10  C26 UNL     1      27.040  15.071  -3.721  1.00  0.00     0.083 A 
HETATM   11  C27 UNL     1      27.480  16.264  -4.288  1.00  0.00     0.186 A 
HETATM   12  O2  UNL     1      26.709  17.212  -4.480  1.00  0.00    -0.287 OA
HETATM   13  C28 UNL     1      28.808  16.455  -4.668  1.00  0.00     0.042 A 
HETATM   14  C29 UNL     1      29.284  17.608  -5.236  1.00  0.00     0.038 A 
ENDROOT
BRANCH   9  15
HETATM   15  C8  UNL     1      27.634  12.764  -2.980  1.00  0.00     0.104 C 
HETATM   16  C9  UNL     1      28.720  11.749  -3.089  1.00  0.00     0.080 C 
HETATM   17  C10 UNL     1      28.329  10.487  -2.282  1.00  0.00     0.226 C 
HETATM   18  C11 UNL     1      29.089  10.546  -0.959  1.00  0.00     0.038 C 
HETATM   19  N2  UNL     1      26.972  10.635  -1.911  1.00  0.00     0.098 N 
HETATM   20  C12 UNL     1      28.222  11.333  -0.022  1.00  0.00     0.038 C 
HETATM   21  C13 UNL     1      27.006  11.644  -0.856  1.00  0.00     0.226 C 
HETATM   22  C14 UNL     1      27.249  12.993  -1.516  1.00  0.00     0.080 C 
BRANCH  15  23
HETATM   23  O1  UNL     1      26.475  12.314  -3.654  1.00  0.00    -0.383 OA
ATOM     24  H1  UNL     1      26.770  11.719  -4.333  1.00  0.00     0.211 HD
ENDBRANCH  15  23
BRANCH  19  25
HETATM   25  C15 UNL     1      26.287   9.489  -1.481  1.00  0.00     0.275 C 
BRANCH  25  26
HETATM   26  C16 UNL     1      25.848   8.624  -2.639  1.00  0.00     0.060 C 
BRANCH  26  27
HETATM   27  C17 UNL     1      26.507   7.279  -2.609  1.00  0.00     0.274 C 
BRANCH  27  28
HETATM   28  N3  UNL     1      27.371   6.955  -3.672  1.00  0.00     0.091 N 
HETATM   29  C18 UNL     1      27.409   7.860  -4.791  1.00  0.00     0.292 C 
HETATM   30  C19 UNL     1      27.575   7.045  -6.099  1.00  0.00     0.152 C 
HETATM   31  N4  UNL     1      26.391   6.276  -6.217  1.00  0.00    -0.390 N 
HETATM   32  C24 UNL     1      25.961   5.608  -5.021  1.00  0.00     0.152 C 
HETATM   33  C25 UNL     1      27.125   5.578  -4.052  1.00  0.00     0.292 C 
BRANCH  31  34
HETATM   34  C20 UNL     1      26.057   5.676  -7.432  1.00  0.00     0.062 C 
BRANCH  34  35
HETATM   35  C21 UNL     1      27.124   5.383  -8.420  1.00  0.00     0.024 A 
HETATM   36  C22 UNL     1      26.898   4.662  -9.695  1.00  0.00     0.010 A 
HETATM   37  C23 UNL     1      27.532   3.923  -8.536  1.00  0.00     0.010 A 
ENDBRANCH  34  35
ENDBRANCH  31  34
ENDBRANCH  27  28
ENDBRANCH  26  27
ENDBRANCH  25  26
ENDBRANCH  19  25
ENDBRANCH   9  15
TORSDOF 8
ENDMDL
MODEL 2
REMARK VINA RESULT: -9.751884341      4.808     10.145
REMARK  8 active torsions:
REMARK  status: ('A' for Active; 'I' for Inactive)
REMARK    1  A    between atoms: C7_9  and  C8_10 
REMARK    2  A    between atoms: C8_10  and  O1_11 
REMARK    3  A    between atoms: N2_19  and  C15_20 
REMARK    4  A    between atoms: C15_20  and  C16_21 
REMARK    5  A    between atoms: C16_21  and  C17_22 
REMARK    6  A    between atoms: C17_22  and  N3_23 
REMARK    7  A    between atoms: N4_26  and  C20_27 
REMARK    8  A    between atoms: C20_27  and  C21_28 
ROOT
HETATM    1  C1  UNL     1      26.664   9.770   0.634  1.00  0.00     0.018 C 
HETATM    2  C2  UNL     1      27.024  10.756   0.034  1.00  0.00    -0.078 C 
HETATM    3  C3  UNL     1      27.429  11.937  -0.671  1.00  0.00     0.018 A 
HETATM    4  C4  UNL     1      28.152  12.902  -0.000  1.00  0.00     0.023 A 
HETATM    5  C5  UNL     1      28.532  14.044  -0.678  1.00  0.00     0.032 A 
HETATM    6  C6  UNL     1      28.192  14.212  -2.007  1.00  0.00     0.046 A 
HETATM    7  N1  UNL     1      28.584  15.337  -2.597  1.00  0.00    -0.356 N 
ATOM      8  H1  UNL     1      29.116  16.020  -2.059  1.00  0.00     0.166 HD
HETATM    9  C7  UNL     1      28.290  15.606  -3.922  1.00  0.00     0.048 A 
HETATM   10  C26 UNL     1      27.576  14.691  -4.655  1.00  0.00     0.083 A 
HETATM   11  C27 UNL     1      27.176  13.520  -4.017  1.00  0.00     0.186 A 
HETATM   12  O2  UNL     1      26.531  12.648  -4.611  1.00  0.00    -0.287 OA
HETATM   13  C28 UNL     1      27.480  13.268  -2.680  1.00  0.00     0.042 A 
HETATM   14  C29 UNL     1      27.102  12.134  -2.009  1.00  0.00     0.038 A 
ENDROOT
BRANCH   9  15
HETATM   15  C8  UNL     1      28.752  16.883  -4.459  1.00  0.00     0.104 C 
HETATM   16  C9  UNL     1      29.380  17.788  -3.456  1.00  0.00     0.080 C 
HETATM   17  C10 UNL     1      30.007  19.004  -4.181  1.00  0.00     0.226 C 
HETATM   18  C11 UNL     1      31.509  18.749  -4.271  1.00  0.00     0.038 C 
HETATM   19  N2  UNL     1      29.564  18.961  -5.524  1.00  0.00     0.098 N 
HETATM   20  C12 UNL     1      31.718  17.971  -5.536  1.00  0.00     0.038 C 
HETATM   21  C13 UNL     1      30.328  17.862  -6.108  1.00  0.00     0.226 C 
HETATM   22  C14 UNL     1      29.732  16.561  -5.590  1.00  0.00     0.080 C 
BRANCH  15  23
HETATM   23  O1  UNL     1      27.626  17.506  -5.044  1.00  0.00    -0.383 OA
ATOM     24  H1  UNL     1      27.739  17.443  -5.985  1.00  0.00     0.211 HD
ENDBRANCH  15  23
BRANCH  19  25
HETATM   25  C15 UNL     1      29.704  20.126  -6.292  1.00  0.00     0.275 C 
BRANCH  25  26
HETATM   26  C16 UNL     1      28.648  21.154  -5.957  1.00  0.00     0.060 C 
BRANCH  26  27
HETATM   27  C17 UNL     1      27.701  21.371  -7.098  1.00  0.00     0.274 C 
BRANCH  27  28
HETATM   28  N3  UNL     1      26.363  21.667  -6.783  1.00  0.00     0.091 N 
HETATM   29  C18 UNL     1      25.997  21.671  -5.390  1.00  0.00     0.292 C 
HETATM   30  C19 UNL     1      24.565  21.099  -5.239  1.00  0.00     0.152 C 
HETATM   31  N4  UNL     1      24.653  19.745  -5.648  1.00  0.00    -0.390 N 
HETATM   32  C24 UNL     1      25.380  19.510  -6.864  1.00  0.00     0.152 C 
HETATM   33  C25 UNL     1      25.509  20.827  -7.600  1.00  0.00     0.292 C 
BRANCH  31  34
HETATM   34  C20 UNL     1      23.634  18.845  -5.335  1.00  0.00     0.062 C 
BRANCH  34  35
HETATM   35  C21 UNL     1      23.979  17.463  -4.923  1.00  0.00     0.024 A 
HETATM   36  C22 UNL     1      24.005  16.305  -5.848  1.00  0.00     0.010 A 
HETATM   37  C23 UNL     1      22.827  16.472  -4.912  1.00  0.00     0.010 A 
ENDBRANCH  34  35
ENDBRANCH  31  34
ENDBRANCH  27  28
ENDBRANCH  26  27
ENDBRANCH  25  26
ENDBRANCH  19  25
ENDBRANCH   9  15
TORSDOF 8
ENDMDL
MODEL 3
REMARK VINA RESULT: -9.705890803      0.814      1.233
REMARK  8 active torsions:
REMARK  status: ('A' for Active; 'I' for Inactive)
REMARK    1  A    between atoms: C7_9  and  C8_10 
REMARK    2  A    between atoms: C8_10  and  O1_11 
REMARK    3  A    between atoms: N2_19  and  C15_20 
REMARK    4  A    between atoms: C15_20  and  C16_21 
REMARK    5  A    between atoms: C16_21  and  C17_22 
REMARK    6  A    between atoms: C17_22  and  N3_23 
REMARK    7  A    between atoms: N4_26  and  C20_27 
REMARK    8  A    between atoms: C20_27  and  C21_28 
ROOT
HETATM    1  C1  UNL     1      31.689  19.948  -6.896  1.00  0.00     0.018 C 
HETATM    2  C2  UNL     1      31.268  18.974  -6.317  1.00  0.00    -0.078 C 
HETATM    3  C3  UNL     1      30.764  17.807  -5.653  1.00  0.00     0.018 A 
HETATM    4  C4  UNL     1      31.619  16.749  -5.417  1.00  0.00     0.023 A 
HETATM    5  C5  UNL     1      31.129  15.622  -4.786  1.00  0.00     0.032 A 
HETATM    6  C6  UNL     1      29.803  15.560  -4.399  1.00  0.00     0.046 A 
HETATM    7  N1  UNL     1      29.395  14.443  -3.803  1.00  0.00    -0.356 N 
ATOM      8  H1  UNL     1      30.065  13.689  -3.652  1.00  0.00     0.166 HD
HETATM    9  C7  UNL     1      28.088  14.278  -3.383  1.00  0.00     0.048 A 
HETATM   10  C26 UNL     1      27.180  15.288  -3.581  1.00  0.00     0.083 A 
HETATM   11  C27 UNL     1      27.629  16.448  -4.206  1.00  0.00     0.186 A 
HETATM   12  O2  UNL     1      26.872  17.403  -4.419  1.00  0.00    -0.287 OA
HETATM   13  C28 UNL     1      28.951  16.596  -4.625  1.00  0.00     0.042 A 
HETATM   14  C29 UNL     1      29.435  17.716  -5.251  1.00  0.00     0.038 A 
ENDROOT
BRANCH   9  15
HETATM   15  C8  UNL     1      27.747  13.001  -2.761  1.00  0.00     0.104 C 
HETATM   16  C9  UNL     1      28.811  11.961  -2.852  1.00  0.00     0.080 C 
HETATM   17  C10 UNL     1      28.415  10.741  -1.985  1.00  0.00     0.226 C 
HETATM   18  C11 UNL     1      29.207  10.839  -0.684  1.00  0.00     0.038 C 
HETATM   19  N2  UNL     1      27.070  10.931  -1.590  1.00  0.00     0.098 N 
HETATM   20  C12 UNL     1      28.378  11.680   0.239  1.00  0.00     0.038 C 
HETATM   21  C13 UNL     1      27.149  11.982  -0.578  1.00  0.00     0.226 C 
HETATM   22  C14 UNL     1      27.402  13.298  -1.299  1.00  0.00     0.080 C 
BRANCH  15  23
HETATM   23  O1  UNL     1      26.564  12.548  -3.388  1.00  0.00    -0.383 OA
ATOM     24  H1  UNL     1      26.440  11.647  -3.115  1.00  0.00     0.211 HD
ENDBRANCH  15  23
BRANCH  19  25
HETATM   25  C15 UNL     1      26.374   9.818  -1.097  1.00  0.00     0.275 C 
BRANCH  25  26
HETATM   26  C16 UNL     1      26.491   8.625  -2.018  1.00  0.00     0.060 C 
BRANCH  26  27
HETATM   27  C17 UNL     1      26.046   8.952  -3.410  1.00  0.00     0.274 C 
BRANCH  27  28
HETATM   28  N3  UNL     1      25.477   7.915  -4.171  1.00  0.00     0.091 N 
HETATM   29  C18 UNL     1      25.390   6.616  -3.555  1.00  0.00     0.292 C 
HETATM   30  C19 UNL     1      25.651   5.527  -4.626  1.00  0.00     0.152 C 
HETATM   31  N4  UNL     1      26.996   5.712  -5.033  1.00  0.00    -0.390 N 
HETATM   32  C24 UNL     1      27.384   7.069  -5.300  1.00  0.00     0.152 C 
HETATM   33  C25 UNL     1      26.126   7.895  -5.467  1.00  0.00     0.292 C 
BRANCH  31  34
HETATM   34  C20 UNL     1      27.663   4.712  -5.741  1.00  0.00     0.062 C 
BRANCH  34  35
HETATM   35  C21 UNL     1      28.033   4.941  -7.159  1.00  0.00     0.024 A 
HETATM   36  C22 UNL     1      27.050   5.168  -8.245  1.00  0.00     0.010 A 
HETATM   37  C23 UNL     1      27.702   3.809  -8.117  1.00  0.00     0.010 A 
ENDBRANCH  34  35
ENDBRANCH  31  34
ENDBRANCH  27  28
ENDBRANCH  26  27
ENDBRANCH  25  26
ENDBRANCH  19  25
ENDBRANCH   9  15
TORSDOF 8
ENDMDL
MODEL 4
REMARK VINA RESULT: -9.693461122      0.587      1.004
REMARK  8 active torsions:
REMARK  status: ('A' for Active; 'I' for Inactive)
REMARK    1  A    between atoms: C7_9  and  C8_10 
REMARK    2  A    between atoms: C8_10  and  O1_11 
REMARK    3  A    between atoms: N2_19  and  C15_20 
REMARK    4  A    between atoms: C15_20  and  C16_21 
REMARK    5  A    between atoms: C16_21  and  C17_22 
REMARK    6  A    between atoms: C17_22  and  N3_23 
REMARK    7  A    between atoms: N4_26  and  C20_27 
REMARK    8  A    between atoms: C20_27  and  C21_28 
ROOT
HETATM    1  C1  UNL     1      31.547  19.941  -6.733  1.00  0.00     0.018 C 
HETATM    2  C2  UNL     1      31.133  18.933  -6.211  1.00  0.00    -0.078 C 
HETATM    3  C3  UNL     1      30.637  17.727  -5.615  1.00  0.00     0.018 A 
HETATM    4  C4  UNL     1      31.510  16.682  -5.393  1.00  0.00     0.023 A 
HETATM    5  C5  UNL     1      31.029  15.516  -4.828  1.00  0.00     0.032 A 
HETATM    6  C6  UNL     1      29.692  15.405  -4.492  1.00  0.00     0.046 A 
HETATM    7  N1  UNL     1      29.293  14.254  -3.959  1.00  0.00    -0.356 N 
ATOM      8  H1  UNL     1      29.977  13.511  -3.815  1.00  0.00     0.166 HD
HETATM    9  C7  UNL     1      27.977  14.038  -3.594  1.00  0.00     0.048 A 
HETATM   10  C26 UNL     1      27.050  15.033  -3.783  1.00  0.00     0.083 A 
HETATM   11  C27 UNL     1      27.490  16.229  -4.342  1.00  0.00     0.186 A 
HETATM   12  O2  UNL     1      26.716  17.173  -4.541  1.00  0.00    -0.287 OA
HETATM   13  C28 UNL     1      28.821  16.428  -4.706  1.00  0.00     0.042 A 
HETATM   14  C29 UNL     1      29.297  17.585  -5.266  1.00  0.00     0.038 A 
ENDROOT
BRANCH   9  15
HETATM   15  C8  UNL     1      27.649  12.727  -3.038  1.00  0.00     0.104 C 
HETATM   16  C9  UNL     1      28.744  11.722  -3.128  1.00  0.00     0.080 C 
HETATM   17  C10 UNL     1      28.350  10.456  -2.328  1.00  0.00     0.226 C 
HETATM   18  C11 UNL     1      29.086  10.521  -0.993  1.00  0.00     0.038 C 
HETATM   19  N2  UNL     1      26.985  10.593  -1.982  1.00  0.00     0.098 N 
HETATM   20  C12 UNL     1      28.197  11.300  -0.071  1.00  0.00     0.038 C 
HETATM   21  C13 UNL     1      26.993  11.602  -0.926  1.00  0.00     0.226 C 
HETATM   22  C14 UNL     1      27.236  12.953  -1.581  1.00  0.00     0.080 C 
BRANCH  15  23
HETATM   23  O1  UNL     1      26.505  12.269  -3.732  1.00  0.00    -0.383 OA
ATOM     24  H1  UNL     1      26.471  12.752  -4.549  1.00  0.00     0.211 HD
ENDBRANCH  15  23
BRANCH  19  25
HETATM   25  C15 UNL     1      26.302   9.442  -1.563  1.00  0.00     0.275 C 
BRANCH  25  26
HETATM   26  C16 UNL     1      25.892   8.572  -2.729  1.00  0.00     0.060 C 
BRANCH  26  27
HETATM   27  C17 UNL     1      26.841   7.432  -2.934  1.00  0.00     0.274 C 
BRANCH  27  28
HETATM   28  N3  UNL     1      26.406   6.360  -3.734  1.00  0.00     0.091 N 
HETATM   29  C18 UNL     1      27.281   5.222  -3.845  1.00  0.00     0.292 C 
HETATM   30  C19 UNL     1      27.196   4.654  -5.285  1.00  0.00     0.152 C 
HETATM   31  N4  UNL     1      27.717   5.672  -6.123  1.00  0.00    -0.390 N 
HETATM   32  C24 UNL     1      27.238   6.999  -5.860  1.00  0.00     0.152 C 
HETATM   33  C25 UNL     1      25.986   6.891  -5.015  1.00  0.00     0.292 C 
BRANCH  31  34
HETATM   34  C20 UNL     1      28.092   5.381  -7.436  1.00  0.00     0.062 C 
BRANCH  34  35
HETATM   35  C21 UNL     1      27.196   5.763  -8.554  1.00  0.00     0.024 A 
HETATM   36  C22 UNL     1      25.813   5.256  -8.718  1.00  0.00     0.010 A 
HETATM   37  C23 UNL     1      26.915   4.672  -9.575  1.00  0.00     0.010 A 
ENDBRANCH  34  35
ENDBRANCH  31  34
ENDBRANCH  27  28
ENDBRANCH  26  27
ENDBRANCH  25  26
ENDBRANCH  19  25
ENDBRANCH   9  15
TORSDOF 8
ENDMDL
MODEL 5
REMARK VINA RESULT: -9.574452567      1.619      2.005
REMARK  8 active torsions:
REMARK  status: ('A' for Active; 'I' for Inactive)
REMARK    1  A    between atoms: C7_9  and  C8_10 
REMARK    2  A    between atoms: C8_10  and  O1_11 
REMARK    3  A    between atoms: N2_19  and  C15_20 
REMARK    4  A    between atoms: C15_20  and  C16_21 
REMARK    5  A    between atoms: C16_21  and  C17_22 
REMARK    6  A    between atoms: C17_22  and  N3_23 
REMARK    7  A    between atoms: N4_26  and  C20_27 
REMARK    8  A    between atoms: C20_27  and  C21_28 
ROOT
HETATM    1  C1  UNL     1      31.474  19.950  -6.834  1.00  0.00     0.018 C 
HETATM    2  C2  UNL     1      31.078  18.950  -6.281  1.00  0.00    -0.078 C 
HETATM    3  C3  UNL     1      30.604  17.753  -5.650  1.00  0.00     0.018 A 
HETATM    4  C4  UNL     1      31.499  16.738  -5.383  1.00  0.00     0.023 A 
HETATM    5  C5  UNL     1      31.039  15.581  -4.783  1.00  0.00     0.032 A 
HETATM    6  C6  UNL     1      29.702  15.449  -4.457  1.00  0.00     0.046 A 
HETATM    7  N1  UNL     1      29.325  14.308  -3.889  1.00  0.00    -0.356 N 
ATOM      8  H1  UNL     1      30.024  13.587  -3.712  1.00  0.00     0.166 HD
HETATM    9  C7  UNL     1      28.010  14.072  -3.530  1.00  0.00     0.048 A 
HETATM   10  C26 UNL     1      27.062  15.038  -3.762  1.00  0.00     0.083 A 
HETATM   11  C27 UNL     1      27.479  16.224  -4.358  1.00  0.00     0.186 A 
HETATM   12  O2  UNL     1      26.685  17.142  -4.597  1.00  0.00    -0.287 OA
HETATM   13  C28 UNL     1      28.809  16.443  -4.715  1.00  0.00     0.042 A 
HETATM   14  C29 UNL     1      29.264  17.592  -5.309  1.00  0.00     0.038 A 
ENDROOT
BRANCH   9  15
HETATM   15  C8  UNL     1      27.707  12.774  -2.933  1.00  0.00     0.104 C 
HETATM   16  C9  UNL     1      28.814  11.780  -3.012  1.00  0.00     0.080 C 
HETATM   17  C10 UNL     1      28.448  10.533  -2.171  1.00  0.00     0.226 C 
HETATM   18  C11 UNL     1      29.203  10.644  -0.849  1.00  0.00     0.038 C 
HETATM   19  N2  UNL     1      27.086  10.663  -1.807  1.00  0.00     0.098 N 
HETATM   20  C12 UNL     1      28.318  11.438   0.064  1.00  0.00     0.038 C 
HETATM   21  C13 UNL     1      27.098  11.701  -0.780  1.00  0.00     0.226 C 
HETATM   22  C14 UNL     1      27.314  13.036  -1.477  1.00  0.00     0.080 C 
BRANCH  15  23
HETATM   23  O1  UNL     1      26.559  12.283  -3.596  1.00  0.00    -0.383 OA
ATOM     24  H1  UNL     1      26.779  11.415  -3.914  1.00  0.00     0.211 HD
ENDBRANCH  15  23
BRANCH  19  25
HETATM   25  C15 UNL     1      26.425   9.515  -1.346  1.00  0.00     0.275 C 
BRANCH  25  26
HETATM   26  C16 UNL     1      26.894   8.268  -2.058  1.00  0.00     0.060 C 
BRANCH  26  27
HETATM   27  C17 UNL     1      26.365   8.193  -3.457  1.00  0.00     0.274 C 
BRANCH  27  28
HETATM   28  N3  UNL     1      27.132   7.493  -4.406  1.00  0.00     0.091 N 
HETATM   29  C18 UNL     1      28.285   8.165  -4.948  1.00  0.00     0.292 C 
HETATM   30  C19 UNL     1      28.434   7.791  -6.444  1.00  0.00     0.152 C 
HETATM   31  N4  UNL     1      27.291   8.331  -7.085  1.00  0.00    -0.390 N 
HETATM   32  C24 UNL     1      26.039   8.097  -6.422  1.00  0.00     0.152 C 
HETATM   33  C25 UNL     1      26.236   6.977  -5.422  1.00  0.00     0.292 C 
BRANCH  31  34
HETATM   34  C20 UNL     1      27.258   8.466  -8.473  1.00  0.00     0.062 C 
BRANCH  34  35
HETATM   35  C21 UNL     1      27.363   9.816  -9.079  1.00  0.00     0.024 A 
HETATM   36  C22 UNL     1      26.561  10.984  -8.644  1.00  0.00     0.010 A 
HETATM   37  C23 UNL     1      26.171  10.258  -9.912  1.00  0.00     0.010 A 
ENDBRANCH  34  35
ENDBRANCH  31  34
ENDBRANCH  27  28
ENDBRANCH  26  27
ENDBRANCH  25  26
ENDBRANCH  19  25
ENDBRANCH   9  15
TORSDOF 8
ENDMDL
