MODEL 1
REMARK VINA RESULT: -8.838293076      0.000      0.000
REMARK  11 active torsions:
REMARK  status: ('A' for Active; 'I' for Inactive)
REMARK    1  A    between atoms: C3_3  and  C5_5 
REMARK    2  A    between atoms: C5_5  and  O2_7 
REMARK    3  A    between atoms: O2_7  and  C6_8 
REMARK    4  A    between atoms: C19_21  and  O3_22 
REMARK    5  A    between atoms: O3_22  and  C20_23 
REMARK       I    between atoms: C20_23  and  N1_25 
REMARK    6  A    between atoms: N1_25  and  C21_27 
REMARK    7  A    between atoms: C21_27  and  C23_29 
REMARK       I    between atoms: C23_29  and  N2_31 
REMARK    8  A    between atoms: N2_31  and  C24_33 
REMARK    9  A    between atoms: C24_33  and  C25_34 
REMARK   10  A    between atoms: C24_33  and  C32_41 
REMARK   11  A    between atoms: C25_34  and  C26_35 
REMARK       I    between atoms: C32_41  and  N3_43 
ROOT
HETATM    1  C20 UNL     1      32.542  32.708  28.545  1.00  0.00     0.361 C 
HETATM    2  O4  UNL     1      31.328  32.464  28.334  1.00  0.00    -0.238 OA
HETATM    3  N1  UNL     1      33.211  33.776  27.871  1.00  0.00    -0.324 N 
ATOM      4  H1  UNL     1      34.198  33.943  28.069  1.00  0.00     0.165 HD
ENDROOT
BRANCH   1   5
HETATM    5  O3  UNL     1      33.217  31.938  29.429  1.00  0.00    -0.298 OA
BRANCH   5   6
HETATM    6  C19 UNL     1      34.506  31.318  29.189  1.00  0.00     0.142 C 
HETATM    7  C8  UNL     1      34.332  30.642  27.853  1.00  0.00     0.018 C 
HETATM    8  C7  UNL     1      35.559  30.181  27.182  1.00  0.00     0.040 C 
HETATM    9  C9  UNL     1      33.278  29.579  28.050  1.00  0.00     0.012 C 
HETATM   10  C6  UNL     1      36.866  30.748  27.635  1.00  0.00     0.140 C 
HETATM   11  C14 UNL     1      37.500  30.123  28.812  1.00  0.00    -0.021 C 
HETATM   12  C13 UNL     1      36.759  28.988  29.443  1.00  0.00     0.016 C 
HETATM   13  C15 UNL     1      38.796  29.460  28.332  1.00  0.00     0.017 C 
HETATM   14  C16 UNL     1      37.986  31.127  29.869  1.00  0.00     0.017 C 
HETATM   15  C12 UNL     1      35.510  29.132  30.124  1.00  0.00    -0.007 C 
HETATM   16  C11 UNL     1      34.541  28.052  29.602  1.00  0.00     0.010 C 
HETATM   17  C17 UNL     1      34.744  30.378  30.283  1.00  0.00     0.020 C 
HETATM   18  C10 UNL     1      33.299  28.863  29.335  1.00  0.00    -0.013 C 
HETATM   19  C18 UNL     1      33.357  29.751  30.569  1.00  0.00     0.012 C 
BRANCH  10  20
HETATM   20  O2  UNL     1      37.720  30.738  26.470  1.00  0.00    -0.311 OA
BRANCH  20  21
HETATM   21  C5  UNL     1      38.392  31.816  25.989  1.00  0.00     0.289 C 
HETATM   22  O1  UNL     1      37.735  32.924  26.049  1.00  0.00    -0.260 OA
BRANCH  21  23
HETATM   23  C3  UNL     1      39.716  31.764  25.450  1.00  0.00     0.009 C 
HETATM   24  C2  UNL     1      40.814  32.073  26.069  1.00  0.00    -0.018 C 
HETATM   25  C1  UNL     1      40.860  32.527  27.473  1.00  0.00     0.036 C 
HETATM   26  C4  UNL     1      39.885  31.321  24.010  1.00  0.00     0.054 C 
ENDBRANCH  21  23
ENDBRANCH  20  21
ENDBRANCH  10  20
ENDBRANCH   5   6
ENDBRANCH   1   5
BRANCH   3  27
HETATM   27  C21 UNL     1      32.538  34.623  26.922  1.00  0.00     0.174 C 
HETATM   28  C22 UNL     1      32.818  36.096  27.199  1.00  0.00     0.042 C 
BRANCH  27  29
HETATM   29  C23 UNL     1      32.995  34.319  25.554  1.00  0.00     0.240 C 
HETATM   30  O5  UNL     1      32.217  34.469  24.563  1.00  0.00    -0.271 OA
HETATM   31  N2  UNL     1      34.306  33.849  25.266  1.00  0.00    -0.346 N 
ATOM     32  H2  UNL     1      34.957  33.718  26.040  1.00  0.00     0.163 HD
BRANCH  31  33
HETATM   33  C24 UNL     1      34.761  33.548  23.920  1.00  0.00     0.180 C 
BRANCH  33  34
HETATM   34  C25 UNL     1      35.455  32.211  23.863  1.00  0.00     0.073 C 
BRANCH  34  35
HETATM   35  C26 UNL     1      34.849  31.254  22.922  1.00  0.00    -0.056 A 
HETATM   36  C27 UNL     1      35.618  30.203  22.461  1.00  0.00     0.007 A 
HETATM   37  C28 UNL     1      35.146  29.245  21.587  1.00  0.00     0.001 A 
HETATM   38  C29 UNL     1      33.831  29.389  21.180  1.00  0.00     0.000 A 
HETATM   39  C30 UNL     1      33.044  30.424  21.623  1.00  0.00     0.001 A 
HETATM   40  C31 UNL     1      33.554  31.372  22.504  1.00  0.00     0.007 A 
ENDBRANCH  34  35
ENDBRANCH  33  34
BRANCH  33  41
HETATM   41  C32 UNL     1      35.619  34.592  23.379  1.00  0.00     0.240 C 
HETATM   42  O6  UNL     1      35.283  35.216  22.331  1.00  0.00    -0.271 OA
HETATM   43  N3  UNL     1      36.839  34.917  24.016  1.00  0.00    -0.364 N 
HETATM   44  C33 UNL     1      37.730  35.940  23.523  1.00  0.00     0.149 C 
ATOM     45  H3  UNL     1      37.100  34.407  24.860  1.00  0.00     0.161 HD
ENDBRANCH  33  41
ENDBRANCH  31  33
ENDBRANCH  27  29
ENDBRANCH   3  27
TORSDOF 11
ENDMDL
MODEL 2
REMARK VINA RESULT: -8.609920317      2.119      7.885
REMARK  11 active torsions:
REMARK  status: ('A' for Active; 'I' for Inactive)
REMARK    1  A    between atoms: C3_3  and  C5_5 
REMARK    2  A    between atoms: C5_5  and  O2_7 
REMARK    3  A    between atoms: O2_7  and  C6_8 
REMARK    4  A    between atoms: C19_21  and  O3_22 
REMARK    5  A    between atoms: O3_22  and  C20_23 
REMARK       I    between atoms: C20_23  and  N1_25 
REMARK    6  A    between atoms: N1_25  and  C21_27 
REMARK    7  A    between atoms: C21_27  and  C23_29 
REMARK       I    between atoms: C23_29  and  N2_31 
REMARK    8  A    between atoms: N2_31  and  C24_33 
REMARK    9  A    between atoms: C24_33  and  C25_34 
REMARK   10  A    between atoms: C24_33  and  C32_41 
REMARK   11  A    between atoms: C25_34  and  C26_35 
REMARK       I    between atoms: C32_41  and  N3_43 
ROOT
HETATM    1  C20 UNL     1      39.608  31.989  26.545  1.00  0.00     0.361 C 
HETATM    2  O4  UNL     1      40.129  30.895  26.213  1.00  0.00    -0.238 OA
HETATM    3  N1  UNL     1      38.819  32.103  27.731  1.00  0.00    -0.324 N 
ATOM      4  H1  UNL     1      38.413  33.008  27.967  1.00  0.00     0.165 HD
ENDROOT
BRANCH   1   5
HETATM    5  O3  UNL     1      39.807  33.070  25.757  1.00  0.00    -0.298 OA
BRANCH   5   6
HETATM    6  C19 UNL     1      38.766  33.814  25.076  1.00  0.00     0.142 C 
HETATM    7  C8  UNL     1      38.497  32.997  23.836  1.00  0.00     0.018 C 
HETATM    8  C7  UNL     1      37.274  33.321  23.084  1.00  0.00     0.040 C 
HETATM    9  C9  UNL     1      39.770  33.031  23.024  1.00  0.00     0.012 C 
HETATM   10  C6  UNL     1      36.208  34.109  23.776  1.00  0.00     0.140 C 
HETATM   11  C14 UNL     1      36.361  35.578  23.794  1.00  0.00    -0.021 C 
HETATM   12  C13 UNL     1      37.579  36.128  23.124  1.00  0.00     0.016 C 
HETATM   13  C15 UNL     1      35.218  36.163  22.957  1.00  0.00     0.017 C 
HETATM   14  C16 UNL     1      36.149  36.213  25.176  1.00  0.00     0.017 C 
HETATM   15  C12 UNL     1      38.911  35.931  23.605  1.00  0.00    -0.007 C 
HETATM   16  C11 UNL     1      39.794  35.475  22.426  1.00  0.00     0.010 C 
HETATM   17  C17 UNL     1      39.302  35.143  24.784  1.00  0.00     0.020 C 
HETATM   18  C10 UNL     1      40.518  34.298  23.026  1.00  0.00    -0.013 C 
HETATM   19  C18 UNL     1      40.782  34.891  24.403  1.00  0.00     0.012 C 
BRANCH  10  20
HETATM   20  O2  UNL     1      34.962  33.685  23.184  1.00  0.00    -0.311 OA
BRANCH  20  21
HETATM   21  C5  UNL     1      34.105  32.786  23.733  1.00  0.00     0.289 C 
HETATM   22  O1  UNL     1      32.967  33.279  24.085  1.00  0.00    -0.260 OA
BRANCH  21  23
HETATM   23  C3  UNL     1      34.406  31.400  23.923  1.00  0.00     0.009 C 
HETATM   24  C2  UNL     1      34.120  30.430  23.111  1.00  0.00    -0.018 C 
HETATM   25  C1  UNL     1      33.430  30.621  21.820  1.00  0.00     0.036 C 
HETATM   26  C4  UNL     1      35.118  30.992  25.198  1.00  0.00     0.054 C 
ENDBRANCH  21  23
ENDBRANCH  20  21
ENDBRANCH  10  20
ENDBRANCH   5   6
ENDBRANCH   1   5
BRANCH   3  27
HETATM   27  C21 UNL     1      38.578  30.982  28.601  1.00  0.00     0.174 C 
HETATM   28  C22 UNL     1      39.540  30.984  29.785  1.00  0.00     0.042 C 
BRANCH  27  29
HETATM   29  C23 UNL     1      37.202  31.034  29.129  1.00  0.00     0.240 C 
HETATM   30  O5  UNL     1      36.935  31.703  30.174  1.00  0.00    -0.271 OA
HETATM   31  N2  UNL     1      36.116  30.354  28.515  1.00  0.00    -0.346 N 
ATOM     32  H2  UNL     1      36.296  29.808  27.672  1.00  0.00     0.163 HD
BRANCH  31  33
HETATM   33  C24 UNL     1      34.759  30.402  29.031  1.00  0.00     0.180 C 
BRANCH  33  34
HETATM   34  C25 UNL     1      34.056  29.081  28.849  1.00  0.00     0.073 C 
BRANCH  34  35
HETATM   35  C26 UNL     1      34.403  28.066  29.857  1.00  0.00    -0.056 A 
HETATM   36  C27 UNL     1      33.589  27.928  30.964  1.00  0.00     0.007 A 
HETATM   37  C28 UNL     1      33.816  27.002  31.961  1.00  0.00     0.001 A 
HETATM   38  C29 UNL     1      34.930  26.196  31.799  1.00  0.00     0.000 A 
HETATM   39  C30 UNL     1      35.756  26.312  30.709  1.00  0.00     0.001 A 
HETATM   40  C31 UNL     1      35.495  27.257  29.723  1.00  0.00     0.007 A 
ENDBRANCH  34  35
ENDBRANCH  33  34
BRANCH  33  41
HETATM   41  C32 UNL     1      33.979  31.480  28.441  1.00  0.00     0.240 C 
HETATM   42  O6  UNL     1      32.830  31.251  27.963  1.00  0.00    -0.271 OA
HETATM   43  N3  UNL     1      34.498  32.795  28.391  1.00  0.00    -0.364 N 
HETATM   44  C33 UNL     1      33.771  33.902  27.816  1.00  0.00     0.149 C 
ATOM     45  H3  UNL     1      35.425  32.969  28.779  1.00  0.00     0.161 HD
ENDBRANCH  33  41
ENDBRANCH  31  33
ENDBRANCH  27  29
ENDBRANCH   3  27
TORSDOF 11
ENDMDL
MODEL 3
REMARK VINA RESULT: -8.500402694      2.170      7.243
REMARK  11 active torsions:
REMARK  status: ('A' for Active; 'I' for Inactive)
REMARK    1  A    between atoms: C3_3  and  C5_5 
REMARK    2  A    between atoms: C5_5  and  O2_7 
REMARK    3  A    between atoms: O2_7  and  C6_8 
REMARK    4  A    between atoms: C19_21  and  O3_22 
REMARK    5  A    between atoms: O3_22  and  C20_23 
REMARK       I    between atoms: C20_23  and  N1_25 
REMARK    6  A    between atoms: N1_25  and  C21_27 
REMARK    7  A    between atoms: C21_27  and  C23_29 
REMARK       I    between atoms: C23_29  and  N2_31 
REMARK    8  A    between atoms: N2_31  and  C24_33 
REMARK    9  A    between atoms: C24_33  and  C25_34 
REMARK   10  A    between atoms: C24_33  and  C32_41 
REMARK   11  A    between atoms: C25_34  and  C26_35 
REMARK       I    between atoms: C32_41  and  N3_43 
ROOT
HETATM    1  C20 UNL     1      36.728  34.932  23.111  1.00  0.00     0.361 C 
HETATM    2  O4  UNL     1      36.046  35.988  23.119  1.00  0.00    -0.238 OA
HETATM    3  N1  UNL     1      36.204  33.709  23.631  1.00  0.00    -0.324 N 
ATOM      4  H1  UNL     1      36.788  32.873  23.608  1.00  0.00     0.165 HD
ENDROOT
BRANCH   1   5
HETATM    5  O3  UNL     1      37.980  34.970  22.599  1.00  0.00    -0.298 OA
BRANCH   5   6
HETATM    6  C19 UNL     1      39.096  34.165  23.054  1.00  0.00     0.142 C 
HETATM    7  C8  UNL     1      39.652  34.951  24.215  1.00  0.00     0.018 C 
HETATM    8  C7  UNL     1      40.606  34.251  25.091  1.00  0.00     0.040 C 
HETATM    9  C9  UNL     1      40.156  36.254  23.642  1.00  0.00     0.012 C 
HETATM   10  C6  UNL     1      40.649  32.757  25.035  1.00  0.00     0.140 C 
HETATM   11  C14 UNL     1      41.469  32.147  23.969  1.00  0.00    -0.021 C 
HETATM   12  C13 UNL     1      42.165  33.091  23.042  1.00  0.00     0.016 C 
HETATM   13  C15 UNL     1      42.632  31.418  24.652  1.00  0.00     0.017 C 
HETATM   14  C16 UNL     1      40.756  31.028  23.194  1.00  0.00     0.017 C 
HETATM   15  C12 UNL     1      41.488  33.938  22.110  1.00  0.00    -0.007 C 
HETATM   16  C11 UNL     1      42.053  35.367  22.248  1.00  0.00     0.010 C 
HETATM   17  C17 UNL     1      40.032  34.051  21.936  1.00  0.00     0.020 C 
HETATM   18  C10 UNL     1      40.792  36.187  22.316  1.00  0.00    -0.013 C 
HETATM   19  C18 UNL     1      39.997  35.441  21.254  1.00  0.00     0.012 C 
BRANCH  10  20
HETATM   20  O2  UNL     1      41.043  32.328  26.356  1.00  0.00    -0.311 OA
BRANCH  20  21
HETATM   21  C5  UNL     1      40.234  31.686  27.238  1.00  0.00     0.289 C 
HETATM   22  O1  UNL     1      39.830  32.417  28.221  1.00  0.00    -0.260 OA
BRANCH  21  23
HETATM   23  C3  UNL     1      39.844  30.315  27.122  1.00  0.00     0.009 C 
HETATM   24  C2  UNL     1      38.799  29.859  26.501  1.00  0.00    -0.018 C 
HETATM   25  C1  UNL     1      37.835  30.719  25.787  1.00  0.00     0.036 C 
HETATM   26  C4  UNL     1      40.710  29.266  27.792  1.00  0.00     0.054 C 
ENDBRANCH  21  23
ENDBRANCH  20  21
ENDBRANCH  10  20
ENDBRANCH   5   6
ENDBRANCH   1   5
BRANCH   3  27
HETATM   27  C21 UNL     1      34.880  33.618  24.187  1.00  0.00     0.174 C 
HETATM   28  C22 UNL     1      33.981  32.729  23.333  1.00  0.00     0.042 C 
BRANCH  27  29
HETATM   29  C23 UNL     1      34.935  33.044  25.544  1.00  0.00     0.240 C 
HETATM   30  O5  UNL     1      35.522  33.663  26.484  1.00  0.00    -0.271 OA
HETATM   31  N2  UNL     1      34.350  31.793  25.876  1.00  0.00    -0.346 N 
ATOM     32  H2  UNL     1      33.870  31.270  25.143  1.00  0.00     0.163 HD
BRANCH  31  33
HETATM   33  C24 UNL     1      34.402  31.224  27.211  1.00  0.00     0.180 C 
BRANCH  33  34
HETATM   34  C25 UNL     1      33.795  29.844  27.243  1.00  0.00     0.073 C 
BRANCH  34  35
HETATM   35  C26 UNL     1      34.172  29.043  28.420  1.00  0.00    -0.056 A 
HETATM   36  C27 UNL     1      35.494  28.672  28.571  1.00  0.00     0.007 A 
HETATM   37  C28 UNL     1      35.955  27.933  29.641  1.00  0.00     0.001 A 
HETATM   38  C29 UNL     1      35.007  27.568  30.581  1.00  0.00     0.000 A 
HETATM   39  C30 UNL     1      33.687  27.924  30.455  1.00  0.00     0.001 A 
HETATM   40  C31 UNL     1      33.258  28.670  29.363  1.00  0.00     0.007 A 
ENDBRANCH  34  35
ENDBRANCH  33  34
BRANCH  33  41
HETATM   41  C32 UNL     1      33.773  32.082  28.205  1.00  0.00     0.240 C 
HETATM   42  O6  UNL     1      32.524  32.287  28.173  1.00  0.00    -0.271 OA
HETATM   43  N3  UNL     1      34.549  32.697  29.214  1.00  0.00    -0.364 N 
HETATM   44  C33 UNL     1      33.979  33.559  30.222  1.00  0.00     0.149 C 
ATOM     45  H3  UNL     1      35.554  32.525  29.230  1.00  0.00     0.161 HD
ENDBRANCH  33  41
ENDBRANCH  31  33
ENDBRANCH  27  29
ENDBRANCH   3  27
TORSDOF 11
ENDMDL
MODEL 4
REMARK VINA RESULT: -8.446139157      3.153      8.216
REMARK  11 active torsions:
REMARK  status: ('A' for Active; 'I' for Inactive)
REMARK    1  A    between atoms: C3_3  and  C5_5 
REMARK    2  A    between atoms: C5_5  and  O2_7 
REMARK    3  A    between atoms: O2_7  and  C6_8 
REMARK    4  A    between atoms: C19_21  and  O3_22 
REMARK    5  A    between atoms: O3_22  and  C20_23 
REMARK       I    between atoms: C20_23  and  N1_25 
REMARK    6  A    between atoms: N1_25  and  C21_27 
REMARK    7  A    between atoms: C21_27  and  C23_29 
REMARK       I    between atoms: C23_29  and  N2_31 
REMARK    8  A    between atoms: N2_31  and  C24_33 
REMARK    9  A    between atoms: C24_33  and  C25_34 
REMARK   10  A    between atoms: C24_33  and  C32_41 
REMARK   11  A    between atoms: C25_34  and  C26_35 
REMARK       I    between atoms: C32_41  and  N3_43 
ROOT
HETATM    1  C20 UNL     1      38.842  31.705  27.962  1.00  0.00     0.361 C 
HETATM    2  O4  UNL     1      39.619  31.770  28.947  1.00  0.00    -0.238 OA
HETATM    3  N1  UNL     1      37.494  31.254  28.112  1.00  0.00    -0.324 N 
ATOM      4  H1  UNL     1      36.893  31.214  27.288  1.00  0.00     0.165 HD
ENDROOT
BRANCH   1   5
HETATM    5  O3  UNL     1      39.303  32.070  26.744  1.00  0.00    -0.298 OA
BRANCH   5   6
HETATM    6  C19 UNL     1      38.564  32.842  25.765  1.00  0.00     0.142 C 
HETATM    7  C8  UNL     1      37.860  31.793  24.941  1.00  0.00     0.018 C 
HETATM    8  C7  UNL     1      36.783  32.263  24.054  1.00  0.00     0.040 C 
HETATM    9  C9  UNL     1      38.944  30.995  24.256  1.00  0.00     0.012 C 
HETATM   10  C6  UNL     1      36.195  33.613  24.313  1.00  0.00     0.140 C 
HETATM   11  C14 UNL     1      36.909  34.777  23.751  1.00  0.00    -0.021 C 
HETATM   12  C13 UNL     1      38.161  34.485  22.988  1.00  0.00     0.016 C 
HETATM   13  C15 UNL     1      35.997  35.399  22.687  1.00  0.00     0.017 C 
HETATM   14  C16 UNL     1      37.119  35.924  24.751  1.00  0.00     0.017 C 
HETATM   15  C12 UNL     1      39.355  33.972  23.583  1.00  0.00    -0.007 C 
HETATM   16  C11 UNL     1      39.852  32.783  22.736  1.00  0.00     0.010 C 
HETATM   17  C17 UNL     1      39.540  33.617  24.999  1.00  0.00     0.020 C 
HETATM   18  C10 UNL     1      40.122  31.747  23.795  1.00  0.00    -0.013 C 
HETATM   19  C18 UNL     1      40.750  32.666  24.834  1.00  0.00     0.012 C 
BRANCH  10  20
HETATM   20  O2  UNL     1      34.823  33.533  23.869  1.00  0.00    -0.311 OA
BRANCH  20  21
HETATM   21  C5  UNL     1      33.739  33.554  24.685  1.00  0.00     0.289 C 
HETATM   22  O1  UNL     1      32.614  33.718  24.075  1.00  0.00    -0.260 OA
BRANCH  21  23
HETATM   23  C3  UNL     1      33.800  33.413  26.108  1.00  0.00     0.009 C 
HETATM   24  C2  UNL     1      33.957  32.307  26.768  1.00  0.00    -0.018 C 
HETATM   25  C1  UNL     1      34.116  30.988  26.125  1.00  0.00     0.036 C 
HETATM   26  C4  UNL     1      33.655  34.661  26.956  1.00  0.00     0.054 C 
ENDBRANCH  21  23
ENDBRANCH  20  21
ENDBRANCH  10  20
ENDBRANCH   5   6
ENDBRANCH   1   5
BRANCH   3  27
HETATM   27  C21 UNL     1      36.957  30.854  29.386  1.00  0.00     0.174 C 
HETATM   28  C22 UNL     1      35.555  31.416  29.596  1.00  0.00     0.042 C 
BRANCH  27  29
HETATM   29  C23 UNL     1      36.878  29.384  29.465  1.00  0.00     0.240 C 
HETATM   30  O5  UNL     1      37.833  28.660  29.048  1.00  0.00    -0.271 OA
HETATM   31  N2  UNL     1      35.753  28.701  30.003  1.00  0.00    -0.346 N 
ATOM     32  H2  UNL     1      34.967  29.253  30.348  1.00  0.00     0.163 HD
BRANCH  31  33
HETATM   33  C24 UNL     1      35.670  27.253  30.083  1.00  0.00     0.180 C 
BRANCH  33  34
HETATM   34  C25 UNL     1      35.849  26.618  28.728  1.00  0.00     0.073 C 
BRANCH  34  35
HETATM   35  C26 UNL     1      36.595  25.349  28.747  1.00  0.00    -0.056 A 
HETATM   36  C27 UNL     1      37.526  25.145  29.747  1.00  0.00     0.007 A 
HETATM   37  C28 UNL     1      38.270  23.989  29.864  1.00  0.00     0.001 A 
HETATM   38  C29 UNL     1      38.037  23.017  28.907  1.00  0.00     0.000 A 
HETATM   39  C30 UNL     1      37.118  23.194  27.902  1.00  0.00     0.001 A 
HETATM   40  C31 UNL     1      36.386  24.373  27.816  1.00  0.00     0.007 A 
ENDBRANCH  34  35
ENDBRANCH  33  34
BRANCH  33  41
HETATM   41  C32 UNL     1      34.430  26.803  30.698  1.00  0.00     0.240 C 
HETATM   42  O6  UNL     1      33.332  27.364  30.410  1.00  0.00    -0.271 OA
HETATM   43  N3  UNL     1      34.437  25.735  31.626  1.00  0.00    -0.364 N 
HETATM   44  C33 UNL     1      33.240  25.248  32.268  1.00  0.00     0.149 C 
ATOM     45  H3  UNL     1      35.327  25.290  31.851  1.00  0.00     0.161 HD
ENDBRANCH  33  41
ENDBRANCH  31  33
ENDBRANCH  27  29
ENDBRANCH   3  27
TORSDOF 11
ENDMDL
MODEL 5
REMARK VINA RESULT: -8.430569488      2.720      8.323
REMARK  11 active torsions:
REMARK  status: ('A' for Active; 'I' for Inactive)
REMARK    1  A    between atoms: C3_3  and  C5_5 
REMARK    2  A    between atoms: C5_5  and  O2_7 
REMARK    3  A    between atoms: O2_7  and  C6_8 
REMARK    4  A    between atoms: C19_21  and  O3_22 
REMARK    5  A    between atoms: O3_22  and  C20_23 
REMARK       I    between atoms: C20_23  and  N1_25 
REMARK    6  A    between atoms: N1_25  and  C21_27 
REMARK    7  A    between atoms: C21_27  and  C23_29 
REMARK       I    between atoms: C23_29  and  N2_31 
REMARK    8  A    between atoms: N2_31  and  C24_33 
REMARK    9  A    between atoms: C24_33  and  C25_34 
REMARK   10  A    between atoms: C24_33  and  C32_41 
REMARK   11  A    between atoms: C25_34  and  C26_35 
REMARK       I    between atoms: C32_41  and  N3_43 
ROOT
HETATM    1  C20 UNL     1      39.736  32.033  27.239  1.00  0.00     0.361 C 
HETATM    2  O4  UNL     1      40.668  31.275  27.606  1.00  0.00    -0.238 OA
HETATM    3  N1  UNL     1      38.447  31.971  27.853  1.00  0.00    -0.324 N 
ATOM      4  H1  UNL     1      37.715  32.604  27.528  1.00  0.00     0.165 HD
ENDROOT
BRANCH   1   5
HETATM    5  O3  UNL     1      39.970  32.919  26.245  1.00  0.00    -0.298 OA
BRANCH   5   6
HETATM    6  C19 UNL     1      38.959  33.505  25.387  1.00  0.00     0.142 C 
HETATM    7  C8  UNL     1      38.438  32.331  24.597  1.00  0.00     0.018 C 
HETATM    8  C7  UNL     1      37.184  32.539  23.854  1.00  0.00     0.040 C 
HETATM    9  C9  UNL     1      39.595  31.835  23.764  1.00  0.00     0.012 C 
HETATM   10  C6  UNL     1      36.322  33.700  24.237  1.00  0.00     0.140 C 
HETATM   11  C14 UNL     1      36.664  35.013  23.656  1.00  0.00    -0.021 C 
HETATM   12  C13 UNL     1      37.852  35.050  22.749  1.00  0.00     0.016 C 
HETATM   13  C15 UNL     1      35.513  35.413  22.726  1.00  0.00     0.017 C 
HETATM   14  C16 UNL     1      36.707  36.159  24.679  1.00  0.00     0.017 C 
HETATM   15  C12 UNL     1      39.196  34.834  23.187  1.00  0.00    -0.007 C 
HETATM   16  C11 UNL     1      39.862  33.817  22.237  1.00  0.00     0.010 C 
HETATM   17  C17 UNL     1      39.624  34.508  24.557  1.00  0.00     0.020 C 
HETATM   18  C10 UNL     1      40.495  32.860  23.213  1.00  0.00    -0.013 C 
HETATM   19  C18 UNL     1      41.000  33.885  24.218  1.00  0.00     0.012 C 
BRANCH  10  20
HETATM   20  O2  UNL     1      34.968  33.295  23.941  1.00  0.00    -0.311 OA
BRANCH  20  21
HETATM   21  C5  UNL     1      33.934  33.336  24.820  1.00  0.00     0.289 C 
HETATM   22  O1  UNL     1      32.778  33.514  24.276  1.00  0.00    -0.260 OA
BRANCH  21  23
HETATM   23  C3  UNL     1      34.076  33.200  26.237  1.00  0.00     0.009 C 
HETATM   24  C2  UNL     1      34.263  32.096  26.891  1.00  0.00    -0.018 C 
HETATM   25  C1  UNL     1      34.375  30.773  26.246  1.00  0.00     0.036 C 
HETATM   26  C4  UNL     1      33.989  34.453  27.087  1.00  0.00     0.054 C 
ENDBRANCH  21  23
ENDBRANCH  20  21
ENDBRANCH  10  20
ENDBRANCH   5   6
ENDBRANCH   1   5
BRANCH   3  27
HETATM   27  C21 UNL     1      38.147  31.046  28.914  1.00  0.00     0.174 C 
HETATM   28  C22 UNL     1      37.226  31.676  29.954  1.00  0.00     0.042 C 
BRANCH  27  29
HETATM   29  C23 UNL     1      37.476  29.851  28.372  1.00  0.00     0.240 C 
HETATM   30  O5  UNL     1      37.717  29.452  27.191  1.00  0.00    -0.271 OA
HETATM   31  N2  UNL     1      36.540  29.087  29.121  1.00  0.00    -0.346 N 
ATOM     32  H2  UNL     1      36.324  29.380  30.074  1.00  0.00     0.163 HD
BRANCH  31  33
HETATM   33  C24 UNL     1      35.876  27.909  28.591  1.00  0.00     0.180 C 
BRANCH  33  34
HETATM   34  C25 UNL     1      34.416  27.885  28.969  1.00  0.00     0.073 C 
BRANCH  34  35
HETATM   35  C26 UNL     1      34.163  28.023  30.413  1.00  0.00    -0.056 A 
HETATM   36  C27 UNL     1      33.840  29.270  30.912  1.00  0.00     0.007 A 
HETATM   37  C28 UNL     1      33.572  29.507  32.244  1.00  0.00     0.001 A 
HETATM   38  C29 UNL     1      33.645  28.408  33.083  1.00  0.00     0.000 A 
HETATM   39  C30 UNL     1      33.963  27.158  32.614  1.00  0.00     0.001 A 
HETATM   40  C31 UNL     1      34.227  26.957  31.263  1.00  0.00     0.007 A 
ENDBRANCH  34  35
ENDBRANCH  33  34
BRANCH  33  41
HETATM   41  C32 UNL     1      36.529  26.674  29.001  1.00  0.00     0.240 C 
HETATM   42  O6  UNL     1      37.480  26.700  29.835  1.00  0.00    -0.271 OA
HETATM   43  N3  UNL     1      36.109  25.432  28.470  1.00  0.00    -0.364 N 
HETATM   44  C33 UNL     1      36.721  24.177  28.837  1.00  0.00     0.149 C 
ATOM     45  H3  UNL     1      35.342  25.423  27.798  1.00  0.00     0.161 HD
ENDBRANCH  33  41
ENDBRANCH  31  33
ENDBRANCH  27  29
ENDBRANCH   3  27
TORSDOF 11
ENDMDL
