MODEL 1
REMARK VINA RESULT: -7.765889525      0.000      0.000
REMARK  13 active torsions:
REMARK  status: ('A' for Active; 'I' for Inactive)
REMARK    1  A    between atoms: N1_1  and  C1_5 
REMARK    2  A    between atoms: C1_5  and  C2_6 
REMARK    3  A    between atoms: C2_6  and  C3_7 
REMARK    4  A    between atoms: C2_6  and  N5_13 
REMARK    5  A    between atoms: C3_7  and  N2_8 
REMARK    6  A    between atoms: N5_13  and  C5_15 
REMARK    7  A    between atoms: C5_15  and  C6_16 
REMARK    8  A    between atoms: C6_16  and  O1_17 
REMARK    9  A    between atoms: O1_17  and  C7_18 
REMARK   10  A    between atoms: C8_22  and  C9_23 
REMARK   11  A    between atoms: C9_23  and  O2_24 
REMARK   12  A    between atoms: C10_26  and  N7_27 
REMARK   13  A    between atoms: C10_26  and  C11_31 
ROOT
HETATM    1  O1  UNL     1      82.794  25.614   1.013  1.00  0.00    -0.355 OA
ENDROOT
BRANCH   1   2
HETATM    2  C6  UNL     1      81.808  24.717   0.696  1.00  0.00     0.189 C 
BRANCH   2   3
HETATM    3  C5  UNL     1      81.875  23.367   1.330  1.00  0.00     0.140 C 
BRANCH   3   4
HETATM    4  N5  UNL     1      82.176  22.380   0.366  1.00  0.00    -0.412 N 
ATOM      5  H5  UNL     1      81.503  22.149  -0.365  1.00  0.00     0.153 HD
BRANCH   4   6
HETATM    6  C2  UNL     1      83.422  21.715   0.428  1.00  0.00     0.119 C 
BRANCH   6   7
HETATM    7  C1  UNL     1      84.644  22.509   0.143  1.00  0.00     0.255 C 
BRANCH   7   8
HETATM    8  N1  UNL     1      85.078  23.385   1.203  1.00  0.00    -0.077 N 
ATOM      9  H13 UNL     1      84.556  24.261   1.167  1.00  0.00     0.274 HD
ATOM     10  H12 UNL     1      84.764  23.025   2.104  1.00  0.00     0.274 HD
ATOM     11  H11 UNL     1      86.079  23.576   1.233  1.00  0.00     0.274 HD
ENDBRANCH   7   8
ENDBRANCH   6   7
BRANCH   6  12
HETATM   12  C3  UNL     1      83.461  20.408  -0.351  1.00  0.00     0.148 C 
BRANCH  12  13
HETATM   13  N2  UNL     1      83.745  19.283   0.513  1.00  0.00    -0.365 N 
HETATM   14  C4  UNL     1      84.241  18.198   0.002  1.00  0.00     0.197 C 
HETATM   15  N3  UNL     1      84.502  18.116  -1.390  1.00  0.00    -0.067 NA
HETATM   16  N4  UNL     1      84.535  17.070   0.813  1.00  0.00    -0.067 NA
ATOM     17  H2  UNL     1      83.557  19.343   1.514  1.00  0.00     0.161 HD
ENDBRANCH  12  13
ENDBRANCH   6  12
ENDBRANCH   4   6
ENDBRANCH   3   4
ENDBRANCH   2   3
ENDBRANCH   1   2
BRANCH   1  18
HETATM   18  C7  UNL     1      82.410  26.819   1.521  1.00  0.00     0.369 C 
HETATM   19  N6  UNL     1      81.050  26.803   2.103  1.00  0.00    -0.036 N 
HETATM   20  C8  UNL     1      81.622  26.895   3.438  1.00  0.00     0.261 C 
ATOM     21  H62 UNL     1      80.357  27.485   1.798  1.00  0.00     0.281 HD
ATOM     22  H61 UNL     1      80.406  26.046   1.874  1.00  0.00     0.281 HD
HETATM   23  C10 UNL     1      82.914  27.254   2.866  1.00  0.00     0.281 C 
BRANCH  20  24
HETATM   24  C9  UNL     1      81.348  25.693   4.236  1.00  0.00     0.200 C 
BRANCH  24  25
HETATM   25  O2  UNL     1      80.158  25.057   4.101  1.00  0.00    -0.399 OA
ATOM     26  H2  UNL     1      79.795  24.918   3.233  1.00  0.00     0.209 HD
ENDBRANCH  24  25
ENDBRANCH  20  24
BRANCH  23  27
HETATM   27  N7  UNL     1      83.107  28.728   2.887  1.00  0.00    -0.055 N 
ATOM     28  H73 UNL     1      82.282  29.227   2.554  1.00  0.00     0.276 HD
ATOM     29  H72 UNL     1      83.131  29.096   3.838  1.00  0.00     0.276 HD
ATOM     30  H71 UNL     1      83.944  28.979   2.359  1.00  0.00     0.276 HD
ENDBRANCH  23  27
BRANCH  23  31
HETATM   31  C11 UNL     1      84.155  26.636   3.272  1.00  0.00     0.274 C 
HETATM   32  N8  UNL     1      84.338  25.234   3.330  1.00  0.00    -0.060 NA
HETATM   33  O3  UNL     1      85.135  27.340   3.594  1.00  0.00    -0.274 OA
ENDBRANCH  23  31
ENDBRANCH   1  18
TORSDOF 13
ENDMDL
MODEL 2
REMARK VINA RESULT: -7.727468094      1.328      1.790
REMARK  13 active torsions:
REMARK  status: ('A' for Active; 'I' for Inactive)
REMARK    1  A    between atoms: N1_1  and  C1_5 
REMARK    2  A    between atoms: C1_5  and  C2_6 
REMARK    3  A    between atoms: C2_6  and  C3_7 
REMARK    4  A    between atoms: C2_6  and  N5_13 
REMARK    5  A    between atoms: C3_7  and  N2_8 
REMARK    6  A    between atoms: N5_13  and  C5_15 
REMARK    7  A    between atoms: C5_15  and  C6_16 
REMARK    8  A    between atoms: C6_16  and  O1_17 
REMARK    9  A    between atoms: O1_17  and  C7_18 
REMARK   10  A    between atoms: C8_22  and  C9_23 
REMARK   11  A    between atoms: C9_23  and  O2_24 
REMARK   12  A    between atoms: C10_26  and  N7_27 
REMARK   13  A    between atoms: C10_26  and  C11_31 
ROOT
HETATM    1  O1  UNL     1      83.735  24.859   2.072  1.00  0.00    -0.355 OA
ENDROOT
BRANCH   1   2
HETATM    2  C6  UNL     1      84.983  24.527   1.610  1.00  0.00     0.189 C 
BRANCH   2   3
HETATM    3  C5  UNL     1      85.060  23.632   0.418  1.00  0.00     0.140 C 
BRANCH   3   4
HETATM    4  N5  UNL     1      84.527  22.358   0.718  1.00  0.00    -0.412 N 
ATOM      5  H5  UNL     1      84.912  21.803   1.482  1.00  0.00     0.153 HD
BRANCH   4   6
HETATM    6  C2  UNL     1      83.453  21.863  -0.057  1.00  0.00     0.119 C 
BRANCH   6   7
HETATM    7  C1  UNL     1      82.073  22.135   0.421  1.00  0.00     0.255 C 
BRANCH   7   8
HETATM    8  N1  UNL     1      81.963  22.554   1.796  1.00  0.00    -0.077 N 
ATOM      9  H13 UNL     1      82.892  22.653   2.206  1.00  0.00     0.274 HD
ATOM     10  H12 UNL     1      81.641  23.521   1.841  1.00  0.00     0.274 HD
ATOM     11  H11 UNL     1      81.380  21.964   2.389  1.00  0.00     0.274 HD
ENDBRANCH   7   8
ENDBRANCH   6   7
BRANCH   6  12
HETATM   12  C3  UNL     1      83.591  20.394  -0.430  1.00  0.00     0.148 C 
BRANCH  12  13
HETATM   13  N2  UNL     1      83.971  19.590   0.711  1.00  0.00    -0.365 N 
HETATM   14  C4  UNL     1      84.353  18.363   0.526  1.00  0.00     0.197 C 
HETATM   15  N3  UNL     1      84.397  17.816  -0.782  1.00  0.00    -0.067 NA
HETATM   16  N4  UNL     1      84.734  17.538   1.618  1.00  0.00    -0.067 NA
ATOM     17  H2  UNL     1      83.938  19.984   1.652  1.00  0.00     0.161 HD
ENDBRANCH  12  13
ENDBRANCH   6  12
ENDBRANCH   4   6
ENDBRANCH   3   4
ENDBRANCH   2   3
ENDBRANCH   1   2
BRANCH   1  18
HETATM   18  C7  UNL     1      83.161  25.990   1.574  1.00  0.00     0.369 C 
HETATM   19  N6  UNL     1      81.724  25.829   1.261  1.00  0.00    -0.036 N 
HETATM   20  C8  UNL     1      81.382  26.660   2.405  1.00  0.00     0.261 C 
ATOM     21  H62 UNL     1      81.375  26.069   0.333  1.00  0.00     0.281 HD
ATOM     22  H61 UNL     1      81.323  24.895   1.169  1.00  0.00     0.281 HD
HETATM   23  C10 UNL     1      82.769  27.097   2.509  1.00  0.00     0.281 C 
BRANCH  20  24
HETATM   24  C9  UNL     1      80.646  25.908   3.429  1.00  0.00     0.200 C 
BRANCH  24  25
HETATM   25  O2  UNL     1      81.147  24.733   3.885  1.00  0.00    -0.399 OA
ATOM     26  H2  UNL     1      82.050  24.688   4.175  1.00  0.00     0.209 HD
ENDBRANCH  24  25
ENDBRANCH  20  24
BRANCH  23  27
HETATM   27  N7  UNL     1      82.957  28.415   1.847  1.00  0.00    -0.055 N 
ATOM     28  H73 UNL     1      83.942  28.665   1.765  1.00  0.00     0.276 HD
ATOM     29  H72 UNL     1      82.729  28.379   0.853  1.00  0.00     0.276 HD
ATOM     30  H71 UNL     1      82.420  29.133   2.336  1.00  0.00     0.276 HD
ENDBRANCH  23  27
BRANCH  23  31
HETATM   31  C11 UNL     1      83.497  27.118   3.756  1.00  0.00     0.274 C 
HETATM   32  N8  UNL     1      84.903  27.259   3.828  1.00  0.00    -0.060 NA
HETATM   33  O3  UNL     1      82.892  27.010   4.843  1.00  0.00    -0.274 OA
ENDBRANCH  23  31
ENDBRANCH   1  18
TORSDOF 13
ENDMDL
MODEL 3
REMARK VINA RESULT: -7.666275417      1.491      3.024
REMARK  13 active torsions:
REMARK  status: ('A' for Active; 'I' for Inactive)
REMARK    1  A    between atoms: N1_1  and  C1_5 
REMARK    2  A    between atoms: C1_5  and  C2_6 
REMARK    3  A    between atoms: C2_6  and  C3_7 
REMARK    4  A    between atoms: C2_6  and  N5_13 
REMARK    5  A    between atoms: C3_7  and  N2_8 
REMARK    6  A    between atoms: N5_13  and  C5_15 
REMARK    7  A    between atoms: C5_15  and  C6_16 
REMARK    8  A    between atoms: C6_16  and  O1_17 
REMARK    9  A    between atoms: O1_17  and  C7_18 
REMARK   10  A    between atoms: C8_22  and  C9_23 
REMARK   11  A    between atoms: C9_23  and  O2_24 
REMARK   12  A    between atoms: C10_26  and  N7_27 
REMARK   13  A    between atoms: C10_26  and  C11_31 
ROOT
HETATM    1  O1  UNL     1      83.209  24.222   1.284  1.00  0.00    -0.355 OA
ENDROOT
BRANCH   1   2
HETATM    2  C6  UNL     1      84.561  24.110   1.090  1.00  0.00     0.189 C 
BRANCH   2   3
HETATM    3  C5  UNL     1      85.044  22.980   0.243  1.00  0.00     0.140 C 
BRANCH   3   4
HETATM    4  N5  UNL     1      84.328  21.798   0.535  1.00  0.00    -0.412 N 
ATOM      5  H5  UNL     1      84.241  21.471   1.497  1.00  0.00     0.153 HD
BRANCH   4   6
HETATM    6  C2  UNL     1      83.734  21.074  -0.524  1.00  0.00     0.119 C 
BRANCH   6   7
HETATM    7  C1  UNL     1      82.254  21.108  -0.639  1.00  0.00     0.255 C 
BRANCH   7   8
HETATM    8  N1  UNL     1      81.628  22.346  -0.249  1.00  0.00    -0.077 N 
ATOM      9  H13 UNL     1      82.270  22.897   0.323  1.00  0.00     0.274 HD
ATOM     10  H12 UNL     1      81.535  22.960  -1.057  1.00  0.00     0.274 HD
ATOM     11  H11 UNL     1      80.730  22.254   0.225  1.00  0.00     0.274 HD
ENDBRANCH   7   8
ENDBRANCH   6   7
BRANCH   6  12
HETATM   12  C3  UNL     1      84.230  19.640  -0.641  1.00  0.00     0.148 C 
BRANCH  12  13
HETATM   13  N2  UNL     1      84.507  19.066   0.658  1.00  0.00    -0.365 N 
HETATM   14  C4  UNL     1      84.681  17.784   0.763  1.00  0.00     0.197 C 
HETATM   15  N3  UNL     1      84.600  16.953  -0.384  1.00  0.00    -0.067 NA
HETATM   16  N4  UNL     1      84.954  17.179   2.019  1.00  0.00    -0.067 NA
ATOM     17  H2  UNL     1      84.565  19.664   1.482  1.00  0.00     0.161 HD
ENDBRANCH  12  13
ENDBRANCH   6  12
ENDBRANCH   4   6
ENDBRANCH   3   4
ENDBRANCH   2   3
ENDBRANCH   1   2
BRANCH   1  18
HETATM   18  C7  UNL     1      82.764  24.327   2.568  1.00  0.00     0.369 C 
HETATM   19  N6  UNL     1      83.805  24.789   3.513  1.00  0.00    -0.036 N 
HETATM   20  C8  UNL     1      83.137  26.077   3.617  1.00  0.00     0.261 C 
ATOM     21  H62 UNL     1      84.006  24.248   4.353  1.00  0.00     0.281 HD
ATOM     22  H61 UNL     1      84.790  24.744   3.249  1.00  0.00     0.281 HD
HETATM   23  C10 UNL     1      81.952  25.521   2.977  1.00  0.00     0.281 C 
BRANCH  20  24
HETATM   24  C9  UNL     1      83.962  27.168   3.083  1.00  0.00     0.200 C 
BRANCH  24  25
HETATM   25  O2  UNL     1      85.132  27.483   3.693  1.00  0.00    -0.399 OA
ATOM     26  H2  UNL     1      85.932  27.044   3.430  1.00  0.00     0.209 HD
ENDBRANCH  24  25
ENDBRANCH  20  24
BRANCH  23  27
HETATM   27  N7  UNL     1      80.940  25.126   3.993  1.00  0.00    -0.055 N 
ATOM     28  H73 UNL     1      81.192  24.259   4.466  1.00  0.00     0.276 HD
ATOM     29  H72 UNL     1      80.950  25.746   4.803  1.00  0.00     0.276 HD
ATOM     30  H71 UNL     1      80.015  25.073   3.565  1.00  0.00     0.276 HD
ENDBRANCH  23  27
BRANCH  23  31
HETATM   31  C11 UNL     1      81.259  26.179   1.892  1.00  0.00     0.274 C 
HETATM   32  N8  UNL     1      81.912  26.634   0.722  1.00  0.00    -0.060 NA
HETATM   33  O3  UNL     1      80.027  26.372   1.955  1.00  0.00    -0.274 OA
ENDBRANCH  23  31
ENDBRANCH   1  18
TORSDOF 13
ENDMDL
MODEL 4
REMARK VINA RESULT: -7.449987718      1.424      2.019
REMARK  13 active torsions:
REMARK  status: ('A' for Active; 'I' for Inactive)
REMARK    1  A    between atoms: N1_1  and  C1_5 
REMARK    2  A    between atoms: C1_5  and  C2_6 
REMARK    3  A    between atoms: C2_6  and  C3_7 
REMARK    4  A    between atoms: C2_6  and  N5_13 
REMARK    5  A    between atoms: C3_7  and  N2_8 
REMARK    6  A    between atoms: N5_13  and  C5_15 
REMARK    7  A    between atoms: C5_15  and  C6_16 
REMARK    8  A    between atoms: C6_16  and  O1_17 
REMARK    9  A    between atoms: O1_17  and  C7_18 
REMARK   10  A    between atoms: C8_22  and  C9_23 
REMARK   11  A    between atoms: C9_23  and  O2_24 
REMARK   12  A    between atoms: C10_26  and  N7_27 
REMARK   13  A    between atoms: C10_26  and  C11_31 
ROOT
HETATM    1  O1  UNL     1      81.664  24.316   1.412  1.00  0.00    -0.355 OA
ENDROOT
BRANCH   1   2
HETATM    2  C6  UNL     1      82.224  23.612   0.378  1.00  0.00     0.189 C 
BRANCH   2   3
HETATM    3  C5  UNL     1      83.461  22.829   0.668  1.00  0.00     0.140 C 
BRANCH   3   4
HETATM    4  N5  UNL     1      83.210  21.444   0.559  1.00  0.00    -0.412 N 
ATOM      5  H5  UNL     1      82.797  20.930   1.337  1.00  0.00     0.153 HD
BRANCH   4   6
HETATM    6  C2  UNL     1      83.539  20.779  -0.645  1.00  0.00     0.119 C 
BRANCH   6   7
HETATM    7  C1  UNL     1      82.445  20.088  -1.374  1.00  0.00     0.255 C 
BRANCH   7   8
HETATM    8  N1  UNL     1      82.848  18.962  -2.180  1.00  0.00    -0.077 N 
ATOM      9  H13 UNL     1      83.844  19.027  -2.395  1.00  0.00     0.274 HD
ATOM     10  H12 UNL     1      82.840  18.111  -1.619  1.00  0.00     0.274 HD
ATOM     11  H11 UNL     1      82.314  18.821  -3.037  1.00  0.00     0.274 HD
ENDBRANCH   7   8
ENDBRANCH   6   7
BRANCH   6  12
HETATM   12  C3  UNL     1      84.745  19.857  -0.528  1.00  0.00     0.148 C 
BRANCH  12  13
HETATM   13  N2  UNL     1      84.752  19.150   0.734  1.00  0.00    -0.365 N 
HETATM   14  C4  UNL     1      84.735  17.852   0.735  1.00  0.00     0.197 C 
HETATM   15  N3  UNL     1      84.711  17.134  -0.488  1.00  0.00    -0.067 NA
HETATM   16  N4  UNL     1      84.740  17.117   1.951  1.00  0.00    -0.067 NA
ATOM     17  H2  UNL     1      84.769  19.666   1.613  1.00  0.00     0.161 HD
ENDBRANCH  12  13
ENDBRANCH   6  12
ENDBRANCH   4   6
ENDBRANCH   3   4
ENDBRANCH   2   3
ENDBRANCH   1   2
BRANCH   1  18
HETATM   18  C7  UNL     1      81.713  25.676   1.347  1.00  0.00     0.369 C 
HETATM   19  N6  UNL     1      80.419  26.325   1.655  1.00  0.00    -0.036 N 
HETATM   20  C8  UNL     1      80.953  26.784   2.928  1.00  0.00     0.261 C 
ATOM     21  H62 UNL     1      80.017  26.994   1.000  1.00  0.00     0.281 HD
ATOM     22  H61 UNL     1      79.557  25.781   1.629  1.00  0.00     0.281 HD
HETATM   23  C10 UNL     1      82.303  26.453   2.488  1.00  0.00     0.281 C 
BRANCH  20  24
HETATM   24  C9  UNL     1      80.255  26.174   4.067  1.00  0.00     0.200 C 
BRANCH  24  25
HETATM   25  O2  UNL     1      79.860  24.878   3.995  1.00  0.00    -0.399 OA
ATOM     26  H2  UNL     1      80.406  24.199   4.374  1.00  0.00     0.209 HD
ENDBRANCH  24  25
ENDBRANCH  20  24
BRANCH  23  27
HETATM   27  N7  UNL     1      83.000  27.663   1.975  1.00  0.00    -0.055 N 
ATOM     28  H73 UNL     1      83.936  27.448   1.632  1.00  0.00     0.276 HD
ATOM     29  H72 UNL     1      82.594  27.996   1.101  1.00  0.00     0.276 HD
ATOM     30  H71 UNL     1      83.013  28.390   2.691  1.00  0.00     0.276 HD
ENDBRANCH  23  27
BRANCH  23  31
HETATM   31  C11 UNL     1      83.239  25.712   3.301  1.00  0.00     0.274 C 
HETATM   32  N8  UNL     1      84.642  25.809   3.148  1.00  0.00    -0.060 NA
HETATM   33  O3  UNL     1      82.828  24.940   4.192  1.00  0.00    -0.274 OA
ENDBRANCH  23  31
ENDBRANCH   1  18
TORSDOF 13
ENDMDL
MODEL 5
REMARK VINA RESULT: -7.449397492      1.479      2.961
REMARK  13 active torsions:
REMARK  status: ('A' for Active; 'I' for Inactive)
REMARK    1  A    between atoms: N1_1  and  C1_5 
REMARK    2  A    between atoms: C1_5  and  C2_6 
REMARK    3  A    between atoms: C2_6  and  C3_7 
REMARK    4  A    between atoms: C2_6  and  N5_13 
REMARK    5  A    between atoms: C3_7  and  N2_8 
REMARK    6  A    between atoms: N5_13  and  C5_15 
REMARK    7  A    between atoms: C5_15  and  C6_16 
REMARK    8  A    between atoms: C6_16  and  O1_17 
REMARK    9  A    between atoms: O1_17  and  C7_18 
REMARK   10  A    between atoms: C8_22  and  C9_23 
REMARK   11  A    between atoms: C9_23  and  O2_24 
REMARK   12  A    between atoms: C10_26  and  N7_27 
REMARK   13  A    between atoms: C10_26  and  C11_31 
ROOT
HETATM    1  O1  UNL     1      83.533  25.129   2.265  1.00  0.00    -0.355 OA
ENDROOT
BRANCH   1   2
HETATM    2  C6  UNL     1      84.842  24.950   1.899  1.00  0.00     0.189 C 
BRANCH   2   3
HETATM    3  C5  UNL     1      85.122  23.984   0.796  1.00  0.00     0.140 C 
BRANCH   3   4
HETATM    4  N5  UNL     1      84.479  22.750   1.042  1.00  0.00    -0.412 N 
ATOM      5  H5  UNL     1      84.681  22.222   1.890  1.00  0.00     0.153 HD
BRANCH   4   6
HETATM    6  C2  UNL     1      83.553  22.257   0.094  1.00  0.00     0.119 C 
BRANCH   6   7
HETATM    7  C1  UNL     1      82.117  22.246   0.473  1.00  0.00     0.255 C 
BRANCH   7   8
HETATM    8  N1  UNL     1      81.792  22.927   1.702  1.00  0.00    -0.077 N 
ATOM      9  H13 UNL     1      81.219  22.325   2.293  1.00  0.00     0.274 HD
ATOM     10  H12 UNL     1      82.625  23.011   2.284  1.00  0.00     0.274 HD
ATOM     11  H11 UNL     1      81.347  23.838   1.595  1.00  0.00     0.274 HD
ENDBRANCH   7   8
ENDBRANCH   6   7
BRANCH   6  12
HETATM   12  C3  UNL     1      83.941  20.912  -0.502  1.00  0.00     0.148 C 
BRANCH  12  13
HETATM   13  N2  UNL     1      84.090  19.901   0.521  1.00  0.00    -0.365 N 
HETATM   14  C4  UNL     1      84.314  18.670   0.172  1.00  0.00     0.197 C 
HETATM   15  N3  UNL     1      84.413  18.321  -1.199  1.00  0.00    -0.067 NA
HETATM   16  N4  UNL     1      84.465  17.645   1.144  1.00  0.00    -0.067 NA
ATOM     17  H2  UNL     1      84.019  20.152   1.507  1.00  0.00     0.161 HD
ENDBRANCH  12  13
ENDBRANCH   6  12
ENDBRANCH   4   6
ENDBRANCH   3   4
ENDBRANCH   2   3
ENDBRANCH   1   2
BRANCH   1  18
HETATM   18  C7  UNL     1      83.292  25.737   3.461  1.00  0.00     0.369 C 
HETATM   19  N6  UNL     1      84.165  26.906   3.711  1.00  0.00    -0.036 N 
HETATM   20  C8  UNL     1      83.031  27.795   3.505  1.00  0.00     0.261 C 
ATOM     21  H62 UNL     1      84.708  26.962   4.572  1.00  0.00     0.281 HD
ATOM     22  H61 UNL     1      85.018  27.032   3.166  1.00  0.00     0.281 HD
HETATM   23  C10 UNL     1      82.119  26.662   3.602  1.00  0.00     0.281 C 
BRANCH  20  24
HETATM   24  C9  UNL     1      83.209  28.647   2.324  1.00  0.00     0.200 C 
BRANCH  24  25
HETATM   25  O2  UNL     1      83.938  29.787   2.424  1.00  0.00    -0.399 OA
ATOM     26  H2  UNL     1      83.914  30.424   1.719  1.00  0.00     0.209 HD
ENDBRANCH  24  25
ENDBRANCH  20  24
BRANCH  23  27
HETATM   27  N7  UNL     1      81.549  26.559   4.971  1.00  0.00    -0.055 N 
ATOM     28  H73 UNL     1      80.532  26.635   4.969  1.00  0.00     0.276 HD
ATOM     29  H72 UNL     1      81.627  25.615   5.348  1.00  0.00     0.276 HD
ATOM     30  H71 UNL     1      81.982  27.251   5.584  1.00  0.00     0.276 HD
ENDBRANCH  23  27
BRANCH  23  31
HETATM   31  C11 UNL     1      81.051  26.427   2.657  1.00  0.00     0.274 C 
HETATM   32  N8  UNL     1      81.274  26.205   1.277  1.00  0.00    -0.060 NA
HETATM   33  O3  UNL     1      79.862  26.412   3.039  1.00  0.00    -0.274 OA
ENDBRANCH  23  31
ENDBRANCH   1  18
TORSDOF 13
ENDMDL
