MODEL 1
REMARK VINA RESULT: -7.743723842      0.000      0.000
REMARK  11 active torsions:
REMARK  status: ('A' for Active; 'I' for Inactive)
REMARK    1  A    between atoms: O1_2  and  C2_3 
REMARK    2  A    between atoms: C2_3  and  C3_4 
REMARK    3  A    between atoms: C2_3  and  C9_26 
REMARK    4  A    between atoms: C3_4  and  N3_10 
REMARK    5  A    between atoms: N1_5  and  N2_7 
REMARK    6  A    between atoms: N3_10  and  C4_12 
REMARK    7  A    between atoms: C4_12  and  C5_13 
REMARK    8  A    between atoms: C5_13  and  N4_14 
REMARK    9  A    between atoms: C7_16  and  N5_17 
REMARK   10  A    between atoms: C9_26  and  N8_27 
REMARK   11  A    between atoms: C9_26  and  C10_31 
ROOT
HETATM    1  C3  UNL     1      11.856  43.864  -3.245  1.00  0.00     0.123 C 
HETATM    2  N1  UNL     1      11.731  42.611  -3.200  1.00  0.00    -0.294 N 
ATOM      3  H1  UNL     1      10.760  42.306  -3.154  1.00  0.00     0.187 HD
ENDROOT
BRANCH   1   4
HETATM    4  C2  UNL     1      10.713  44.813  -3.234  1.00  0.00     0.226 C 
BRANCH   4   5
HETATM    5  O1  UNL     1       9.550  44.296  -3.790  1.00  0.00    -0.381 OA
HETATM    6  C1  UNL     1       8.443  45.092  -3.643  1.00  0.00     0.202 C 
ENDBRANCH   4   5
BRANCH   4   7
HETATM    7  C9  UNL     1      10.381  45.361  -1.888  1.00  0.00     0.280 C 
BRANCH   7   8
HETATM    8  N8  UNL     1      10.706  44.385  -0.861  1.00  0.00    -0.066 N 
ATOM      9  H83 UNL     1      10.513  44.738   0.076  1.00  0.00     0.275 HD
ATOM     10  H82 UNL     1      10.057  43.598  -0.862  1.00  0.00     0.275 HD
ATOM     11  H81 UNL     1      11.675  44.082  -0.964  1.00  0.00     0.275 HD
ENDBRANCH   7   8
BRANCH   7  12
HETATM   12  C10 UNL     1      11.001  46.635  -1.545  1.00  0.00     0.267 C 
HETATM   13  O3  UNL     1      10.521  47.732  -1.799  1.00  0.00    -0.305 OA
ENDBRANCH   7  12
ENDBRANCH   4   7
ENDBRANCH   1   4
BRANCH   1  14
HETATM   14  N3  UNL     1      13.160  44.426  -3.313  1.00  0.00    -0.375 N 
ATOM     15  H3  UNL     1      13.474  44.761  -4.224  1.00  0.00     0.160 HD
BRANCH  14  16
HETATM   16  C4  UNL     1      14.076  44.564  -2.218  1.00  0.00     0.143 C 
BRANCH  16  17
HETATM   17  C5  UNL     1      15.304  43.695  -2.405  1.00  0.00     0.168 C 
BRANCH  17  18
HETATM   18  N4  UNL     1      16.523  44.401  -2.217  1.00  0.00    -0.294 N 
HETATM   19  C6  UNL     1      17.378  44.670  -3.218  1.00  0.00     0.158 A 
HETATM   20  C7  UNL     1      18.543  45.358  -2.964  1.00  0.00     0.120 A 
HETATM   21  N6  UNL     1      18.815  45.759  -1.711  1.00  0.00    -0.293 N 
HETATM   22  C8  UNL     1      17.946  45.482  -0.713  1.00  0.00     0.340 A 
ATOM     23  H6  UNL     1      19.675  46.271  -1.512  1.00  0.00     0.172 HD
HETATM   24  O2  UNL     1      18.261  45.885   0.446  1.00  0.00    -0.245 OA
HETATM   25  N7  UNL     1      16.812  44.809  -0.967  1.00  0.00    -0.249 N 
ATOM     26  H7  UNL     1      16.164  44.606  -0.206  1.00  0.00     0.192 HD
BRANCH  20  27
HETATM   27  N5  UNL     1      19.367  45.616  -3.933  1.00  0.00    -0.384 N 
ATOM     28  H52 UNL     1      19.568  44.912  -4.643  1.00  0.00     0.157 HD
ATOM     29  H51 UNL     1      19.819  46.529  -3.988  1.00  0.00     0.157 HD
ENDBRANCH  20  27
ENDBRANCH  17  18
ENDBRANCH  16  17
ENDBRANCH  14  16
ENDBRANCH   1  14
BRANCH   2  30
HETATM   30  N2  UNL     1      12.612  41.587  -3.200  1.00  0.00    -0.344 N 
ATOM     31  H22 UNL     1      12.774  41.225  -2.260  1.00  0.00     0.176 HD
ATOM     32  H21 UNL     1      13.136  41.111  -3.933  1.00  0.00     0.176 HD
ENDBRANCH   2  30
TORSDOF 11
ENDMDL
MODEL 2
REMARK VINA RESULT: -7.729083408      2.301      7.178
REMARK  11 active torsions:
REMARK  status: ('A' for Active; 'I' for Inactive)
REMARK    1  A    between atoms: O1_2  and  C2_3 
REMARK    2  A    between atoms: C2_3  and  C3_4 
REMARK    3  A    between atoms: C2_3  and  C9_26 
REMARK    4  A    between atoms: C3_4  and  N3_10 
REMARK    5  A    between atoms: N1_5  and  N2_7 
REMARK    6  A    between atoms: N3_10  and  C4_12 
REMARK    7  A    between atoms: C4_12  and  C5_13 
REMARK    8  A    between atoms: C5_13  and  N4_14 
REMARK    9  A    between atoms: C7_16  and  N5_17 
REMARK   10  A    between atoms: C9_26  and  N8_27 
REMARK   11  A    between atoms: C9_26  and  C10_31 
ROOT
HETATM    1  C3  UNL     1      15.362  43.820  -2.510  1.00  0.00     0.123 C 
HETATM    2  N1  UNL     1      15.168  42.577  -2.442  1.00  0.00    -0.294 N 
ATOM      3  H1  UNL     1      15.990  42.059  -2.132  1.00  0.00     0.187 HD
ENDROOT
BRANCH   1   4
HETATM    4  C2  UNL     1      16.649  44.480  -2.175  1.00  0.00     0.226 C 
BRANCH   4   5
HETATM    5  O1  UNL     1      17.105  44.200  -0.892  1.00  0.00    -0.381 OA
HETATM    6  C1  UNL     1      16.974  45.233  -0.001  1.00  0.00     0.202 C 
ENDBRANCH   4   5
BRANCH   4   7
HETATM    7  C9  UNL     1      17.755  44.195  -3.133  1.00  0.00     0.280 C 
BRANCH   7   8
HETATM    8  N8  UNL     1      17.208  43.779  -4.413  1.00  0.00    -0.066 N 
ATOM      9  H83 UNL     1      16.515  44.440  -4.765  1.00  0.00     0.275 HD
ATOM     10  H82 UNL     1      17.890  43.862  -5.166  1.00  0.00     0.275 HD
ATOM     11  H81 UNL     1      16.832  42.833  -4.340  1.00  0.00     0.275 HD
ENDBRANCH   7   8
BRANCH   7  12
HETATM   12  C10 UNL     1      18.705  45.278  -3.353  1.00  0.00     0.267 C 
HETATM   13  O3  UNL     1      18.769  45.949  -4.376  1.00  0.00    -0.305 OA
ENDBRANCH   7  12
ENDBRANCH   4   7
ENDBRANCH   1   4
BRANCH   1  14
HETATM   14  N3  UNL     1      14.295  44.662  -2.928  1.00  0.00    -0.375 N 
ATOM     15  H3  UNL     1      14.059  44.653  -3.921  1.00  0.00     0.160 HD
BRANCH  14  16
HETATM   16  C4  UNL     1      13.520  45.523  -2.083  1.00  0.00     0.143 C 
BRANCH  16  17
HETATM   17  C5  UNL     1      12.272  44.829  -1.573  1.00  0.00     0.168 C 
BRANCH  17  18
HETATM   18  N4  UNL     1      11.292  44.628  -2.582  1.00  0.00    -0.294 N 
HETATM   19  C6  UNL     1      10.162  45.350  -2.663  1.00  0.00     0.158 A 
HETATM   20  C7  UNL     1       9.254  45.100  -3.667  1.00  0.00     0.120 A 
HETATM   21  N6  UNL     1       9.509  44.131  -4.564  1.00  0.00    -0.293 N 
HETATM   22  C8  UNL     1      10.650  43.412  -4.470  1.00  0.00     0.340 A 
ATOM     23  H6  UNL     1       8.843  43.938  -5.313  1.00  0.00     0.172 HD
HETATM   24  O2  UNL     1      10.830  42.513  -5.343  1.00  0.00    -0.245 OA
HETATM   25  N7  UNL     1      11.531  43.661  -3.488  1.00  0.00    -0.249 N 
ATOM     26  H7  UNL     1      12.388  43.111  -3.428  1.00  0.00     0.192 HD
BRANCH  20  27
HETATM   27  N5  UNL     1       8.163  45.799  -3.743  1.00  0.00    -0.384 N 
ATOM     28  H52 UNL     1       7.938  46.487  -3.024  1.00  0.00     0.157 HD
ATOM     29  H51 UNL     1       7.524  45.661  -4.526  1.00  0.00     0.157 HD
ENDBRANCH  20  27
ENDBRANCH  17  18
ENDBRANCH  16  17
ENDBRANCH  14  16
ENDBRANCH   1  14
BRANCH   2  30
HETATM   30  N2  UNL     1      14.104  41.784  -2.693  1.00  0.00    -0.344 N 
ATOM     31  H22 UNL     1      13.411  41.830  -1.945  1.00  0.00     0.176 HD
ATOM     32  H21 UNL     1      13.856  41.162  -3.462  1.00  0.00     0.176 HD
ENDBRANCH   2  30
TORSDOF 11
ENDMDL
MODEL 3
REMARK VINA RESULT: -7.670013424      2.110      7.228
REMARK  11 active torsions:
REMARK  status: ('A' for Active; 'I' for Inactive)
REMARK    1  A    between atoms: O1_2  and  C2_3 
REMARK    2  A    between atoms: C2_3  and  C3_4 
REMARK    3  A    between atoms: C2_3  and  C9_26 
REMARK    4  A    between atoms: C3_4  and  N3_10 
REMARK    5  A    between atoms: N1_5  and  N2_7 
REMARK    6  A    between atoms: N3_10  and  C4_12 
REMARK    7  A    between atoms: C4_12  and  C5_13 
REMARK    8  A    between atoms: C5_13  and  N4_14 
REMARK    9  A    between atoms: C7_16  and  N5_17 
REMARK   10  A    between atoms: C9_26  and  N8_27 
REMARK   11  A    between atoms: C9_26  and  C10_31 
ROOT
HETATM    1  C3  UNL     1      15.286  43.696  -2.534  1.00  0.00     0.123 C 
HETATM    2  N1  UNL     1      15.153  42.448  -2.418  1.00  0.00    -0.294 N 
ATOM      3  H1  UNL     1      15.996  41.984  -2.082  1.00  0.00     0.187 HD
ENDROOT
BRANCH   1   4
HETATM    4  C2  UNL     1      16.537  44.431  -2.218  1.00  0.00     0.226 C 
BRANCH   4   5
HETATM    5  O1  UNL     1      16.991  44.232  -0.919  1.00  0.00    -0.381 OA
HETATM    6  C1  UNL     1      16.770  45.285  -0.069  1.00  0.00     0.202 C 
ENDBRANCH   4   5
BRANCH   4   7
HETATM    7  C9  UNL     1      17.667  44.154  -3.151  1.00  0.00     0.280 C 
BRANCH   7   8
HETATM    8  N8  UNL     1      17.151  43.742  -4.445  1.00  0.00    -0.066 N 
ATOM      9  H83 UNL     1      17.483  44.345  -5.198  1.00  0.00     0.275 HD
ATOM     10  H82 UNL     1      17.567  42.866  -4.762  1.00  0.00     0.275 HD
ATOM     11  H81 UNL     1      16.132  43.694  -4.415  1.00  0.00     0.275 HD
ENDBRANCH   7   8
BRANCH   7  12
HETATM   12  C10 UNL     1      18.618  45.242  -3.344  1.00  0.00     0.267 C 
HETATM   13  O3  UNL     1      18.765  45.859  -4.391  1.00  0.00    -0.305 OA
ENDBRANCH   7  12
ENDBRANCH   4   7
ENDBRANCH   1   4
BRANCH   1  14
HETATM   14  N3  UNL     1      14.183  44.467  -2.993  1.00  0.00    -0.375 N 
ATOM     15  H3  UNL     1      13.634  44.080  -3.761  1.00  0.00     0.160 HD
BRANCH  14  16
HETATM   16  C4  UNL     1      13.772  45.740  -2.476  1.00  0.00     0.143 C 
BRANCH  16  17
HETATM   17  C5  UNL     1      12.605  46.310  -3.257  1.00  0.00     0.168 C 
BRANCH  17  18
HETATM   18  N4  UNL     1      11.343  45.856  -2.789  1.00  0.00    -0.294 N 
HETATM   19  C6  UNL     1      11.143  45.400  -1.541  1.00  0.00     0.158 A 
HETATM   20  C7  UNL     1       9.893  44.973  -1.154  1.00  0.00     0.120 A 
HETATM   21  N6  UNL     1       8.877  45.018  -2.033  1.00  0.00    -0.293 N 
HETATM   22  C8  UNL     1       9.092  45.479  -3.286  1.00  0.00     0.340 A 
ATOM     23  H6  UNL     1       7.946  44.706  -1.757  1.00  0.00     0.172 HD
HETATM   24  O2  UNL     1       8.095  45.495  -4.067  1.00  0.00    -0.245 OA
HETATM   25  N7  UNL     1      10.314  45.893  -3.657  1.00  0.00    -0.249 N 
ATOM     26  H7  UNL     1      10.464  46.239  -4.605  1.00  0.00     0.192 HD
BRANCH  20  27
HETATM   27  N5  UNL     1       9.703  44.533   0.052  1.00  0.00    -0.384 N 
ATOM     28  H52 UNL     1      10.430  44.632   0.760  1.00  0.00     0.157 HD
ATOM     29  H51 UNL     1       8.820  44.084   0.297  1.00  0.00     0.157 HD
ENDBRANCH  20  27
ENDBRANCH  17  18
ENDBRANCH  16  17
ENDBRANCH  14  16
ENDBRANCH   1  14
BRANCH   2  30
HETATM   30  N2  UNL     1      14.130  41.595  -2.643  1.00  0.00    -0.344 N 
ATOM     31  H22 UNL     1      13.918  41.511  -3.637  1.00  0.00     0.176 HD
ATOM     32  H21 UNL     1      13.539  41.030  -2.034  1.00  0.00     0.176 HD
ENDBRANCH   2  30
TORSDOF 11
ENDMDL
MODEL 4
REMARK VINA RESULT: -7.652658674      0.881      1.082
REMARK  11 active torsions:
REMARK  status: ('A' for Active; 'I' for Inactive)
REMARK    1  A    between atoms: O1_2  and  C2_3 
REMARK    2  A    between atoms: C2_3  and  C3_4 
REMARK    3  A    between atoms: C2_3  and  C9_26 
REMARK    4  A    between atoms: C3_4  and  N3_10 
REMARK    5  A    between atoms: N1_5  and  N2_7 
REMARK    6  A    between atoms: N3_10  and  C4_12 
REMARK    7  A    between atoms: C4_12  and  C5_13 
REMARK    8  A    between atoms: C5_13  and  N4_14 
REMARK    9  A    between atoms: C7_16  and  N5_17 
REMARK   10  A    between atoms: C9_26  and  N8_27 
REMARK   11  A    between atoms: C9_26  and  C10_31 
ROOT
HETATM    1  C3  UNL     1      11.948  43.716  -3.005  1.00  0.00     0.123 C 
HETATM    2  N1  UNL     1      11.594  42.596  -3.460  1.00  0.00    -0.294 N 
ATOM      3  H1  UNL     1      10.685  42.618  -3.919  1.00  0.00     0.187 HD
ENDROOT
BRANCH   1   4
HETATM    4  C2  UNL     1      11.135  44.953  -3.119  1.00  0.00     0.226 C 
BRANCH   4   5
HETATM    5  O1  UNL     1       9.836  44.816  -2.643  1.00  0.00    -0.381 OA
HETATM    6  C1  UNL     1       8.870  44.794  -3.615  1.00  0.00     0.202 C 
ENDBRANCH   4   5
BRANCH   4   7
HETATM    7  C9  UNL     1      11.742  46.152  -2.472  1.00  0.00     0.280 C 
BRANCH   7   8
HETATM    8  N8  UNL     1      12.274  47.046  -3.485  1.00  0.00    -0.066 N 
ATOM      9  H83 UNL     1      12.599  46.540  -4.309  1.00  0.00     0.275 HD
ATOM     10  H82 UNL     1      11.541  47.600  -3.930  1.00  0.00     0.275 HD
ATOM     11  H81 UNL     1      13.006  47.632  -3.083  1.00  0.00     0.275 HD
ENDBRANCH   7   8
BRANCH   7  12
HETATM   12  C10 UNL     1      10.870  46.908  -1.582  1.00  0.00     0.267 C 
HETATM   13  O3  UNL     1      10.478  48.048  -1.797  1.00  0.00    -0.305 OA
ENDBRANCH   7  12
ENDBRANCH   4   7
ENDBRANCH   1   4
BRANCH   1  14
HETATM   14  N3  UNL     1      13.200  43.826  -2.339  1.00  0.00    -0.375 N 
ATOM     15  H3  UNL     1      13.219  43.592  -1.346  1.00  0.00     0.160 HD
BRANCH  14  16
HETATM   16  C4  UNL     1      14.438  44.236  -2.935  1.00  0.00     0.143 C 
BRANCH  16  17
HETATM   17  C5  UNL     1      15.616  43.485  -2.347  1.00  0.00     0.168 C 
BRANCH  17  18
HETATM   18  N4  UNL     1      16.767  44.300  -2.169  1.00  0.00    -0.294 N 
HETATM   19  C6  UNL     1      17.605  44.616  -3.171  1.00  0.00     0.158 A 
HETATM   20  C7  UNL     1      18.703  45.410  -2.927  1.00  0.00     0.120 A 
HETATM   21  N6  UNL     1      18.926  45.867  -1.683  1.00  0.00    -0.293 N 
HETATM   22  C8  UNL     1      18.074  45.542  -0.685  1.00  0.00     0.340 A 
ATOM     23  H6  UNL     1      19.736  46.458  -1.492  1.00  0.00     0.172 HD
HETATM   24  O2  UNL     1      18.340  46.002   0.464  1.00  0.00    -0.245 OA
HETATM   25  N7  UNL     1      17.006  44.766  -0.929  1.00  0.00    -0.249 N 
ATOM     26  H7  UNL     1      16.371  44.527  -0.168  1.00  0.00     0.192 HD
BRANCH  20  27
HETATM   27  N5  UNL     1      19.511  45.713  -3.897  1.00  0.00    -0.384 N 
ATOM     28  H52 UNL     1      19.360  45.339  -4.833  1.00  0.00     0.157 HD
ATOM     29  H51 UNL     1      20.306  46.328  -3.723  1.00  0.00     0.157 HD
ENDBRANCH  20  27
ENDBRANCH  17  18
ENDBRANCH  16  17
ENDBRANCH  14  16
ENDBRANCH   1  14
BRANCH   2  30
HETATM   30  N2  UNL     1      12.164  41.371  -3.468  1.00  0.00    -0.344 N 
ATOM     31  H22 UNL     1      11.528  40.653  -3.121  1.00  0.00     0.176 HD
ATOM     32  H21 UNL     1      13.082  41.025  -3.745  1.00  0.00     0.176 HD
ENDBRANCH   2  30
TORSDOF 11
ENDMDL
MODEL 5
REMARK VINA RESULT: -7.582499202      2.221      7.022
REMARK  11 active torsions:
REMARK  status: ('A' for Active; 'I' for Inactive)
REMARK    1  A    between atoms: O1_2  and  C2_3 
REMARK    2  A    between atoms: C2_3  and  C3_4 
REMARK    3  A    between atoms: C2_3  and  C9_26 
REMARK    4  A    between atoms: C3_4  and  N3_10 
REMARK    5  A    between atoms: N1_5  and  N2_7 
REMARK    6  A    between atoms: N3_10  and  C4_12 
REMARK    7  A    between atoms: C4_12  and  C5_13 
REMARK    8  A    between atoms: C5_13  and  N4_14 
REMARK    9  A    between atoms: C7_16  and  N5_17 
REMARK   10  A    between atoms: C9_26  and  N8_27 
REMARK   11  A    between atoms: C9_26  and  C10_31 
ROOT
HETATM    1  C3  UNL     1      15.342  43.715  -2.479  1.00  0.00     0.123 C 
HETATM    2  N1  UNL     1      15.194  42.468  -2.370  1.00  0.00    -0.294 N 
ATOM      3  H1  UNL     1      16.037  41.991  -2.052  1.00  0.00     0.187 HD
ENDROOT
BRANCH   1   4
HETATM    4  C2  UNL     1      16.608  44.431  -2.179  1.00  0.00     0.226 C 
BRANCH   4   5
HETATM    5  O1  UNL     1      17.082  44.215  -0.890  1.00  0.00    -0.381 OA
HETATM    6  C1  UNL     1      16.873  45.255  -0.022  1.00  0.00     0.202 C 
ENDBRANCH   4   5
BRANCH   4   7
HETATM    7  C9  UNL     1      17.717  44.149  -3.135  1.00  0.00     0.280 C 
BRANCH   7   8
HETATM    8  N8  UNL     1      17.173  43.754  -4.423  1.00  0.00    -0.066 N 
ATOM      9  H83 UNL     1      17.007  42.749  -4.476  1.00  0.00     0.275 HD
ATOM     10  H82 UNL     1      16.211  44.071  -4.546  1.00  0.00     0.275 HD
ATOM     11  H81 UNL     1      17.782  44.081  -5.173  1.00  0.00     0.275 HD
ENDBRANCH   7   8
BRANCH   7  12
HETATM   12  C10 UNL     1      18.677  45.227  -3.336  1.00  0.00     0.267 C 
HETATM   13  O3  UNL     1      18.811  45.853  -4.380  1.00  0.00    -0.305 OA
ENDBRANCH   7  12
ENDBRANCH   4   7
ENDBRANCH   1   4
BRANCH   1  14
HETATM   14  N3  UNL     1      14.242  44.504  -2.914  1.00  0.00    -0.375 N 
ATOM     15  H3  UNL     1      13.669  44.126  -3.668  1.00  0.00     0.160 HD
BRANCH  14  16
HETATM   16  C4  UNL     1      13.864  45.785  -2.389  1.00  0.00     0.143 C 
BRANCH  16  17
HETATM   17  C5  UNL     1      12.715  46.391  -3.170  1.00  0.00     0.168 C 
BRANCH  17  18
HETATM   18  N4  UNL     1      11.443  45.915  -2.755  1.00  0.00    -0.294 N 
HETATM   19  C6  UNL     1      10.387  45.824  -3.581  1.00  0.00     0.158 A 
HETATM   20  C7  UNL     1       9.182  45.354  -3.111  1.00  0.00     0.120 A 
HETATM   21  N6  UNL     1       9.071  44.987  -1.822  1.00  0.00    -0.293 N 
HETATM   22  C8  UNL     1      10.142  45.085  -1.002  1.00  0.00     0.340 A 
ATOM     23  H6  UNL     1       8.183  44.636  -1.464  1.00  0.00     0.172 HD
HETATM   24  O2  UNL     1       9.973  44.725   0.200  1.00  0.00    -0.245 OA
HETATM   25  N7  UNL     1      11.314  45.544  -1.467  1.00  0.00    -0.249 N 
ATOM     26  H7  UNL     1      12.115  45.613  -0.838  1.00  0.00     0.192 HD
BRANCH  20  27
HETATM   27  N5  UNL     1       8.164  45.266  -3.911  1.00  0.00    -0.384 N 
ATOM     28  H52 UNL     1       7.944  46.027  -4.555  1.00  0.00     0.157 HD
ATOM     29  H51 UNL     1       7.576  44.432  -3.898  1.00  0.00     0.157 HD
ENDBRANCH  20  27
ENDBRANCH  17  18
ENDBRANCH  16  17
ENDBRANCH  14  16
ENDBRANCH   1  14
BRANCH   2  30
HETATM   30  N2  UNL     1      14.156  41.631  -2.584  1.00  0.00    -0.344 N 
ATOM     31  H22 UNL     1      13.779  41.262  -1.710  1.00  0.00     0.176 HD
ATOM     32  H21 UNL     1      13.683  41.298  -3.423  1.00  0.00     0.176 HD
ENDBRANCH   2  30
TORSDOF 11
ENDMDL
