MODEL 1
REMARK VINA RESULT: -4.746151855      0.000      0.000
REMARK  12 active torsions:
REMARK  status: ('A' for Active; 'I' for Inactive)
REMARK    1  A    between atoms: N2_3  and  C2_5 
REMARK    2  A    between atoms: C3_6  and  C4_7 
REMARK    3  A    between atoms: C4_7  and  N3_8 
REMARK    4  A    between atoms: N3_8  and  C5_10 
REMARK    5  A    between atoms: C6_12  and  N4_13 
REMARK    6  A    between atoms: C8_18  and  O2_19 
REMARK    7  A    between atoms: O2_19  and  C9_20 
REMARK    8  A    between atoms: C9_20  and  N7_21 
REMARK    9  A    between atoms: C9_20  and  N8_25 
REMARK   10  A    between atoms: N8_25  and  C10_28 
REMARK   11  A    between atoms: C10_28  and  C11_29 
REMARK   12  A    between atoms: C11_29  and  O3_30 
ROOT
HETATM    1  C2  UNL     1      45.844 -60.753  34.403  1.00  0.00     0.120 C 
HETATM    2  C3  UNL     1      46.077 -62.204  34.035  1.00  0.00     0.054 C 
HETATM    3  C6  UNL     1      45.254 -62.548  35.278  1.00  0.00     0.122 C 
HETATM    4  C8  UNL     1      45.817 -61.250  35.855  1.00  0.00     0.172 C 
ENDROOT
BRANCH   4   5
HETATM    5  O2  UNL     1      44.989 -60.563  36.691  1.00  0.00    -0.329 OA
BRANCH   5   6
HETATM    6  C9  UNL     1      45.748 -59.917  37.657  1.00  0.00     0.522 C 
BRANCH   6   7
HETATM    7  N7  UNL     1      47.107 -60.418  37.652  1.00  0.00    -0.027 N 
ATOM      8  H73 UNL     1      47.306 -60.982  38.478  1.00  0.00     0.279 HD
ATOM      9  H72 UNL     1      47.245 -61.135  36.940  1.00  0.00     0.279 HD
ATOM     10  H71 UNL     1      47.771 -59.649  37.550  1.00  0.00     0.279 HD
ENDBRANCH   6   7
BRANCH   6  11
HETATM   11  N8  UNL     1      45.710 -58.477  37.520  1.00  0.00    -0.021 N 
ATOM     12  H82 UNL     1      46.420 -58.027  38.098  1.00  0.00     0.282 HD
ATOM     13  H81 UNL     1      46.042 -58.179  36.604  1.00  0.00     0.282 HD
BRANCH  11  14
HETATM   14  C10 UNL     1      44.380 -57.956  37.804  1.00  0.00     0.263 C 
BRANCH  14  15
HETATM   15  C11 UNL     1      43.971 -58.461  39.184  1.00  0.00     0.192 C 
BRANCH  15  16
HETATM   16  O3  UNL     1      42.639 -58.880  39.061  1.00  0.00    -0.399 OA
ATOM     17  H3  UNL     1      42.410 -59.269  39.897  1.00  0.00     0.209 HD
ENDBRANCH  15  16
ENDBRANCH  14  15
ENDBRANCH  11  14
ENDBRANCH   6  11
ENDBRANCH   5   6
ENDBRANCH   4   5
BRANCH   1  18
HETATM   18  N2  UNL     1      46.908 -59.850  34.104  1.00  0.00    -0.380 N 
HETATM   19  C1  UNL     1      46.615 -58.616  33.861  1.00  0.00     0.185 C 
HETATM   20  N1  UNL     1      47.634 -57.655  33.553  1.00  0.00    -0.097 NA
ATOM     21  H2  UNL     1      47.875 -60.171  34.082  1.00  0.00     0.160 HD
ENDBRANCH   1  18
BRANCH   3  22
HETATM   22  N4  UNL     1      43.830 -62.426  35.037  1.00  0.00    -0.359 N 
HETATM   23  C7  UNL     1      43.082 -63.454  35.242  1.00  0.00     0.197 C 
HETATM   24  N5  UNL     1      41.696 -63.312  35.001  1.00  0.00    -0.067 NA
HETATM   25  N6  UNL     1      43.573 -64.706  35.692  1.00  0.00    -0.067 NA
ATOM     26  H4  UNL     1      43.430 -61.546  34.712  1.00  0.00     0.162 HD
ENDBRANCH   3  22
BRANCH   2  27
HETATM   27  C4  UNL     1      45.451 -62.629  32.737  1.00  0.00     0.130 C 
BRANCH  27  28
HETATM   28  N3  UNL     1      44.950 -63.960  32.750  1.00  0.00    -0.368 N 
ATOM     29  H3  UNL     1      45.481 -64.703  33.204  1.00  0.00     0.161 HD
BRANCH  28  30
HETATM   30  C5  UNL     1      43.716 -64.246  32.133  1.00  0.00     0.348 C 
HETATM   31  O1  UNL     1      42.859 -63.361  31.897  1.00  0.00    -0.284 OA
ENDBRANCH  28  30
ENDBRANCH  27  28
ENDBRANCH   2  27
TORSDOF 12
ENDMDL
MODEL 2
REMARK VINA RESULT: -4.218311795      2.476      6.126
REMARK  12 active torsions:
REMARK  status: ('A' for Active; 'I' for Inactive)
REMARK    1  A    between atoms: N2_3  and  C2_5 
REMARK    2  A    between atoms: C3_6  and  C4_7 
REMARK    3  A    between atoms: C4_7  and  N3_8 
REMARK    4  A    between atoms: N3_8  and  C5_10 
REMARK    5  A    between atoms: C6_12  and  N4_13 
REMARK    6  A    between atoms: C8_18  and  O2_19 
REMARK    7  A    between atoms: O2_19  and  C9_20 
REMARK    8  A    between atoms: C9_20  and  N7_21 
REMARK    9  A    between atoms: C9_20  and  N8_25 
REMARK   10  A    between atoms: N8_25  and  C10_28 
REMARK   11  A    between atoms: C10_28  and  C11_29 
REMARK   12  A    between atoms: C11_29  and  O3_30 
ROOT
HETATM    1  C2  UNL     1      45.031 -63.360  33.656  1.00  0.00     0.120 C 
HETATM    2  C3  UNL     1      45.177 -61.853  33.606  1.00  0.00     0.054 C 
HETATM    3  C6  UNL     1      44.762 -61.864  35.079  1.00  0.00     0.122 C 
HETATM    4  C8  UNL     1      43.945 -63.101  34.709  1.00  0.00     0.172 C 
ENDROOT
BRANCH   4   5
HETATM    5  O2  UNL     1      43.834 -64.052  35.678  1.00  0.00    -0.329 OA
BRANCH   5   6
HETATM    6  C9  UNL     1      42.538 -64.547  35.687  1.00  0.00     0.522 C 
BRANCH   6   7
HETATM    7  N7  UNL     1      41.608 -63.544  35.207  1.00  0.00    -0.027 N 
ATOM      8  H73 UNL     1      40.724 -63.958  34.912  1.00  0.00     0.279 HD
ATOM      9  H72 UNL     1      41.257 -62.959  35.966  1.00  0.00     0.279 HD
ATOM     10  H71 UNL     1      42.033 -62.988  34.465  1.00  0.00     0.279 HD
ENDBRANCH   6   7
BRANCH   6  11
HETATM   11  N8  UNL     1      42.412 -65.785  34.949  1.00  0.00    -0.021 N 
ATOM     12  H82 UNL     1      42.995 -65.783  34.111  1.00  0.00     0.282 HD
ATOM     13  H81 UNL     1      42.852 -66.562  35.443  1.00  0.00     0.282 HD
BRANCH  11  14
HETATM   14  C10 UNL     1      41.020 -66.070  34.631  1.00  0.00     0.263 C 
BRANCH  14  15
HETATM   15  C11 UNL     1      40.929 -66.304  33.127  1.00  0.00     0.192 C 
BRANCH  15  16
HETATM   16  O3  UNL     1      42.110 -66.970  32.769  1.00  0.00    -0.399 OA
ATOM     17  H3  UNL     1      42.605 -66.355  32.241  1.00  0.00     0.209 HD
ENDBRANCH  15  16
ENDBRANCH  14  15
ENDBRANCH  11  14
ENDBRANCH   6  11
ENDBRANCH   5   6
ENDBRANCH   4   5
BRANCH   1  18
HETATM   18  N2  UNL     1      44.565 -63.988  32.462  1.00  0.00    -0.380 N 
HETATM   19  C1  UNL     1      43.345 -63.780  32.096  1.00  0.00     0.185 C 
HETATM   20  N1  UNL     1      42.811 -64.380  30.907  1.00  0.00    -0.097 NA
ATOM     21  H2  UNL     1      45.181 -64.586  31.912  1.00  0.00     0.160 HD
ENDBRANCH   1  18
BRANCH   3  22
HETATM   22  N4  UNL     1      45.864 -62.220  35.950  1.00  0.00    -0.359 N 
HETATM   23  C7  UNL     1      46.318 -61.328  36.761  1.00  0.00     0.197 C 
HETATM   24  N5  UNL     1      47.393 -61.697  37.602  1.00  0.00    -0.067 NA
HETATM   25  N6  UNL     1      45.801 -60.010  36.851  1.00  0.00    -0.067 NA
ATOM     26  H4  UNL     1      46.270 -63.155  35.922  1.00  0.00     0.162 HD
ENDBRANCH   3  22
BRANCH   2  27
HETATM   27  C4  UNL     1      46.577 -61.367  33.357  1.00  0.00     0.130 C 
BRANCH  27  28
HETATM   28  N3  UNL     1      46.906 -60.179  34.067  1.00  0.00    -0.368 N 
ATOM     29  H3  UNL     1      47.270 -60.235  35.018  1.00  0.00     0.161 HD
BRANCH  28  30
HETATM   30  C5  UNL     1      46.726 -58.927  33.448  1.00  0.00     0.348 C 
HETATM   31  O1  UNL     1      46.168 -57.963  34.026  1.00  0.00    -0.284 OA
ENDBRANCH  28  30
ENDBRANCH  27  28
ENDBRANCH   2  27
TORSDOF 12
ENDMDL
MODEL 3
REMARK VINA RESULT: -4.189868938      2.167      5.436
REMARK  12 active torsions:
REMARK  status: ('A' for Active; 'I' for Inactive)
REMARK    1  A    between atoms: N2_3  and  C2_5 
REMARK    2  A    between atoms: C3_6  and  C4_7 
REMARK    3  A    between atoms: C4_7  and  N3_8 
REMARK    4  A    between atoms: N3_8  and  C5_10 
REMARK    5  A    between atoms: C6_12  and  N4_13 
REMARK    6  A    between atoms: C8_18  and  O2_19 
REMARK    7  A    between atoms: O2_19  and  C9_20 
REMARK    8  A    between atoms: C9_20  and  N7_21 
REMARK    9  A    between atoms: C9_20  and  N8_25 
REMARK   10  A    between atoms: N8_25  and  C10_28 
REMARK   11  A    between atoms: C10_28  and  C11_29 
REMARK   12  A    between atoms: C11_29  and  O3_30 
ROOT
HETATM    1  C2  UNL     1      44.636 -61.531  35.447  1.00  0.00     0.120 C 
HETATM    2  C3  UNL     1      45.823 -62.202  34.787  1.00  0.00     0.054 C 
HETATM    3  C6  UNL     1      44.824 -63.241  34.274  1.00  0.00     0.122 C 
HETATM    4  C8  UNL     1      44.050 -62.945  35.558  1.00  0.00     0.172 C 
ENDROOT
BRANCH   4   5
HETATM    5  O2  UNL     1      42.693 -63.023  35.465  1.00  0.00    -0.329 OA
BRANCH   5   6
HETATM    6  C9  UNL     1      42.318 -64.355  35.354  1.00  0.00     0.522 C 
BRANCH   6   7
HETATM    7  N7  UNL     1      42.432 -65.023  36.635  1.00  0.00    -0.027 N 
ATOM      8  H73 UNL     1      42.890 -65.930  36.549  1.00  0.00     0.279 HD
ATOM      9  H72 UNL     1      43.113 -64.565  37.241  1.00  0.00     0.279 HD
ATOM     10  H71 UNL     1      41.518 -65.100  37.081  1.00  0.00     0.279 HD
ENDBRANCH   6   7
BRANCH   6  11
HETATM   11  N8  UNL     1      40.996 -64.513  34.787  1.00  0.00    -0.021 N 
ATOM     12  H82 UNL     1      40.276 -64.137  35.404  1.00  0.00     0.282 HD
ATOM     13  H81 UNL     1      40.855 -63.896  33.988  1.00  0.00     0.282 HD
BRANCH  11  14
HETATM   14  C10 UNL     1      40.734 -65.904  34.443  1.00  0.00     0.263 C 
BRANCH  14  15
HETATM   15  C11 UNL     1      40.456 -65.964  32.945  1.00  0.00     0.192 C 
BRANCH  15  16
HETATM   16  O3  UNL     1      40.255 -64.637  32.538  1.00  0.00    -0.399 OA
ATOM     17  H3  UNL     1      40.333 -64.640  31.591  1.00  0.00     0.209 HD
ENDBRANCH  15  16
ENDBRANCH  14  15
ENDBRANCH  11  14
ENDBRANCH   6  11
ENDBRANCH   5   6
ENDBRANCH   4   5
BRANCH   1  18
HETATM   18  N2  UNL     1      44.888 -60.892  36.698  1.00  0.00    -0.380 N 
HETATM   19  C1  UNL     1      45.227 -59.647  36.694  1.00  0.00     0.185 C 
HETATM   20  N1  UNL     1      45.495 -58.944  37.915  1.00  0.00    -0.097 NA
ATOM     21  H2  UNL     1      44.803 -61.408  37.574  1.00  0.00     0.160 HD
ENDBRANCH   1  18
BRANCH   3  22
HETATM   22  N4  UNL     1      44.095 -62.767  33.116  1.00  0.00    -0.359 N 
HETATM   23  C7  UNL     1      43.469 -63.628  32.390  1.00  0.00     0.197 C 
HETATM   24  N5  UNL     1      42.763 -63.144  31.265  1.00  0.00    -0.067 NA
HETATM   25  N6  UNL     1      43.453 -65.020  32.659  1.00  0.00    -0.067 NA
ATOM     26  H4  UNL     1      44.077 -61.775  32.881  1.00  0.00     0.162 HD
ENDBRANCH   3  22
BRANCH   2  27
HETATM   27  C4  UNL     1      46.483 -61.388  33.711  1.00  0.00     0.130 C 
BRANCH  27  28
HETATM   28  N3  UNL     1      47.069 -60.181  34.182  1.00  0.00    -0.368 N 
ATOM     29  H3  UNL     1      47.731 -60.201  34.957  1.00  0.00     0.161 HD
BRANCH  28  30
HETATM   30  C5  UNL     1      46.728 -58.957  33.572  1.00  0.00     0.348 C 
HETATM   31  O1  UNL     1      47.414 -57.917  33.719  1.00  0.00    -0.284 OA
ENDBRANCH  28  30
ENDBRANCH  27  28
ENDBRANCH   2  27
TORSDOF 12
ENDMDL
MODEL 4
REMARK VINA RESULT: -3.660506124      1.900      5.802
REMARK  12 active torsions:
REMARK  status: ('A' for Active; 'I' for Inactive)
REMARK    1  A    between atoms: N2_3  and  C2_5 
REMARK    2  A    between atoms: C3_6  and  C4_7 
REMARK    3  A    between atoms: C4_7  and  N3_8 
REMARK    4  A    between atoms: N3_8  and  C5_10 
REMARK    5  A    between atoms: C6_12  and  N4_13 
REMARK    6  A    between atoms: C8_18  and  O2_19 
REMARK    7  A    between atoms: O2_19  and  C9_20 
REMARK    8  A    between atoms: C9_20  and  N7_21 
REMARK    9  A    between atoms: C9_20  and  N8_25 
REMARK   10  A    between atoms: N8_25  and  C10_28 
REMARK   11  A    between atoms: C10_28  and  C11_29 
REMARK   12  A    between atoms: C11_29  and  O3_30 
ROOT
HETATM    1  C2  UNL     1      45.677 -62.296  33.996  1.00  0.00     0.120 C 
HETATM    2  C3  UNL     1      45.095 -61.738  35.279  1.00  0.00     0.054 C 
HETATM    3  C6  UNL     1      43.972 -62.762  35.097  1.00  0.00     0.122 C 
HETATM    4  C8  UNL     1      44.223 -62.582  33.600  1.00  0.00     0.172 C 
ENDROOT
BRANCH   4   5
HETATM    5  O2  UNL     1      44.036 -63.690  32.829  1.00  0.00    -0.329 OA
BRANCH   5   6
HETATM    6  C9  UNL     1      42.827 -63.581  32.157  1.00  0.00     0.522 C 
BRANCH   6   7
HETATM    7  N7  UNL     1      42.956 -64.068  30.798  1.00  0.00    -0.027 N 
ATOM      8  H73 UNL     1      42.048 -64.263  30.378  1.00  0.00     0.279 HD
ATOM      9  H72 UNL     1      43.265 -63.334  30.160  1.00  0.00     0.279 HD
ATOM     10  H71 UNL     1      43.571 -64.881  30.767  1.00  0.00     0.279 HD
ENDBRANCH   6   7
BRANCH   6  11
HETATM   11  N8  UNL     1      41.742 -64.235  32.856  1.00  0.00    -0.021 N 
ATOM     12  H82 UNL     1      42.060 -64.658  33.728  1.00  0.00     0.282 HD
ATOM     13  H81 UNL     1      41.083 -63.558  33.241  1.00  0.00     0.282 HD
BRANCH  11  14
HETATM   14  C10 UNL     1      41.075 -65.206  32.001  1.00  0.00     0.263 C 
BRANCH  14  15
HETATM   15  C11 UNL     1      40.955 -66.507  32.787  1.00  0.00     0.192 C 
BRANCH  15  16
HETATM   16  O3  UNL     1      42.198 -66.697  33.407  1.00  0.00    -0.399 OA
ATOM     17  H3  UNL     1      42.597 -67.439  32.968  1.00  0.00     0.209 HD
ENDBRANCH  15  16
ENDBRANCH  14  15
ENDBRANCH  11  14
ENDBRANCH   6  11
ENDBRANCH   5   6
ENDBRANCH   4   5
BRANCH   1  18
HETATM   18  N2  UNL     1      46.351 -61.362  33.152  1.00  0.00    -0.380 N 
HETATM   19  C1  UNL     1      46.351 -60.117  33.491  1.00  0.00     0.185 C 
HETATM   20  N1  UNL     1      47.008 -59.126  32.689  1.00  0.00    -0.097 NA
ATOM     21  H2  UNL     1      46.820 -61.672  32.301  1.00  0.00     0.160 HD
ENDBRANCH   1  18
BRANCH   3  22
HETATM   22  N4  UNL     1      44.372 -64.086  35.527  1.00  0.00    -0.359 N 
HETATM   23  C7  UNL     1      43.453 -64.939  35.825  1.00  0.00     0.197 C 
HETATM   24  N5  UNL     1      43.865 -66.225  36.241  1.00  0.00    -0.067 NA
HETATM   25  N6  UNL     1      42.065 -64.654  35.757  1.00  0.00    -0.067 NA
ATOM     26  H4  UNL     1      45.358 -64.338  35.593  1.00  0.00     0.162 HD
ENDBRANCH   3  22
BRANCH   2  27
HETATM   27  C4  UNL     1      45.944 -61.955  36.498  1.00  0.00     0.130 C 
BRANCH  27  28
HETATM   28  N3  UNL     1      46.499 -60.759  37.032  1.00  0.00    -0.368 N 
ATOM     29  H3  UNL     1      47.459 -60.748  37.376  1.00  0.00     0.161 HD
BRANCH  28  30
HETATM   30  C5  UNL     1      45.715 -59.589  37.081  1.00  0.00     0.348 C 
HETATM   31  O1  UNL     1      45.448 -59.002  38.157  1.00  0.00    -0.284 OA
ENDBRANCH  28  30
ENDBRANCH  27  28
ENDBRANCH   2  27
TORSDOF 12
ENDMDL
MODEL 5
REMARK VINA RESULT: -3.249062995      1.626      6.529
REMARK  12 active torsions:
REMARK  status: ('A' for Active; 'I' for Inactive)
REMARK    1  A    between atoms: N2_3  and  C2_5 
REMARK    2  A    between atoms: C3_6  and  C4_7 
REMARK    3  A    between atoms: C4_7  and  N3_8 
REMARK    4  A    between atoms: N3_8  and  C5_10 
REMARK    5  A    between atoms: C6_12  and  N4_13 
REMARK    6  A    between atoms: C8_18  and  O2_19 
REMARK    7  A    between atoms: O2_19  and  C9_20 
REMARK    8  A    between atoms: C9_20  and  N7_21 
REMARK    9  A    between atoms: C9_20  and  N8_25 
REMARK   10  A    between atoms: N8_25  and  C10_28 
REMARK   11  A    between atoms: C10_28  and  C11_29 
REMARK   12  A    between atoms: C11_29  and  O3_30 
ROOT
HETATM    1  C2  UNL     1      44.793 -62.296  35.317  1.00  0.00     0.120 C 
HETATM    2  C3  UNL     1      46.215 -61.908  35.665  1.00  0.00     0.054 C 
HETATM    3  C6  UNL     1      46.301 -61.339  34.248  1.00  0.00     0.122 C 
HETATM    4  C8  UNL     1      45.311 -62.443  33.880  1.00  0.00     0.172 C 
ENDROOT
BRANCH   4   5
HETATM    5  O2  UNL     1      44.413 -62.136  32.903  1.00  0.00    -0.329 OA
BRANCH   5   6
HETATM    6  C9  UNL     1      43.948 -63.308  32.324  1.00  0.00     0.522 C 
BRANCH   6   7
HETATM    7  N7  UNL     1      44.806 -64.422  32.674  1.00  0.00    -0.027 N 
ATOM      8  H73 UNL     1      45.478 -64.169  33.398  1.00  0.00     0.279 HD
ATOM      9  H72 UNL     1      44.298 -65.146  33.182  1.00  0.00     0.279 HD
ATOM     10  H71 UNL     1      45.266 -64.793  31.843  1.00  0.00     0.279 HD
ENDBRANCH   6   7
BRANCH   6  11
HETATM   11  N8  UNL     1      42.565 -63.577  32.651  1.00  0.00    -0.021 N 
ATOM     12  H82 UNL     1      42.430 -63.676  33.658  1.00  0.00     0.282 HD
ATOM     13  H81 UNL     1      41.976 -62.759  32.495  1.00  0.00     0.282 HD
BRANCH  11  14
HETATM   14  C10 UNL     1      42.069 -64.740  31.929  1.00  0.00     0.263 C 
BRANCH  14  15
HETATM   15  C11 UNL     1      41.392 -65.658  32.941  1.00  0.00     0.192 C 
BRANCH  15  16
HETATM   16  O3  UNL     1      42.411 -66.458  33.477  1.00  0.00    -0.399 OA
ATOM     17  H3  UNL     1      42.379 -67.277  32.995  1.00  0.00     0.209 HD
ENDBRANCH  15  16
ENDBRANCH  14  15
ENDBRANCH  11  14
ENDBRANCH   6  11
ENDBRANCH   5   6
ENDBRANCH   4   5
BRANCH   1  18
HETATM   18  N2  UNL     1      44.309 -63.505  35.902  1.00  0.00    -0.380 N 
HETATM   19  C1  UNL     1      43.086 -63.850  35.677  1.00  0.00     0.185 C 
HETATM   20  N1  UNL     1      42.535 -65.052  36.233  1.00  0.00    -0.097 NA
ATOM     21  H2  UNL     1      44.916 -64.083  36.484  1.00  0.00     0.160 HD
ENDBRANCH   1  18
BRANCH   3  22
HETATM   22  N4  UNL     1      45.674 -60.036  34.148  1.00  0.00    -0.359 N 
HETATM   23  C7  UNL     1      46.431 -58.997  34.055  1.00  0.00     0.197 C 
HETATM   24  N5  UNL     1      45.799 -57.736  33.958  1.00  0.00    -0.067 NA
HETATM   25  N6  UNL     1      47.847 -59.053  34.046  1.00  0.00    -0.067 NA
ATOM     26  H4  UNL     1      44.659 -59.944  34.150  1.00  0.00     0.162 HD
ENDBRANCH   3  22
BRANCH   2  27
HETATM   27  C4  UNL     1      46.335 -60.882  36.756  1.00  0.00     0.130 C 
BRANCH  27  28
HETATM   28  N3  UNL     1      45.129 -60.172  37.011  1.00  0.00    -0.368 N 
ATOM     29  H3  UNL     1      44.230 -60.580  36.755  1.00  0.00     0.161 HD
BRANCH  28  30
HETATM   30  C5  UNL     1      45.183 -58.902  37.617  1.00  0.00     0.348 C 
HETATM   31  O1  UNL     1      44.581 -58.638  38.685  1.00  0.00    -0.284 OA
ENDBRANCH  28  30
ENDBRANCH  27  28
ENDBRANCH   2  27
TORSDOF 12
ENDMDL
