MODEL 1
REMARK VINA RESULT: -8.345973107      0.000      0.000
REMARK  12 active torsions:
REMARK  status: ('A' for Active; 'I' for Inactive)
REMARK    1  A    between atoms: N1_1  and  C1_5 
REMARK    2  A    between atoms: C1_5  and  C2_6 
REMARK       I    between atoms: C2_6  and  N2_8 
REMARK    3  A    between atoms: N2_8  and  C3_10 
REMARK    4  A    between atoms: C3_10  and  C4_11 
REMARK       I    between atoms: C4_11  and  N3_13 
REMARK    5  A    between atoms: N3_13  and  C5_15 
REMARK    6  A    between atoms: C5_15  and  C6_16 
REMARK    7  A    between atoms: C6_16  and  N4_17 
REMARK    8  A    between atoms: N4_17  and  C7_20 
REMARK    9  A    between atoms: C7_20  and  C8_21 
REMARK   10  A    between atoms: C8_21  and  N5_22 
REMARK   11  A    between atoms: N5_22  and  C9_25 
REMARK   12  A    between atoms: C10_29  and  N7_30 
REMARK       I    between atoms: N7_30  and  C11_32 
ROOT
HETATM    1  N4  UNL     1      42.335 -69.255  30.660  1.00  0.00    -0.072 N 
ATOM      2  H41 UNL     1      42.759 -69.489  29.762  1.00  0.00     0.277 HD
ATOM      3  H42 UNL     1      43.152 -68.856  31.121  1.00  0.00     0.277 HD
ENDROOT
BRANCH   1   4
HETATM    4  C6  UNL     1      41.873 -70.417  31.333  1.00  0.00     0.252 C 
BRANCH   4   5
HETATM    5  C5  UNL     1      42.999 -71.087  32.113  1.00  0.00     0.150 C 
BRANCH   5   6
HETATM    6  N3  UNL     1      44.262 -70.778  31.472  1.00  0.00    -0.358 N 
HETATM    7  C4  UNL     1      45.457 -71.404  31.939  1.00  0.00     0.235 C 
HETATM    8  O2  UNL     1      45.420 -72.214  32.892  1.00  0.00    -0.272 OA
ATOM      9  H3  UNL     1      44.296 -70.119  30.694  1.00  0.00     0.162 HD
BRANCH   7  10
HETATM   10  C3  UNL     1      46.750 -71.100  31.295  1.00  0.00     0.225 C 
BRANCH  10  11
HETATM   11  N2  UNL     1      46.807 -71.595  29.946  1.00  0.00    -0.351 N 
HETATM   12  C2  UNL     1      46.257 -70.859  28.880  1.00  0.00     0.243 C 
HETATM   13  O1  UNL     1      45.687 -69.747  29.064  1.00  0.00    -0.272 OA
ATOM     14  H2  UNL     1      47.253 -72.493  29.760  1.00  0.00     0.163 HD
BRANCH  12  15
HETATM   15  C1  UNL     1      46.363 -71.430  27.501  1.00  0.00     0.332 C 
BRANCH  15  16
HETATM   16  N1  UNL     1      45.282 -70.915  26.689  1.00  0.00    -0.071 N 
ATOM     17  H13 UNL     1      44.453 -71.509  26.728  1.00  0.00     0.274 HD
ATOM     18  H12 UNL     1      44.871 -70.068  27.082  1.00  0.00     0.274 HD
ATOM     19  H11 UNL     1      45.616 -70.777  25.735  1.00  0.00     0.274 HD
ENDBRANCH  15  16
ENDBRANCH  12  15
ENDBRANCH  10  11
ENDBRANCH   7  10
ENDBRANCH   5   6
ENDBRANCH   4   5
ENDBRANCH   1   4
BRANCH   1  20
HETATM   20  C7  UNL     1      41.291 -68.286  30.511  1.00  0.00     0.260 C 
BRANCH  20  21
HETATM   21  C8  UNL     1      40.964 -67.604  31.816  1.00  0.00     0.262 C 
BRANCH  21  22
HETATM   22  N5  UNL     1      41.742 -66.426  32.040  1.00  0.00    -0.041 N 
ATOM     23  H52 UNL     1      42.348 -66.540  32.853  1.00  0.00     0.279 HD
ATOM     24  H51 UNL     1      42.452 -66.315  31.316  1.00  0.00     0.279 HD
BRANCH  22  25
HETATM   25  C9  UNL     1      40.946 -65.247  32.160  1.00  0.00     0.434 A 
HETATM   26  N6  UNL     1      40.881 -64.801  33.582  1.00  0.00    -0.018 N 
HETATM   27  C10 UNL     1      41.486 -63.932  32.637  1.00  0.00     0.349 A 
ATOM     28  H62 UNL     1      40.122 -64.695  34.255  1.00  0.00     0.282 HD
ATOM     29  H61 UNL     1      41.186 -65.208  34.465  1.00  0.00     0.282 HD
BRANCH  27  30
HETATM   30  N7  UNL     1      42.893 -63.739  32.494  1.00  0.00    -0.314 N 
HETATM   31  C11 UNL     1      43.711 -63.298  33.590  1.00  0.00     0.330 C 
HETATM   32  N8  UNL     1      45.093 -63.119  33.409  1.00  0.00    -0.040 NA
HETATM   33  O3  UNL     1      43.190 -63.070  34.712  1.00  0.00    -0.251 OA
ATOM     34  H7  UNL     1      43.330 -63.919  31.590  1.00  0.00     0.166 HD
ENDBRANCH  27  30
ENDBRANCH  22  25
ENDBRANCH  21  22
ENDBRANCH  20  21
ENDBRANCH   1  20
TORSDOF 12
ENDMDL
MODEL 2
REMARK VINA RESULT: -8.182517707      1.652      7.913
REMARK  12 active torsions:
REMARK  status: ('A' for Active; 'I' for Inactive)
REMARK    1  A    between atoms: N1_1  and  C1_5 
REMARK    2  A    between atoms: C1_5  and  C2_6 
REMARK       I    between atoms: C2_6  and  N2_8 
REMARK    3  A    between atoms: N2_8  and  C3_10 
REMARK    4  A    between atoms: C3_10  and  C4_11 
REMARK       I    between atoms: C4_11  and  N3_13 
REMARK    5  A    between atoms: N3_13  and  C5_15 
REMARK    6  A    between atoms: C5_15  and  C6_16 
REMARK    7  A    between atoms: C6_16  and  N4_17 
REMARK    8  A    between atoms: N4_17  and  C7_20 
REMARK    9  A    between atoms: C7_20  and  C8_21 
REMARK   10  A    between atoms: C8_21  and  N5_22 
REMARK   11  A    between atoms: N5_22  and  C9_25 
REMARK   12  A    between atoms: C10_29  and  N7_30 
REMARK       I    between atoms: N7_30  and  C11_32 
ROOT
HETATM    1  N4  UNL     1      42.351 -69.299  30.691  1.00  0.00    -0.072 N 
ATOM      2  H41 UNL     1      43.068 -68.834  31.247  1.00  0.00     0.277 HD
ATOM      3  H42 UNL     1      42.608 -68.940  29.771  1.00  0.00     0.277 HD
ENDROOT
BRANCH   1   4
HETATM    4  C6  UNL     1      41.048 -68.879  31.069  1.00  0.00     0.252 C 
BRANCH   4   5
HETATM    5  C5  UNL     1      41.032 -67.400  31.442  1.00  0.00     0.150 C 
BRANCH   5   6
HETATM    6  N3  UNL     1      41.892 -67.197  32.591  1.00  0.00    -0.358 N 
HETATM    7  C4  UNL     1      41.775 -65.993  33.351  1.00  0.00     0.235 C 
HETATM    8  O2  UNL     1      40.940 -65.119  33.032  1.00  0.00    -0.272 OA
ATOM      9  H3  UNL     1      42.574 -67.908  32.855  1.00  0.00     0.162 HD
BRANCH   7  10
HETATM   10  C3  UNL     1      42.643 -65.774  34.524  1.00  0.00     0.225 C 
BRANCH  10  11
HETATM   11  N2  UNL     1      43.739 -64.892  34.222  1.00  0.00    -0.351 N 
HETATM   12  C2  UNL     1      43.732 -63.553  34.656  1.00  0.00     0.243 C 
HETATM   13  O1  UNL     1      42.767 -63.072  35.315  1.00  0.00    -0.272 OA
ATOM     14  H2  UNL     1      44.532 -65.242  33.686  1.00  0.00     0.163 HD
BRANCH  12  15
HETATM   15  C1  UNL     1      44.911 -62.696  34.316  1.00  0.00     0.332 C 
BRANCH  15  16
HETATM   16  N1  UNL     1      45.344 -62.996  32.969  1.00  0.00    -0.071 N 
ATOM     17  H13 UNL     1      44.589 -63.373  32.395  1.00  0.00     0.274 HD
ATOM     18  H12 UNL     1      45.532 -62.154  32.425  1.00  0.00     0.274 HD
ATOM     19  H11 UNL     1      46.150 -63.620  33.008  1.00  0.00     0.274 HD
ENDBRANCH  15  16
ENDBRANCH  12  15
ENDBRANCH  10  11
ENDBRANCH   7  10
ENDBRANCH   5   6
ENDBRANCH   4   5
ENDBRANCH   1   4
BRANCH   1  20
HETATM   20  C7  UNL     1      42.481 -70.723  30.753  1.00  0.00     0.260 C 
BRANCH  20  21
HETATM   21  C8  UNL     1      43.329 -71.163  31.920  1.00  0.00     0.262 C 
BRANCH  21  22
HETATM   22  N5  UNL     1      44.514 -71.855  31.520  1.00  0.00    -0.041 N 
ATOM     23  H52 UNL     1      44.568 -72.772  31.964  1.00  0.00     0.279 HD
ATOM     24  H51 UNL     1      44.454 -72.146  30.543  1.00  0.00     0.279 HD
BRANCH  22  25
HETATM   25  C9  UNL     1      45.704 -71.104  31.755  1.00  0.00     0.434 A 
HETATM   26  N6  UNL     1      46.890 -71.807  31.185  1.00  0.00    -0.018 N 
HETATM   27  C10 UNL     1      46.552 -70.534  30.658  1.00  0.00     0.349 A 
ATOM     28  H62 UNL     1      47.739 -72.203  31.588  1.00  0.00     0.282 HD
ATOM     29  H61 UNL     1      47.034 -72.728  30.771  1.00  0.00     0.282 HD
BRANCH  27  30
HETATM   30  N7  UNL     1      45.900 -70.318  29.406  1.00  0.00    -0.314 N 
HETATM   31  C11 UNL     1      46.070 -71.220  28.300  1.00  0.00     0.330 C 
HETATM   32  N8  UNL     1      45.411 -70.973  27.083  1.00  0.00    -0.040 NA
HETATM   33  O3  UNL     1      46.809 -72.230  28.420  1.00  0.00    -0.251 OA
ATOM     34  H7  UNL     1      45.298 -69.502  29.294  1.00  0.00     0.166 HD
ENDBRANCH  27  30
ENDBRANCH  22  25
ENDBRANCH  21  22
ENDBRANCH  20  21
ENDBRANCH   1  20
TORSDOF 12
ENDMDL
MODEL 3
REMARK VINA RESULT: -8.170799738      2.028      8.159
REMARK  12 active torsions:
REMARK  status: ('A' for Active; 'I' for Inactive)
REMARK    1  A    between atoms: N1_1  and  C1_5 
REMARK    2  A    between atoms: C1_5  and  C2_6 
REMARK       I    between atoms: C2_6  and  N2_8 
REMARK    3  A    between atoms: N2_8  and  C3_10 
REMARK    4  A    between atoms: C3_10  and  C4_11 
REMARK       I    between atoms: C4_11  and  N3_13 
REMARK    5  A    between atoms: N3_13  and  C5_15 
REMARK    6  A    between atoms: C5_15  and  C6_16 
REMARK    7  A    between atoms: C6_16  and  N4_17 
REMARK    8  A    between atoms: N4_17  and  C7_20 
REMARK    9  A    between atoms: C7_20  and  C8_21 
REMARK   10  A    between atoms: C8_21  and  N5_22 
REMARK   11  A    between atoms: N5_22  and  C9_25 
REMARK   12  A    between atoms: C10_29  and  N7_30 
REMARK       I    between atoms: N7_30  and  C11_32 
ROOT
HETATM    1  N4  UNL     1      41.837 -67.344  32.396  1.00  0.00    -0.072 N 
ATOM      2  H41 UNL     1      42.173 -67.932  33.158  1.00  0.00     0.277 HD
ATOM      3  H42 UNL     1      42.732 -66.973  32.076  1.00  0.00     0.277 HD
ENDROOT
BRANCH   1   4
HETATM    4  C6  UNL     1      40.986 -66.311  32.873  1.00  0.00     0.252 C 
BRANCH   4   5
HETATM    5  C5  UNL     1      41.226 -65.007  32.120  1.00  0.00     0.150 C 
BRANCH   5   6
HETATM    6  N3  UNL     1      42.639 -64.689  32.171  1.00  0.00    -0.358 N 
HETATM    7  C4  UNL     1      43.108 -63.728  33.119  1.00  0.00     0.235 C 
HETATM    8  O2  UNL     1      42.310 -63.165  33.900  1.00  0.00    -0.272 OA
ATOM      9  H3  UNL     1      43.293 -65.147  31.536  1.00  0.00     0.162 HD
BRANCH   7  10
HETATM   10  C3  UNL     1      44.544 -63.395  33.183  1.00  0.00     0.225 C 
BRANCH  10  11
HETATM   11  N2  UNL     1      44.920 -62.889  34.477  1.00  0.00    -0.351 N 
HETATM   12  C2  UNL     1      45.766 -61.771  34.600  1.00  0.00     0.243 C 
HETATM   13  O1  UNL     1      46.235 -61.177  33.588  1.00  0.00    -0.272 OA
ATOM     14  H2  UNL     1      44.567 -63.347  35.316  1.00  0.00     0.163 HD
BRANCH  12  15
HETATM   15  C1  UNL     1      46.105 -61.292  35.977  1.00  0.00     0.332 C 
BRANCH  15  16
HETATM   16  N1  UNL     1      45.338 -60.101  36.267  1.00  0.00    -0.071 N 
ATOM     17  H13 UNL     1      45.256 -59.486  35.457  1.00  0.00     0.274 HD
ATOM     18  H12 UNL     1      44.346 -60.301  36.397  1.00  0.00     0.274 HD
ATOM     19  H11 UNL     1      45.746 -59.629  37.074  1.00  0.00     0.274 HD
ENDBRANCH  15  16
ENDBRANCH  12  15
ENDBRANCH  10  11
ENDBRANCH   7  10
ENDBRANCH   5   6
ENDBRANCH   4   5
ENDBRANCH   1   4
BRANCH   1  20
HETATM   20  C7  UNL     1      41.197 -68.120  31.377  1.00  0.00     0.260 C 
BRANCH  20  21
HETATM   21  C8  UNL     1      41.378 -69.601  31.597  1.00  0.00     0.262 C 
BRANCH  21  22
HETATM   22  N5  UNL     1      42.744 -69.973  31.792  1.00  0.00    -0.041 N 
ATOM     23  H52 UNL     1      43.337 -69.147  31.881  1.00  0.00     0.279 HD
ATOM     24  H51 UNL     1      42.883 -70.379  32.717  1.00  0.00     0.279 HD
BRANCH  22  25
HETATM   25  C9  UNL     1      43.235 -70.845  30.774  1.00  0.00     0.434 A 
HETATM   26  N6  UNL     1      44.013 -70.079  29.757  1.00  0.00    -0.018 N 
HETATM   27  C10 UNL     1      44.694 -71.070  30.512  1.00  0.00     0.349 A 
ATOM     28  H62 UNL     1      43.895 -69.908  28.759  1.00  0.00     0.282 HD
ATOM     29  H61 UNL     1      44.171 -69.086  29.589  1.00  0.00     0.282 HD
BRANCH  27  30
HETATM   30  N7  UNL     1      45.578 -70.799  31.599  1.00  0.00    -0.314 N 
HETATM   31  C11 UNL     1      46.901 -70.278  31.386  1.00  0.00     0.330 C 
HETATM   32  N8  UNL     1      47.742 -70.024  32.483  1.00  0.00    -0.040 NA
HETATM   33  O3  UNL     1      47.306 -70.049  30.218  1.00  0.00    -0.251 OA
ATOM     34  H7  UNL     1      45.264 -70.980  32.552  1.00  0.00     0.166 HD
ENDBRANCH  27  30
ENDBRANCH  22  25
ENDBRANCH  21  22
ENDBRANCH  20  21
ENDBRANCH   1  20
TORSDOF 12
ENDMDL
MODEL 4
REMARK VINA RESULT: -8.028673933      1.957      7.628
REMARK  12 active torsions:
REMARK  status: ('A' for Active; 'I' for Inactive)
REMARK    1  A    between atoms: N1_1  and  C1_5 
REMARK    2  A    between atoms: C1_5  and  C2_6 
REMARK       I    between atoms: C2_6  and  N2_8 
REMARK    3  A    between atoms: N2_8  and  C3_10 
REMARK    4  A    between atoms: C3_10  and  C4_11 
REMARK       I    between atoms: C4_11  and  N3_13 
REMARK    5  A    between atoms: N3_13  and  C5_15 
REMARK    6  A    between atoms: C5_15  and  C6_16 
REMARK    7  A    between atoms: C6_16  and  N4_17 
REMARK    8  A    between atoms: N4_17  and  C7_20 
REMARK    9  A    between atoms: C7_20  and  C8_21 
REMARK   10  A    between atoms: C8_21  and  N5_22 
REMARK   11  A    between atoms: N5_22  and  C9_25 
REMARK   12  A    between atoms: C10_29  and  N7_30 
REMARK       I    between atoms: N7_30  and  C11_32 
ROOT
HETATM    1  N4  UNL     1      41.609 -68.504  31.697  1.00  0.00    -0.072 N 
ATOM      2  H41 UNL     1      41.400 -68.451  32.693  1.00  0.00     0.277 HD
ATOM      3  H42 UNL     1      42.627 -68.547  31.752  1.00  0.00     0.277 HD
ENDROOT
BRANCH   1   4
HETATM    4  C6  UNL     1      41.173 -67.339  31.012  1.00  0.00     0.252 C 
BRANCH   4   5
HETATM    5  C5  UNL     1      40.915 -66.192  31.984  1.00  0.00     0.150 C 
BRANCH   5   6
HETATM    6  N3  UNL     1      42.071 -66.038  32.845  1.00  0.00    -0.358 N 
HETATM    7  C4  UNL     1      41.879 -65.791  34.239  1.00  0.00     0.235 C 
HETATM    8  O2  UNL     1      40.727 -65.708  34.717  1.00  0.00    -0.272 OA
ATOM      9  H3  UNL     1      43.013 -66.106  32.459  1.00  0.00     0.162 HD
BRANCH   7  10
HETATM   10  C3  UNL     1      43.046 -65.633  35.128  1.00  0.00     0.225 C 
BRANCH  10  11
HETATM   11  N2  UNL     1      44.031 -64.747  34.567  1.00  0.00    -0.351 N 
HETATM   12  C2  UNL     1      43.981 -63.361  34.807  1.00  0.00     0.243 C 
HETATM   13  O1  UNL     1      43.071 -62.841  35.512  1.00  0.00    -0.272 OA
ATOM     14  H2  UNL     1      44.777 -65.129  33.986  1.00  0.00     0.163 HD
BRANCH  12  15
HETATM   15  C1  UNL     1      45.046 -62.502  34.201  1.00  0.00     0.332 C 
BRANCH  15  16
HETATM   16  N1  UNL     1      45.370 -63.005  32.884  1.00  0.00    -0.071 N 
ATOM     17  H13 UNL     1      45.607 -62.257  32.232  1.00  0.00     0.274 HD
ATOM     18  H12 UNL     1      46.262 -63.499  32.866  1.00  0.00     0.274 HD
ATOM     19  H11 UNL     1      44.600 -63.583  32.548  1.00  0.00     0.274 HD
ENDBRANCH  15  16
ENDBRANCH  12  15
ENDBRANCH  10  11
ENDBRANCH   7  10
ENDBRANCH   5   6
ENDBRANCH   4   5
ENDBRANCH   1   4
BRANCH   1  20
HETATM   20  C7  UNL     1      41.066 -69.691  31.109  1.00  0.00     0.260 C 
BRANCH  20  21
HETATM   21  C8  UNL     1      42.132 -70.719  30.822  1.00  0.00     0.262 C 
BRANCH  21  22
HETATM   22  N5  UNL     1      43.380 -70.418  31.449  1.00  0.00    -0.041 N 
ATOM     23  H52 UNL     1      44.071 -70.119  30.760  1.00  0.00     0.279 HD
ATOM     24  H51 UNL     1      43.314 -69.562  32.001  1.00  0.00     0.279 HD
BRANCH  22  25
HETATM   25  C9  UNL     1      43.882 -71.496  32.239  1.00  0.00     0.434 A 
HETATM   26  N6  UNL     1      44.516 -72.531  31.371  1.00  0.00    -0.018 N 
HETATM   27  C10 UNL     1      45.335 -71.857  32.315  1.00  0.00     0.349 A 
ATOM     28  H62 UNL     1      44.317 -73.513  31.181  1.00  0.00     0.282 HD
ATOM     29  H61 UNL     1      44.569 -72.672  30.363  1.00  0.00     0.282 HD
BRANCH  27  30
HETATM   30  N7  UNL     1      46.260 -70.819  31.994  1.00  0.00    -0.314 N 
HETATM   31  C11 UNL     1      46.869 -70.723  30.696  1.00  0.00     0.330 C 
HETATM   32  N8  UNL     1      47.776 -69.686  30.419  1.00  0.00    -0.040 NA
HETATM   33  O3  UNL     1      46.592 -71.568  29.807  1.00  0.00    -0.251 OA
ATOM     34  H7  UNL     1      46.496 -70.127  32.705  1.00  0.00     0.166 HD
ENDBRANCH  27  30
ENDBRANCH  22  25
ENDBRANCH  21  22
ENDBRANCH  20  21
ENDBRANCH   1  20
TORSDOF 12
ENDMDL
MODEL 5
REMARK VINA RESULT: -7.998831526      1.917      8.026
REMARK  12 active torsions:
REMARK  status: ('A' for Active; 'I' for Inactive)
REMARK    1  A    between atoms: N1_1  and  C1_5 
REMARK    2  A    between atoms: C1_5  and  C2_6 
REMARK       I    between atoms: C2_6  and  N2_8 
REMARK    3  A    between atoms: N2_8  and  C3_10 
REMARK    4  A    between atoms: C3_10  and  C4_11 
REMARK       I    between atoms: C4_11  and  N3_13 
REMARK    5  A    between atoms: N3_13  and  C5_15 
REMARK    6  A    between atoms: C5_15  and  C6_16 
REMARK    7  A    between atoms: C6_16  and  N4_17 
REMARK    8  A    between atoms: N4_17  and  C7_20 
REMARK    9  A    between atoms: C7_20  and  C8_21 
REMARK   10  A    between atoms: C8_21  and  N5_22 
REMARK   11  A    between atoms: N5_22  and  C9_25 
REMARK   12  A    between atoms: C10_29  and  N7_30 
REMARK       I    between atoms: N7_30  and  C11_32 
ROOT
HETATM    1  N4  UNL     1      41.707 -67.726  31.907  1.00  0.00    -0.072 N 
ATOM      2  H41 UNL     1      42.177 -68.068  32.745  1.00  0.00     0.277 HD
ATOM      3  H42 UNL     1      42.521 -67.378  31.400  1.00  0.00     0.277 HD
ENDROOT
BRANCH   1   4
HETATM    4  C6  UNL     1      40.798 -66.678  32.212  1.00  0.00     0.252 C 
BRANCH   4   5
HETATM    5  C5  UNL     1      41.450 -65.311  32.032  1.00  0.00     0.150 C 
BRANCH   5   6
HETATM    6  N3  UNL     1      42.578 -65.208  32.935  1.00  0.00    -0.358 N 
HETATM    7  C4  UNL     1      42.648 -64.111  33.848  1.00  0.00     0.235 C 
HETATM    8  O2  UNL     1      41.745 -63.246  33.871  1.00  0.00    -0.272 OA
ATOM      9  H3  UNL     1      43.316 -65.912  32.920  1.00  0.00     0.162 HD
BRANCH   7  10
HETATM   10  C3  UNL     1      43.790 -63.992  34.774  1.00  0.00     0.225 C 
BRANCH  10  11
HETATM   11  N2  UNL     1      44.890 -63.279  34.181  1.00  0.00    -0.351 N 
HETATM   12  C2  UNL     1      45.321 -62.046  34.704  1.00  0.00     0.243 C 
HETATM   13  O1  UNL     1      44.760 -61.514  35.702  1.00  0.00    -0.272 OA
ATOM     14  H2  UNL     1      45.364 -63.674  33.368  1.00  0.00     0.163 HD
BRANCH  12  15
HETATM   15  C1  UNL     1      46.480 -61.367  34.043  1.00  0.00     0.332 C 
BRANCH  15  16
HETATM   16  N1  UNL     1      46.860 -60.210  34.824  1.00  0.00    -0.071 N 
ATOM     17  H13 UNL     1      47.329 -59.500  34.261  1.00  0.00     0.274 HD
ATOM     18  H12 UNL     1      46.054 -59.655  35.113  1.00  0.00     0.274 HD
ATOM     19  H11 UNL     1      47.426 -60.513  35.617  1.00  0.00     0.274 HD
ENDBRANCH  15  16
ENDBRANCH  12  15
ENDBRANCH  10  11
ENDBRANCH   7  10
ENDBRANCH   5   6
ENDBRANCH   4   5
ENDBRANCH   1   4
BRANCH   1  20
HETATM   20  C7  UNL     1      41.062 -68.789  31.196  1.00  0.00     0.260 C 
BRANCH  20  21
HETATM   21  C8  UNL     1      41.441 -70.144  31.740  1.00  0.00     0.262 C 
BRANCH  21  22
HETATM   22  N5  UNL     1      42.854 -70.326  31.848  1.00  0.00    -0.041 N 
ATOM     23  H52 UNL     1      43.326 -69.435  32.003  1.00  0.00     0.279 HD
ATOM     24  H51 UNL     1      43.095 -70.797  32.720  1.00  0.00     0.279 HD
BRANCH  22  25
HETATM   25  C9  UNL     1      43.414 -71.011  30.728  1.00  0.00     0.434 A 
HETATM   26  N6  UNL     1      44.108 -70.052  29.820  1.00  0.00    -0.018 N 
HETATM   27  C10 UNL     1      44.885 -71.062  30.443  1.00  0.00     0.349 A 
ATOM     28  H62 UNL     1      43.964 -69.766  28.851  1.00  0.00     0.282 HD
ATOM     29  H61 UNL     1      44.170 -69.035  29.781  1.00  0.00     0.282 HD
BRANCH  27  30
HETATM   30  N7  UNL     1      45.751 -70.851  31.558  1.00  0.00    -0.314 N 
HETATM   31  C11 UNL     1      47.055 -70.268  31.402  1.00  0.00     0.330 C 
HETATM   32  N8  UNL     1      47.878 -70.076  32.526  1.00  0.00    -0.040 NA
HETATM   33  O3  UNL     1      47.461 -69.929  30.262  1.00  0.00    -0.251 OA
ATOM     34  H7  UNL     1      45.436 -71.121  32.490  1.00  0.00     0.166 HD
ENDBRANCH  27  30
ENDBRANCH  22  25
ENDBRANCH  21  22
ENDBRANCH  20  21
ENDBRANCH   1  20
TORSDOF 12
ENDMDL
