MODEL 1
REMARK VINA RESULT: -6.845912718      0.000      0.000
REMARK  13 active torsions:
REMARK  status: ('A' for Active; 'I' for Inactive)
REMARK    1  A    between atoms: C2_2  and  N1_3 
REMARK    2  A    between atoms: N1_3  and  C3_6 
REMARK    3  A    between atoms: C3_6  and  C4_7 
REMARK    4  A    between atoms: C4_7  and  N2_8 
REMARK    5  A    between atoms: N2_8  and  C5_11 
REMARK    6  A    between atoms: C5_11  and  C6_12 
REMARK    7  A    between atoms: C6_12  and  N3_13 
REMARK    8  A    between atoms: C6_12  and  C10_24 
REMARK    9  A    between atoms: N3_13  and  C7_15 
REMARK   10  A    between atoms: C8_16  and  N4_17 
REMARK   11  A    between atoms: C9_21  and  O1_22 
REMARK       I    between atoms: C10_24  and  N5_26 
REMARK   12  A    between atoms: N5_26  and  C11_28 
REMARK   13  A    between atoms: C11_28  and  C12_29 
REMARK       I    between atoms: C12_29  and  N6_31 
ROOT
HETATM    1  C6  UNL     1      41.245 -66.322  32.648  1.00  0.00     0.196 C 
ENDROOT
BRANCH   1   2
HETATM    2  C5  UNL     1      41.352 -64.949  31.919  1.00  0.00     0.266 C 
BRANCH   2   3
HETATM    3  N2  UNL     1      42.670 -64.698  31.420  1.00  0.00    -0.071 N 
ATOM      4  H22 UNL     1      42.696 -64.542  30.412  1.00  0.00     0.277 HD
ATOM      5  H21 UNL     1      43.271 -65.522  31.437  1.00  0.00     0.277 HD
BRANCH   3   6
HETATM    6  C4  UNL     1      43.208 -63.569  32.198  1.00  0.00     0.259 C 
BRANCH   6   7
HETATM    7  C3  UNL     1      44.500 -63.904  32.850  1.00  0.00     0.259 C 
BRANCH   7   8
HETATM    8  N1  UNL     1      45.391 -62.738  32.833  1.00  0.00    -0.074 N 
ATOM      9  H12 UNL     1      45.130 -62.036  32.141  1.00  0.00     0.277 HD
ATOM     10  H11 UNL     1      46.319 -62.939  32.462  1.00  0.00     0.277 HD
BRANCH   8  11
HETATM   11  C2  UNL     1      45.410 -62.222  34.214  1.00  0.00     0.228 C 
HETATM   12  C1  UNL     1      46.510 -61.177  34.274  1.00  0.00     0.034 C 
ENDBRANCH   8  11
ENDBRANCH   7   8
ENDBRANCH   6   7
ENDBRANCH   3   6
ENDBRANCH   2   3
ENDBRANCH   1   2
BRANCH   1  13
HETATM   13  N3  UNL     1      42.009 -66.389  33.777  1.00  0.00    -0.399 N 
ATOM     14  H3  UNL     1      42.955 -66.740  33.623  1.00  0.00     0.154 HD
BRANCH  13  15
HETATM   15  C7  UNL     1      41.733 -66.069  35.076  1.00  0.00     0.141 A 
HETATM   16  C8  UNL     1      41.591 -64.716  35.652  1.00  0.00     0.238 A 
HETATM   17  C9  UNL     1      42.787 -65.567  36.034  1.00  0.00     0.175 A 
BRANCH  16  18
HETATM   18  N4  UNL     1      42.030 -63.484  35.022  1.00  0.00    -0.070 N 
ATOM     19  H43 UNL     1      41.591 -62.720  35.535  1.00  0.00     0.274 HD
ATOM     20  H42 UNL     1      43.018 -63.376  35.251  1.00  0.00     0.274 HD
ATOM     21  H41 UNL     1      41.934 -63.262  34.031  1.00  0.00     0.274 HD
ENDBRANCH  16  18
BRANCH  17  22
HETATM   22  O1  UNL     1      44.016 -65.185  35.575  1.00  0.00    -0.391 OA
ATOM     23  H1  UNL     1      44.797 -65.361  36.086  1.00  0.00     0.210 HD
ENDBRANCH  17  22
ENDBRANCH  13  15
ENDBRANCH   1  13
BRANCH   1  24
HETATM   24  C10 UNL     1      41.294 -67.295  31.557  1.00  0.00     0.242 C 
HETATM   25  O2  UNL     1      40.956 -67.034  30.402  1.00  0.00    -0.271 OA
HETATM   26  N5  UNL     1      41.767 -68.652  31.801  1.00  0.00    -0.351 N 
ATOM     27  H5  UNL     1      42.057 -68.942  32.735  1.00  0.00     0.163 HD
BRANCH  26  28
HETATM   28  C11 UNL     1      41.814 -69.570  30.706  1.00  0.00     0.225 C 
BRANCH  28  29
HETATM   29  C12 UNL     1      43.035 -70.374  30.640  1.00  0.00     0.234 C 
HETATM   30  O3  UNL     1      43.091 -71.500  31.271  1.00  0.00    -0.272 OA
HETATM   31  N6  UNL     1      44.185 -70.010  29.927  1.00  0.00    -0.364 N 
HETATM   32  C13 UNL     1      45.353 -70.897  29.935  1.00  0.00     0.149 C 
ATOM     33  H6  UNL     1      44.209 -69.134  29.405  1.00  0.00     0.161 HD
ENDBRANCH  28  29
ENDBRANCH  26  28
ENDBRANCH   1  24
TORSDOF 13
ENDMDL
MODEL 2
REMARK VINA RESULT: -6.727566167      1.703      2.261
REMARK  13 active torsions:
REMARK  status: ('A' for Active; 'I' for Inactive)
REMARK    1  A    between atoms: C2_2  and  N1_3 
REMARK    2  A    between atoms: N1_3  and  C3_6 
REMARK    3  A    between atoms: C3_6  and  C4_7 
REMARK    4  A    between atoms: C4_7  and  N2_8 
REMARK    5  A    between atoms: N2_8  and  C5_11 
REMARK    6  A    between atoms: C5_11  and  C6_12 
REMARK    7  A    between atoms: C6_12  and  N3_13 
REMARK    8  A    between atoms: C6_12  and  C10_24 
REMARK    9  A    between atoms: N3_13  and  C7_15 
REMARK   10  A    between atoms: C8_16  and  N4_17 
REMARK   11  A    between atoms: C9_21  and  O1_22 
REMARK       I    between atoms: C10_24  and  N5_26 
REMARK   12  A    between atoms: N5_26  and  C11_28 
REMARK   13  A    between atoms: C11_28  and  C12_29 
REMARK       I    between atoms: C12_29  and  N6_31 
ROOT
HETATM    1  C6  UNL     1      41.562 -64.027  32.571  1.00  0.00     0.196 C 
ENDROOT
BRANCH   1   2
HETATM    2  C5  UNL     1      42.960 -63.998  31.883  1.00  0.00     0.266 C 
BRANCH   2   3
HETATM    3  N2  UNL     1      44.022 -64.309  32.792  1.00  0.00    -0.071 N 
ATOM      4  H22 UNL     1      44.523 -65.163  32.548  1.00  0.00     0.277 HD
ATOM      5  H21 UNL     1      43.691 -64.612  33.708  1.00  0.00     0.277 HD
BRANCH   3   6
HETATM    6  C4  UNL     1      44.891 -63.120  32.849  1.00  0.00     0.259 C 
BRANCH   6   7
HETATM    7  C3  UNL     1      44.939 -62.529  34.211  1.00  0.00     0.259 C 
BRANCH   7   8
HETATM    8  N1  UNL     1      46.321 -62.175  34.557  1.00  0.00    -0.074 N 
ATOM      9  H12 UNL     1      47.002 -62.459  33.854  1.00  0.00     0.277 HD
ATOM     10  H11 UNL     1      46.702 -62.724  35.327  1.00  0.00     0.277 HD
BRANCH   8  11
HETATM   11  C2  UNL     1      46.315 -60.724  34.816  1.00  0.00     0.228 C 
HETATM   12  C1  UNL     1      45.680 -60.528  36.181  1.00  0.00     0.034 C 
ENDBRANCH   8  11
ENDBRANCH   7   8
ENDBRANCH   6   7
ENDBRANCH   3   6
ENDBRANCH   2   3
ENDBRANCH   1   2
BRANCH   1  13
HETATM   13  N3  UNL     1      41.631 -63.885  33.927  1.00  0.00    -0.399 N 
ATOM     14  H3  UNL     1      42.004 -62.988  34.237  1.00  0.00     0.154 HD
BRANCH  13  15
HETATM   15  C7  UNL     1      41.289 -64.732  34.943  1.00  0.00     0.141 A 
HETATM   16  C8  UNL     1      42.168 -65.242  36.016  1.00  0.00     0.238 A 
HETATM   17  C9  UNL     1      41.665 -66.194  34.948  1.00  0.00     0.175 A 
BRANCH  16  18
HETATM   18  N4  UNL     1      43.618 -65.196  36.006  1.00  0.00    -0.070 N 
ATOM     19  H43 UNL     1      43.936 -65.855  36.716  1.00  0.00     0.274 HD
ATOM     20  H42 UNL     1      43.918 -65.634  35.135  1.00  0.00     0.274 HD
ATOM     21  H41 UNL     1      44.182 -64.353  36.118  1.00  0.00     0.274 HD
ENDBRANCH  16  18
BRANCH  17  22
HETATM   22  O1  UNL     1      42.570 -66.681  34.047  1.00  0.00    -0.391 OA
ATOM     23  H1  UNL     1      42.309 -66.864  33.152  1.00  0.00     0.210 HD
ENDBRANCH  17  22
ENDBRANCH  13  15
ENDBRANCH   1  13
BRANCH   1  24
HETATM   24  C10 UNL     1      40.866 -65.117  31.888  1.00  0.00     0.242 C 
HETATM   25  O2  UNL     1      39.644 -65.154  31.743  1.00  0.00    -0.271 OA
HETATM   26  N5  UNL     1      41.617 -66.235  31.330  1.00  0.00    -0.351 N 
ATOM     27  H5  UNL     1      42.633 -66.276  31.418  1.00  0.00     0.163 HD
BRANCH  26  28
HETATM   28  C11 UNL     1      40.902 -67.273  30.657  1.00  0.00     0.225 C 
BRANCH  28  29
HETATM   29  C12 UNL     1      41.280 -68.629  31.057  1.00  0.00     0.234 C 
HETATM   30  O3  UNL     1      40.530 -69.282  31.882  1.00  0.00    -0.272 OA
HETATM   31  N6  UNL     1      42.426 -69.298  30.606  1.00  0.00    -0.364 N 
HETATM   32  C13 UNL     1      42.704 -70.658  31.079  1.00  0.00     0.149 C 
ATOM     33  H6  UNL     1      43.062 -68.841  29.952  1.00  0.00     0.161 HD
ENDBRANCH  28  29
ENDBRANCH  26  28
ENDBRANCH   1  24
TORSDOF 13
ENDMDL
MODEL 3
REMARK VINA RESULT: -6.716389081      2.354      6.440
REMARK  13 active torsions:
REMARK  status: ('A' for Active; 'I' for Inactive)
REMARK    1  A    between atoms: C2_2  and  N1_3 
REMARK    2  A    between atoms: N1_3  and  C3_6 
REMARK    3  A    between atoms: C3_6  and  C4_7 
REMARK    4  A    between atoms: C4_7  and  N2_8 
REMARK    5  A    between atoms: N2_8  and  C5_11 
REMARK    6  A    between atoms: C5_11  and  C6_12 
REMARK    7  A    between atoms: C6_12  and  N3_13 
REMARK    8  A    between atoms: C6_12  and  C10_24 
REMARK    9  A    between atoms: N3_13  and  C7_15 
REMARK   10  A    between atoms: C8_16  and  N4_17 
REMARK   11  A    between atoms: C9_21  and  O1_22 
REMARK       I    between atoms: C10_24  and  N5_26 
REMARK   12  A    between atoms: N5_26  and  C11_28 
REMARK   13  A    between atoms: C11_28  and  C12_29 
REMARK       I    between atoms: C12_29  and  N6_31 
ROOT
HETATM    1  C6  UNL     1      42.577 -65.431  32.529  1.00  0.00     0.196 C 
ENDROOT
BRANCH   1   2
HETATM    2  C5  UNL     1      41.224 -65.098  31.833  1.00  0.00     0.266 C 
BRANCH   2   3
HETATM    3  N2  UNL     1      40.412 -66.261  31.635  1.00  0.00    -0.071 N 
ATOM      4  H22 UNL     1      39.461 -66.043  31.338  1.00  0.00     0.277 HD
ATOM      5  H21 UNL     1      40.169 -66.735  32.506  1.00  0.00     0.277 HD
BRANCH   3   6
HETATM    6  C4  UNL     1      41.136 -67.125  30.685  1.00  0.00     0.259 C 
BRANCH   6   7
HETATM    7  C3  UNL     1      41.145 -68.546  31.117  1.00  0.00     0.259 C 
BRANCH   7   8
HETATM    8  N1  UNL     1      42.299 -69.241  30.535  1.00  0.00    -0.074 N 
ATOM      9  H12 UNL     1      43.196 -68.893  30.872  1.00  0.00     0.277 HD
ATOM     10  H11 UNL     1      42.447 -69.029  29.548  1.00  0.00     0.277 HD
BRANCH   8  11
HETATM   11  C2  UNL     1      42.086 -70.675  30.803  1.00  0.00     0.228 C 
HETATM   12  C1  UNL     1      43.328 -71.173  31.521  1.00  0.00     0.034 C 
ENDBRANCH   8  11
ENDBRANCH   7   8
ENDBRANCH   6   7
ENDBRANCH   3   6
ENDBRANCH   2   3
ENDBRANCH   1   2
BRANCH   1  13
HETATM   13  N3  UNL     1      42.435 -66.255  33.609  1.00  0.00    -0.399 N 
ATOM     14  H3  UNL     1      42.911 -67.152  33.517  1.00  0.00     0.154 HD
BRANCH  13  15
HETATM   15  C7  UNL     1      41.768 -66.090  34.790  1.00  0.00     0.141 A 
HETATM   16  C8  UNL     1      41.232 -64.831  35.346  1.00  0.00     0.238 A 
HETATM   17  C9  UNL     1      42.417 -65.498  36.017  1.00  0.00     0.175 A 
BRANCH  16  18
HETATM   18  N4  UNL     1      41.591 -63.497  34.901  1.00  0.00    -0.070 N 
ATOM     19  H43 UNL     1      42.509 -63.572  34.462  1.00  0.00     0.274 HD
ATOM     20  H42 UNL     1      40.979 -63.277  34.115  1.00  0.00     0.274 HD
ATOM     21  H41 UNL     1      41.618 -62.665  35.491  1.00  0.00     0.274 HD
ENDBRANCH  16  18
BRANCH  17  22
HETATM   22  O1  UNL     1      43.633 -64.880  35.929  1.00  0.00    -0.391 OA
ATOM     23  H1  UNL     1      43.724 -63.960  36.149  1.00  0.00     0.210 HD
ENDBRANCH  17  22
ENDBRANCH  13  15
ENDBRANCH   1  13
BRANCH   1  24
HETATM   24  C10 UNL     1      43.274 -64.145  32.557  1.00  0.00     0.242 C 
HETATM   25  O2  UNL     1      42.830 -63.123  32.032  1.00  0.00    -0.271 OA
HETATM   26  N5  UNL     1      44.559 -64.018  33.234  1.00  0.00    -0.351 N 
ATOM     27  H5  UNL     1      44.991 -64.824  33.686  1.00  0.00     0.163 HD
BRANCH  26  28
HETATM   28  C11 UNL     1      45.202 -62.741  33.252  1.00  0.00     0.225 C 
BRANCH  28  29
HETATM   29  C12 UNL     1      45.233 -62.095  34.564  1.00  0.00     0.234 C 
HETATM   30  O3  UNL     1      44.226 -62.226  35.362  1.00  0.00    -0.272 OA
HETATM   31  N6  UNL     1      46.299 -61.321  35.040  1.00  0.00    -0.364 N 
HETATM   32  C13 UNL     1      46.218 -60.719  36.375  1.00  0.00     0.149 C 
ATOM     33  H6  UNL     1      47.127 -61.178  34.461  1.00  0.00     0.161 HD
ENDBRANCH  28  29
ENDBRANCH  26  28
ENDBRANCH   1  24
TORSDOF 13
ENDMDL
MODEL 4
REMARK VINA RESULT: -6.411086868      2.451      7.414
REMARK  13 active torsions:
REMARK  status: ('A' for Active; 'I' for Inactive)
REMARK    1  A    between atoms: C2_2  and  N1_3 
REMARK    2  A    between atoms: N1_3  and  C3_6 
REMARK    3  A    between atoms: C3_6  and  C4_7 
REMARK    4  A    between atoms: C4_7  and  N2_8 
REMARK    5  A    between atoms: N2_8  and  C5_11 
REMARK    6  A    between atoms: C5_11  and  C6_12 
REMARK    7  A    between atoms: C6_12  and  N3_13 
REMARK    8  A    between atoms: C6_12  and  C10_24 
REMARK    9  A    between atoms: N3_13  and  C7_15 
REMARK   10  A    between atoms: C8_16  and  N4_17 
REMARK   11  A    between atoms: C9_21  and  O1_22 
REMARK       I    between atoms: C10_24  and  N5_26 
REMARK   12  A    between atoms: N5_26  and  C11_28 
REMARK   13  A    between atoms: C11_28  and  C12_29 
REMARK       I    between atoms: C12_29  and  N6_31 
ROOT
HETATM    1  C6  UNL     1      43.450 -63.683  33.756  1.00  0.00     0.196 C 
ENDROOT
BRANCH   1   2
HETATM    2  C5  UNL     1      43.161 -63.563  32.230  1.00  0.00     0.266 C 
BRANCH   2   3
HETATM    3  N2  UNL     1      42.681 -64.788  31.668  1.00  0.00    -0.071 N 
ATOM      4  H22 UNL     1      43.095 -65.617  32.095  1.00  0.00     0.277 HD
ATOM      5  H21 UNL     1      43.015 -64.954  30.718  1.00  0.00     0.277 HD
BRANCH   3   6
HETATM    6  C4  UNL     1      41.211 -64.753  31.770  1.00  0.00     0.259 C 
BRANCH   6   7
HETATM    7  C3  UNL     1      40.600 -66.078  31.496  1.00  0.00     0.259 C 
BRANCH   7   8
HETATM    8  N1  UNL     1      41.631 -67.123  31.522  1.00  0.00    -0.074 N 
ATOM      9  H12 UNL     1      42.268 -67.047  32.314  1.00  0.00     0.277 HD
ATOM     10  H11 UNL     1      42.332 -67.021  30.789  1.00  0.00     0.277 HD
BRANCH   8  11
HETATM   11  C2  UNL     1      40.908 -68.407  31.470  1.00  0.00     0.228 C 
HETATM   12  C1  UNL     1      41.831 -69.399  30.785  1.00  0.00     0.034 C 
ENDBRANCH   8  11
ENDBRANCH   7   8
ENDBRANCH   6   7
ENDBRANCH   3   6
ENDBRANCH   2   3
ENDBRANCH   1   2
BRANCH   1  13
HETATM   13  N3  UNL     1      42.322 -63.608  34.521  1.00  0.00    -0.399 N 
ATOM     14  H3  UNL     1      41.874 -62.692  34.520  1.00  0.00     0.154 HD
BRANCH  13  15
HETATM   15  C7  UNL     1      41.686 -64.543  35.288  1.00  0.00     0.141 A 
HETATM   16  C8  UNL     1      42.288 -65.412  36.321  1.00  0.00     0.238 A 
HETATM   17  C9  UNL     1      41.796 -66.026  35.024  1.00  0.00     0.175 A 
BRANCH  16  18
HETATM   18  N4  UNL     1      43.709 -65.658  36.486  1.00  0.00    -0.070 N 
ATOM     19  H43 UNL     1      44.191 -65.026  35.847  1.00  0.00     0.274 HD
ATOM     20  H42 UNL     1      43.963 -65.294  37.405  1.00  0.00     0.274 HD
ATOM     21  H41 UNL     1      44.164 -66.566  36.397  1.00  0.00     0.274 HD
ENDBRANCH  16  18
BRANCH  17  22
HETATM   22  O1  UNL     1      42.730 -66.508  34.149  1.00  0.00    -0.391 OA
ATOM     23  H1  UNL     1      43.347 -65.919  33.731  1.00  0.00     0.210 HD
ENDBRANCH  17  22
ENDBRANCH  13  15
ENDBRANCH   1  13
BRANCH   1  24
HETATM   24  C10 UNL     1      44.636 -62.848  33.948  1.00  0.00     0.242 C 
HETATM   25  O2  UNL     1      45.412 -62.555  33.038  1.00  0.00    -0.271 OA
HETATM   26  N5  UNL     1      44.952 -62.309  35.265  1.00  0.00    -0.351 N 
ATOM     27  H5  UNL     1      44.358 -62.515  36.068  1.00  0.00     0.163 HD
BRANCH  26  28
HETATM   28  C11 UNL     1      46.111 -61.485  35.409  1.00  0.00     0.225 C 
BRANCH  28  29
HETATM   29  C12 UNL     1      46.073 -60.576  36.555  1.00  0.00     0.234 C 
HETATM   30  O3  UNL     1      46.921 -60.728  37.517  1.00  0.00    -0.272 OA
HETATM   31  N6  UNL     1      45.160 -59.522  36.699  1.00  0.00    -0.364 N 
HETATM   32  C13 UNL     1      45.215 -58.676  37.895  1.00  0.00     0.149 C 
ATOM     33  H6  UNL     1      44.463 -59.346  35.975  1.00  0.00     0.161 HD
ENDBRANCH  28  29
ENDBRANCH  26  28
ENDBRANCH   1  24
TORSDOF 13
ENDMDL
MODEL 5
REMARK VINA RESULT: -6.406428873      2.706      7.285
REMARK  13 active torsions:
REMARK  status: ('A' for Active; 'I' for Inactive)
REMARK    1  A    between atoms: C2_2  and  N1_3 
REMARK    2  A    between atoms: N1_3  and  C3_6 
REMARK    3  A    between atoms: C3_6  and  C4_7 
REMARK    4  A    between atoms: C4_7  and  N2_8 
REMARK    5  A    between atoms: N2_8  and  C5_11 
REMARK    6  A    between atoms: C5_11  and  C6_12 
REMARK    7  A    between atoms: C6_12  and  N3_13 
REMARK    8  A    between atoms: C6_12  and  C10_24 
REMARK    9  A    between atoms: N3_13  and  C7_15 
REMARK   10  A    between atoms: C8_16  and  N4_17 
REMARK   11  A    between atoms: C9_21  and  O1_22 
REMARK       I    between atoms: C10_24  and  N5_26 
REMARK   12  A    between atoms: N5_26  and  C11_28 
REMARK   13  A    between atoms: C11_28  and  C12_29 
REMARK       I    between atoms: C12_29  and  N6_31 
ROOT
HETATM    1  C6  UNL     1      42.875 -70.905  30.863  1.00  0.00     0.196 C 
ENDROOT
BRANCH   1   2
HETATM    2  C5  UNL     1      43.657 -70.916  32.210  1.00  0.00     0.266 C 
BRANCH   2   3
HETATM    3  N2  UNL     1      44.220 -72.199  32.503  1.00  0.00    -0.071 N 
ATOM      4  H22 UNL     1      44.113 -72.869  31.742  1.00  0.00     0.277 HD
ATOM      5  H21 UNL     1      43.694 -72.718  33.206  1.00  0.00     0.277 HD
BRANCH   3   6
HETATM    6  C4  UNL     1      45.626 -71.967  32.881  1.00  0.00     0.259 C 
BRANCH   6   7
HETATM    7  C3  UNL     1      45.774 -70.807  33.797  1.00  0.00     0.259 C 
BRANCH   7   8
HETATM    8  N1  UNL     1      46.759 -69.862  33.257  1.00  0.00    -0.074 N 
ATOM      9  H12 UNL     1      47.318 -69.402  33.974  1.00  0.00     0.277 HD
ATOM     10  H11 UNL     1      46.342 -69.018  32.865  1.00  0.00     0.277 HD
BRANCH   8  11
HETATM   11  C2  UNL     1      47.563 -70.626  32.285  1.00  0.00     0.228 C 
HETATM   12  C1  UNL     1      48.248 -69.608  31.391  1.00  0.00     0.034 C 
ENDBRANCH   8  11
ENDBRANCH   7   8
ENDBRANCH   6   7
ENDBRANCH   3   6
ENDBRANCH   2   3
ENDBRANCH   1   2
BRANCH   1  13
HETATM   13  N3  UNL     1      43.688 -70.785  29.773  1.00  0.00    -0.399 N 
ATOM     14  H3  UNL     1      43.226 -70.969  28.882  1.00  0.00     0.154 HD
BRANCH  13  15
HETATM   15  C7  UNL     1      45.012 -70.464  29.664  1.00  0.00     0.141 A 
HETATM   16  C8  UNL     1      45.819 -70.410  28.427  1.00  0.00     0.238 A 
HETATM   17  C9  UNL     1      46.088 -71.501  29.447  1.00  0.00     0.175 A 
BRANCH  16  18
HETATM   18  N4  UNL     1      45.443 -70.994  27.153  1.00  0.00    -0.070 N 
ATOM     19  H43 UNL     1      44.654 -71.614  27.337  1.00  0.00     0.274 HD
ATOM     20  H42 UNL     1      45.023 -70.246  26.602  1.00  0.00     0.274 HD
ATOM     21  H41 UNL     1      46.071 -71.500  26.528  1.00  0.00     0.274 HD
ENDBRANCH  16  18
BRANCH  17  22
HETATM   22  O1  UNL     1      45.757 -72.785  29.112  1.00  0.00    -0.391 OA
ATOM     23  H1  UNL     1      45.119 -73.267  29.625  1.00  0.00     0.210 HD
ENDBRANCH  17  22
ENDBRANCH  13  15
ENDBRANCH   1  13
BRANCH   1  24
HETATM   24  C10 UNL     1      41.729 -70.038  31.138  1.00  0.00     0.242 C 
HETATM   25  O2  UNL     1      40.563 -70.433  31.126  1.00  0.00    -0.271 OA
HETATM   26  N5  UNL     1      41.931 -68.629  31.453  1.00  0.00    -0.351 N 
ATOM     27  H5  UNL     1      42.870 -68.229  31.475  1.00  0.00     0.163 HD
BRANCH  26  28
HETATM   28  C11 UNL     1      40.788 -67.817  31.731  1.00  0.00     0.225 C 
BRANCH  28  29
HETATM   29  C12 UNL     1      41.095 -66.423  32.053  1.00  0.00     0.234 C 
HETATM   30  O3  UNL     1      40.282 -65.490  31.684  1.00  0.00    -0.272 OA
HETATM   31  N6  UNL     1      42.237 -66.006  32.750  1.00  0.00    -0.364 N 
HETATM   32  C13 UNL     1      42.442 -64.577  33.015  1.00  0.00     0.149 C 
ATOM     33  H6  UNL     1      42.920 -66.691  33.072  1.00  0.00     0.161 HD
ENDBRANCH  28  29
ENDBRANCH  26  28
ENDBRANCH   1  24
TORSDOF 13
ENDMDL
