MODEL 1
REMARK VINA RESULT: -8.011996232      0.000      0.000
REMARK  14 active torsions:
REMARK  status: ('A' for Active; 'I' for Inactive)
REMARK    1  A    between atoms: C2_2  and  O2_4 
REMARK    2  A    between atoms: O2_4  and  C3_5 
REMARK    3  A    between atoms: C3_5  and  C4_6 
REMARK    4  A    between atoms: C7_9  and  O3_10 
REMARK    5  A    between atoms: O3_10  and  C8_11 
REMARK    6  A    between atoms: C12_18  and  C13_19 
REMARK    7  A    between atoms: C13_19  and  C15_21 
REMARK    8  A    between atoms: C15_21  and  O7_22 
REMARK    9  A    between atoms: C15_21  and  C16_24 
REMARK   10  A    between atoms: C16_24  and  C17_25 
REMARK   11  A    between atoms: C17_25  and  C18_26 
REMARK   12  A    between atoms: C19_27  and  C21_29 
REMARK   13  A    between atoms: C24_32  and  C26_34 
REMARK   14  A    between atoms: C26_34  and  C27_36 
ROOT
HETATM    1  C4  UNL     1      -1.057 -37.444   4.702  1.00  0.00    -0.033 C 
HETATM    2  C5  UNL     1      -1.315 -37.827   3.445  1.00  0.00    -0.007 C 
HETATM    3  C6  UNL     1      -1.603 -36.815   2.447  1.00  0.00     0.075 C 
HETATM    4  C7  UNL     1      -0.558 -36.034   1.794  1.00  0.00     0.287 C 
HETATM    5  O5  UNL     1      -0.408 -34.817   2.468  1.00  0.00    -0.288 OA
HETATM    6  C10 UNL     1      -1.238 -34.179   3.379  1.00  0.00     0.276 C 
HETATM    7  O6  UNL     1      -1.212 -32.980   3.339  1.00  0.00    -0.264 OA
HETATM    8  C11 UNL     1      -2.048 -35.124   4.285  1.00  0.00     0.095 C 
HETATM    9  C12 UNL     1      -1.007 -35.938   4.913  1.00  0.00    -0.045 C 
HETATM   10  C24 UNL     1      -3.140 -34.404   4.986  1.00  0.00     0.043 C 
HETATM   11  C25 UNL     1      -3.089 -32.885   4.975  1.00  0.00     0.025 C 
HETATM   12  C30 UNL     1      -4.504 -34.521   4.237  1.00  0.00     0.019 C 
HETATM   13  C31 UNL     1      -4.942 -35.851   3.839  1.00  0.00     0.002 C 
HETATM   14  C32 UNL     1      -3.811 -36.738   3.404  1.00  0.00     0.011 C 
HETATM   15  C33 UNL     1      -2.656 -35.865   3.084  1.00  0.00    -0.010 C 
HETATM   16  C34 UNL     1      -3.068 -35.025   1.933  1.00  0.00     0.018 C 
ENDROOT
BRANCH   9  17
HETATM   17  C13 UNL     1      -0.173 -35.701   6.100  1.00  0.00     0.041 C 
HETATM   18  C14 UNL     1       1.305 -35.965   5.625  1.00  0.00     0.017 C 
BRANCH  17  19
HETATM   19  C15 UNL     1      -0.014 -34.392   6.739  1.00  0.00     0.126 C 
BRANCH  19  20
HETATM   20  O7  UNL     1       0.202 -33.276   5.976  1.00  0.00    -0.395 OA
ATOM     21  H7  UNL     1       0.426 -32.451   6.390  1.00  0.00     0.210 HD
ENDBRANCH  19  20
BRANCH  19  22
HETATM   22  C16 UNL     1       0.909 -34.401   7.913  1.00  0.00     0.036 C 
BRANCH  22  23
HETATM   23  C17 UNL     1       0.409 -34.765   9.251  1.00  0.00     0.030 C 
BRANCH  23  24
HETATM   24  C18 UNL     1       0.425 -36.274   9.440  1.00  0.00    -0.024 C 
HETATM   25  C19 UNL     1      -0.107 -36.853  10.494  1.00  0.00    -0.084 C 
HETATM   26  C20 UNL     1      -0.762 -36.029  11.570  1.00  0.00     0.043 C 
BRANCH  25  27
HETATM   27  C21 UNL     1      -0.074 -38.327  10.645  1.00  0.00     0.005 C 
HETATM   28  C22 UNL     1      -0.286 -39.059   9.349  1.00  0.00     0.014 C 
HETATM   29  C23 UNL     1      -1.172 -38.688  11.643  1.00  0.00     0.014 C 
ENDBRANCH  25  27
ENDBRANCH  23  24
ENDBRANCH  22  23
ENDBRANCH  19  22
ENDBRANCH  17  19
ENDBRANCH   9  17
BRANCH   1  30
HETATM   30  C3  UNL     1      -0.787 -38.499   5.683  1.00  0.00     0.217 C 
BRANCH  30  31
HETATM   31  O2  UNL     1      -0.157 -39.665   5.260  1.00  0.00    -0.317 OA
BRANCH  31  32
HETATM   32  C2  UNL     1       1.147 -40.031   5.307  1.00  0.00     0.255 C 
HETATM   33  C1  UNL     1       2.074 -39.436   4.292  1.00  0.00     0.126 C 
HETATM   34  O1  UNL     1       1.536 -40.834   6.170  1.00  0.00    -0.266 OA
ENDBRANCH  31  32
ENDBRANCH  30  31
ENDBRANCH   1  30
BRANCH  10  35
HETATM   35  C26 UNL     1      -3.525 -34.897   6.346  1.00  0.00     0.161 C 
HETATM   36  O8  UNL     1      -4.174 -34.054   6.942  1.00  0.00    -0.292 OA
BRANCH  35  37
HETATM   37  C27 UNL     1      -3.311 -36.093   7.100  1.00  0.00    -0.041 C 
HETATM   38  C28 UNL     1      -3.091 -36.030   8.574  1.00  0.00     0.047 C 
HETATM   39  C29 UNL     1      -4.181 -37.296   6.825  1.00  0.00     0.047 C 
ENDBRANCH  35  37
ENDBRANCH  10  35
BRANCH   4  40
HETATM   40  O3  UNL     1       0.634 -36.796   1.705  1.00  0.00    -0.289 OA
BRANCH  40  41
HETATM   41  C8  UNL     1       1.170 -37.300   0.538  1.00  0.00     0.257 C 
HETATM   42  C9  UNL     1       1.393 -38.742   0.268  1.00  0.00     0.126 C 
HETATM   43  O4  UNL     1       1.493 -36.482  -0.360  1.00  0.00    -0.266 OA
ENDBRANCH  40  41
ENDBRANCH   4  40
TORSDOF 14
ENDMDL
MODEL 2
REMARK VINA RESULT: -7.273294433      2.340      6.292
REMARK  14 active torsions:
REMARK  status: ('A' for Active; 'I' for Inactive)
REMARK    1  A    between atoms: C2_2  and  O2_4 
REMARK    2  A    between atoms: O2_4  and  C3_5 
REMARK    3  A    between atoms: C3_5  and  C4_6 
REMARK    4  A    between atoms: C7_9  and  O3_10 
REMARK    5  A    between atoms: O3_10  and  C8_11 
REMARK    6  A    between atoms: C12_18  and  C13_19 
REMARK    7  A    between atoms: C13_19  and  C15_21 
REMARK    8  A    between atoms: C15_21  and  O7_22 
REMARK    9  A    between atoms: C15_21  and  C16_24 
REMARK   10  A    between atoms: C16_24  and  C17_25 
REMARK   11  A    between atoms: C17_25  and  C18_26 
REMARK   12  A    between atoms: C19_27  and  C21_29 
REMARK   13  A    between atoms: C24_32  and  C26_34 
REMARK   14  A    between atoms: C26_34  and  C27_36 
ROOT
HETATM    1  C4  UNL     1      -3.150 -35.933   7.356  1.00  0.00    -0.033 C 
HETATM    2  C5  UNL     1      -4.139 -35.078   7.067  1.00  0.00    -0.007 C 
HETATM    3  C6  UNL     1      -4.448 -34.804   5.677  1.00  0.00     0.075 C 
HETATM    4  C7  UNL     1      -5.245 -35.707   4.855  1.00  0.00     0.287 C 
HETATM    5  O5  UNL     1      -4.388 -36.542   4.129  1.00  0.00    -0.288 OA
HETATM    6  C10 UNL     1      -3.030 -36.434   3.866  1.00  0.00     0.276 C 
HETATM    7  O6  UNL     1      -2.679 -36.873   2.805  1.00  0.00    -0.264 OA
HETATM    8  C11 UNL     1      -2.206 -35.769   4.985  1.00  0.00     0.095 C 
HETATM    9  C12 UNL     1      -2.513 -36.603   6.147  1.00  0.00    -0.045 C 
HETATM   10  C24 UNL     1      -0.853 -35.386   4.512  1.00  0.00     0.043 C 
HETATM   11  C25 UNL     1      -0.387 -35.973   3.190  1.00  0.00     0.025 C 
HETATM   12  C30 UNL     1      -0.784 -33.896   4.055  1.00  0.00     0.019 C 
HETATM   13  C31 UNL     1      -1.312 -32.888   4.963  1.00  0.00     0.002 C 
HETATM   14  C32 UNL     1      -2.530 -33.348   5.710  1.00  0.00     0.011 C 
HETATM   15  C33 UNL     1      -3.089 -34.511   4.980  1.00  0.00    -0.010 C 
HETATM   16  C34 UNL     1      -3.512 -34.010   3.649  1.00  0.00     0.018 C 
ENDROOT
BRANCH   9  17
HETATM   17  C13 UNL     1      -1.923 -37.864   6.620  1.00  0.00     0.041 C 
HETATM   18  C14 UNL     1      -3.110 -38.897   6.627  1.00  0.00     0.017 C 
BRANCH  17  19
HETATM   19  C15 UNL     1      -0.917 -38.625   5.876  1.00  0.00     0.126 C 
BRANCH  19  20
HETATM   20  O7  UNL     1      -1.184 -39.062   4.606  1.00  0.00    -0.395 OA
ATOM     21  H7  UNL     1      -0.529 -39.549   4.121  1.00  0.00     0.210 HD
ENDBRANCH  19  20
BRANCH  19  22
HETATM   22  C16 UNL     1      -0.272 -39.713   6.671  1.00  0.00     0.036 C 
BRANCH  22  23
HETATM   23  C17 UNL     1      -0.021 -41.031   6.063  1.00  0.00     0.030 C 
BRANCH  23  24
HETATM   24  C18 UNL     1       1.407 -41.482   6.327  1.00  0.00    -0.024 C 
HETATM   25  C19 UNL     1       2.388 -41.230   5.487  1.00  0.00    -0.084 C 
HETATM   26  C20 UNL     1       2.127 -40.474   4.213  1.00  0.00     0.043 C 
BRANCH  25  27
HETATM   27  C21 UNL     1       3.768 -41.684   5.777  1.00  0.00     0.005 C 
HETATM   28  C22 UNL     1       4.571 -41.964   4.538  1.00  0.00     0.014 C 
HETATM   29  C23 UNL     1       3.643 -42.948   6.625  1.00  0.00     0.014 C 
ENDBRANCH  25  27
ENDBRANCH  23  24
ENDBRANCH  22  23
ENDBRANCH  19  22
ENDBRANCH  17  19
ENDBRANCH   9  17
BRANCH   1  30
HETATM   30  C3  UNL     1      -2.859 -36.169   8.773  1.00  0.00     0.217 C 
BRANCH  30  31
HETATM   31  O2  UNL     1      -3.825 -35.843   9.720  1.00  0.00    -0.317 OA
BRANCH  31  32
HETATM   32  C2  UNL     1      -3.753 -35.788  11.073  1.00  0.00     0.255 C 
HETATM   33  C1  UNL     1      -4.769 -36.562  11.855  1.00  0.00     0.126 C 
HETATM   34  O1  UNL     1      -2.867 -35.113  11.620  1.00  0.00    -0.266 OA
ENDBRANCH  31  32
ENDBRANCH  30  31
ENDBRANCH   1  30
BRANCH  10  35
HETATM   35  C26 UNL     1       0.259 -35.424   5.512  1.00  0.00     0.161 C 
HETATM   36  O8  UNL     1       1.076 -36.279   5.216  1.00  0.00    -0.292 OA
BRANCH  35  37
HETATM   37  C27 UNL     1       0.582 -34.716   6.713  1.00  0.00    -0.041 C 
HETATM   38  C28 UNL     1       0.467 -35.385   8.041  1.00  0.00     0.047 C 
HETATM   39  C29 UNL     1       1.825 -33.860   6.745  1.00  0.00     0.047 C 
ENDBRANCH  35  37
ENDBRANCH  10  35
BRANCH   4  40
HETATM   40  O3  UNL     1      -6.179 -36.403   5.663  1.00  0.00    -0.289 OA
BRANCH  40  41
HETATM   41  C8  UNL     1      -7.221 -35.819   6.355  1.00  0.00     0.257 C 
HETATM   42  C9  UNL     1      -7.980 -36.479   7.447  1.00  0.00     0.126 C 
HETATM   43  O4  UNL     1      -7.551 -34.649   6.041  1.00  0.00    -0.266 OA
ENDBRANCH  40  41
ENDBRANCH   4  40
TORSDOF 14
ENDMDL
MODEL 3
REMARK VINA RESULT: -7.208690403      3.001      7.560
REMARK  14 active torsions:
REMARK  status: ('A' for Active; 'I' for Inactive)
REMARK    1  A    between atoms: C2_2  and  O2_4 
REMARK    2  A    between atoms: O2_4  and  C3_5 
REMARK    3  A    between atoms: C3_5  and  C4_6 
REMARK    4  A    between atoms: C7_9  and  O3_10 
REMARK    5  A    between atoms: O3_10  and  C8_11 
REMARK    6  A    between atoms: C12_18  and  C13_19 
REMARK    7  A    between atoms: C13_19  and  C15_21 
REMARK    8  A    between atoms: C15_21  and  O7_22 
REMARK    9  A    between atoms: C15_21  and  C16_24 
REMARK   10  A    between atoms: C16_24  and  C17_25 
REMARK   11  A    between atoms: C17_25  and  C18_26 
REMARK   12  A    between atoms: C19_27  and  C21_29 
REMARK   13  A    between atoms: C24_32  and  C26_34 
REMARK   14  A    between atoms: C26_34  and  C27_36 
ROOT
HETATM    1  C4  UNL     1      -1.091 -36.584   9.260  1.00  0.00    -0.033 C 
HETATM    2  C5  UNL     1      -1.949 -35.639   9.665  1.00  0.00    -0.007 C 
HETATM    3  C6  UNL     1      -3.340 -35.993   9.871  1.00  0.00     0.075 C 
HETATM    4  C7  UNL     1      -3.810 -36.667  11.076  1.00  0.00     0.287 C 
HETATM    5  O5  UNL     1      -3.865 -38.045  10.837  1.00  0.00    -0.288 OA
HETATM    6  C10 UNL     1      -3.841 -38.759   9.648  1.00  0.00     0.276 C 
HETATM    7  O6  UNL     1      -4.477 -39.777   9.651  1.00  0.00    -0.264 OA
HETATM    8  C11 UNL     1      -3.001 -38.118   8.528  1.00  0.00     0.095 C 
HETATM    9  C12 UNL     1      -1.685 -37.981   9.153  1.00  0.00    -0.045 C 
HETATM   10  C24 UNL     1      -3.285 -38.739   7.209  1.00  0.00     0.043 C 
HETATM   11  C25 UNL     1      -4.053 -40.050   7.211  1.00  0.00     0.025 C 
HETATM   12  C30 UNL     1      -4.346 -37.936   6.393  1.00  0.00     0.019 C 
HETATM   13  C31 UNL     1      -4.141 -36.502   6.250  1.00  0.00     0.002 C 
HETATM   14  C32 UNL     1      -3.555 -35.864   7.476  1.00  0.00     0.011 C 
HETATM   15  C33 UNL     1      -3.775 -36.793   8.611  1.00  0.00    -0.010 C 
HETATM   16  C34 UNL     1      -5.244 -36.900   8.790  1.00  0.00     0.018 C 
ENDROOT
BRANCH   9  17
HETATM   17  C13 UNL     1      -0.571 -38.930   9.289  1.00  0.00     0.041 C 
HETATM   18  C14 UNL     1      -0.161 -38.868  10.808  1.00  0.00     0.017 C 
BRANCH  17  19
HETATM   19  C15 UNL     1      -0.705 -40.377   9.112  1.00  0.00     0.126 C 
BRANCH  19  20
HETATM   20  O7  UNL     1      -1.340 -41.132  10.062  1.00  0.00    -0.395 OA
ATOM     21  H7  UNL     1      -0.836 -41.680  10.651  1.00  0.00     0.210 HD
ENDBRANCH  19  20
BRANCH  19  22
HETATM   22  C16 UNL     1       0.554 -41.051   8.675  1.00  0.00     0.036 C 
BRANCH  22  23
HETATM   23  C17 UNL     1       0.577 -41.865   7.446  1.00  0.00     0.030 C 
BRANCH  23  24
HETATM   24  C18 UNL     1       1.414 -41.190   6.370  1.00  0.00    -0.024 C 
HETATM   25  C19 UNL     1       2.607 -41.629   6.033  1.00  0.00    -0.084 C 
HETATM   26  C20 UNL     1       3.198 -42.834   6.713  1.00  0.00     0.043 C 
BRANCH  25  27
HETATM   27  C21 UNL     1       3.394 -40.947   4.979  1.00  0.00     0.005 C 
HETATM   28  C22 UNL     1       2.559 -40.506   3.809  1.00  0.00     0.014 C 
HETATM   29  C23 UNL     1       4.463 -41.938   4.523  1.00  0.00     0.014 C 
ENDBRANCH  25  27
ENDBRANCH  23  24
ENDBRANCH  22  23
ENDBRANCH  19  22
ENDBRANCH  17  19
ENDBRANCH   9  17
BRANCH   1  30
HETATM   30  C3  UNL     1       0.302 -36.179   9.048  1.00  0.00     0.217 C 
BRANCH  30  31
HETATM   31  O2  UNL     1       0.595 -34.827   8.908  1.00  0.00    -0.317 OA
BRANCH  31  32
HETATM   32  C2  UNL     1       0.979 -34.113   7.822  1.00  0.00     0.255 C 
HETATM   33  C1  UNL     1       0.154 -34.244   6.578  1.00  0.00     0.126 C 
HETATM   34  O1  UNL     1       1.981 -33.384   7.881  1.00  0.00    -0.266 OA
ENDBRANCH  31  32
ENDBRANCH  30  31
ENDBRANCH   1  30
BRANCH  10  35
HETATM   35  C26 UNL     1      -2.161 -38.800   6.223  1.00  0.00     0.161 C 
HETATM   36  O8  UNL     1      -1.966 -39.948   5.864  1.00  0.00    -0.292 OA
BRANCH  35  37
HETATM   37  C27 UNL     1      -1.274 -37.853   5.621  1.00  0.00    -0.041 C 
HETATM   38  C28 UNL     1       0.193 -37.920   5.878  1.00  0.00     0.047 C 
HETATM   39  C29 UNL     1      -1.461 -37.501   4.165  1.00  0.00     0.047 C 
ENDBRANCH  35  37
ENDBRANCH  10  35
BRANCH   4  40
HETATM   40  O3  UNL     1      -3.001 -36.305  12.182  1.00  0.00    -0.289 OA
BRANCH  40  41
HETATM   41  C8  UNL     1      -3.231 -35.230  13.017  1.00  0.00     0.257 C 
HETATM   42  C9  UNL     1      -4.152 -35.250  14.180  1.00  0.00     0.126 C 
HETATM   43  O4  UNL     1      -2.620 -34.159  12.775  1.00  0.00    -0.266 OA
ENDBRANCH  40  41
ENDBRANCH   4  40
TORSDOF 14
ENDMDL
MODEL 4
REMARK VINA RESULT: -7.166297036      2.276      6.496
REMARK  14 active torsions:
REMARK  status: ('A' for Active; 'I' for Inactive)
REMARK    1  A    between atoms: C2_2  and  O2_4 
REMARK    2  A    between atoms: O2_4  and  C3_5 
REMARK    3  A    between atoms: C3_5  and  C4_6 
REMARK    4  A    between atoms: C7_9  and  O3_10 
REMARK    5  A    between atoms: O3_10  and  C8_11 
REMARK    6  A    between atoms: C12_18  and  C13_19 
REMARK    7  A    between atoms: C13_19  and  C15_21 
REMARK    8  A    between atoms: C15_21  and  O7_22 
REMARK    9  A    between atoms: C15_21  and  C16_24 
REMARK   10  A    between atoms: C16_24  and  C17_25 
REMARK   11  A    between atoms: C17_25  and  C18_26 
REMARK   12  A    between atoms: C19_27  and  C21_29 
REMARK   13  A    between atoms: C24_32  and  C26_34 
REMARK   14  A    between atoms: C26_34  and  C27_36 
ROOT
HETATM    1  C4  UNL     1      -3.201 -35.937   7.311  1.00  0.00    -0.033 C 
HETATM    2  C5  UNL     1      -4.182 -35.065   7.045  1.00  0.00    -0.007 C 
HETATM    3  C6  UNL     1      -4.512 -34.777   5.663  1.00  0.00     0.075 C 
HETATM    4  C7  UNL     1      -5.338 -35.663   4.850  1.00  0.00     0.287 C 
HETATM    5  O5  UNL     1      -4.507 -36.505   4.103  1.00  0.00    -0.288 OA
HETATM    6  C10 UNL     1      -3.153 -36.417   3.817  1.00  0.00     0.276 C 
HETATM    7  O6  UNL     1      -2.828 -36.855   2.747  1.00  0.00    -0.264 OA
HETATM    8  C11 UNL     1      -2.299 -35.773   4.924  1.00  0.00     0.095 C 
HETATM    9  C12 UNL     1      -2.597 -36.609   6.087  1.00  0.00    -0.045 C 
HETATM   10  C24 UNL     1      -0.948 -35.408   4.429  1.00  0.00     0.043 C 
HETATM   11  C25 UNL     1      -0.516 -35.994   3.095  1.00  0.00     0.025 C 
HETATM   12  C30 UNL     1      -0.864 -33.915   3.980  1.00  0.00     0.019 C 
HETATM   13  C31 UNL     1      -1.360 -32.906   4.904  1.00  0.00     0.002 C 
HETATM   14  C32 UNL     1      -2.571 -33.352   5.671  1.00  0.00     0.011 C 
HETATM   15  C33 UNL     1      -3.162 -34.501   4.943  1.00  0.00    -0.010 C 
HETATM   16  C34 UNL     1      -3.601 -33.985   3.624  1.00  0.00     0.018 C 
ENDROOT
BRANCH   9  17
HETATM   17  C13 UNL     1      -2.019 -37.882   6.541  1.00  0.00     0.041 C 
HETATM   18  C14 UNL     1      -3.253 -38.817   6.827  1.00  0.00     0.017 C 
BRANCH  17  19
HETATM   19  C15 UNL     1      -1.213 -38.762   5.692  1.00  0.00     0.126 C 
BRANCH  19  20
HETATM   20  O7  UNL     1      -1.782 -39.860   5.102  1.00  0.00    -0.395 OA
ATOM     21  H7  UNL     1      -1.277 -40.656   4.989  1.00  0.00     0.210 HD
ENDBRANCH  19  20
BRANCH  19  22
HETATM   22  C16 UNL     1       0.112 -39.122   6.280  1.00  0.00     0.036 C 
BRANCH  22  23
HETATM   23  C17 UNL     1       0.853 -40.297   5.786  1.00  0.00     0.030 C 
BRANCH  23  24
HETATM   24  C18 UNL     1       1.437 -40.025   4.409  1.00  0.00    -0.024 C 
HETATM   25  C19 UNL     1       2.590 -40.530   4.026  1.00  0.00    -0.084 C 
HETATM   26  C20 UNL     1       3.385 -41.410   4.952  1.00  0.00     0.043 C 
BRANCH  25  27
HETATM   27  C21 UNL     1       3.130 -40.244   2.676  1.00  0.00     0.005 C 
HETATM   28  C22 UNL     1       4.608 -40.493   2.565  1.00  0.00     0.014 C 
HETATM   29  C23 UNL     1       2.814 -38.780   2.381  1.00  0.00     0.014 C 
ENDBRANCH  25  27
ENDBRANCH  23  24
ENDBRANCH  22  23
ENDBRANCH  19  22
ENDBRANCH  17  19
ENDBRANCH   9  17
BRANCH   1  30
HETATM   30  C3  UNL     1      -2.889 -36.187   8.721  1.00  0.00     0.217 C 
BRANCH  30  31
HETATM   31  O2  UNL     1      -3.918 -36.139   9.656  1.00  0.00    -0.317 OA
BRANCH  31  32
HETATM   32  C2  UNL     1      -3.897 -35.843  10.979  1.00  0.00     0.255 C 
HETATM   33  C1  UNL     1      -5.021 -36.358  11.824  1.00  0.00     0.126 C 
HETATM   34  O1  UNL     1      -2.968 -35.168  11.449  1.00  0.00    -0.266 OA
ENDBRANCH  31  32
ENDBRANCH  30  31
ENDBRANCH   1  30
BRANCH  10  35
HETATM   35  C26 UNL     1       0.181 -35.469   5.409  1.00  0.00     0.161 C 
HETATM   36  O8  UNL     1       1.017 -36.282   5.052  1.00  0.00    -0.292 OA
BRANCH  35  37
HETATM   37  C27 UNL     1       0.503 -34.822   6.643  1.00  0.00    -0.041 C 
HETATM   38  C28 UNL     1       0.436 -35.569   7.931  1.00  0.00     0.047 C 
HETATM   39  C29 UNL     1       1.719 -33.928   6.703  1.00  0.00     0.047 C 
ENDBRANCH  35  37
ENDBRANCH  10  35
BRANCH   4  40
HETATM   40  O3  UNL     1      -6.268 -36.349   5.671  1.00  0.00    -0.289 OA
BRANCH  40  41
HETATM   41  C8  UNL     1      -7.225 -35.747   6.463  1.00  0.00     0.257 C 
HETATM   42  C9  UNL     1      -7.733 -36.305   7.740  1.00  0.00     0.126 C 
HETATM   43  O4  UNL     1      -7.701 -34.651   6.075  1.00  0.00    -0.266 OA
ENDBRANCH  40  41
ENDBRANCH   4  40
TORSDOF 14
ENDMDL
MODEL 5
REMARK VINA RESULT: -7.123245138      2.155      5.484
REMARK  14 active torsions:
REMARK  status: ('A' for Active; 'I' for Inactive)
REMARK    1  A    between atoms: C2_2  and  O2_4 
REMARK    2  A    between atoms: O2_4  and  C3_5 
REMARK    3  A    between atoms: C3_5  and  C4_6 
REMARK    4  A    between atoms: C7_9  and  O3_10 
REMARK    5  A    between atoms: O3_10  and  C8_11 
REMARK    6  A    between atoms: C12_18  and  C13_19 
REMARK    7  A    between atoms: C13_19  and  C15_21 
REMARK    8  A    between atoms: C15_21  and  O7_22 
REMARK    9  A    between atoms: C15_21  and  C16_24 
REMARK   10  A    between atoms: C16_24  and  C17_25 
REMARK   11  A    between atoms: C17_25  and  C18_26 
REMARK   12  A    between atoms: C19_27  and  C21_29 
REMARK   13  A    between atoms: C24_32  and  C26_34 
REMARK   14  A    between atoms: C26_34  and  C27_36 
ROOT
HETATM    1  C4  UNL     1       0.619 -36.692   4.882  1.00  0.00    -0.033 C 
HETATM    2  C5  UNL     1       1.003 -35.509   5.379  1.00  0.00    -0.007 C 
HETATM    3  C6  UNL     1       0.009 -34.643   5.983  1.00  0.00     0.075 C 
HETATM    4  C7  UNL     1      -0.484 -34.840   7.342  1.00  0.00     0.287 C 
HETATM    5  O5  UNL     1      -1.672 -35.577   7.295  1.00  0.00    -0.288 OA
HETATM    6  C10 UNL     1      -2.527 -35.849   6.236  1.00  0.00     0.276 C 
HETATM    7  O6  UNL     1      -3.687 -35.947   6.530  1.00  0.00    -0.264 OA
HETATM    8  C11 UNL     1      -1.836 -35.979   4.866  1.00  0.00     0.095 C 
HETATM    9  C12 UNL     1      -0.848 -37.031   5.104  1.00  0.00    -0.045 C 
HETATM   10  C24 UNL     1      -2.818 -35.933   3.754  1.00  0.00     0.043 C 
HETATM   11  C25 UNL     1      -4.285 -36.099   4.115  1.00  0.00     0.025 C 
HETATM   12  C30 UNL     1      -2.965 -34.500   3.152  1.00  0.00     0.019 C 
HETATM   13  C31 UNL     1      -1.746 -33.795   2.787  1.00  0.00     0.002 C 
HETATM   14  C32 UNL     1      -0.608 -34.057   3.731  1.00  0.00     0.011 C 
HETATM   15  C33 UNL     1      -1.184 -34.593   4.988  1.00  0.00    -0.010 C 
HETATM   16  C34 UNL     1      -2.031 -33.515   5.556  1.00  0.00     0.018 C 
ENDROOT
BRANCH   9  17
HETATM   17  C13 UNL     1      -0.958 -38.496   5.059  1.00  0.00     0.041 C 
HETATM   18  C14 UNL     1       0.390 -39.030   5.671  1.00  0.00     0.017 C 
BRANCH  17  19
HETATM   19  C15 UNL     1      -1.927 -39.266   5.843  1.00  0.00     0.126 C 
BRANCH  19  20
HETATM   20  O7  UNL     1      -2.072 -39.029   7.183  1.00  0.00    -0.395 OA
ATOM     21  H7  UNL     1      -2.262 -38.152   7.495  1.00  0.00     0.210 HD
ENDBRANCH  19  20
BRANCH  19  22
HETATM   22  C16 UNL     1      -1.882 -40.736   5.581  1.00  0.00     0.036 C 
BRANCH  22  23
HETATM   23  C17 UNL     1      -1.716 -41.686   6.696  1.00  0.00     0.030 C 
BRANCH  23  24
HETATM   24  C18 UNL     1      -0.356 -42.363   6.628  1.00  0.00    -0.024 C 
HETATM   25  C19 UNL     1       0.590 -42.123   7.510  1.00  0.00    -0.084 C 
HETATM   26  C20 UNL     1       0.356 -41.153   8.637  1.00  0.00     0.043 C 
BRANCH  25  27
HETATM   27  C21 UNL     1       1.904 -42.801   7.414  1.00  0.00     0.005 C 
HETATM   28  C22 UNL     1       2.731 -42.667   8.662  1.00  0.00     0.014 C 
HETATM   29  C23 UNL     1       2.631 -42.177   6.225  1.00  0.00     0.014 C 
ENDBRANCH  25  27
ENDBRANCH  23  24
ENDBRANCH  22  23
ENDBRANCH  19  22
ENDBRANCH  17  19
ENDBRANCH   9  17
BRANCH   1  30
HETATM   30  C3  UNL     1       1.653 -37.528   4.266  1.00  0.00     0.217 C 
BRANCH  30  31
HETATM   31  O2  UNL     1       1.904 -37.393   2.904  1.00  0.00    -0.317 OA
BRANCH  31  32
HETATM   32  C2  UNL     1       2.424 -38.268   2.010  1.00  0.00     0.255 C 
HETATM   33  C1  UNL     1       3.161 -39.456   2.547  1.00  0.00     0.126 C 
HETATM   34  O1  UNL     1       2.282 -38.070   0.793  1.00  0.00    -0.266 OA
ENDBRANCH  31  32
ENDBRANCH  30  31
ENDBRANCH   1  30
BRANCH  10  35
HETATM   35  C26 UNL     1      -2.498 -36.722   2.524  1.00  0.00     0.161 C 
HETATM   36  O8  UNL     1      -3.519 -37.056   1.948  1.00  0.00    -0.292 OA
BRANCH  35  37
HETATM   37  C27 UNL     1      -1.304 -37.175   1.879  1.00  0.00    -0.041 C 
HETATM   38  C28 UNL     1      -1.163 -38.598   1.458  1.00  0.00     0.047 C 
HETATM   39  C29 UNL     1      -0.690 -36.321   0.795  1.00  0.00     0.047 C 
ENDBRANCH  35  37
ENDBRANCH  10  35
BRANCH   4  40
HETATM   40  O3  UNL     1       0.527 -35.425   8.146  1.00  0.00    -0.289 OA
BRANCH  40  41
HETATM   41  C8  UNL     1       0.383 -35.778   9.472  1.00  0.00     0.257 C 
HETATM   42  C9  UNL     1       0.198 -37.168   9.957  1.00  0.00     0.126 C 
HETATM   43  O4  UNL     1       0.408 -34.860  10.329  1.00  0.00    -0.266 OA
ENDBRANCH  40  41
ENDBRANCH   4  40
TORSDOF 14
ENDMDL
