MODEL 1
REMARK VINA RESULT: -10.820855723      0.000      0.000
REMARK  5 active torsions:
REMARK  status: ('A' for Active; 'I' for Inactive)
REMARK    1  A    between atoms: C4_4  and  N1_5 
REMARK       I    between atoms: N1_5  and  C5_7 
REMARK    2  A    between atoms: C5_7  and  C6_9 
REMARK    3  A    between atoms: C9_12  and  N2_13 
REMARK    4  A    between atoms: C11_18  and  N4_19 
REMARK    5  A    between atoms: N4_19  and  C12_21 
ROOT
HETATM    1  N2  UNL     1      -0.267  30.443  39.401  1.00  0.00    -0.337 N 
ATOM      2  H2  UNL     1      -0.932  30.120  40.103  1.00  0.00     0.167 HD
HETATM    3  C10 UNL     1       0.465  29.565  38.869  1.00  0.00     0.164 A 
HETATM    4  N3  UNL     1       0.345  28.251  39.239  1.00  0.00    -0.173 N 
ATOM      5  H3  UNL     1      -0.346  28.012  39.950  1.00  0.00     0.186 HD
HETATM    6  C11 UNL     1       1.084  27.265  38.719  1.00  0.00     0.685 A 
HETATM    7  N5  UNL     1       1.995  27.548  37.785  1.00  0.00    -0.175 N 
ATOM      8  H5  UNL     1       2.564  26.805  37.380  1.00  0.00     0.185 HD
HETATM    9  C18 UNL     1       2.156  28.821  37.384  1.00  0.00     0.174 A 
HETATM   10  N6  UNL     1       3.133  29.100  36.390  1.00  0.00    -0.079 NA
HETATM   11  C19 UNL     1       1.401  29.871  37.907  1.00  0.00     0.202 A 
HETATM   12  F2  UNL     1       1.647  31.092  37.434  1.00  0.00    -0.198 F 
ENDROOT
BRANCH   1  13
HETATM   13  C9  UNL     1      -0.260  31.813  39.129  1.00  0.00     0.072 A 
HETATM   14  C8  UNL     1      -1.165  32.371  38.238  1.00  0.00     0.034 A 
HETATM   15  C7  UNL     1      -1.144  33.733  37.964  1.00  0.00     0.019 A 
HETATM   16  C6  UNL     1      -0.223  34.533  38.580  1.00  0.00     0.035 A 
HETATM   17  C21 UNL     1       0.704  34.005  39.485  1.00  0.00     0.061 A 
HETATM   18  C20 UNL     1       0.675  32.655  39.748  1.00  0.00     0.144 A 
HETATM   19  F3  UNL     1       1.550  32.099  40.614  1.00  0.00    -0.204 F 
BRANCH  16  20
HETATM   20  C5  UNL     1      -0.190  35.989  38.313  1.00  0.00     0.256 C 
HETATM   21  N1  UNL     1       1.006  36.709  38.361  1.00  0.00    -0.321 N 
ATOM     22  H1  UNL     1       1.829  36.151  38.587  1.00  0.00     0.169 HD
HETATM   23  O1  UNL     1      -1.286  36.526  38.046  1.00  0.00    -0.267 OA
BRANCH  21  24
HETATM   24  C4  UNL     1       1.263  38.067  38.150  1.00  0.00     0.057 A 
HETATM   25  C3  UNL     1       0.503  39.063  38.695  1.00  0.00     0.039 A 
HETATM   26  C2  UNL     1       0.791  40.416  38.460  1.00  0.00    -0.042 A 
HETATM   27  C1  UNL     1      -0.047  41.484  39.063  1.00  0.00     0.049 C 
HETATM   28  C24 UNL     1       1.855  40.767  37.670  1.00  0.00     0.018 A 
HETATM   29  C23 UNL     1       2.607  39.760  37.130  1.00  0.00     0.046 A 
HETATM   30 BR1  UNL     1       2.222  42.612  37.369  1.00  0.00    -0.051 Br
HETATM   31  C22 UNL     1       2.344  38.431  37.346  1.00  0.00     0.062 A 
HETATM   32 CL2  UNL     1       3.381  37.220  36.599  1.00  0.00    -0.082 Cl
ENDBRANCH  21  24
ENDBRANCH  16  20
ENDBRANCH   1  13
BRANCH   6  33
HETATM   33  N4  UNL     1       0.890  26.042  39.142  1.00  0.00    -0.187 N 
ATOM     34  H4  UNL     1       0.051  25.534  38.861  1.00  0.00     0.184 HD
BRANCH  33  35
HETATM   35  C12 UNL     1       1.843  25.419  39.994  1.00  0.00     0.109 A 
HETATM   36  C13 UNL     1       2.578  26.224  40.819  1.00  0.00     0.145 A 
HETATM   37  F1  UNL     1       2.391  27.552  40.811  1.00  0.00    -0.204 F 
HETATM   38  C14 UNL     1       3.514  25.669  41.663  1.00  0.00     0.045 A 
HETATM   39  C15 UNL     1       3.700  24.301  41.665  1.00  0.00     0.005 A 
HETATM   40  C16 UNL     1       2.960  23.486  40.834  1.00  0.00     0.026 A 
HETATM   41  C17 UNL     1       2.035  24.068  40.004  1.00  0.00     0.064 A 
HETATM   42 CL1  UNL     1       1.086  23.034  38.939  1.00  0.00    -0.082 Cl
ENDBRANCH  33  35
ENDBRANCH   6  33
TORSDOF 5
ENDMDL
MODEL 2
REMARK VINA RESULT: -10.576238829      1.725      2.297
REMARK  5 active torsions:
REMARK  status: ('A' for Active; 'I' for Inactive)
REMARK    1  A    between atoms: C4_4  and  N1_5 
REMARK       I    between atoms: N1_5  and  C5_7 
REMARK    2  A    between atoms: C5_7  and  C6_9 
REMARK    3  A    between atoms: C9_12  and  N2_13 
REMARK    4  A    between atoms: C11_18  and  N4_19 
REMARK    5  A    between atoms: N4_19  and  C12_21 
ROOT
HETATM    1  N2  UNL     1       0.038  31.052  38.720  1.00  0.00    -0.337 N 
ATOM      2  H2  UNL     1      -0.737  30.658  39.253  1.00  0.00     0.167 HD
HETATM    3  C10 UNL     1       0.895  30.238  38.281  1.00  0.00     0.164 A 
HETATM    4  N3  UNL     1       0.759  28.897  38.526  1.00  0.00    -0.173 N 
ATOM      5  H3  UNL     1      -0.046  28.585  39.068  1.00  0.00     0.186 HD
HETATM    6  C11 UNL     1       1.625  27.974  38.091  1.00  0.00     0.685 A 
HETATM    7  N5  UNL     1       2.688  28.352  37.378  1.00  0.00    -0.175 N 
ATOM      8  H5  UNL     1       3.355  27.658  37.040  1.00  0.00     0.185 HD
HETATM    9  C18 UNL     1       2.871  29.657  37.109  1.00  0.00     0.174 A 
HETATM   10  N6  UNL     1       4.011  30.038  36.348  1.00  0.00    -0.079 NA
HETATM   11  C19 UNL     1       1.986  30.643  37.547  1.00  0.00     0.202 A 
HETATM   12  F2  UNL     1       2.269  31.903  37.220  1.00  0.00    -0.198 F 
ENDROOT
BRANCH   1  13
HETATM   13  C9  UNL     1       0.042  32.439  38.554  1.00  0.00     0.072 A 
HETATM   14  C8  UNL     1       0.603  33.274  39.510  1.00  0.00     0.034 A 
HETATM   15  C7  UNL     1       0.592  34.653  39.342  1.00  0.00     0.019 A 
HETATM   16  C6  UNL     1       0.025  35.194  38.222  1.00  0.00     0.035 A 
HETATM   17  C21 UNL     1      -0.547  34.382  37.237  1.00  0.00     0.061 A 
HETATM   18  C20 UNL     1      -0.533  33.019  37.414  1.00  0.00     0.144 A 
HETATM   19  F3  UNL     1      -1.074  32.194  36.491  1.00  0.00    -0.204 F 
BRANCH  16  20
HETATM   20  C5  UNL     1       0.014  36.660  38.017  1.00  0.00     0.256 C 
HETATM   21  N1  UNL     1       1.191  37.411  38.081  1.00  0.00    -0.321 N 
ATOM     22  H1  UNL     1       2.031  36.868  38.274  1.00  0.00     0.169 HD
HETATM   23  O1  UNL     1      -1.099  37.177  37.785  1.00  0.00    -0.267 OA
BRANCH  21  24
HETATM   24  C4  UNL     1       1.408  38.783  37.925  1.00  0.00     0.057 A 
HETATM   25  C3  UNL     1       2.203  39.305  36.944  1.00  0.00     0.039 A 
HETATM   26  C2  UNL     1       2.399  40.689  36.818  1.00  0.00    -0.042 A 
HETATM   27  C1  UNL     1       3.267  41.237  35.745  1.00  0.00     0.049 C 
HETATM   28  C24 UNL     1       1.786  41.554  37.689  1.00  0.00     0.018 A 
HETATM   29  C23 UNL     1       0.992  41.017  38.666  1.00  0.00     0.046 A 
HETATM   30 BR1  UNL     1       2.068  43.427  37.494  1.00  0.00    -0.051 Br
HETATM   31  C22 UNL     1       0.788  39.668  38.807  1.00  0.00     0.062 A 
HETATM   32 CL2  UNL     1      -0.255  39.091  40.103  1.00  0.00    -0.082 Cl
ENDBRANCH  21  24
ENDBRANCH  16  20
ENDBRANCH   1  13
BRANCH   6  33
HETATM   33  N4  UNL     1       1.402  26.717  38.380  1.00  0.00    -0.187 N 
ATOM     34  H4  UNL     1       0.779  26.163  37.793  1.00  0.00     0.184 HD
BRANCH  33  35
HETATM   35  C12 UNL     1       2.027  26.119  39.510  1.00  0.00     0.109 A 
HETATM   36  C13 UNL     1       3.207  25.460  39.306  1.00  0.00     0.145 A 
HETATM   37  F1  UNL     1       3.741  25.391  38.078  1.00  0.00    -0.204 F 
HETATM   38  C14 UNL     1       3.852  24.865  40.368  1.00  0.00     0.045 A 
HETATM   39  C15 UNL     1       3.295  24.941  41.629  1.00  0.00     0.005 A 
HETATM   40  C16 UNL     1       2.106  25.605  41.837  1.00  0.00     0.026 A 
HETATM   41  C17 UNL     1       1.487  26.189  40.760  1.00  0.00     0.064 A 
HETATM   42 CL1  UNL     1      -0.035  27.039  41.018  1.00  0.00    -0.082 Cl
ENDBRANCH  33  35
ENDBRANCH   6  33
TORSDOF 5
ENDMDL
MODEL 3
REMARK VINA RESULT: -10.551185272      0.670      1.144
REMARK  5 active torsions:
REMARK  status: ('A' for Active; 'I' for Inactive)
REMARK    1  A    between atoms: C4_4  and  N1_5 
REMARK       I    between atoms: N1_5  and  C5_7 
REMARK    2  A    between atoms: C5_7  and  C6_9 
REMARK    3  A    between atoms: C9_12  and  N2_13 
REMARK    4  A    between atoms: C11_18  and  N4_19 
REMARK    5  A    between atoms: N4_19  and  C12_21 
ROOT
HETATM    1  N2  UNL     1       0.004  30.372  39.099  1.00  0.00    -0.337 N 
ATOM      2  H2  UNL     1      -0.770  29.991  39.644  1.00  0.00     0.167 HD
HETATM    3  C10 UNL     1       0.861  29.547  38.680  1.00  0.00     0.164 A 
HETATM    4  N3  UNL     1       0.729  28.213  38.963  1.00  0.00    -0.173 N 
ATOM      5  H3  UNL     1      -0.075  27.915  39.516  1.00  0.00     0.186 HD
HETATM    6  C11 UNL     1       1.596  27.280  38.553  1.00  0.00     0.685 A 
HETATM    7  N5  UNL     1       2.657  27.641  37.827  1.00  0.00    -0.175 N 
ATOM      8  H5  UNL     1       3.325  26.939  37.508  1.00  0.00     0.185 HD
HETATM    9  C18 UNL     1       2.837  28.937  37.521  1.00  0.00     0.174 A 
HETATM   10  N6  UNL     1       3.974  29.300  36.748  1.00  0.00    -0.079 NA
HETATM   11  C19 UNL     1       1.950  29.933  37.933  1.00  0.00     0.202 A 
HETATM   12  F2  UNL     1       2.230  31.185  37.570  1.00  0.00    -0.198 F 
ENDROOT
BRANCH   1  13
HETATM   13  C9  UNL     1       0.004  31.753  38.893  1.00  0.00     0.072 A 
HETATM   14  C8  UNL     1       0.488  32.621  39.862  1.00  0.00     0.034 A 
HETATM   15  C7  UNL     1       0.475  33.995  39.655  1.00  0.00     0.019 A 
HETATM   16  C6  UNL     1      -0.019  34.497  38.484  1.00  0.00     0.035 A 
HETATM   17  C21 UNL     1      -0.513  33.652  37.485  1.00  0.00     0.061 A 
HETATM   18  C20 UNL     1      -0.496  32.294  37.701  1.00  0.00     0.144 A 
HETATM   19  F3  UNL     1      -0.963  31.437  36.766  1.00  0.00    -0.204 F 
BRANCH  16  20
HETATM   20  C5  UNL     1      -0.031  35.957  38.236  1.00  0.00     0.256 C 
HETATM   21  N1  UNL     1       1.143  36.712  38.288  1.00  0.00    -0.321 N 
ATOM     22  H1  UNL     1       1.983  36.177  38.503  1.00  0.00     0.169 HD
HETATM   23  O1  UNL     1      -1.144  36.464  37.981  1.00  0.00    -0.267 OA
BRANCH  21  24
HETATM   24  C4  UNL     1       1.358  38.080  38.094  1.00  0.00     0.057 A 
HETATM   25  C3  UNL     1       0.567  39.045  38.652  1.00  0.00     0.039 A 
HETATM   26  C2  UNL     1       0.813  40.409  38.434  1.00  0.00    -0.042 A 
HETATM   27  C1  UNL     1      -0.058  41.444  39.049  1.00  0.00     0.049 C 
HETATM   28  C24 UNL     1       1.866  40.803  37.649  1.00  0.00     0.018 A 
HETATM   29  C23 UNL     1       2.649  39.827  37.097  1.00  0.00     0.046 A 
HETATM   30 BR1  UNL     1       2.176  42.662  37.371  1.00  0.00    -0.051 Br
HETATM   31  C22 UNL     1       2.427  38.487  37.296  1.00  0.00     0.062 A 
HETATM   32 CL2  UNL     1       3.501  37.319  36.535  1.00  0.00    -0.082 Cl
ENDBRANCH  21  24
ENDBRANCH  16  20
ENDBRANCH   1  13
BRANCH   6  33
HETATM   33  N4  UNL     1       1.377  26.031  38.877  1.00  0.00    -0.187 N 
ATOM     34  H4  UNL     1       0.651  25.501  38.395  1.00  0.00     0.184 HD
BRANCH  33  35
HETATM   35  C12 UNL     1       2.147  25.410  39.899  1.00  0.00     0.109 A 
HETATM   36  C13 UNL     1       2.814  26.223  40.772  1.00  0.00     0.145 A 
HETATM   37  F1  UNL     1       2.733  27.556  40.653  1.00  0.00    -0.204 F 
HETATM   38  C14 UNL     1       3.574  25.671  41.780  1.00  0.00     0.045 A 
HETATM   39  C15 UNL     1       3.652  24.298  41.896  1.00  0.00     0.005 A 
HETATM   40  C16 UNL     1       2.980  23.475  41.017  1.00  0.00     0.026 A 
HETATM   41  C17 UNL     1       2.231  24.054  40.024  1.00  0.00     0.064 A 
HETATM   42 CL1  UNL     1       1.370  23.010  38.896  1.00  0.00    -0.082 Cl
ENDBRANCH  33  35
ENDBRANCH   6  33
TORSDOF 5
ENDMDL
MODEL 4
REMARK VINA RESULT: -10.420768630      1.458      1.800
REMARK  5 active torsions:
REMARK  status: ('A' for Active; 'I' for Inactive)
REMARK    1  A    between atoms: C4_4  and  N1_5 
REMARK       I    between atoms: N1_5  and  C5_7 
REMARK    2  A    between atoms: C5_7  and  C6_9 
REMARK    3  A    between atoms: C9_12  and  N2_13 
REMARK    4  A    between atoms: C11_18  and  N4_19 
REMARK    5  A    between atoms: N4_19  and  C12_21 
ROOT
HETATM    1  N2  UNL     1       0.179  30.667  38.872  1.00  0.00    -0.337 N 
ATOM      2  H2  UNL     1      -0.618  30.252  39.355  1.00  0.00     0.167 HD
HETATM    3  C10 UNL     1       1.052  29.870  38.432  1.00  0.00     0.164 A 
HETATM    4  N3  UNL     1       0.904  28.520  38.611  1.00  0.00    -0.173 N 
ATOM      5  H3  UNL     1       0.077  28.187  39.106  1.00  0.00     0.186 HD
HETATM    6  C11 UNL     1       1.786  27.615  38.172  1.00  0.00     0.685 A 
HETATM    7  N5  UNL     1       2.878  28.022  37.520  1.00  0.00    -0.175 N 
ATOM      8  H5  UNL     1       3.557  27.341  37.179  1.00  0.00     0.185 HD
HETATM    9  C18 UNL     1       3.074  29.336  37.316  1.00  0.00     0.174 A 
HETATM   10  N6  UNL     1       4.243  29.747  36.620  1.00  0.00    -0.079 NA
HETATM   11  C19 UNL     1       2.173  30.304  37.761  1.00  0.00     0.202 A 
HETATM   12  F2  UNL     1       2.470  31.577  37.502  1.00  0.00    -0.198 F 
ENDROOT
BRANCH   1  13
HETATM   13  C9  UNL     1       0.191  32.060  38.767  1.00  0.00     0.072 A 
HETATM   14  C8  UNL     1       0.713  32.850  39.782  1.00  0.00     0.034 A 
HETATM   15  C7  UNL     1       0.711  34.235  39.675  1.00  0.00     0.019 A 
HETATM   16  C6  UNL     1       0.191  34.827  38.558  1.00  0.00     0.035 A 
HETATM   17  C21 UNL     1      -0.342  34.061  37.516  1.00  0.00     0.061 A 
HETATM   18  C20 UNL     1      -0.336  32.691  37.632  1.00  0.00     0.144 A 
HETATM   19  F3  UNL     1      -0.840  31.910  36.652  1.00  0.00    -0.204 F 
BRANCH  16  20
HETATM   20  C5  UNL     1       0.190  36.301  38.417  1.00  0.00     0.256 C 
HETATM   21  N1  UNL     1       1.383  37.021  38.317  1.00  0.00    -0.321 N 
ATOM     22  H1  UNL     1       2.227  36.451  38.346  1.00  0.00     0.169 HD
HETATM   23  O1  UNL     1      -0.930  36.852  38.394  1.00  0.00    -0.267 OA
BRANCH  21  24
HETATM   24  C4  UNL     1       1.612  38.394  38.184  1.00  0.00     0.057 A 
HETATM   25  C3  UNL     1       0.609  39.300  37.982  1.00  0.00     0.039 A 
HETATM   26  C2  UNL     1       0.877  40.672  37.852  1.00  0.00    -0.042 A 
HETATM   27  C1  UNL     1      -0.226  41.642  37.633  1.00  0.00     0.049 C 
HETATM   28  C24 UNL     1       2.167  41.132  37.926  1.00  0.00     0.018 A 
HETATM   29  C23 UNL     1       3.160  40.214  38.128  1.00  0.00     0.046 A 
HETATM   30 BR1  UNL     1       2.501  42.999  37.746  1.00  0.00    -0.051 Br
HETATM   31  C22 UNL     1       2.921  38.869  38.258  1.00  0.00     0.062 A 
HETATM   32 CL2  UNL     1       4.280  37.778  38.516  1.00  0.00    -0.082 Cl
ENDBRANCH  21  24
ENDBRANCH  16  20
ENDBRANCH   1  13
BRANCH   6  33
HETATM   33  N4  UNL     1       1.551  26.347  38.396  1.00  0.00    -0.187 N 
ATOM     34  H4  UNL     1       0.924  25.831  37.779  1.00  0.00     0.184 HD
BRANCH  33  35
HETATM   35  C12 UNL     1       2.166  25.686  39.495  1.00  0.00     0.109 A 
HETATM   36  C13 UNL     1       3.297  24.960  39.244  1.00  0.00     0.145 A 
HETATM   37  F1  UNL     1       3.794  24.887  38.001  1.00  0.00    -0.204 F 
HETATM   38  C14 UNL     1       3.931  24.302  40.275  1.00  0.00     0.045 A 
HETATM   39  C15 UNL     1       3.414  24.383  41.552  1.00  0.00     0.005 A 
HETATM   40  C16 UNL     1       2.274  25.115  41.808  1.00  0.00     0.026 A 
HETATM   41  C17 UNL     1       1.664  25.760  40.761  1.00  0.00     0.064 A 
HETATM   42 CL1  UNL     1       0.206  26.696  41.078  1.00  0.00    -0.082 Cl
ENDBRANCH  33  35
ENDBRANCH   6  33
TORSDOF 5
ENDMDL
MODEL 5
REMARK VINA RESULT: -10.399657637      1.645      2.015
REMARK  5 active torsions:
REMARK  status: ('A' for Active; 'I' for Inactive)
REMARK    1  A    between atoms: C4_4  and  N1_5 
REMARK       I    between atoms: N1_5  and  C5_7 
REMARK    2  A    between atoms: C5_7  and  C6_9 
REMARK    3  A    between atoms: C9_12  and  N2_13 
REMARK    4  A    between atoms: C11_18  and  N4_19 
REMARK    5  A    between atoms: N4_19  and  C12_21 
ROOT
HETATM    1  N2  UNL     1      -0.045  31.079  38.695  1.00  0.00    -0.337 N 
ATOM      2  H2  UNL     1      -0.826  30.681  39.216  1.00  0.00     0.167 HD
HETATM    3  C10 UNL     1       0.828  30.270  38.278  1.00  0.00     0.164 A 
HETATM    4  N3  UNL     1       0.701  28.929  38.533  1.00  0.00    -0.173 N 
ATOM      5  H3  UNL     1      -0.111  28.614  39.063  1.00  0.00     0.186 HD
HETATM    6  C11 UNL     1       1.584  28.012  38.123  1.00  0.00     0.685 A 
HETATM    7  N5  UNL     1       2.657  28.395  37.426  1.00  0.00    -0.175 N 
ATOM      8  H5  UNL     1       3.337  27.705  37.107  1.00  0.00     0.185 HD
HETATM    9  C18 UNL     1       2.832  29.699  37.149  1.00  0.00     0.174 A 
HETATM   10  N6  UNL     1       3.981  30.085  36.406  1.00  0.00    -0.079 NA
HETATM   11  C19 UNL     1       1.929  30.679  37.561  1.00  0.00     0.202 A 
HETATM   12  F2  UNL     1       2.205  31.940  37.228  1.00  0.00    -0.198 F 
ENDROOT
BRANCH   1  13
HETATM   13  C9  UNL     1      -0.052  32.464  38.516  1.00  0.00     0.072 A 
HETATM   14  C8  UNL     1      -0.653  33.040  37.405  1.00  0.00     0.034 A 
HETATM   15  C7  UNL     1      -0.646  34.418  37.228  1.00  0.00     0.019 A 
HETATM   16  C6  UNL     1      -0.043  35.216  38.160  1.00  0.00     0.035 A 
HETATM   17  C21 UNL     1       0.571  34.670  39.292  1.00  0.00     0.061 A 
HETATM   18  C20 UNL     1       0.559  33.305  39.456  1.00  0.00     0.144 A 
HETATM   19  F3  UNL     1       1.139  32.731  40.533  1.00  0.00    -0.204 F 
BRANCH  16  20
HETATM   20  C5  UNL     1      -0.034  36.688  37.998  1.00  0.00     0.256 C 
HETATM   21  N1  UNL     1       1.160  37.413  38.015  1.00  0.00    -0.321 N 
ATOM     22  H1  UNL     1       1.998  36.847  38.142  1.00  0.00     0.169 HD
HETATM   23  O1  UNL     1      -1.148  37.233  37.848  1.00  0.00    -0.267 OA
BRANCH  21  24
HETATM   24  C4  UNL     1       1.397  38.785  37.887  1.00  0.00     0.057 A 
HETATM   25  C3  UNL     1       2.190  39.316  36.910  1.00  0.00     0.039 A 
HETATM   26  C2  UNL     1       2.406  40.699  36.813  1.00  0.00    -0.042 A 
HETATM   27  C1  UNL     1       3.272  41.258  35.742  1.00  0.00     0.049 C 
HETATM   28  C24 UNL     1       1.816  41.553  37.708  1.00  0.00     0.018 A 
HETATM   29  C23 UNL     1       1.025  41.008  38.682  1.00  0.00     0.046 A 
HETATM   30 BR1  UNL     1       2.127  43.426  37.552  1.00  0.00    -0.051 Br
HETATM   31  C22 UNL     1       0.800  39.659  38.796  1.00  0.00     0.062 A 
HETATM   32 CL2  UNL     1      -0.238  39.070  40.090  1.00  0.00    -0.082 Cl
ENDBRANCH  21  24
ENDBRANCH  16  20
ENDBRANCH   1  13
BRANCH   6  33
HETATM   33  N4  UNL     1       1.369  26.755  38.419  1.00  0.00    -0.187 N 
ATOM     34  H4  UNL     1       0.742  26.197  37.840  1.00  0.00     0.184 HD
BRANCH  33  35
HETATM   35  C12 UNL     1       2.008  26.164  39.544  1.00  0.00     0.109 A 
HETATM   36  C13 UNL     1       3.198  25.526  39.335  1.00  0.00     0.145 A 
HETATM   37  F1  UNL     1       3.729  25.471  38.105  1.00  0.00    -0.204 F 
HETATM   38  C14 UNL     1       3.856  24.938  40.392  1.00  0.00     0.045 A 
HETATM   39  C15 UNL     1       3.303  25.000  41.655  1.00  0.00     0.005 A 
HETATM   40  C16 UNL     1       2.102  25.643  41.870  1.00  0.00     0.026 A 
HETATM   41  C17 UNL     1       1.470  26.220  40.797  1.00  0.00     0.064 A 
HETATM   42 CL1  UNL     1      -0.065  27.043  41.062  1.00  0.00    -0.082 Cl
ENDBRANCH  33  35
ENDBRANCH   6  33
TORSDOF 5
ENDMDL
