MODEL 1
REMARK VINA RESULT: -8.924820021      0.000      0.000
REMARK  15 active torsions:
REMARK  status: ('A' for Active; 'I' for Inactive)
REMARK    1  A    between atoms: C2_3  and  N2_4 
REMARK    2  A    between atoms: C2_3  and  C3_8 
REMARK    3  A    between atoms: C3_8  and  C4_9 
REMARK    4  A    between atoms: C4_9  and  C5_10 
REMARK    5  A    between atoms: C5_10  and  N3_11 
REMARK    6  A    between atoms: N3_11  and  C6_12 
REMARK    7  A    between atoms: N3_11  and  C15_25 
REMARK    8  A    between atoms: C6_12  and  C7_13 
REMARK    9  A    between atoms: C7_13  and  C8_14 
REMARK   10  A    between atoms: C15_25  and  C16_26 
REMARK   11  A    between atoms: C17_29  and  N7_30 
REMARK   12  A    between atoms: C18_34  and  C19_35 
REMARK   13  A    between atoms: C19_35  and  C20_36 
REMARK   14  A    between atoms: C20_36  and  C21_37 
REMARK   15  A    between atoms: C24_40  and  C25_41 
ROOT
HETATM    1  N1  UNL     1       8.022  38.307  -4.011  1.00  0.00    -0.195 NA
HETATM    2  C1  UNL     1       9.183  38.298  -4.135  1.00  0.00     0.092 C 
HETATM    3  C2  UNL     1      10.632  38.291  -4.313  1.00  0.00     0.289 C 
ENDROOT
BRANCH   3   4
HETATM    4  N2  UNL     1      11.289  38.597  -3.084  1.00  0.00    -0.063 N 
ATOM      5  H23 UNL     1      11.661  39.547  -3.081  1.00  0.00     0.275 HD
ATOM      6  H22 UNL     1      10.628  38.689  -2.314  1.00  0.00     0.275 HD
ATOM      7  H21 UNL     1      12.012  37.906  -2.883  1.00  0.00     0.275 HD
ENDBRANCH   3   4
BRANCH   3   8
HETATM    8  C3  UNL     1      11.040  39.188  -5.469  1.00  0.00     0.049 C 
BRANCH   8   9
HETATM    9  C4  UNL     1      11.084  38.298  -6.712  1.00  0.00     0.033 C 
BRANCH   9  10
HETATM   10  C5  UNL     1      12.439  38.260  -7.315  1.00  0.00     0.273 C 
BRANCH  10  11
HETATM   11  N3  UNL     1      12.482  38.820  -8.668  1.00  0.00     0.094 N 
BRANCH  11  12
HETATM   12  C6  UNL     1      13.081  37.778  -9.529  1.00  0.00     0.277 C 
BRANCH  12  13
HETATM   13  C7  UNL     1      13.892  38.327 -10.657  1.00  0.00     0.069 C 
BRANCH  13  14
HETATM   14  C8  UNL     1      13.736  37.361 -11.805  1.00  0.00    -0.054 A 
HETATM   15  C9  UNL     1      13.239  36.109 -11.531  1.00  0.00     0.009 A 
HETATM   16  C10 UNL     1      13.097  35.223 -12.569  1.00  0.00     0.032 A 
HETATM   17  C11 UNL     1      13.445  35.576 -13.857  1.00  0.00     0.060 A 
HETATM   18  N4  UNL     1      13.397  34.899 -15.011  1.00  0.00    -0.351 N 
HETATM   19  C13 UNL     1      13.941  36.828 -14.125  1.00  0.00     0.060 A 
HETATM   20  C12 UNL     1      13.854  35.697 -16.001  1.00  0.00     0.181 A 
ATOM     21  H4  UNL     1      13.071  33.939 -15.125  1.00  0.00     0.166 HD
HETATM   22  N5  UNL     1      14.180  36.873 -15.436  1.00  0.00    -0.350 N 
ATOM     23  H5  UNL     1      14.556  37.679 -15.936  1.00  0.00     0.166 HD
HETATM   24  C14 UNL     1      14.081  37.716 -13.075  1.00  0.00     0.039 A 
ENDBRANCH  13  14
ENDBRANCH  12  13
ENDBRANCH  11  12
BRANCH  11  25
HETATM   25  C15 UNL     1      13.225  40.030  -8.745  1.00  0.00     0.330 C 
BRANCH  25  26
HETATM   26  C16 UNL     1      12.304  41.250  -8.757  1.00  0.00     0.052 A 
HETATM   27  N6  UNL     1      11.213  41.346  -9.482  1.00  0.00    -0.338 N 
HETATM   28  C17 UNL     1      10.457  42.437  -9.375  1.00  0.00     0.142 A 
ATOM     29  H6  UNL     1      10.948  40.594 -10.118  1.00  0.00     0.168 HD
HETATM   30  S1  UNL     1      11.293  43.371  -8.217  1.00  0.00    -0.057 SA
HETATM   31  C18 UNL     1      12.586  42.310  -7.921  1.00  0.00     0.011 A 
BRANCH  28  32
HETATM   32  N7  UNL     1       9.338  42.718 -10.013  1.00  0.00    -0.380 N 
ATOM     33  H72 UNL     1       8.889  42.208 -10.774  1.00  0.00     0.158 HD
ATOM     34  H71 UNL     1       8.707  43.505  -9.861  1.00  0.00     0.158 HD
ENDBRANCH  28  32
BRANCH  31  35
HETATM   35  C19 UNL     1      13.737  42.503  -6.975  1.00  0.00     0.053 C 
BRANCH  35  36
HETATM   36  C20 UNL     1      14.476  43.782  -7.181  1.00  0.00     0.043 C 
BRANCH  36  37
HETATM   37  C21 UNL     1      15.655  43.582  -8.085  1.00  0.00    -0.058 A 
HETATM   38  C22 UNL     1      15.694  42.571  -9.031  1.00  0.00     0.008 A 
HETATM   39  C23 UNL     1      16.774  42.381  -9.862  1.00  0.00     0.015 A 
HETATM   40  C24 UNL     1      17.877  43.229  -9.761  1.00  0.00     0.004 A 
HETATM   41  C26 UNL     1      17.823  44.217  -8.827  1.00  0.00     0.015 A 
HETATM   42  C27 UNL     1      16.736  44.411  -7.986  1.00  0.00     0.008 A 
BRANCH  40  43
HETATM   43  C25 UNL     1      19.011  43.021 -10.642  1.00  0.00     0.120 C 
HETATM   44  N8  UNL     1      19.681  43.988 -11.122  1.00  0.00    -0.387 N 
ATOM     45  H82 UNL     1      19.386  44.929 -10.860  1.00  0.00     0.157 HD
ATOM     46  H81 UNL     1      20.478  43.842 -11.741  1.00  0.00     0.157 HD
HETATM   47  N9  UNL     1      19.425  41.697 -11.009  1.00  0.00    -0.082 NA
ENDBRANCH  40  43
ENDBRANCH  36  37
ENDBRANCH  35  36
ENDBRANCH  31  35
ENDBRANCH  25  26
ENDBRANCH  11  25
ENDBRANCH  10  11
ENDBRANCH   9  10
ENDBRANCH   8   9
ENDBRANCH   3   8
TORSDOF 15
ENDMDL
MODEL 2
REMARK VINA RESULT: -8.822153005      2.033      7.018
REMARK  15 active torsions:
REMARK  status: ('A' for Active; 'I' for Inactive)
REMARK    1  A    between atoms: C2_3  and  N2_4 
REMARK    2  A    between atoms: C2_3  and  C3_8 
REMARK    3  A    between atoms: C3_8  and  C4_9 
REMARK    4  A    between atoms: C4_9  and  C5_10 
REMARK    5  A    between atoms: C5_10  and  N3_11 
REMARK    6  A    between atoms: N3_11  and  C6_12 
REMARK    7  A    between atoms: N3_11  and  C15_25 
REMARK    8  A    between atoms: C6_12  and  C7_13 
REMARK    9  A    between atoms: C7_13  and  C8_14 
REMARK   10  A    between atoms: C15_25  and  C16_26 
REMARK   11  A    between atoms: C17_29  and  N7_30 
REMARK   12  A    between atoms: C18_34  and  C19_35 
REMARK   13  A    between atoms: C19_35  and  C20_36 
REMARK   14  A    between atoms: C20_36  and  C21_37 
REMARK   15  A    between atoms: C24_40  and  C25_41 
ROOT
HETATM    1  N1  UNL     1       8.983  42.093  -5.646  1.00  0.00    -0.195 NA
HETATM    2  C1  UNL     1       8.875  43.059  -6.291  1.00  0.00     0.092 C 
HETATM    3  C2  UNL     1       8.756  44.277  -7.088  1.00  0.00     0.289 C 
ENDROOT
BRANCH   3   4
HETATM    4  N2  UNL     1       8.122  44.001  -8.336  1.00  0.00    -0.063 N 
ATOM      5  H23 UNL     1       8.802  43.874  -9.086  1.00  0.00     0.275 HD
ATOM      6  H22 UNL     1       7.704  43.070  -8.350  1.00  0.00     0.275 HD
ATOM      7  H21 UNL     1       7.440  44.725  -8.559  1.00  0.00     0.275 HD
ENDBRANCH   3   4
BRANCH   3   8
HETATM    8  C3  UNL     1      10.102  44.969  -7.222  1.00  0.00     0.049 C 
BRANCH   8   9
HETATM    9  C4  UNL     1      10.790  44.343  -8.437  1.00  0.00     0.033 C 
BRANCH   9  10
HETATM   10  C5  UNL     1      12.197  43.971  -8.143  1.00  0.00     0.273 C 
BRANCH  10  11
HETATM   11  N3  UNL     1      12.318  42.692  -7.441  1.00  0.00     0.094 N 
BRANCH  11  12
HETATM   12  C6  UNL     1      13.764  42.472  -7.226  1.00  0.00     0.277 C 
BRANCH  12  13
HETATM   13  C7  UNL     1      14.614  43.625  -7.652  1.00  0.00     0.069 C 
BRANCH  13  14
HETATM   14  C8  UNL     1      15.646  43.067  -8.601  1.00  0.00    -0.054 A 
HETATM   15  C9  UNL     1      16.803  43.786  -8.790  1.00  0.00     0.009 A 
HETATM   16  C10 UNL     1      17.745  43.288  -9.655  1.00  0.00     0.032 A 
HETATM   17  C11 UNL     1      17.540  42.096 -10.320  1.00  0.00     0.060 A 
HETATM   18  N4  UNL     1      18.296  41.420 -11.194  1.00  0.00    -0.351 N 
HETATM   19  C13 UNL     1      16.382  41.383 -10.126  1.00  0.00     0.060 A 
HETATM   20  C12 UNL     1      17.640  40.297 -11.557  1.00  0.00     0.181 A 
ATOM     21  H4  UNL     1      19.216  41.706 -11.530  1.00  0.00     0.166 HD
HETATM   22  N5  UNL     1      16.472  40.294 -10.891  1.00  0.00    -0.350 N 
ATOM     23  H5  UNL     1      15.760  39.567 -10.961  1.00  0.00     0.166 HD
HETATM   24  C14 UNL     1      15.437  41.890  -9.254  1.00  0.00     0.039 A 
ENDBRANCH  13  14
ENDBRANCH  12  13
ENDBRANCH  11  12
BRANCH  11  25
HETATM   25  C15 UNL     1      11.743  41.608  -8.159  1.00  0.00     0.330 C 
BRANCH  25  26
HETATM   26  C16 UNL     1      11.823  40.305  -7.362  1.00  0.00     0.052 A 
HETATM   27  N6  UNL     1      11.366  40.157  -6.139  1.00  0.00    -0.338 N 
HETATM   28  C17 UNL     1      11.444  38.962  -5.559  1.00  0.00     0.142 A 
ATOM     29  H6  UNL     1      10.957  40.948  -5.642  1.00  0.00     0.168 HD
HETATM   30  S1  UNL     1      12.180  37.998  -6.759  1.00  0.00    -0.057 SA
HETATM   31  C18 UNL     1      12.357  39.184  -7.963  1.00  0.00     0.011 A 
BRANCH  28  32
HETATM   32  N7  UNL     1      11.047  38.617  -4.349  1.00  0.00    -0.380 N 
ATOM     33  H72 UNL     1      11.278  39.045  -3.453  1.00  0.00     0.158 HD
ATOM     34  H71 UNL     1      10.427  37.851  -4.085  1.00  0.00     0.158 HD
ENDBRANCH  28  32
BRANCH  31  35
HETATM   35  C19 UNL     1      12.949  39.023  -9.333  1.00  0.00     0.053 C 
BRANCH  35  36
HETATM   36  C20 UNL     1      13.757  37.780  -9.497  1.00  0.00     0.043 C 
BRANCH  36  37
HETATM   37  C21 UNL     1      13.716  37.294 -10.915  1.00  0.00    -0.058 A 
HETATM   38  C22 UNL     1      14.040  38.115 -11.983  1.00  0.00     0.008 A 
HETATM   39  C23 UNL     1      14.003  37.675 -13.286  1.00  0.00     0.015 A 
HETATM   40  C24 UNL     1      13.627  36.360 -13.559  1.00  0.00     0.004 A 
HETATM   41  C26 UNL     1      13.312  35.567 -12.499  1.00  0.00     0.015 A 
HETATM   42  C27 UNL     1      13.348  36.006 -11.182  1.00  0.00     0.008 A 
BRANCH  40  43
HETATM   43  C25 UNL     1      13.591  35.907 -14.936  1.00  0.00     0.120 C 
HETATM   44  N8  UNL     1      12.900  34.904 -15.300  1.00  0.00    -0.387 N 
ATOM     45  H82 UNL     1      12.365  34.424 -14.576  1.00  0.00     0.157 HD
ATOM     46  H81 UNL     1      12.874  34.585 -16.269  1.00  0.00     0.157 HD
HETATM   47  N9  UNL     1      14.344  36.582 -15.954  1.00  0.00    -0.082 NA
ENDBRANCH  40  43
ENDBRANCH  36  37
ENDBRANCH  35  36
ENDBRANCH  31  35
ENDBRANCH  25  26
ENDBRANCH  11  25
ENDBRANCH  10  11
ENDBRANCH   9  10
ENDBRANCH   8   9
ENDBRANCH   3   8
TORSDOF 15
ENDMDL
MODEL 3
REMARK VINA RESULT: -8.786888800      1.539      2.402
REMARK  15 active torsions:
REMARK  status: ('A' for Active; 'I' for Inactive)
REMARK    1  A    between atoms: C2_3  and  N2_4 
REMARK    2  A    between atoms: C2_3  and  C3_8 
REMARK    3  A    between atoms: C3_8  and  C4_9 
REMARK    4  A    between atoms: C4_9  and  C5_10 
REMARK    5  A    between atoms: C5_10  and  N3_11 
REMARK    6  A    between atoms: N3_11  and  C6_12 
REMARK    7  A    between atoms: N3_11  and  C15_25 
REMARK    8  A    between atoms: C6_12  and  C7_13 
REMARK    9  A    between atoms: C7_13  and  C8_14 
REMARK   10  A    between atoms: C15_25  and  C16_26 
REMARK   11  A    between atoms: C17_29  and  N7_30 
REMARK   12  A    between atoms: C18_34  and  C19_35 
REMARK   13  A    between atoms: C19_35  and  C20_36 
REMARK   14  A    between atoms: C20_36  and  C21_37 
REMARK   15  A    between atoms: C24_40  and  C25_41 
ROOT
HETATM    1  N1  UNL     1       8.749  36.066  -1.716  1.00  0.00    -0.195 NA
HETATM    2  C1  UNL     1       9.240  37.000  -2.215  1.00  0.00     0.092 C 
HETATM    3  C2  UNL     1       9.851  38.159  -2.860  1.00  0.00     0.289 C 
ENDROOT
BRANCH   3   4
HETATM    4  N2  UNL     1       9.704  39.321  -2.046  1.00  0.00    -0.063 N 
ATOM      5  H23 UNL     1       9.706  39.090  -1.052  1.00  0.00     0.275 HD
ATOM      6  H22 UNL     1      10.539  39.906  -2.067  1.00  0.00     0.275 HD
ATOM      7  H21 UNL     1       8.869  39.842  -2.313  1.00  0.00     0.275 HD
ENDBRANCH   3   4
BRANCH   3   8
HETATM    8  C3  UNL     1       9.326  38.329  -4.276  1.00  0.00     0.049 C 
BRANCH   8   9
HETATM    9  C4  UNL     1      10.369  39.158  -5.026  1.00  0.00     0.033 C 
BRANCH   9  10
HETATM   10  C5  UNL     1      11.195  38.317  -5.929  1.00  0.00     0.273 C 
BRANCH  10  11
HETATM   11  N3  UNL     1      11.490  38.968  -7.208  1.00  0.00     0.094 N 
BRANCH  11  12
HETATM   12  C6  UNL     1      12.230  37.975  -8.017  1.00  0.00     0.277 C 
BRANCH  12  13
HETATM   13  C7  UNL     1      13.533  38.482  -8.542  1.00  0.00     0.069 C 
BRANCH  13  14
HETATM   14  C8  UNL     1      13.599  38.068  -9.992  1.00  0.00    -0.054 A 
HETATM   15  C9  UNL     1      13.980  39.013 -10.915  1.00  0.00     0.009 A 
HETATM   16  C10 UNL     1      14.038  38.645 -12.236  1.00  0.00     0.032 A 
HETATM   17  C11 UNL     1      13.723  37.361 -12.632  1.00  0.00     0.060 A 
HETATM   18  N4  UNL     1      13.706  36.777 -13.836  1.00  0.00    -0.351 N 
HETATM   19  C13 UNL     1      13.343  36.422 -11.704  1.00  0.00     0.060 A 
HETATM   20  C12 UNL     1      13.322  35.490 -13.689  1.00  0.00     0.181 A 
ATOM     21  H4  UNL     1      13.943  37.228 -14.719  1.00  0.00     0.166 HD
HETATM   22  N5  UNL     1      13.106  35.294 -12.376  1.00  0.00    -0.350 N 
ATOM     23  H5  UNL     1      12.805  34.415 -11.956  1.00  0.00     0.166 HD
HETATM   24  C14 UNL     1      13.286  36.798 -10.375  1.00  0.00     0.039 A 
ENDBRANCH  13  14
ENDBRANCH  12  13
ENDBRANCH  11  12
BRANCH  11  25
HETATM   25  C15 UNL     1      12.246  40.164  -7.061  1.00  0.00     0.330 C 
BRANCH  25  26
HETATM   26  C16 UNL     1      11.868  41.196  -8.123  1.00  0.00     0.052 A 
HETATM   27  N6  UNL     1      10.675  41.300  -8.662  1.00  0.00    -0.338 N 
HETATM   28  C17 UNL     1      10.443  42.272  -9.543  1.00  0.00     0.142 A 
ATOM     29  H6  UNL     1       9.935  40.645  -8.409  1.00  0.00     0.168 HD
HETATM   30  S1  UNL     1      11.943  43.080  -9.626  1.00  0.00    -0.057 SA
HETATM   31  C18 UNL     1      12.808  42.125  -8.519  1.00  0.00     0.011 A 
BRANCH  28  32
HETATM   32  N7  UNL     1       9.324  42.535 -10.187  1.00  0.00    -0.380 N 
ATOM     33  H72 UNL     1       8.427  42.051 -10.140  1.00  0.00     0.158 HD
ATOM     34  H71 UNL     1       9.146  43.281 -10.860  1.00  0.00     0.158 HD
ENDBRANCH  28  32
BRANCH  31  35
HETATM   35  C19 UNL     1      14.239  42.279  -8.091  1.00  0.00     0.053 C 
BRANCH  35  36
HETATM   36  C20 UNL     1      15.222  42.035  -9.186  1.00  0.00     0.043 C 
BRANCH  36  37
HETATM   37  C21 UNL     1      16.407  42.944  -9.058  1.00  0.00    -0.058 A 
HETATM   38  C22 UNL     1      16.492  43.909  -8.067  1.00  0.00     0.008 A 
HETATM   39  C23 UNL     1      17.575  44.747  -7.946  1.00  0.00     0.015 A 
HETATM   40  C24 UNL     1      18.636  44.636  -8.844  1.00  0.00     0.004 A 
HETATM   41  C26 UNL     1      18.539  43.683  -9.812  1.00  0.00     0.015 A 
HETATM   42  C27 UNL     1      17.446  42.836  -9.938  1.00  0.00     0.008 A 
BRANCH  40  43
HETATM   43  C25 UNL     1      19.774  45.524  -8.708  1.00  0.00     0.120 C 
HETATM   44  N8  UNL     1      20.956  45.089  -8.539  1.00  0.00    -0.387 N 
ATOM     45  H82 UNL     1      21.075  44.076  -8.503  1.00  0.00     0.157 HD
ATOM     46  H81 UNL     1      21.757  45.714  -8.444  1.00  0.00     0.157 HD
HETATM   47  N9  UNL     1      19.606  46.948  -8.758  1.00  0.00    -0.082 NA
ENDBRANCH  40  43
ENDBRANCH  36  37
ENDBRANCH  35  36
ENDBRANCH  31  35
ENDBRANCH  25  26
ENDBRANCH  11  25
ENDBRANCH  10  11
ENDBRANCH   9  10
ENDBRANCH   8   9
ENDBRANCH   3   8
TORSDOF 15
ENDMDL
MODEL 4
REMARK VINA RESULT: -8.723737294      1.611      2.117
REMARK  15 active torsions:
REMARK  status: ('A' for Active; 'I' for Inactive)
REMARK    1  A    between atoms: C2_3  and  N2_4 
REMARK    2  A    between atoms: C2_3  and  C3_8 
REMARK    3  A    between atoms: C3_8  and  C4_9 
REMARK    4  A    between atoms: C4_9  and  C5_10 
REMARK    5  A    between atoms: C5_10  and  N3_11 
REMARK    6  A    between atoms: N3_11  and  C6_12 
REMARK    7  A    between atoms: N3_11  and  C15_25 
REMARK    8  A    between atoms: C6_12  and  C7_13 
REMARK    9  A    between atoms: C7_13  and  C8_14 
REMARK   10  A    between atoms: C15_25  and  C16_26 
REMARK   11  A    between atoms: C17_29  and  N7_30 
REMARK   12  A    between atoms: C18_34  and  C19_35 
REMARK   13  A    between atoms: C19_35  and  C20_36 
REMARK   14  A    between atoms: C20_36  and  C21_37 
REMARK   15  A    between atoms: C24_40  and  C25_41 
ROOT
HETATM    1  N1  UNL     1       7.818  38.986  -3.577  1.00  0.00    -0.195 NA
HETATM    2  C1  UNL     1       8.919  38.724  -3.864  1.00  0.00     0.092 C 
HETATM    3  C2  UNL     1      10.291  38.400  -4.244  1.00  0.00     0.289 C 
ENDROOT
BRANCH   3   4
HETATM    4  N2  UNL     1      11.162  38.506  -3.119  1.00  0.00    -0.063 N 
ATOM      5  H23 UNL     1      11.190  39.457  -2.751  1.00  0.00     0.275 HD
ATOM      6  H22 UNL     1      10.779  38.036  -2.299  1.00  0.00     0.275 HD
ATOM      7  H21 UNL     1      12.093  38.162  -3.353  1.00  0.00     0.275 HD
ENDBRANCH   3   4
BRANCH   3   8
HETATM    8  C3  UNL     1      10.730  39.226  -5.442  1.00  0.00     0.049 C 
BRANCH   8   9
HETATM    9  C4  UNL     1      11.115  38.229  -6.536  1.00  0.00     0.033 C 
BRANCH   9  10
HETATM   10  C5  UNL     1      12.471  38.501  -7.076  1.00  0.00     0.273 C 
BRANCH  10  11
HETATM   11  N3  UNL     1      12.446  39.089  -8.417  1.00  0.00     0.094 N 
BRANCH  11  12
HETATM   12  C6  UNL     1      12.943  38.044  -9.337  1.00  0.00     0.277 C 
BRANCH  12  13
HETATM   13  C7  UNL     1      13.759  38.580 -10.468  1.00  0.00     0.069 C 
BRANCH  13  14
HETATM   14  C8  UNL     1      13.648  37.576 -11.589  1.00  0.00    -0.054 A 
HETATM   15  C9  UNL     1      13.237  36.302 -11.274  1.00  0.00     0.009 A 
HETATM   16  C10 UNL     1      13.137  35.382 -12.287  1.00  0.00     0.032 A 
HETATM   17  C11 UNL     1      13.442  35.722 -13.589  1.00  0.00     0.060 A 
HETATM   18  N4  UNL     1      13.422  35.013 -14.725  1.00  0.00    -0.351 N 
HETATM   19  C13 UNL     1      13.853  36.996 -13.897  1.00  0.00     0.060 A 
HETATM   20  C12 UNL     1      13.811  35.812 -15.742  1.00  0.00     0.181 A 
ATOM     21  H4  UNL     1      13.156  34.031 -14.809  1.00  0.00     0.166 HD
HETATM   22  N5  UNL     1      14.070  37.021 -15.213  1.00  0.00    -0.350 N 
ATOM     23  H5  UNL     1      14.385  37.836 -15.739  1.00  0.00     0.166 HD
HETATM   24  C14 UNL     1      13.951  37.919 -12.873  1.00  0.00     0.039 A 
ENDBRANCH  13  14
ENDBRANCH  12  13
ENDBRANCH  11  12
BRANCH  11  25
HETATM   25  C15 UNL     1      13.233  40.270  -8.521  1.00  0.00     0.330 C 
BRANCH  25  26
HETATM   26  C16 UNL     1      12.391  41.463  -8.975  1.00  0.00     0.052 A 
HETATM   27  N6  UNL     1      11.145  41.377  -9.382  1.00  0.00    -0.338 N 
HETATM   28  C17 UNL     1      10.490  42.490  -9.706  1.00  0.00     0.142 A 
ATOM     29  H6  UNL     1      10.685  40.469  -9.449  1.00  0.00     0.168 HD
HETATM   30  S1  UNL     1      11.650  43.711  -9.431  1.00  0.00    -0.057 SA
HETATM   31  C18 UNL     1      12.934  42.729  -8.910  1.00  0.00     0.011 A 
BRANCH  28  32
HETATM   32  N7  UNL     1       9.249  42.609 -10.133  1.00  0.00    -0.380 N 
ATOM     33  H72 UNL     1       8.718  43.456 -10.333  1.00  0.00     0.158 HD
ATOM     34  H71 UNL     1       8.583  41.866 -10.345  1.00  0.00     0.158 HD
ENDBRANCH  28  32
BRANCH  31  35
HETATM   35  C19 UNL     1      14.309  43.160  -8.487  1.00  0.00     0.053 C 
BRANCH  35  36
HETATM   36  C20 UNL     1      15.153  43.663  -9.609  1.00  0.00     0.043 C 
BRANCH  36  37
HETATM   37  C21 UNL     1      15.652  42.531 -10.456  1.00  0.00    -0.058 A 
HETATM   38  C22 UNL     1      15.145  42.280 -11.722  1.00  0.00     0.008 A 
HETATM   39  C23 UNL     1      15.598  41.243 -12.502  1.00  0.00     0.015 A 
HETATM   40  C24 UNL     1      16.602  40.404 -12.020  1.00  0.00     0.004 A 
HETATM   41  C26 UNL     1      17.089  40.663 -10.776  1.00  0.00     0.015 A 
HETATM   42  C27 UNL     1      16.635  41.709  -9.984  1.00  0.00     0.008 A 
BRANCH  40  43
HETATM   43  C25 UNL     1      17.071  39.312 -12.851  1.00  0.00     0.120 C 
HETATM   44  N8  UNL     1      17.431  38.195 -12.362  1.00  0.00    -0.387 N 
ATOM     45  H82 UNL     1      17.375  38.095 -11.349  1.00  0.00     0.157 HD
ATOM     46  H81 UNL     1      17.761  37.427 -12.947  1.00  0.00     0.157 HD
HETATM   47  N9  UNL     1      17.149  39.453 -14.277  1.00  0.00    -0.082 NA
ENDBRANCH  40  43
ENDBRANCH  36  37
ENDBRANCH  35  36
ENDBRANCH  31  35
ENDBRANCH  25  26
ENDBRANCH  11  25
ENDBRANCH  10  11
ENDBRANCH   9  10
ENDBRANCH   8   9
ENDBRANCH   3   8
TORSDOF 15
ENDMDL
MODEL 5
REMARK VINA RESULT: -8.571857081      1.280      1.915
REMARK  15 active torsions:
REMARK  status: ('A' for Active; 'I' for Inactive)
REMARK    1  A    between atoms: C2_3  and  N2_4 
REMARK    2  A    between atoms: C2_3  and  C3_8 
REMARK    3  A    between atoms: C3_8  and  C4_9 
REMARK    4  A    between atoms: C4_9  and  C5_10 
REMARK    5  A    between atoms: C5_10  and  N3_11 
REMARK    6  A    between atoms: N3_11  and  C6_12 
REMARK    7  A    between atoms: N3_11  and  C15_25 
REMARK    8  A    between atoms: C6_12  and  C7_13 
REMARK    9  A    between atoms: C7_13  and  C8_14 
REMARK   10  A    between atoms: C15_25  and  C16_26 
REMARK   11  A    between atoms: C17_29  and  N7_30 
REMARK   12  A    between atoms: C18_34  and  C19_35 
REMARK   13  A    between atoms: C19_35  and  C20_36 
REMARK   14  A    between atoms: C20_36  and  C21_37 
REMARK   15  A    between atoms: C24_40  and  C25_41 
ROOT
HETATM    1  N1  UNL     1       8.306  40.403  -3.326  1.00  0.00    -0.195 NA
HETATM    2  C1  UNL     1       9.010  39.477  -3.415  1.00  0.00     0.092 C 
HETATM    3  C2  UNL     1       9.881  38.312  -3.545  1.00  0.00     0.289 C 
ENDROOT
BRANCH   3   4
HETATM    4  N2  UNL     1      11.090  38.506  -2.813  1.00  0.00    -0.063 N 
ATOM      5  H23 UNL     1      11.548  37.619  -2.597  1.00  0.00     0.275 HD
ATOM      6  H22 UNL     1      11.822  38.918  -3.391  1.00  0.00     0.275 HD
ATOM      7  H21 UNL     1      10.916  39.057  -1.972  1.00  0.00     0.275 HD
ENDBRANCH   3   4
BRANCH   3   8
HETATM    8  C3  UNL     1      10.098  37.960  -5.008  1.00  0.00     0.049 C 
BRANCH   8   9
HETATM    9  C4  UNL     1      11.078  38.996  -5.560  1.00  0.00     0.033 C 
BRANCH   9  10
HETATM   10  C5  UNL     1      11.620  38.592  -6.882  1.00  0.00     0.273 C 
BRANCH  10  11
HETATM   11  N3  UNL     1      12.023  39.731  -7.710  1.00  0.00     0.094 N 
BRANCH  11  12
HETATM   12  C6  UNL     1      13.036  39.217  -8.657  1.00  0.00     0.277 C 
BRANCH  12  13
HETATM   13  C7  UNL     1      12.878  37.766  -8.973  1.00  0.00     0.069 C 
BRANCH  13  14
HETATM   14  C8  UNL     1      13.239  37.604 -10.429  1.00  0.00    -0.054 A 
HETATM   15  C9  UNL     1      13.697  38.710 -11.106  1.00  0.00     0.009 A 
HETATM   16  C10 UNL     1      14.024  38.572 -12.431  1.00  0.00     0.032 A 
HETATM   17  C11 UNL     1      13.897  37.357 -13.073  1.00  0.00     0.060 A 
HETATM   18  N4  UNL     1      14.148  36.983 -14.333  1.00  0.00    -0.351 N 
HETATM   19  C13 UNL     1      13.439  36.256 -12.391  1.00  0.00     0.060 A 
HETATM   20  C12 UNL     1      13.857  35.670 -14.462  1.00  0.00     0.181 A 
ATOM     21  H4  UNL     1      14.501  37.588 -15.074  1.00  0.00     0.166 HD
HETATM   22  N5  UNL     1      13.425  35.246 -13.261  1.00  0.00    -0.350 N 
ATOM     23  H5  UNL     1      13.131  34.293 -13.047  1.00  0.00     0.166 HD
HETATM   24  C14 UNL     1      13.111  36.401 -11.056  1.00  0.00     0.039 A 
ENDBRANCH  13  14
ENDBRANCH  12  13
ENDBRANCH  11  12
BRANCH  11  25
HETATM   25  C15 UNL     1      12.544  40.814  -6.949  1.00  0.00     0.330 C 
BRANCH  25  26
HETATM   26  C16 UNL     1      12.193  42.160  -7.583  1.00  0.00     0.052 A 
HETATM   27  N6  UNL     1      11.035  42.436  -8.140  1.00  0.00    -0.338 N 
HETATM   28  C17 UNL     1      10.820  43.661  -8.616  1.00  0.00     0.142 A 
ATOM     29  H6  UNL     1      10.311  41.721  -8.207  1.00  0.00     0.168 HD
HETATM   30  S1  UNL     1      12.284  44.468  -8.274  1.00  0.00    -0.057 SA
HETATM   31  C18 UNL     1      13.114  43.186  -7.531  1.00  0.00     0.011 A 
BRANCH  28  32
HETATM   32  N7  UNL     1       9.736  44.126  -9.205  1.00  0.00    -0.380 N 
ATOM     33  H72 UNL     1       9.351  43.886 -10.119  1.00  0.00     0.158 HD
ATOM     34  H71 UNL     1       9.076  44.818  -8.852  1.00  0.00     0.158 HD
ENDBRANCH  28  32
BRANCH  31  35
HETATM   35  C19 UNL     1      14.504  43.195  -6.963  1.00  0.00     0.053 C 
BRANCH  35  36
HETATM   36  C20 UNL     1      15.465  44.029  -7.742  1.00  0.00     0.043 C 
BRANCH  36  37
HETATM   37  C21 UNL     1      16.132  43.221  -8.814  1.00  0.00    -0.058 A 
HETATM   38  C22 UNL     1      15.592  42.034  -9.285  1.00  0.00     0.008 A 
HETATM   39  C23 UNL     1      16.200  41.288 -10.267  1.00  0.00     0.015 A 
HETATM   40  C24 UNL     1      17.404  41.726 -10.820  1.00  0.00     0.004 A 
HETATM   41  C26 UNL     1      17.920  42.893 -10.348  1.00  0.00     0.015 A 
HETATM   42  C27 UNL     1      17.310  43.650  -9.356  1.00  0.00     0.008 A 
BRANCH  40  43
HETATM   43  C25 UNL     1      18.037  40.932 -11.855  1.00  0.00     0.120 C 
HETATM   44  N8  UNL     1      19.299  40.800 -11.930  1.00  0.00    -0.387 N 
ATOM     45  H82 UNL     1      19.856  41.282 -11.224  1.00  0.00     0.157 HD
ATOM     46  H81 UNL     1      19.744  40.241 -12.657  1.00  0.00     0.157 HD
HETATM   47  N9  UNL     1      17.252  40.255 -12.847  1.00  0.00    -0.082 NA
ENDBRANCH  40  43
ENDBRANCH  36  37
ENDBRANCH  35  36
ENDBRANCH  31  35
ENDBRANCH  25  26
ENDBRANCH  11  25
ENDBRANCH  10  11
ENDBRANCH   9  10
ENDBRANCH   8   9
ENDBRANCH   3   8
TORSDOF 15
ENDMDL
