MODEL 1
REMARK VINA RESULT: -6.035271696      0.000      0.000
REMARK  13 active torsions:
REMARK  status: ('A' for Active; 'I' for Inactive)
REMARK    1  A    between atoms: O1_2  and  C2_3 
REMARK    2  A    between atoms: C3_5  and  C4_6 
REMARK    3  A    between atoms: C4_6  and  O3_7 
REMARK    4  A    between atoms: C5_9  and  O4_10 
REMARK    5  A    between atoms: C6_12  and  O5_13 
REMARK    6  A    between atoms: C7_15  and  O6_16 
REMARK    7  A    between atoms: O6_16  and  C8_17 
REMARK    8  A    between atoms: C9_18  and  O7_19 
REMARK    9  A    between atoms: C10_21  and  O8_22 
REMARK   10  A    between atoms: C11_24  and  O9_25 
REMARK   11  A    between atoms: C12_27  and  C13_28 
REMARK   12  A    between atoms: C13_28  and  O10_29 
REMARK   13  A    between atoms: O10_29  and  C14_30 
ROOT
HETATM    1  C8  UNL     1      -1.993 -37.854 -11.467  1.00  0.00     0.162 C 
HETATM    2  C9  UNL     1      -3.390 -38.501 -11.092  1.00  0.00     0.178 C 
HETATM    3  C10 UNL     1      -3.880 -37.534 -10.042  1.00  0.00     0.178 C 
HETATM    4  C11 UNL     1      -2.679 -36.917  -9.410  1.00  0.00     0.158 C 
HETATM    5  C12 UNL     1      -1.510 -37.632 -10.094  1.00  0.00     0.072 C 
ENDROOT
BRANCH   1   6
HETATM    6  O6  UNL     1      -2.200 -36.745 -12.186  1.00  0.00    -0.370 OA
BRANCH   6   7
HETATM    7  C7  UNL     1      -2.286 -36.846 -13.547  1.00  0.00     0.208 C 
HETATM    8  C2  UNL     1      -3.421 -35.975 -14.095  1.00  0.00     0.291 C 
HETATM    9  O2  UNL     1      -2.973 -34.905 -14.790  1.00  0.00    -0.349 OA
HETATM   10  C3  UNL     1      -1.867 -34.238 -14.431  1.00  0.00     0.179 C 
HETATM   11  C5  UNL     1      -0.666 -35.009 -14.014  1.00  0.00     0.180 C 
HETATM   12  C6  UNL     1      -0.995 -36.478 -14.197  1.00  0.00     0.183 C 
BRANCH   8  13
HETATM   13  O1  UNL     1      -4.123 -36.769 -15.002  1.00  0.00    -0.363 OA
HETATM   14  C1  UNL     1      -4.781 -37.813 -14.325  1.00  0.00     0.204 C 
ENDBRANCH   8  13
BRANCH  10  15
HETATM   15  C4  UNL     1      -2.243 -33.286 -13.286  1.00  0.00     0.198 C 
BRANCH  15  16
HETATM   16  O3  UNL     1      -1.366 -32.192 -13.241  1.00  0.00    -0.398 OA
ATOM     17  H3  UNL     1      -1.763 -31.460 -12.784  1.00  0.00     0.209 HD
ENDBRANCH  15  16
ENDBRANCH  10  15
BRANCH  11  18
HETATM   18  O4  UNL     1      -0.172 -34.721 -12.768  1.00  0.00    -0.390 OA
ATOM     19  H4  UNL     1       0.736 -34.441 -12.735  1.00  0.00     0.210 HD
ENDBRANCH  11  18
BRANCH  12  20
HETATM   20  O5  UNL     1       0.100 -37.230 -13.900  1.00  0.00    -0.390 OA
ATOM     21  H5  UNL     1       0.175 -37.942 -14.523  1.00  0.00     0.210 HD
ENDBRANCH  12  20
ENDBRANCH   6   7
ENDBRANCH   1   6
BRANCH   2  22
HETATM   22  O7  UNL     1      -3.095 -39.704 -10.465  1.00  0.00    -0.390 OA
ATOM     23  H7  UNL     1      -2.670 -40.242 -11.124  1.00  0.00     0.210 HD
ENDBRANCH   2  22
BRANCH   5  24
HETATM   24  C13 UNL     1      -0.236 -36.862  -9.923  1.00  0.00     0.178 C 
BRANCH  24  25
HETATM   25  O10 UNL     1       0.142 -36.996  -8.593  1.00  0.00    -0.379 OA
BRANCH  25  26
HETATM   26  C14 UNL     1       1.479 -37.184  -8.418  1.00  0.00     0.065 C 
HETATM   27  C15 UNL     1       2.044 -38.379  -9.163  1.00  0.00     0.043 C 
HETATM   28  C16 UNL     1       3.266 -38.667  -8.277  1.00  0.00    -0.011 C 
HETATM   29  C17 UNL     1       4.206 -37.499  -8.250  1.00  0.00     0.009 C 
HETATM   30  C21 UNL     1       2.556 -38.742  -6.918  1.00  0.00     0.012 C 
HETATM   31  C18 UNL     1       3.538 -36.207  -7.920  1.00  0.00    -0.011 C 
HETATM   32  C19 UNL     1       2.816 -36.351  -6.589  1.00  0.00     0.012 C 
HETATM   33  C22 UNL     1       2.332 -35.993  -8.845  1.00  0.00     0.043 C 
HETATM   34  C20 UNL     1       1.785 -37.426  -6.961  1.00  0.00     0.021 C 
ENDBRANCH  25  26
ENDBRANCH  24  25
ENDBRANCH   5  24
BRANCH   3  35
HETATM   35  O8  UNL     1      -4.729 -38.146  -9.126  1.00  0.00    -0.390 OA
ATOM     36  H8  UNL     1      -5.047 -37.536  -8.471  1.00  0.00     0.210 HD
ENDBRANCH   3  35
BRANCH   4  37
HETATM   37  O9  UNL     1      -2.590 -35.540  -9.562  1.00  0.00    -0.392 OA
ATOM     38  H9  UNL     1      -2.056 -35.104  -8.908  1.00  0.00     0.210 HD
ENDBRANCH   4  37
TORSDOF 13
ENDMDL
MODEL 2
REMARK VINA RESULT: -6.008948524      1.236      1.880
REMARK  13 active torsions:
REMARK  status: ('A' for Active; 'I' for Inactive)
REMARK    1  A    between atoms: O1_2  and  C2_3 
REMARK    2  A    between atoms: C3_5  and  C4_6 
REMARK    3  A    between atoms: C4_6  and  O3_7 
REMARK    4  A    between atoms: C5_9  and  O4_10 
REMARK    5  A    between atoms: C6_12  and  O5_13 
REMARK    6  A    between atoms: C7_15  and  O6_16 
REMARK    7  A    between atoms: O6_16  and  C8_17 
REMARK    8  A    between atoms: C9_18  and  O7_19 
REMARK    9  A    between atoms: C10_21  and  O8_22 
REMARK   10  A    between atoms: C11_24  and  O9_25 
REMARK   11  A    between atoms: C12_27  and  C13_28 
REMARK   12  A    between atoms: C13_28  and  O10_29 
REMARK   13  A    between atoms: O10_29  and  C14_30 
ROOT
HETATM    1  C8  UNL     1      -1.605 -37.794 -11.640  1.00  0.00     0.162 C 
HETATM    2  C9  UNL     1      -2.890 -38.697 -11.849  1.00  0.00     0.178 C 
HETATM    3  C10 UNL     1      -3.852 -38.053 -10.880  1.00  0.00     0.178 C 
HETATM    4  C11 UNL     1      -3.040 -37.419  -9.803  1.00  0.00     0.158 C 
HETATM    5  C12 UNL     1      -1.603 -37.801 -10.167  1.00  0.00     0.072 C 
ENDROOT
BRANCH   1   6
HETATM    6  O6  UNL     1      -1.808 -36.599 -12.205  1.00  0.00    -0.370 OA
BRANCH   6   7
HETATM    7  C7  UNL     1      -0.830 -36.070 -13.001  1.00  0.00     0.208 C 
HETATM    8  C2  UNL     1      -1.197 -36.195 -14.484  1.00  0.00     0.291 C 
HETATM    9  O2  UNL     1      -1.489 -35.005 -15.055  1.00  0.00    -0.349 OA
HETATM   10  C3  UNL     1      -2.137 -34.039 -14.389  1.00  0.00     0.179 C 
HETATM   11  C5  UNL     1      -1.752 -33.753 -12.982  1.00  0.00     0.180 C 
HETATM   12  C6  UNL     1      -0.568 -34.643 -12.655  1.00  0.00     0.183 C 
BRANCH   8  13
HETATM   13  O1  UNL     1      -0.058 -36.674 -15.131  1.00  0.00    -0.363 OA
HETATM   14  C1  UNL     1      -0.064 -36.280 -16.482  1.00  0.00     0.204 C 
ENDBRANCH   8  13
BRANCH  10  15
HETATM   15  C4  UNL     1      -3.636 -34.373 -14.414  1.00  0.00     0.198 C 
BRANCH  15  16
HETATM   16  O3  UNL     1      -4.407 -33.214 -14.243  1.00  0.00    -0.398 OA
ATOM     17  H3  UNL     1      -3.853 -32.465 -14.054  1.00  0.00     0.209 HD
ENDBRANCH  15  16
ENDBRANCH  10  15
BRANCH  11  18
HETATM   18  O4  UNL     1      -2.760 -33.839 -12.055  1.00  0.00    -0.390 OA
ATOM     19  H4  UNL     1      -3.477 -34.423 -12.274  1.00  0.00     0.210 HD
ENDBRANCH  11  18
BRANCH  12  20
HETATM   20  O5  UNL     1      -0.126 -34.367 -11.397  1.00  0.00    -0.390 OA
ATOM     21  H5  UNL     1       0.149 -33.460 -11.350  1.00  0.00     0.210 HD
ENDBRANCH  12  20
ENDBRANCH   6   7
ENDBRANCH   1   6
BRANCH   2  22
HETATM   22  O7  UNL     1      -2.557 -39.951 -11.355  1.00  0.00    -0.390 OA
ATOM     23  H7  UNL     1      -3.061 -40.057 -10.556  1.00  0.00     0.210 HD
ENDBRANCH   2  22
BRANCH   5  24
HETATM   24  C13 UNL     1      -0.618 -36.912  -9.471  1.00  0.00     0.178 C 
BRANCH  24  25
HETATM   25  O10 UNL     1      -0.046 -37.663  -8.452  1.00  0.00    -0.379 OA
BRANCH  25  26
HETATM   26  C14 UNL     1       1.306 -37.530  -8.364  1.00  0.00     0.065 C 
HETATM   27  C15 UNL     1       2.088 -38.590  -9.119  1.00  0.00     0.043 C 
HETATM   28  C16 UNL     1       3.395 -38.554  -8.312  1.00  0.00    -0.011 C 
HETATM   29  C17 UNL     1       4.037 -37.200  -8.375  1.00  0.00     0.009 C 
HETATM   30  C21 UNL     1       2.806 -38.739  -6.907  1.00  0.00     0.012 C 
HETATM   31  C18 UNL     1       3.107 -36.086  -8.029  1.00  0.00    -0.011 C 
HETATM   32  C19 UNL     1       2.521 -36.343  -6.650  1.00  0.00     0.012 C 
HETATM   33  C22 UNL     1       1.831 -36.192  -8.875  1.00  0.00     0.043 C 
HETATM   34  C20 UNL     1       1.748 -37.640  -6.927  1.00  0.00     0.021 C 
ENDBRANCH  25  26
ENDBRANCH  24  25
ENDBRANCH   5  24
BRANCH   3  35
HETATM   35  O8  UNL     1      -4.792 -38.959 -10.400  1.00  0.00    -0.390 OA
ATOM     36  H8  UNL     1      -4.984 -38.819  -9.480  1.00  0.00     0.210 HD
ENDBRANCH   3  35
BRANCH   4  37
HETATM   37  O9  UNL     1      -3.189 -36.043  -9.700  1.00  0.00    -0.392 OA
ATOM     38  H9  UNL     1      -2.708 -35.543 -10.350  1.00  0.00     0.210 HD
ENDBRANCH   4  37
TORSDOF 13
ENDMDL
MODEL 3
REMARK VINA RESULT: -5.987562353      1.262      2.133
REMARK  13 active torsions:
REMARK  status: ('A' for Active; 'I' for Inactive)
REMARK    1  A    between atoms: O1_2  and  C2_3 
REMARK    2  A    between atoms: C3_5  and  C4_6 
REMARK    3  A    between atoms: C4_6  and  O3_7 
REMARK    4  A    between atoms: C5_9  and  O4_10 
REMARK    5  A    between atoms: C6_12  and  O5_13 
REMARK    6  A    between atoms: C7_15  and  O6_16 
REMARK    7  A    between atoms: O6_16  and  C8_17 
REMARK    8  A    between atoms: C9_18  and  O7_19 
REMARK    9  A    between atoms: C10_21  and  O8_22 
REMARK   10  A    between atoms: C11_24  and  O9_25 
REMARK   11  A    between atoms: C12_27  and  C13_28 
REMARK   12  A    between atoms: C13_28  and  O10_29 
REMARK   13  A    between atoms: O10_29  and  C14_30 
ROOT
HETATM    1  C8  UNL     1      -1.699 -37.875 -11.606  1.00  0.00     0.162 C 
HETATM    2  C9  UNL     1      -3.146 -38.469 -11.353  1.00  0.00     0.178 C 
HETATM    3  C10 UNL     1      -3.547 -37.722 -10.104  1.00  0.00     0.178 C 
HETATM    4  C11 UNL     1      -2.296 -37.365  -9.379  1.00  0.00     0.158 C 
HETATM    5  C12 UNL     1      -1.195 -38.005 -10.228  1.00  0.00     0.072 C 
ENDROOT
BRANCH   1   6
HETATM    6  O6  UNL     1      -1.810 -36.621 -12.057  1.00  0.00    -0.370 OA
BRANCH   6   7
HETATM    7  C7  UNL     1      -0.808 -36.106 -12.833  1.00  0.00     0.208 C 
HETATM    8  C2  UNL     1      -1.131 -36.261 -14.324  1.00  0.00     0.291 C 
HETATM    9  O2  UNL     1      -1.405 -35.082 -14.927  1.00  0.00    -0.349 OA
HETATM   10  C3  UNL     1      -2.072 -34.103 -14.299  1.00  0.00     0.179 C 
HETATM   11  C5  UNL     1      -1.729 -33.790 -12.887  1.00  0.00     0.180 C 
HETATM   12  C6  UNL     1      -0.556 -34.673 -12.508  1.00  0.00     0.183 C 
BRANCH   8  13
HETATM   13  O1  UNL     1       0.027 -36.752 -14.926  1.00  0.00    -0.363 OA
HETATM   14  C1  UNL     1       0.051 -36.403 -16.290  1.00  0.00     0.204 C 
ENDBRANCH   8  13
BRANCH  10  15
HETATM   15  C4  UNL     1      -3.569 -34.438 -14.362  1.00  0.00     0.198 C 
BRANCH  15  16
HETATM   16  O3  UNL     1      -4.345 -33.277 -14.224  1.00  0.00    -0.398 OA
ATOM     17  H3  UNL     1      -5.150 -33.347 -14.725  1.00  0.00     0.209 HD
ENDBRANCH  15  16
ENDBRANCH  10  15
BRANCH  11  18
HETATM   18  O4  UNL     1      -2.764 -33.858 -11.989  1.00  0.00    -0.390 OA
ATOM     19  H4  UNL     1      -3.138 -33.026 -11.722  1.00  0.00     0.210 HD
ENDBRANCH  11  18
BRANCH  12  20
HETATM   20  O5  UNL     1      -0.152 -34.374 -11.242  1.00  0.00    -0.390 OA
ATOM     21  H5  UNL     1       0.751 -34.081 -11.259  1.00  0.00     0.210 HD
ENDBRANCH  12  20
ENDBRANCH   6   7
ENDBRANCH   1   6
BRANCH   2  22
HETATM   22  O7  UNL     1      -2.955 -39.802 -11.015  1.00  0.00    -0.390 OA
ATOM     23  H7  UNL     1      -3.765 -40.246 -11.239  1.00  0.00     0.210 HD
ENDBRANCH   2  22
BRANCH   5  24
HETATM   24  C13 UNL     1       0.142 -37.402  -9.919  1.00  0.00     0.178 C 
BRANCH  24  25
HETATM   25  O10 UNL     1       0.205 -37.247  -8.540  1.00  0.00    -0.379 OA
BRANCH  25  26
HETATM   26  C14 UNL     1       1.445 -37.460  -8.020  1.00  0.00     0.065 C 
HETATM   27  C15 UNL     1       1.445 -38.172  -6.679  1.00  0.00     0.043 C 
HETATM   28  C16 UNL     1       2.788 -37.666  -6.132  1.00  0.00    -0.011 C 
HETATM   29  C17 UNL     1       3.928 -38.083  -7.014  1.00  0.00     0.009 C 
HETATM   30  C21 UNL     1       2.565 -36.160  -6.320  1.00  0.00     0.012 C 
HETATM   31  C18 UNL     1       3.719 -37.745  -8.451  1.00  0.00    -0.011 C 
HETATM   32  C19 UNL     1       3.459 -36.252  -8.574  1.00  0.00     0.012 C 
HETATM   33  C22 UNL     1       2.361 -38.283  -8.921  1.00  0.00     0.043 C 
HETATM   34  C20 UNL     1       2.145 -36.146  -7.786  1.00  0.00     0.021 C 
ENDBRANCH  25  26
ENDBRANCH  24  25
ENDBRANCH   5  24
BRANCH   3  35
HETATM   35  O8  UNL     1      -4.445 -38.449  -9.328  1.00  0.00    -0.390 OA
ATOM     36  H8  UNL     1      -5.072 -37.887  -8.889  1.00  0.00     0.210 HD
ENDBRANCH   3  35
BRANCH   4  37
HETATM   37  O9  UNL     1      -2.088 -36.001  -9.223  1.00  0.00    -0.392 OA
ATOM     38  H9  UNL     1      -1.299 -35.773  -8.746  1.00  0.00     0.210 HD
ENDBRANCH   4  37
TORSDOF 13
ENDMDL
MODEL 4
REMARK VINA RESULT: -5.895430407      3.433      6.523
REMARK  13 active torsions:
REMARK  status: ('A' for Active; 'I' for Inactive)
REMARK    1  A    between atoms: O1_2  and  C2_3 
REMARK    2  A    between atoms: C3_5  and  C4_6 
REMARK    3  A    between atoms: C4_6  and  O3_7 
REMARK    4  A    between atoms: C5_9  and  O4_10 
REMARK    5  A    between atoms: C6_12  and  O5_13 
REMARK    6  A    between atoms: C7_15  and  O6_16 
REMARK    7  A    between atoms: O6_16  and  C8_17 
REMARK    8  A    between atoms: C9_18  and  O7_19 
REMARK    9  A    between atoms: C10_21  and  O8_22 
REMARK   10  A    between atoms: C11_24  and  O9_25 
REMARK   11  A    between atoms: C12_27  and  C13_28 
REMARK   12  A    between atoms: C13_28  and  O10_29 
REMARK   13  A    between atoms: O10_29  and  C14_30 
ROOT
HETATM    1  C8  UNL     1      -1.259 -35.793 -13.645  1.00  0.00     0.162 C 
HETATM    2  C9  UNL     1      -1.853 -34.385 -13.226  1.00  0.00     0.178 C 
HETATM    3  C10 UNL     1      -2.781 -34.111 -14.384  1.00  0.00     0.178 C 
HETATM    4  C11 UNL     1      -2.242 -34.839 -15.568  1.00  0.00     0.158 C 
HETATM    5  C12 UNL     1      -0.945 -35.460 -15.045  1.00  0.00     0.072 C 
ENDROOT
BRANCH   1   6
HETATM    6  O6  UNL     1      -2.195 -36.734 -13.478  1.00  0.00    -0.370 OA
BRANCH   6   7
HETATM    7  C7  UNL     1      -2.135 -37.537 -12.372  1.00  0.00     0.208 C 
HETATM    8  C2  UNL     1      -3.342 -37.306 -11.456  1.00  0.00     0.291 C 
HETATM    9  O2  UNL     1      -4.200 -38.351 -11.445  1.00  0.00    -0.349 OA
HETATM   10  C3  UNL     1      -4.451 -39.074 -12.546  1.00  0.00     0.179 C 
HETATM   11  C5  UNL     1      -3.318 -39.463 -13.426  1.00  0.00     0.180 C 
HETATM   12  C6  UNL     1      -2.048 -38.975 -12.755  1.00  0.00     0.183 C 
BRANCH   8  13
HETATM   13  O1  UNL     1      -2.837 -37.197 -10.161  1.00  0.00    -0.363 OA
HETATM   14  C1  UNL     1      -2.436 -35.872  -9.905  1.00  0.00     0.204 C 
ENDBRANCH   8  13
BRANCH  10  15
HETATM   15  C4  UNL     1      -5.469 -38.299 -13.396  1.00  0.00     0.198 C 
BRANCH  15  16
HETATM   16  O3  UNL     1      -6.281 -39.180 -14.127  1.00  0.00    -0.398 OA
ATOM     17  H3  UNL     1      -6.354 -38.898 -15.032  1.00  0.00     0.209 HD
ENDBRANCH  15  16
ENDBRANCH  10  15
BRANCH  11  18
HETATM   18  O4  UNL     1      -3.415 -39.073 -14.738  1.00  0.00    -0.390 OA
ATOM     19  H4  UNL     1      -3.178 -39.727 -15.384  1.00  0.00     0.210 HD
ENDBRANCH  11  18
BRANCH  12  20
HETATM   20  O5  UNL     1      -0.968 -39.371 -13.484  1.00  0.00    -0.390 OA
ATOM     21  H5  UNL     1      -0.174 -39.205 -12.991  1.00  0.00     0.210 HD
ENDBRANCH  12  20
ENDBRANCH   6   7
ENDBRANCH   1   6
BRANCH   2  22
HETATM   22  O7  UNL     1      -0.795 -33.489 -13.302  1.00  0.00    -0.390 OA
ATOM     23  H7  UNL     1      -0.718 -33.105 -12.436  1.00  0.00     0.210 HD
ENDBRANCH   2  22
BRANCH   5  24
HETATM   24  C13 UNL     1      -0.485 -36.574 -15.935  1.00  0.00     0.178 C 
BRANCH  24  25
HETATM   25  O10 UNL     1       0.381 -37.360 -15.184  1.00  0.00    -0.379 OA
BRANCH  25  26
HETATM   26  C14 UNL     1       1.507 -37.730 -15.854  1.00  0.00     0.065 C 
HETATM   27  C15 UNL     1       1.501 -37.376 -17.330  1.00  0.00     0.043 C 
HETATM   28  C16 UNL     1       2.481 -38.441 -17.843  1.00  0.00    -0.011 C 
HETATM   29  C17 UNL     1       3.833 -38.286 -17.212  1.00  0.00     0.009 C 
HETATM   30  C21 UNL     1       1.812 -39.684 -17.240  1.00  0.00     0.012 C 
HETATM   31  C18 UNL     1       3.787 -38.204 -15.724  1.00  0.00    -0.011 C 
HETATM   32  C19 UNL     1       3.077 -39.436 -15.184  1.00  0.00     0.012 C 
HETATM   33  C22 UNL     1       2.789 -37.122 -15.292  1.00  0.00     0.043 C 
HETATM   34  C20 UNL     1       1.683 -39.226 -15.791  1.00  0.00     0.021 C 
ENDBRANCH  25  26
ENDBRANCH  24  25
ENDBRANCH   5  24
BRANCH   3  35
HETATM   35  O8  UNL     1      -2.949 -32.748 -14.606  1.00  0.00    -0.390 OA
ATOM     36  H8  UNL     1      -2.118 -32.300 -14.716  1.00  0.00     0.210 HD
ENDBRANCH   3  35
BRANCH   4  37
HETATM   37  O9  UNL     1      -3.093 -35.804 -16.089  1.00  0.00    -0.392 OA
ATOM     38  H9  UNL     1      -2.808 -36.700 -15.951  1.00  0.00     0.210 HD
ENDBRANCH   4  37
TORSDOF 13
ENDMDL
MODEL 5
REMARK VINA RESULT: -5.883835122      3.265      6.635
REMARK  13 active torsions:
REMARK  status: ('A' for Active; 'I' for Inactive)
REMARK    1  A    between atoms: O1_2  and  C2_3 
REMARK    2  A    between atoms: C3_5  and  C4_6 
REMARK    3  A    between atoms: C4_6  and  O3_7 
REMARK    4  A    between atoms: C5_9  and  O4_10 
REMARK    5  A    between atoms: C6_12  and  O5_13 
REMARK    6  A    between atoms: C7_15  and  O6_16 
REMARK    7  A    between atoms: O6_16  and  C8_17 
REMARK    8  A    between atoms: C9_18  and  O7_19 
REMARK    9  A    between atoms: C10_21  and  O8_22 
REMARK   10  A    between atoms: C11_24  and  O9_25 
REMARK   11  A    between atoms: C12_27  and  C13_28 
REMARK   12  A    between atoms: C13_28  and  O10_29 
REMARK   13  A    between atoms: O10_29  and  C14_30 
ROOT
HETATM    1  C8  UNL     1      -1.345 -36.142 -14.195  1.00  0.00     0.162 C 
HETATM    2  C9  UNL     1      -2.124 -34.857 -13.692  1.00  0.00     0.178 C 
HETATM    3  C10 UNL     1      -2.663 -34.322 -14.996  1.00  0.00     0.178 C 
HETATM    4  C11 UNL     1      -1.741 -34.772 -16.077  1.00  0.00     0.158 C 
HETATM    5  C12 UNL     1      -0.634 -35.509 -15.318  1.00  0.00     0.072 C 
ENDROOT
BRANCH   1   6
HETATM    6  O6  UNL     1      -2.229 -37.087 -14.538  1.00  0.00    -0.370 OA
BRANCH   6   7
HETATM    7  C7  UNL     1      -1.997 -38.379 -14.155  1.00  0.00     0.208 C 
HETATM    8  C2  UNL     1      -1.132 -38.433 -12.891  1.00  0.00     0.291 C 
HETATM    9  O2  UNL     1      -1.817 -38.852 -11.803  1.00  0.00    -0.349 OA
HETATM   10  C3  UNL     1      -3.099 -38.518 -11.600  1.00  0.00     0.179 C 
HETATM   11  C5  UNL     1      -4.046 -38.568 -12.746  1.00  0.00     0.180 C 
HETATM   12  C6  UNL     1      -3.276 -39.113 -13.934  1.00  0.00     0.183 C 
BRANCH   8  13
HETATM   13  O1  UNL     1      -0.147 -39.392 -13.130  1.00  0.00    -0.363 OA
HETATM   14  C1  UNL     1       0.511 -39.722 -11.930  1.00  0.00     0.204 C 
ENDBRANCH   8  13
BRANCH  10  15
HETATM   15  C4  UNL     1      -3.129 -37.095 -11.022  1.00  0.00     0.198 C 
BRANCH  15  16
HETATM   16  O3  UNL     1      -4.215 -36.936 -10.148  1.00  0.00    -0.398 OA
ATOM     17  H3  UNL     1      -4.102 -36.163  -9.607  1.00  0.00     0.209 HD
ENDBRANCH  15  16
ENDBRANCH  10  15
BRANCH  11  18
HETATM   18  O4  UNL     1      -4.711 -37.402 -13.027  1.00  0.00    -0.390 OA
ATOM     19  H4  UNL     1      -4.183 -36.698 -13.386  1.00  0.00     0.210 HD
ENDBRANCH  11  18
BRANCH  12  20
HETATM   20  O5  UNL     1      -4.118 -39.251 -14.996  1.00  0.00    -0.390 OA
ATOM     21  H5  UNL     1      -4.952 -38.845 -14.794  1.00  0.00     0.210 HD
ENDBRANCH  12  20
ENDBRANCH   6   7
ENDBRANCH   1   6
BRANCH   2  22
HETATM   22  O7  UNL     1      -1.151 -33.979 -13.235  1.00  0.00    -0.390 OA
ATOM     23  H7  UNL     1      -1.588 -33.406 -12.615  1.00  0.00     0.210 HD
ENDBRANCH   2  22
BRANCH   5  24
HETATM   24  C13 UNL     1       0.146 -36.400 -16.236  1.00  0.00     0.178 C 
BRANCH  24  25
HETATM   25  O10 UNL     1       0.938 -37.212 -15.433  1.00  0.00    -0.379 OA
BRANCH  25  26
HETATM   26  C14 UNL     1       1.982 -37.785 -16.092  1.00  0.00     0.065 C 
HETATM   27  C15 UNL     1       2.023 -37.483 -17.580  1.00  0.00     0.043 C 
HETATM   28  C16 UNL     1       2.809 -38.712 -18.059  1.00  0.00    -0.011 C 
HETATM   29  C17 UNL     1       4.173 -38.764 -17.437  1.00  0.00     0.009 C 
HETATM   30  C21 UNL     1       1.948 -39.807 -17.415  1.00  0.00     0.012 C 
HETATM   31  C18 UNL     1       4.152 -38.628 -15.952  1.00  0.00    -0.011 C 
HETATM   32  C19 UNL     1       3.252 -39.707 -15.370  1.00  0.00     0.012 C 
HETATM   33  C22 UNL     1       3.351 -37.381 -15.554  1.00  0.00     0.043 C 
HETATM   34  C20 UNL     1       1.907 -39.287 -15.981  1.00  0.00     0.021 C 
ENDBRANCH  25  26
ENDBRANCH  24  25
ENDBRANCH   5  24
BRANCH   3  35
HETATM   35  O8  UNL     1      -2.836 -32.942 -14.961  1.00  0.00    -0.390 OA
ATOM     36  H8  UNL     1      -2.920 -32.571 -15.831  1.00  0.00     0.210 HD
ENDBRANCH   3  35
BRANCH   4  37
HETATM   37  O9  UNL     1      -2.328 -35.588 -17.035  1.00  0.00    -0.392 OA
ATOM     38  H9  UNL     1      -2.062 -35.404 -17.928  1.00  0.00     0.210 HD
ENDBRANCH   4  37
TORSDOF 13
ENDMDL
