MODEL 1
REMARK VINA RESULT: -7.227590713      0.000      0.000
REMARK  7 active torsions:
REMARK  status: ('A' for Active; 'I' for Inactive)
REMARK    1  A    between atoms: C2_2  and  C3_3 
REMARK    2  A    between atoms: C3_3  and  O1_4 
REMARK    3  A    between atoms: C3_3  and  C5_6 
REMARK       I    between atoms: C5_6  and  N1_8 
REMARK    4  A    between atoms: N1_8  and  C6_10 
REMARK    5  A    between atoms: C11_16  and  C12_17 
REMARK    6  A    between atoms: C12_17  and  O4_19 
REMARK    7  A    between atoms: O4_19  and  C13_20 
ROOT
HETATM    1  C13 UNL     1      -4.125   0.144  12.964  1.00  0.00     0.234 C 
HETATM    2  C14 UNL     1      -4.169  -1.111  12.124  1.00  0.00     0.056 C 
HETATM    3  C15 UNL     1      -4.776   1.229  12.223  1.00  0.00     0.091 C 
HETATM    4  N2  UNL     1      -5.298   2.097  11.634  1.00  0.00    -0.195 NA
ENDROOT
BRANCH   1   5
HETATM    5  O4  UNL     1      -4.822  -0.047  14.195  1.00  0.00    -0.301 OA
BRANCH   5   6
HETATM    6  C12 UNL     1      -4.684   0.878  15.231  1.00  0.00     0.266 C 
HETATM    7  O3  UNL     1      -3.773   0.645  16.065  1.00  0.00    -0.265 OA
BRANCH   6   8
HETATM    8  C11 UNL     1      -5.578   2.068  15.325  1.00  0.00     0.110 C 
HETATM    9  C8  UNL     1      -6.303   2.068  16.618  1.00  0.00     0.014 C 
HETATM   10  S1  UNL     1      -6.815   3.829  16.708  1.00  0.00    -0.151 SA
HETATM   11  C9  UNL     1      -7.501   1.159  16.542  1.00  0.00     0.027 C 
HETATM   12  C10 UNL     1      -5.480   1.768  17.818  1.00  0.00     0.027 C 
HETATM   13  C7  UNL     1      -5.466   4.491  15.669  1.00  0.00     0.078 A 
HETATM   14  C6  UNL     1      -5.526   4.335  14.204  1.00  0.00     0.104 A 
HETATM   15  C16 UNL     1      -4.826   3.311  15.120  1.00  0.00     0.040 A 
BRANCH  14  16
HETATM   16  N1  UNL     1      -4.714   5.154  13.367  1.00  0.00    -0.353 N 
HETATM   17  C5  UNL     1      -5.291   6.121  12.498  1.00  0.00     0.247 C 
HETATM   18  O2  UNL     1      -6.543   6.259  12.462  1.00  0.00    -0.271 OA
ATOM     19  H1  UNL     1      -3.700   5.045  13.392  1.00  0.00     0.163 HD
BRANCH  17  20
HETATM   20  C3  UNL     1      -4.475   6.989  11.615  1.00  0.00     0.212 C 
BRANCH  20  21
HETATM   21  C2  UNL     1      -5.403   7.558  10.535  1.00  0.00     0.037 C 
HETATM   22  C1  UNL     1      -5.439   9.068  10.584  1.00  0.00     0.008 C 
ENDBRANCH  20  21
BRANCH  20  23
HETATM   23  O1  UNL     1      -3.510   6.254  10.955  1.00  0.00    -0.381 OA
HETATM   24  C4  UNL     1      -4.035   5.600   9.847  1.00  0.00     0.202 C 
ENDBRANCH  20  23
ENDBRANCH  17  20
ENDBRANCH  14  16
ENDBRANCH   6   8
ENDBRANCH   5   6
ENDBRANCH   1   5
TORSDOF 7
ENDMDL
MODEL 2
REMARK VINA RESULT: -7.154434615      0.686      1.241
REMARK  7 active torsions:
REMARK  status: ('A' for Active; 'I' for Inactive)
REMARK    1  A    between atoms: C2_2  and  C3_3 
REMARK    2  A    between atoms: C3_3  and  O1_4 
REMARK    3  A    between atoms: C3_3  and  C5_6 
REMARK       I    between atoms: C5_6  and  N1_8 
REMARK    4  A    between atoms: N1_8  and  C6_10 
REMARK    5  A    between atoms: C11_16  and  C12_17 
REMARK    6  A    between atoms: C12_17  and  O4_19 
REMARK    7  A    between atoms: O4_19  and  C13_20 
ROOT
HETATM    1  C13 UNL     1      -4.148   0.138  12.920  1.00  0.00     0.234 C 
HETATM    2  C14 UNL     1      -4.068  -1.148  12.129  1.00  0.00     0.056 C 
HETATM    3  C15 UNL     1      -4.924   1.115  12.150  1.00  0.00     0.091 C 
HETATM    4  N2  UNL     1      -5.545   1.898  11.537  1.00  0.00    -0.195 NA
ENDROOT
BRANCH   1   5
HETATM    5  O4  UNL     1      -4.803  -0.077  14.170  1.00  0.00    -0.301 OA
BRANCH   5   6
HETATM    6  C12 UNL     1      -4.653   0.843  15.208  1.00  0.00     0.266 C 
HETATM    7  O3  UNL     1      -3.746   0.596  16.042  1.00  0.00    -0.265 OA
BRANCH   6   8
HETATM    8  C11 UNL     1      -5.530   2.045  15.304  1.00  0.00     0.110 C 
HETATM    9  C8  UNL     1      -6.294   2.027  16.575  1.00  0.00     0.014 C 
HETATM   10  S1  UNL     1      -6.780   3.794  16.692  1.00  0.00    -0.151 SA
HETATM   11  C9  UNL     1      -7.503   1.141  16.440  1.00  0.00     0.027 C 
HETATM   12  C10 UNL     1      -5.513   1.684  17.791  1.00  0.00     0.027 C 
HETATM   13  C7  UNL     1      -5.389   4.457  15.710  1.00  0.00     0.078 A 
HETATM   14  C6  UNL     1      -5.407   4.337  14.241  1.00  0.00     0.104 A 
HETATM   15  C16 UNL     1      -4.752   3.281  15.152  1.00  0.00     0.040 A 
BRANCH  14  16
HETATM   16  N1  UNL     1      -4.557   5.162  13.449  1.00  0.00    -0.353 N 
HETATM   17  C5  UNL     1      -5.093   6.082  12.505  1.00  0.00     0.247 C 
HETATM   18  O2  UNL     1      -6.341   6.172  12.361  1.00  0.00    -0.271 OA
ATOM     19  H1  UNL     1      -3.546   5.092  13.561  1.00  0.00     0.163 HD
BRANCH  17  20
HETATM   20  C3  UNL     1      -4.236   6.955  11.666  1.00  0.00     0.212 C 
BRANCH  20  21
HETATM   21  C2  UNL     1      -4.516   6.610  10.199  1.00  0.00     0.037 C 
HETATM   22  C1  UNL     1      -3.984   5.240   9.847  1.00  0.00     0.008 C 
ENDBRANCH  20  21
BRANCH  20  23
HETATM   23  O1  UNL     1      -2.898   6.687  11.882  1.00  0.00    -0.381 OA
HETATM   24  C4  UNL     1      -2.225   7.802  12.368  1.00  0.00     0.202 C 
ENDBRANCH  20  23
ENDBRANCH  17  20
ENDBRANCH  14  16
ENDBRANCH   6   8
ENDBRANCH   5   6
ENDBRANCH   1   5
TORSDOF 7
ENDMDL
MODEL 3
REMARK VINA RESULT: -6.803785423      2.843      3.769
REMARK  7 active torsions:
REMARK  status: ('A' for Active; 'I' for Inactive)
REMARK    1  A    between atoms: C2_2  and  C3_3 
REMARK    2  A    between atoms: C3_3  and  O1_4 
REMARK    3  A    between atoms: C3_3  and  C5_6 
REMARK       I    between atoms: C5_6  and  N1_8 
REMARK    4  A    between atoms: N1_8  and  C6_10 
REMARK    5  A    between atoms: C11_16  and  C12_17 
REMARK    6  A    between atoms: C12_17  and  O4_19 
REMARK    7  A    between atoms: O4_19  and  C13_20 
ROOT
HETATM    1  C13 UNL     1      -4.363   1.208  12.764  1.00  0.00     0.234 C 
HETATM    2  C14 UNL     1      -4.845   0.441  11.554  1.00  0.00     0.056 C 
HETATM    3  C15 UNL     1      -4.497   0.352  13.947  1.00  0.00     0.091 C 
HETATM    4  N2  UNL     1      -4.601  -0.331  14.894  1.00  0.00    -0.195 NA
ENDROOT
BRANCH   1   5
HETATM    5  O4  UNL     1      -2.990   1.570  12.620  1.00  0.00    -0.301 OA
BRANCH   5   6
HETATM    6  C12 UNL     1      -2.627   2.912  12.493  1.00  0.00     0.266 C 
HETATM    7  O3  UNL     1      -1.493   3.136  12.002  1.00  0.00    -0.265 OA
BRANCH   6   8
HETATM    8  C11 UNL     1      -3.549   4.002  12.922  1.00  0.00     0.110 C 
HETATM    9  C8  UNL     1      -3.173   4.496  14.269  1.00  0.00     0.014 C 
HETATM   10  S1  UNL     1      -4.026   6.123  14.273  1.00  0.00    -0.151 SA
HETATM   11  C9  UNL     1      -3.734   3.588  15.330  1.00  0.00     0.027 C 
HETATM   12  C10 UNL     1      -1.723   4.738  14.484  1.00  0.00     0.027 C 
HETATM   13  C7  UNL     1      -4.029   6.360  12.462  1.00  0.00     0.078 A 
HETATM   14  C6  UNL     1      -4.996   5.624  11.628  1.00  0.00     0.104 A 
HETATM   15  C16 UNL     1      -3.584   5.086  11.934  1.00  0.00     0.040 A 
BRANCH  14  16
HETATM   16  N1  UNL     1      -5.274   6.067  10.303  1.00  0.00    -0.353 N 
HETATM   17  C5  UNL     1      -6.445   6.820  10.007  1.00  0.00     0.247 C 
HETATM   18  O2  UNL     1      -7.254   7.102  10.930  1.00  0.00    -0.271 OA
ATOM     19  H1  UNL     1      -4.622   5.840   9.551  1.00  0.00     0.163 HD
BRANCH  17  20
HETATM   20  C3  UNL     1      -6.763   7.296   8.639  1.00  0.00     0.212 C 
BRANCH  20  21
HETATM   21  C2  UNL     1      -8.268   7.586   8.587  1.00  0.00     0.037 C 
HETATM   22  C1  UNL     1      -8.598   8.571   7.489  1.00  0.00     0.008 C 
ENDBRANCH  20  21
BRANCH  20  23
HETATM   23  O1  UNL     1      -6.523   6.308   7.704  1.00  0.00    -0.381 OA
HETATM   24  C4  UNL     1      -5.539   6.688   6.800  1.00  0.00     0.202 C 
ENDBRANCH  20  23
ENDBRANCH  17  20
ENDBRANCH  14  16
ENDBRANCH   6   8
ENDBRANCH   5   6
ENDBRANCH   1   5
TORSDOF 7
ENDMDL
MODEL 4
REMARK VINA RESULT: -6.784179531      4.419      5.555
REMARK  7 active torsions:
REMARK  status: ('A' for Active; 'I' for Inactive)
REMARK    1  A    between atoms: C2_2  and  C3_3 
REMARK    2  A    between atoms: C3_3  and  O1_4 
REMARK    3  A    between atoms: C3_3  and  C5_6 
REMARK       I    between atoms: C5_6  and  N1_8 
REMARK    4  A    between atoms: N1_8  and  C6_10 
REMARK    5  A    between atoms: C11_16  and  C12_17 
REMARK    6  A    between atoms: C12_17  and  O4_19 
REMARK    7  A    between atoms: O4_19  and  C13_20 
ROOT
HETATM    1  C13 UNL     1      -4.430   0.883  13.416  1.00  0.00     0.234 C 
HETATM    2  C14 UNL     1      -4.201  -0.380  12.617  1.00  0.00     0.056 C 
HETATM    3  C15 UNL     1      -4.158   0.601  14.829  1.00  0.00     0.091 C 
HETATM    4  N2  UNL     1      -3.938   0.378  15.958  1.00  0.00    -0.195 NA
ENDROOT
BRANCH   1   5
HETATM    5  O4  UNL     1      -3.553   1.922  12.983  1.00  0.00    -0.301 OA
BRANCH   5   6
HETATM    6  C12 UNL     1      -4.067   3.068  12.376  1.00  0.00     0.266 C 
HETATM    7  O3  UNL     1      -5.088   2.907  11.661  1.00  0.00    -0.265 OA
BRANCH   6   8
HETATM    8  C11 UNL     1      -3.427   4.400  12.579  1.00  0.00     0.110 C 
HETATM    9  C8  UNL     1      -4.174   5.183  13.592  1.00  0.00     0.014 C 
HETATM   10  S1  UNL     1      -2.903   6.426  14.051  1.00  0.00    -0.151 SA
HETATM   11  C9  UNL     1      -5.372   5.841  12.960  1.00  0.00     0.027 C 
HETATM   12  C10 UNL     1      -4.558   4.444  14.822  1.00  0.00     0.027 C 
HETATM   13  C7  UNL     1      -1.450   5.406  13.618  1.00  0.00     0.078 A 
HETATM   14  C6  UNL     1      -1.069   5.237  12.204  1.00  0.00     0.104 A 
HETATM   15  C16 UNL     1      -2.010   4.258  12.934  1.00  0.00     0.040 A 
BRANCH  14  16
HETATM   16  N1  UNL     1       0.240   4.787  11.869  1.00  0.00    -0.353 N 
HETATM   17  C5  UNL     1       0.546   4.313  10.563  1.00  0.00     0.247 C 
HETATM   18  O2  UNL     1      -0.354   4.289   9.682  1.00  0.00    -0.271 OA
ATOM     19  H1  UNL     1       0.973   4.804  12.579  1.00  0.00     0.163 HD
BRANCH  17  20
HETATM   20  C3  UNL     1       1.899   3.839  10.181  1.00  0.00     0.212 C 
BRANCH  20  21
HETATM   21  C2  UNL     1       2.771   5.074   9.930  1.00  0.00     0.037 C 
HETATM   22  C1  UNL     1       3.691   5.342  11.099  1.00  0.00     0.008 C 
ENDBRANCH  20  21
BRANCH  20  23
HETATM   23  O1  UNL     1       1.859   3.140   8.991  1.00  0.00    -0.381 OA
HETATM   24  C4  UNL     1       3.133   2.791   8.559  1.00  0.00     0.202 C 
ENDBRANCH  20  23
ENDBRANCH  17  20
ENDBRANCH  14  16
ENDBRANCH   6   8
ENDBRANCH   5   6
ENDBRANCH   1   5
TORSDOF 7
ENDMDL
MODEL 5
REMARK VINA RESULT: -6.784016249      4.213      5.542
REMARK  7 active torsions:
REMARK  status: ('A' for Active; 'I' for Inactive)
REMARK    1  A    between atoms: C2_2  and  C3_3 
REMARK    2  A    between atoms: C3_3  and  O1_4 
REMARK    3  A    between atoms: C3_3  and  C5_6 
REMARK       I    between atoms: C5_6  and  N1_8 
REMARK    4  A    between atoms: N1_8  and  C6_10 
REMARK    5  A    between atoms: C11_16  and  C12_17 
REMARK    6  A    between atoms: C12_17  and  O4_19 
REMARK    7  A    between atoms: O4_19  and  C13_20 
ROOT
HETATM    1  C13 UNL     1      -5.594   2.321  16.690  1.00  0.00     0.234 C 
HETATM    2  C14 UNL     1      -6.901   3.056  16.884  1.00  0.00     0.056 C 
HETATM    3  C15 UNL     1      -5.820   0.891  16.921  1.00  0.00     0.091 C 
HETATM    4  N2  UNL     1      -5.999  -0.253  17.102  1.00  0.00    -0.195 NA
ENDROOT
BRANCH   1   5
HETATM    5  O4  UNL     1      -5.109   2.495  15.359  1.00  0.00    -0.301 OA
BRANCH   5   6
HETATM    6  C12 UNL     1      -3.873   3.104  15.136  1.00  0.00     0.266 C 
HETATM    7  O3  UNL     1      -2.963   2.831  15.958  1.00  0.00    -0.265 OA
BRANCH   6   8
HETATM    8  C11 UNL     1      -3.666   4.024  13.981  1.00  0.00     0.110 C 
HETATM    9  C8  UNL     1      -4.461   5.263  14.158  1.00  0.00     0.014 C 
HETATM   10  S1  UNL     1      -3.596   6.379  12.984  1.00  0.00    -0.151 SA
HETATM   11  C9  UNL     1      -5.886   5.030  13.733  1.00  0.00     0.027 C 
HETATM   12  C10 UNL     1      -4.400   5.880  15.508  1.00  0.00     0.027 C 
HETATM   13  C7  UNL     1      -1.977   5.534  13.048  1.00  0.00     0.078 A 
HETATM   14  C6  UNL     1      -1.781   4.272  12.312  1.00  0.00     0.104 A 
HETATM   15  C16 UNL     1      -2.241   4.313  13.783  1.00  0.00     0.040 A 
BRANCH  14  16
HETATM   16  N1  UNL     1      -0.463   3.809  12.032  1.00  0.00    -0.353 N 
HETATM   17  C5  UNL     1       0.248   4.257  10.884  1.00  0.00     0.247 C 
HETATM   18  O2  UNL     1      -0.294   5.077  10.096  1.00  0.00    -0.271 OA
ATOM     19  H1  UNL     1      -0.020   3.145  12.668  1.00  0.00     0.163 HD
BRANCH  17  20
HETATM   20  C3  UNL     1       1.621   3.796  10.565  1.00  0.00     0.212 C 
BRANCH  20  21
HETATM   21  C2  UNL     1       2.535   5.027  10.557  1.00  0.00     0.037 C 
HETATM   22  C1  UNL     1       3.052   5.334  11.944  1.00  0.00     0.008 C 
ENDBRANCH  20  21
BRANCH  20  23
HETATM   23  O1  UNL     1       1.678   3.258   9.294  1.00  0.00    -0.381 OA
HETATM   24  C4  UNL     1       2.965   3.311   8.774  1.00  0.00     0.202 C 
ENDBRANCH  20  23
ENDBRANCH  17  20
ENDBRANCH  14  16
ENDBRANCH   6   8
ENDBRANCH   5   6
ENDBRANCH   1   5
TORSDOF 7
ENDMDL
