MODEL 1
REMARK VINA RESULT: -7.113550404      0.000      0.000
REMARK  8 active torsions:
REMARK  status: ('A' for Active; 'I' for Inactive)
REMARK    1  A    between atoms: C2_2  and  C3_3 
REMARK    2  A    between atoms: C3_3  and  O1_4 
REMARK    3  A    between atoms: O1_4  and  C4_5 
REMARK       I    between atoms: C4_5  and  N1_7 
REMARK    4  A    between atoms: N1_7  and  N2_8 
REMARK    5  A    between atoms: N1_7  and  C12_21 
REMARK    6  A    between atoms: N2_8  and  C5_10 
REMARK    7  A    between atoms: C5_10  and  N3_12 
REMARK    8  A    between atoms: N3_12  and  C6_14 
ROOT
HETATM    1  N2  UNL     1      -3.172   3.664  14.923  1.00  0.00    -0.262 N 
ATOM      2  H2  UNL     1      -2.602   3.618  15.768  1.00  0.00     0.190 HD
ENDROOT
BRANCH   1   3
HETATM    3  N1  UNL     1      -4.404   3.107  15.093  1.00  0.00    -0.135 N 
HETATM    4  C4  UNL     1      -4.378   1.732  15.658  1.00  0.00     0.389 C 
HETATM    5  O2  UNL     1      -3.276   1.188  15.931  1.00  0.00    -0.236 OA
BRANCH   4   6
HETATM    6  O1  UNL     1      -5.523   1.012  15.902  1.00  0.00    -0.302 OA
BRANCH   6   7
HETATM    7  C3  UNL     1      -6.005   0.588  17.134  1.00  0.00     0.180 C 
BRANCH   7   8
HETATM    8  C2  UNL     1      -6.958   1.531  17.826  1.00  0.00     0.022 C 
HETATM    9  C1  UNL     1      -6.108   2.194  18.928  1.00  0.00     0.007 C 
ENDBRANCH   7   8
ENDBRANCH   6   7
ENDBRANCH   4   6
BRANCH   3  10
HETATM   10  C12 UNL     1      -5.731   3.545  14.821  1.00  0.00     0.509 C 
HETATM   11  F1  UNL     1      -6.593   2.750  14.184  1.00  0.00    -0.149 F 
HETATM   12  F2  UNL     1      -6.252   3.957  16.063  1.00  0.00    -0.149 F 
HETATM   13  F3  UNL     1      -5.631   4.746  14.080  1.00  0.00    -0.149 F 
ENDBRANCH   3  10
ENDBRANCH   1   3
BRANCH   1  14
HETATM   14  C5  UNL     1      -2.511   4.282  13.864  1.00  0.00     0.191 C 
HETATM   15  S1  UNL     1      -1.439   5.460  14.080  1.00  0.00    -0.039 SA
BRANCH  14  16
HETATM   16  N3  UNL     1      -2.833   3.880  12.522  1.00  0.00    -0.331 N 
ATOM     17  H3  UNL     1      -3.057   4.641  11.880  1.00  0.00     0.168 HD
BRANCH  16  18
HETATM   18  C6  UNL     1      -2.884   2.606  11.974  1.00  0.00     0.051 A 
HETATM   19  C7  UNL     1      -3.947   1.759  11.992  1.00  0.00     0.031 A 
HETATM   20  C8  UNL     1      -3.949   0.499  11.393  1.00  0.00     0.002 A 
HETATM   21  C9  UNL     1      -2.796   0.087  10.733  1.00  0.00     0.002 A 
HETATM   22  C10 UNL     1      -1.691   0.904  10.675  1.00  0.00     0.021 A 
HETATM   23  C11 UNL     1      -1.766   2.148  11.302  1.00  0.00     0.037 A 
HETATM   24 BR1  UNL     1      -0.194   3.251  11.190  1.00  0.00    -0.049 Br
ENDBRANCH  16  18
ENDBRANCH  14  16
ENDBRANCH   1  14
TORSDOF 8
ENDMDL
MODEL 2
REMARK VINA RESULT: -7.037285956      2.513      3.078
REMARK  8 active torsions:
REMARK  status: ('A' for Active; 'I' for Inactive)
REMARK    1  A    between atoms: C2_2  and  C3_3 
REMARK    2  A    between atoms: C3_3  and  O1_4 
REMARK    3  A    between atoms: O1_4  and  C4_5 
REMARK       I    between atoms: C4_5  and  N1_7 
REMARK    4  A    between atoms: N1_7  and  N2_8 
REMARK    5  A    between atoms: N1_7  and  C12_21 
REMARK    6  A    between atoms: N2_8  and  C5_10 
REMARK    7  A    between atoms: C5_10  and  N3_12 
REMARK    8  A    between atoms: N3_12  and  C6_14 
ROOT
HETATM    1  N2  UNL     1      -4.294   1.366  12.961  1.00  0.00    -0.262 N 
ATOM      2  H2  UNL     1      -5.207   1.129  12.573  1.00  0.00     0.190 HD
ENDROOT
BRANCH   1   3
HETATM    3  N1  UNL     1      -4.359   1.707  14.278  1.00  0.00    -0.135 N 
HETATM    4  C4  UNL     1      -4.470   0.548  15.203  1.00  0.00     0.389 C 
HETATM    5  O2  UNL     1      -4.499  -0.622  14.739  1.00  0.00    -0.236 OA
BRANCH   4   6
HETATM    6  O1  UNL     1      -4.544   0.697  16.568  1.00  0.00    -0.302 OA
BRANCH   6   7
HETATM    7  C3  UNL     1      -5.593   0.324  17.399  1.00  0.00     0.180 C 
BRANCH   7   8
HETATM    8  C2  UNL     1      -6.756   1.283  17.459  1.00  0.00     0.022 C 
HETATM    9  C1  UNL     1      -6.343   2.318  18.525  1.00  0.00     0.007 C 
ENDBRANCH   7   8
ENDBRANCH   6   7
ENDBRANCH   4   6
BRANCH   3  10
HETATM   10  C12 UNL     1      -4.372   2.948  14.977  1.00  0.00     0.509 C 
HETATM   11  F1  UNL     1      -5.484   3.384  15.569  1.00  0.00    -0.149 F 
HETATM   12  F2  UNL     1      -3.310   2.869  15.899  1.00  0.00    -0.149 F 
HETATM   13  F3  UNL     1      -3.955   3.946  14.065  1.00  0.00    -0.149 F 
ENDBRANCH   3  10
ENDBRANCH   1   3
BRANCH   1  14
HETATM   14  C5  UNL     1      -3.271   1.266  12.021  1.00  0.00     0.191 C 
HETATM   15  S1  UNL     1      -3.083  -0.021  11.077  1.00  0.00    -0.039 SA
BRANCH  14  16
HETATM   16  N3  UNL     1      -2.318   2.338  11.923  1.00  0.00    -0.331 N 
ATOM     17  H3  UNL     1      -2.043   2.762  12.809  1.00  0.00     0.168 HD
BRANCH  16  18
HETATM   18  C6  UNL     1      -1.719   2.881  10.794  1.00  0.00     0.051 A 
HETATM   19  C7  UNL     1      -0.549   2.484  10.228  1.00  0.00     0.031 A 
HETATM   20  C8  UNL     1      -0.012   3.049   9.071  1.00  0.00     0.002 A 
HETATM   21  C9  UNL     1      -0.720   4.075   8.455  1.00  0.00     0.002 A 
HETATM   22  C10 UNL     1      -1.914   4.515   8.978  1.00  0.00     0.021 A 
HETATM   23  C11 UNL     1      -2.383   3.903  10.140  1.00  0.00     0.037 A 
HETATM   24 BR1  UNL     1      -4.057   4.555  10.827  1.00  0.00    -0.049 Br
ENDBRANCH  16  18
ENDBRANCH  14  16
ENDBRANCH   1  14
TORSDOF 8
ENDMDL
MODEL 3
REMARK VINA RESULT: -7.004233347      3.268      5.974
REMARK  8 active torsions:
REMARK  status: ('A' for Active; 'I' for Inactive)
REMARK    1  A    between atoms: C2_2  and  C3_3 
REMARK    2  A    between atoms: C3_3  and  O1_4 
REMARK    3  A    between atoms: O1_4  and  C4_5 
REMARK       I    between atoms: C4_5  and  N1_7 
REMARK    4  A    between atoms: N1_7  and  N2_8 
REMARK    5  A    between atoms: N1_7  and  C12_21 
REMARK    6  A    between atoms: N2_8  and  C5_10 
REMARK    7  A    between atoms: C5_10  and  N3_12 
REMARK    8  A    between atoms: N3_12  and  C6_14 
ROOT
HETATM    1  N2  UNL     1      -3.783   3.603  12.340  1.00  0.00    -0.262 N 
ATOM      2  H2  UNL     1      -4.003   4.462  11.835  1.00  0.00     0.190 HD
ENDROOT
BRANCH   1   3
HETATM    3  N1  UNL     1      -3.250   2.644  11.533  1.00  0.00    -0.135 N 
HETATM    4  C4  UNL     1      -4.254   1.733  10.923  1.00  0.00     0.389 C 
HETATM    5  O2  UNL     1      -5.477   1.891  11.177  1.00  0.00    -0.236 OA
BRANCH   4   6
HETATM    6  O1  UNL     1      -3.904   0.706  10.079  1.00  0.00    -0.302 OA
BRANCH   6   7
HETATM    7  C3  UNL     1      -4.128  -0.652  10.267  1.00  0.00     0.180 C 
BRANCH   7   8
HETATM    8  C2  UNL     1      -3.776  -1.192  11.630  1.00  0.00     0.022 C 
HETATM    9  C1  UNL     1      -2.831  -2.377  11.340  1.00  0.00     0.007 C 
ENDBRANCH   7   8
ENDBRANCH   6   7
ENDBRANCH   4   6
BRANCH   3  10
HETATM   10  C12 UNL     1      -1.920   2.296  11.158  1.00  0.00     0.509 C 
HETATM   11  F1  UNL     1      -1.463   1.057  11.344  1.00  0.00    -0.149 F 
HETATM   12  F2  UNL     1      -1.800   2.678   9.808  1.00  0.00    -0.149 F 
HETATM   13  F3  UNL     1      -1.049   3.179  11.839  1.00  0.00    -0.149 F 
ENDBRANCH   3  10
ENDBRANCH   1   3
BRANCH   1  14
HETATM   14  C5  UNL     1      -4.097   3.684  13.695  1.00  0.00     0.191 C 
HETATM   15  S1  UNL     1      -3.193   4.493  14.748  1.00  0.00    -0.039 SA
BRANCH  14  16
HETATM   16  N3  UNL     1      -5.253   2.978  14.177  1.00  0.00    -0.331 N 
ATOM     17  H3  UNL     1      -5.868   2.601  13.456  1.00  0.00     0.168 HD
BRANCH  16  18
HETATM   18  C6  UNL     1      -5.652   2.735  15.484  1.00  0.00     0.051 A 
HETATM   19  C7  UNL     1      -6.435   3.537  16.254  1.00  0.00     0.031 A 
HETATM   20  C8  UNL     1      -6.831   3.222  17.554  1.00  0.00     0.002 A 
HETATM   21  C9  UNL     1      -6.405   2.013  18.093  1.00  0.00     0.002 A 
HETATM   22  C10 UNL     1      -5.617   1.157  17.359  1.00  0.00     0.021 A 
HETATM   23  C11 UNL     1      -5.260   1.544  16.068  1.00  0.00     0.037 A 
HETATM   24 BR1  UNL     1      -4.158   0.311  15.086  1.00  0.00    -0.049 Br
ENDBRANCH  16  18
ENDBRANCH  14  16
ENDBRANCH   1  14
TORSDOF 8
ENDMDL
MODEL 4
REMARK VINA RESULT: -6.978532413      1.302      1.590
REMARK  8 active torsions:
REMARK  status: ('A' for Active; 'I' for Inactive)
REMARK    1  A    between atoms: C2_2  and  C3_3 
REMARK    2  A    between atoms: C3_3  and  O1_4 
REMARK    3  A    between atoms: O1_4  and  C4_5 
REMARK       I    between atoms: C4_5  and  N1_7 
REMARK    4  A    between atoms: N1_7  and  N2_8 
REMARK    5  A    between atoms: N1_7  and  C12_21 
REMARK    6  A    between atoms: N2_8  and  C5_10 
REMARK    7  A    between atoms: C5_10  and  N3_12 
REMARK    8  A    between atoms: N3_12  and  C6_14 
ROOT
HETATM    1  N2  UNL     1      -3.723   4.803  13.982  1.00  0.00    -0.262 N 
ATOM      2  H2  UNL     1      -3.291   5.600  14.450  1.00  0.00     0.190 HD
ENDROOT
BRANCH   1   3
HETATM    3  N1  UNL     1      -4.633   4.165  14.770  1.00  0.00    -0.135 N 
HETATM    4  C4  UNL     1      -4.064   3.060  15.586  1.00  0.00     0.389 C 
HETATM    5  O2  UNL     1      -2.837   2.790  15.505  1.00  0.00    -0.236 OA
BRANCH   4   6
HETATM    6  O1  UNL     1      -4.829   2.305  16.443  1.00  0.00    -0.302 OA
BRANCH   6   7
HETATM    7  C3  UNL     1      -4.916   0.919  16.494  1.00  0.00     0.180 C 
BRANCH   7   8
HETATM    8  C2  UNL     1      -6.025   0.362  17.351  1.00  0.00     0.022 C 
HETATM    9  C1  UNL     1      -7.246   1.242  17.015  1.00  0.00     0.007 C 
ENDBRANCH   7   8
ENDBRANCH   6   7
ENDBRANCH   4   6
BRANCH   3  10
HETATM   10  C12 UNL     1      -6.037   4.304  14.969  1.00  0.00     0.509 C 
HETATM   11  F1  UNL     1      -6.542   4.410  16.198  1.00  0.00    -0.149 F 
HETATM   12  F2  UNL     1      -6.420   5.401  14.172  1.00  0.00    -0.149 F 
HETATM   13  F3  UNL     1      -6.659   3.197  14.345  1.00  0.00    -0.149 F 
ENDBRANCH   3  10
ENDBRANCH   1   3
BRANCH   1  14
HETATM   14  C5  UNL     1      -3.245   4.620  12.686  1.00  0.00     0.191 C 
HETATM   15  S1  UNL     1      -3.600   5.622  11.481  1.00  0.00    -0.039 SA
BRANCH  14  16
HETATM   16  N3  UNL     1      -2.439   3.462  12.406  1.00  0.00    -0.331 N 
ATOM     17  H3  UNL     1      -1.437   3.579  12.563  1.00  0.00     0.168 HD
BRANCH  16  18
HETATM   18  C6  UNL     1      -2.828   2.209  11.954  1.00  0.00     0.051 A 
HETATM   19  C7  UNL     1      -3.927   1.511  12.345  1.00  0.00     0.031 A 
HETATM   20  C8  UNL     1      -4.284   0.266  11.828  1.00  0.00     0.002 A 
HETATM   21  C9  UNL     1      -3.470  -0.293  10.848  1.00  0.00     0.002 A 
HETATM   22  C10 UNL     1      -2.349   0.370  10.406  1.00  0.00     0.021 A 
HETATM   23  C11 UNL     1      -2.056   1.609  10.975  1.00  0.00     0.037 A 
HETATM   24 BR1  UNL     1      -0.478   2.493  10.321  1.00  0.00    -0.049 Br
ENDBRANCH  16  18
ENDBRANCH  14  16
ENDBRANCH   1  14
TORSDOF 8
ENDMDL
MODEL 5
REMARK VINA RESULT: -6.851771392      2.476      2.939
REMARK  8 active torsions:
REMARK  status: ('A' for Active; 'I' for Inactive)
REMARK    1  A    between atoms: C2_2  and  C3_3 
REMARK    2  A    between atoms: C3_3  and  O1_4 
REMARK    3  A    between atoms: O1_4  and  C4_5 
REMARK       I    between atoms: C4_5  and  N1_7 
REMARK    4  A    between atoms: N1_7  and  N2_8 
REMARK    5  A    between atoms: N1_7  and  C12_21 
REMARK    6  A    between atoms: N2_8  and  C5_10 
REMARK    7  A    between atoms: C5_10  and  N3_12 
REMARK    8  A    between atoms: N3_12  and  C6_14 
ROOT
HETATM    1  N2  UNL     1      -4.331   1.305  12.964  1.00  0.00    -0.262 N 
ATOM      2  H2  UNL     1      -5.221   0.946  12.618  1.00  0.00     0.190 HD
ENDROOT
BRANCH   1   3
HETATM    3  N1  UNL     1      -4.398   1.706  14.264  1.00  0.00    -0.135 N 
HETATM    4  C4  UNL     1      -4.463   0.589  15.243  1.00  0.00     0.389 C 
HETATM    5  O2  UNL     1      -4.454  -0.602  14.836  1.00  0.00    -0.236 OA
BRANCH   4   6
HETATM    6  O1  UNL     1      -4.532   0.800  16.600  1.00  0.00    -0.302 OA
BRANCH   6   7
HETATM    7  C3  UNL     1      -5.546   0.402  17.462  1.00  0.00     0.180 C 
BRANCH   7   8
HETATM    8  C2  UNL     1      -6.738   1.325  17.545  1.00  0.00     0.022 C 
HETATM    9  C1  UNL     1      -6.348   2.358  18.621  1.00  0.00     0.007 C 
ENDBRANCH   7   8
ENDBRANCH   6   7
ENDBRANCH   4   6
BRANCH   3  10
HETATM   10  C12 UNL     1      -4.449   2.978  14.903  1.00  0.00     0.509 C 
HETATM   11  F1  UNL     1      -5.516   3.338  15.618  1.00  0.00    -0.149 F 
HETATM   12  F2  UNL     1      -3.277   3.053  15.680  1.00  0.00    -0.149 F 
HETATM   13  F3  UNL     1      -4.256   3.958  13.901  1.00  0.00    -0.149 F 
ENDBRANCH   3  10
ENDBRANCH   1   3
BRANCH   1  14
HETATM   14  C5  UNL     1      -3.329   1.272  11.996  1.00  0.00     0.191 C 
HETATM   15  S1  UNL     1      -2.982  -0.051  11.153  1.00  0.00    -0.039 SA
BRANCH  14  16
HETATM   16  N3  UNL     1      -2.545   2.457  11.775  1.00  0.00    -0.331 N 
ATOM     17  H3  UNL     1      -1.724   2.555  12.374  1.00  0.00     0.168 HD
BRANCH  16  18
HETATM   18  C6  UNL     1      -2.744   3.485  10.865  1.00  0.00     0.051 A 
HETATM   19  C7  UNL     1      -3.881   4.211  10.698  1.00  0.00     0.031 A 
HETATM   20  C8  UNL     1      -4.010   5.258   9.787  1.00  0.00     0.002 A 
HETATM   21  C9  UNL     1      -2.908   5.585   9.005  1.00  0.00     0.002 A 
HETATM   22  C10 UNL     1      -1.727   4.891   9.134  1.00  0.00     0.021 A 
HETATM   23  C11 UNL     1      -1.677   3.854  10.066  1.00  0.00     0.037 A 
HETATM   24 BR1  UNL     1      -0.003   2.918  10.206  1.00  0.00    -0.049 Br
ENDBRANCH  16  18
ENDBRANCH  14  16
ENDBRANCH   1  14
TORSDOF 8
ENDMDL
