MODEL 1
REMARK VINA RESULT: -6.526902532      0.000      0.000
REMARK  6 active torsions:
REMARK  status: ('A' for Active; 'I' for Inactive)
REMARK    1  A    between atoms: N1_2  and  C3_4 
REMARK    2  A    between atoms: C3_4  and  C4_5 
REMARK    3  A    between atoms: C4_5  and  O1_6 
REMARK    4  A    between atoms: C4_5  and  C5_8 
REMARK    5  A    between atoms: C9_12  and  C10_13 
REMARK    6  A    between atoms: C10_13  and  O2_16 
ROOT
HETATM    1  C5  UNL     1      -4.813   1.293  14.208  1.00  0.00     0.016 C 
HETATM    2  C6  UNL     1      -4.473   2.706  13.897  1.00  0.00     0.007 C 
HETATM    3  C7  UNL     1      -4.126   2.791  12.403  1.00  0.00     0.001 C 
HETATM    4  C8  UNL     1      -4.891   1.731  11.647  1.00  0.00     0.007 C 
HETATM    5  C9  UNL     1      -4.462   0.343  12.001  1.00  0.00     0.019 C 
HETATM    6  C13 UNL     1      -3.872   0.397  13.390  1.00  0.00     0.014 C 
ENDROOT
BRANCH   1   7
HETATM    7  C4  UNL     1      -4.807   0.894  15.639  1.00  0.00     0.150 C 
BRANCH   7   8
HETATM    8  C3  UNL     1      -4.982   2.051  16.555  1.00  0.00     0.303 C 
BRANCH   8   9
HETATM    9  N1  UNL     1      -6.201   2.107  17.294  1.00  0.00     0.082 N 
HETATM   10  C1  UNL     1      -6.944   3.267  16.748  1.00  0.00     0.309 C 
HETATM   11  C2  UNL     1      -7.062   0.956  17.025  1.00  0.00     0.309 C 
ENDBRANCH   8   9
ENDBRANCH   7   8
BRANCH   7  12
HETATM   12  O1  UNL     1      -3.689   0.129  15.916  1.00  0.00    -0.393 OA
ATOM     13  H1  UNL     1      -3.888  -0.777  16.126  1.00  0.00     0.210 HD
ENDBRANCH   7  12
ENDBRANCH   1   7
BRANCH   5  14
HETATM   14  C10 UNL     1      -3.518  -0.261  10.997  1.00  0.00     0.054 C 
HETATM   15  C11 UNL     1      -2.191   0.450  10.931  1.00  0.00     0.045 C 
HETATM   16  C12 UNL     1      -3.300  -1.725  11.205  1.00  0.00     0.045 C 
BRANCH  14  17
HETATM   17  O2  UNL     1      -4.100  -0.119   9.716  1.00  0.00    -0.390 OA
ATOM     18  H2  UNL     1      -4.619  -0.896   9.543  1.00  0.00     0.210 HD
ENDBRANCH  14  17
ENDBRANCH   5  14
TORSDOF 6
ENDMDL
MODEL 2
REMARK VINA RESULT: -6.236614795      2.293      5.685
REMARK  6 active torsions:
REMARK  status: ('A' for Active; 'I' for Inactive)
REMARK    1  A    between atoms: N1_2  and  C3_4 
REMARK    2  A    between atoms: C3_4  and  C4_5 
REMARK    3  A    between atoms: C4_5  and  O1_6 
REMARK    4  A    between atoms: C4_5  and  C5_8 
REMARK    5  A    between atoms: C9_12  and  C10_13 
REMARK    6  A    between atoms: C10_13  and  O2_16 
ROOT
HETATM    1  C5  UNL     1      -4.549   2.216  13.407  1.00  0.00     0.016 C 
HETATM    2  C6  UNL     1      -3.667   3.327  13.849  1.00  0.00     0.007 C 
HETATM    3  C7  UNL     1      -3.699   3.373  15.385  1.00  0.00     0.001 C 
HETATM    4  C8  UNL     1      -3.949   1.987  15.926  1.00  0.00     0.007 C 
HETATM    5  C9  UNL     1      -5.312   1.470  15.589  1.00  0.00     0.019 C 
HETATM    6  C13 UNL     1      -5.767   2.189  14.342  1.00  0.00     0.014 C 
ENDROOT
BRANCH   1   7
HETATM    7  C4  UNL     1      -4.979   2.216  11.985  1.00  0.00     0.150 C 
BRANCH   7   8
HETATM    8  C3  UNL     1      -4.625   0.955  11.283  1.00  0.00     0.303 C 
BRANCH   8   9
HETATM    9  N1  UNL     1      -3.517   0.220  11.800  1.00  0.00     0.082 N 
HETATM   10  C1  UNL     1      -3.861  -1.207  11.609  1.00  0.00     0.309 C 
HETATM   11  C2  UNL     1      -2.305   0.419  11.007  1.00  0.00     0.309 C 
ENDBRANCH   8   9
ENDBRANCH   7   8
BRANCH   7  12
HETATM   12  O1  UNL     1      -4.519   3.355  11.348  1.00  0.00    -0.393 OA
ATOM     13  H1  UNL     1      -5.067   4.118  11.488  1.00  0.00     0.210 HD
ENDBRANCH   7  12
ENDBRANCH   1   7
BRANCH   5  14
HETATM   14  C10 UNL     1      -6.293   1.601  16.722  1.00  0.00     0.054 C 
HETATM   15  C11 UNL     1      -5.662   1.404  18.076  1.00  0.00     0.045 C 
HETATM   16  C12 UNL     1      -7.048   2.891  16.696  1.00  0.00     0.045 C 
BRANCH  14  17
HETATM   17  O2  UNL     1      -7.252   0.571  16.587  1.00  0.00    -0.390 OA
ATOM     18  H2  UNL     1      -7.945   0.734  17.216  1.00  0.00     0.210 HD
ENDBRANCH  14  17
ENDBRANCH   5  14
TORSDOF 6
ENDMDL
MODEL 3
REMARK VINA RESULT: -6.134468957      2.413      5.708
REMARK  6 active torsions:
REMARK  status: ('A' for Active; 'I' for Inactive)
REMARK    1  A    between atoms: N1_2  and  C3_4 
REMARK    2  A    between atoms: C3_4  and  C4_5 
REMARK    3  A    between atoms: C4_5  and  O1_6 
REMARK    4  A    between atoms: C4_5  and  C5_8 
REMARK    5  A    between atoms: C9_12  and  C10_13 
REMARK    6  A    between atoms: C10_13  and  O2_16 
ROOT
HETATM    1  C5  UNL     1      -4.468   1.824  13.998  1.00  0.00     0.016 C 
HETATM    2  C6  UNL     1      -5.348   2.939  13.562  1.00  0.00     0.007 C 
HETATM    3  C7  UNL     1      -6.109   3.451  14.794  1.00  0.00     0.001 C 
HETATM    4  C8  UNL     1      -5.272   3.231  16.030  1.00  0.00     0.007 C 
HETATM    5  C9  UNL     1      -5.077   1.782  16.349  1.00  0.00     0.019 C 
HETATM    6  C13 UNL     1      -5.232   1.016  15.057  1.00  0.00     0.014 C 
ENDROOT
BRANCH   1   7
HETATM    7  C4  UNL     1      -3.931   0.930  12.941  1.00  0.00     0.150 C 
BRANCH   7   8
HETATM    8  C3  UNL     1      -4.125   1.483  11.575  1.00  0.00     0.303 C 
BRANCH   8   9
HETATM    9  N1  UNL     1      -2.948   1.692  10.795  1.00  0.00     0.082 N 
HETATM   10  C1  UNL     1      -2.334   2.931  11.327  1.00  0.00     0.309 C 
HETATM   11  C2  UNL     1      -1.945   0.654  11.021  1.00  0.00     0.309 C 
ENDBRANCH   8   9
ENDBRANCH   7   8
BRANCH   7  12
HETATM   12  O1  UNL     1      -4.432  -0.350  13.098  1.00  0.00    -0.393 OA
ATOM     13  H1  UNL     1      -4.110  -0.968  12.452  1.00  0.00     0.210 HD
ENDBRANCH   7  12
ENDBRANCH   1   7
BRANCH   5  14
HETATM   14  C10 UNL     1      -5.997   1.283  17.430  1.00  0.00     0.054 C 
HETATM   15  C11 UNL     1      -6.115   2.236  18.591  1.00  0.00     0.045 C 
HETATM   16  C12 UNL     1      -7.358   0.930  16.923  1.00  0.00     0.045 C 
BRANCH  14  17
HETATM   17  O2  UNL     1      -5.442   0.094  17.957  1.00  0.00    -0.390 OA
ATOM     18  H2  UNL     1      -5.423   0.176  18.903  1.00  0.00     0.210 HD
ENDBRANCH  14  17
ENDBRANCH   5  14
TORSDOF 6
ENDMDL
MODEL 4
REMARK VINA RESULT: -6.103639819      2.235      5.581
REMARK  6 active torsions:
REMARK  status: ('A' for Active; 'I' for Inactive)
REMARK    1  A    between atoms: N1_2  and  C3_4 
REMARK    2  A    between atoms: C3_4  and  C4_5 
REMARK    3  A    between atoms: C4_5  and  O1_6 
REMARK    4  A    between atoms: C4_5  and  C5_8 
REMARK    5  A    between atoms: C9_12  and  C10_13 
REMARK    6  A    between atoms: C10_13  and  O2_16 
ROOT
HETATM    1  C5  UNL     1      -4.560   2.437  14.016  1.00  0.00     0.016 C 
HETATM    2  C6  UNL     1      -5.483   3.576  13.776  1.00  0.00     0.007 C 
HETATM    3  C7  UNL     1      -6.236   3.860  15.085  1.00  0.00     0.001 C 
HETATM    4  C8  UNL     1      -5.368   3.475  16.258  1.00  0.00     0.007 C 
HETATM    5  C9  UNL     1      -5.121   2.002  16.339  1.00  0.00     0.019 C 
HETATM    6  C13 UNL     1      -5.278   1.445  14.944  1.00  0.00     0.014 C 
ENDROOT
BRANCH   1   7
HETATM    7  C4  UNL     1      -4.018   1.740  12.822  1.00  0.00     0.150 C 
BRANCH   7   8
HETATM    8  C3  UNL     1      -4.075   0.261  12.950  1.00  0.00     0.303 C 
BRANCH   8   9
HETATM    9  N1  UNL     1      -4.411  -0.473  11.773  1.00  0.00     0.082 N 
HETATM   10  C1  UNL     1      -4.871   0.537  10.793  1.00  0.00     0.309 C 
HETATM   11  C2  UNL     1      -3.239  -1.087  11.152  1.00  0.00     0.309 C 
ENDBRANCH   8   9
ENDBRANCH   7   8
BRANCH   7  12
HETATM   12  O1  UNL     1      -2.758   2.224  12.518  1.00  0.00    -0.393 OA
ATOM     13  H1  UNL     1      -2.650   3.150  12.703  1.00  0.00     0.210 HD
ENDBRANCH   7  12
ENDBRANCH   1   7
BRANCH   5  14
HETATM   14  C10 UNL     1      -6.003   1.307  17.340  1.00  0.00     0.054 C 
HETATM   15  C11 UNL     1      -6.109   2.047  18.648  1.00  0.00     0.045 C 
HETATM   16  C12 UNL     1      -7.370   1.012  16.811  1.00  0.00     0.045 C 
BRANCH  14  17
HETATM   17  O2  UNL     1      -5.412   0.059  17.646  1.00  0.00    -0.390 OA
ATOM     18  H2  UNL     1      -6.074  -0.483  18.060  1.00  0.00     0.210 HD
ENDBRANCH  14  17
ENDBRANCH   5  14
TORSDOF 6
ENDMDL
MODEL 5
REMARK VINA RESULT: -6.051586959      1.532      2.791
REMARK  6 active torsions:
REMARK  status: ('A' for Active; 'I' for Inactive)
REMARK    1  A    between atoms: N1_2  and  C3_4 
REMARK    2  A    between atoms: C3_4  and  C4_5 
REMARK    3  A    between atoms: C4_5  and  O1_6 
REMARK    4  A    between atoms: C4_5  and  C5_8 
REMARK    5  A    between atoms: C9_12  and  C10_13 
REMARK    6  A    between atoms: C10_13  and  O2_16 
ROOT
HETATM    1  C5  UNL     1      -4.056   0.964  13.746  1.00  0.00     0.016 C 
HETATM    2  C6  UNL     1      -4.267  -0.160  12.798  1.00  0.00     0.007 C 
HETATM    3  C7  UNL     1      -3.979   0.356  11.380  1.00  0.00     0.001 C 
HETATM    4  C8  UNL     1      -2.954   1.462  11.445  1.00  0.00     0.007 C 
HETATM    5  C9  UNL     1      -3.465   2.686  12.138  1.00  0.00     0.019 C 
HETATM    6  C13 UNL     1      -4.568   2.245  13.069  1.00  0.00     0.014 C 
ENDROOT
BRANCH   1   7
HETATM    7  C4  UNL     1      -4.634   0.822  15.106  1.00  0.00     0.150 C 
BRANCH   7   8
HETATM    8  C3  UNL     1      -5.496   1.972  15.483  1.00  0.00     0.303 C 
BRANCH   8   9
HETATM    9  N1  UNL     1      -6.046   1.959  16.800  1.00  0.00     0.082 N 
HETATM   10  C1  UNL     1      -6.838   3.205  16.913  1.00  0.00     0.309 C 
HETATM   11  C2  UNL     1      -7.018   0.883  16.980  1.00  0.00     0.309 C 
ENDBRANCH   8   9
ENDBRANCH   7   8
BRANCH   7  12
HETATM   12  O1  UNL     1      -3.636   0.550  16.024  1.00  0.00    -0.393 OA
ATOM     13  H1  UNL     1      -3.453  -0.377  16.127  1.00  0.00     0.210 HD
ENDBRANCH   7  12
ENDBRANCH   1   7
BRANCH   5  14
HETATM   14  C10 UNL     1      -3.909   3.765  11.187  1.00  0.00     0.054 C 
HETATM   15  C11 UNL     1      -4.210   5.071  11.876  1.00  0.00     0.045 C 
HETATM   16  C12 UNL     1      -2.945   3.991  10.068  1.00  0.00     0.045 C 
BRANCH  14  17
HETATM   17  O2  UNL     1      -5.123   3.348  10.595  1.00  0.00    -0.390 OA
ATOM     18  H2  UNL     1      -5.377   4.005   9.957  1.00  0.00     0.210 HD
ENDBRANCH  14  17
ENDBRANCH   5  14
TORSDOF 6
ENDMDL
