MODEL 1
REMARK VINA RESULT: -7.320754993      0.000      0.000
REMARK  5 active torsions:
REMARK  status: ('A' for Active; 'I' for Inactive)
REMARK    1  A    between atoms: C2_2  and  N1_3 
REMARK    2  A    between atoms: C8_10  and  C9_11 
REMARK    3  A    between atoms: C9_11  and  O1_12 
REMARK    4  A    between atoms: C9_11  and  C10_14 
REMARK    5  A    between atoms: N3_20  and  C11_21 
ROOT
HETATM    1  N1  UNL     1      -0.695   4.922  11.980  1.00  0.00    -0.302 N 
HETATM    2  C3  UNL     1      -1.628   5.211  11.091  1.00  0.00     0.131 A 
HETATM    3  C4  UNL     1      -2.797   4.490  11.369  1.00  0.00     0.058 A 
HETATM    4 BR1  UNL     1      -4.444   4.614  10.400  1.00  0.00    -0.047 Br
HETATM    5  C5  UNL     1      -2.502   3.747  12.482  1.00  0.00     0.095 A 
HETATM    6  C6  UNL     1      -3.285   2.852  13.297  1.00  0.00     0.083 A 
HETATM    7  C7  UNL     1      -3.528   3.172  14.648  1.00  0.00     0.063 A 
HETATM    8  C8  UNL     1      -4.240   2.114  15.143  1.00  0.00     0.066 A 
HETATM    9  N2  UNL     1      -4.400   1.251  14.167  1.00  0.00    -0.299 N 
ATOM     10  H2  UNL     1      -4.898   0.365  14.257  1.00  0.00     0.187 HD
HETATM   11  N3  UNL     1      -3.817   1.689  13.025  1.00  0.00    -0.281 N 
HETATM   12  N4  UNL     1      -1.202   4.058  12.805  1.00  0.00    -0.295 N 
ATOM     13  H4  UNL     1      -0.698   3.659  13.596  1.00  0.00     0.187 HD
ENDROOT
BRANCH  11  14
HETATM   14  C11 UNL     1      -3.829   0.880  11.842  1.00  0.00     0.043 C 
HETATM   15  C12 UNL     1      -5.050   1.128  10.959  1.00  0.00     0.039 C 
HETATM   16  C13 UNL     1      -4.062  -0.604  12.312  1.00  0.00     0.039 C 
HETATM   17  C14 UNL     1      -2.554   0.765  11.100  1.00  0.00     0.039 C 
ENDBRANCH  11  14
BRANCH   8  18
HETATM   18  C9  UNL     1      -4.728   1.999  16.547  1.00  0.00     0.276 C 
BRANCH  18  19
HETATM   19  O1  UNL     1      -4.469   0.769  17.108  1.00  0.00    -0.381 OA
ATOM     20  H1  UNL     1      -4.829   0.048  16.606  1.00  0.00     0.210 HD
ENDBRANCH  18  19
BRANCH  18  21
HETATM   21  C10 UNL     1      -6.207   2.291  16.657  1.00  0.00     0.418 C 
HETATM   22  F1  UNL     1      -6.957   1.133  16.611  1.00  0.00    -0.168 F 
HETATM   23  F2  UNL     1      -6.384   2.824  17.941  1.00  0.00    -0.168 F 
HETATM   24  F3  UNL     1      -6.637   3.261  15.791  1.00  0.00    -0.168 F 
ENDBRANCH  18  21
ENDBRANCH   8  18
BRANCH   1  25
HETATM   25  C2  UNL     1       0.677   5.427  12.092  1.00  0.00     0.143 C 
HETATM   26  C1  UNL     1       1.607   4.593  11.245  1.00  0.00     0.028 C 
ENDBRANCH   1  25
TORSDOF 5
ENDMDL
MODEL 2
REMARK VINA RESULT: -7.233449618      1.940      2.306
REMARK  5 active torsions:
REMARK  status: ('A' for Active; 'I' for Inactive)
REMARK    1  A    between atoms: C2_2  and  N1_3 
REMARK    2  A    between atoms: C8_10  and  C9_11 
REMARK    3  A    between atoms: C9_11  and  O1_12 
REMARK    4  A    between atoms: C9_11  and  C10_14 
REMARK    5  A    between atoms: N3_20  and  C11_21 
ROOT
HETATM    1  N1  UNL     1      -2.033   6.688  13.850  1.00  0.00    -0.302 N 
HETATM    2  C3  UNL     1      -2.938   6.966  12.931  1.00  0.00     0.131 A 
HETATM    3  C4  UNL     1      -3.738   5.841  12.687  1.00  0.00     0.058 A 
HETATM    4 BR1  UNL     1      -5.224   5.766  11.483  1.00  0.00    -0.047 Br
HETATM    5  C5  UNL     1      -3.250   4.869  13.521  1.00  0.00     0.095 A 
HETATM    6  C6  UNL     1      -3.665   3.517  13.795  1.00  0.00     0.083 A 
HETATM    7  C7  UNL     1      -4.110   3.173  15.088  1.00  0.00     0.063 A 
HETATM    8  C8  UNL     1      -4.372   1.831  15.029  1.00  0.00     0.066 A 
HETATM    9  N2  UNL     1      -4.105   1.426  13.811  1.00  0.00    -0.299 N 
ATOM     10  H2  UNL     1      -4.212   0.465  13.486  1.00  0.00     0.187 HD
HETATM   11  N3  UNL     1      -3.667   2.451  13.038  1.00  0.00    -0.281 N 
HETATM   12  N4  UNL     1      -2.209   5.452  14.205  1.00  0.00    -0.295 N 
ATOM     13  H4  UNL     1      -1.644   4.971  14.905  1.00  0.00     0.187 HD
ENDROOT
BRANCH  11  14
HETATM   14  C11 UNL     1      -3.272   2.224  11.680  1.00  0.00     0.043 C 
HETATM   15  C12 UNL     1      -4.422   2.377  10.687  1.00  0.00     0.039 C 
HETATM   16  C13 UNL     1      -2.937   0.691  11.556  1.00  0.00     0.039 C 
HETATM   17  C14 UNL     1      -2.002   2.846  11.242  1.00  0.00     0.039 C 
ENDBRANCH  11  14
BRANCH   8  18
HETATM   18  C9  UNL     1      -4.871   1.012  16.170  1.00  0.00     0.276 C 
BRANCH  18  19
HETATM   19  O1  UNL     1      -5.113  -0.299  15.827  1.00  0.00    -0.381 OA
ATOM     20  H1  UNL     1      -5.902  -0.408  15.309  1.00  0.00     0.210 HD
ENDBRANCH  18  19
BRANCH  18  21
HETATM   21  C10 UNL     1      -6.120   1.600  16.786  1.00  0.00     0.418 C 
HETATM   22  F1  UNL     1      -6.788   2.415  15.894  1.00  0.00    -0.168 F 
HETATM   23  F2  UNL     1      -6.963   0.508  17.030  1.00  0.00    -0.168 F 
HETATM   24  F3  UNL     1      -5.904   2.181  18.007  1.00  0.00    -0.168 F 
ENDBRANCH  18  21
ENDBRANCH   8  18
BRANCH   1  25
HETATM   25  C2  UNL     1      -0.988   7.544  14.423  1.00  0.00     0.143 C 
HETATM   26  C1  UNL     1      -1.559   8.378  15.543  1.00  0.00     0.028 C 
ENDBRANCH   1  25
TORSDOF 5
ENDMDL
MODEL 3
REMARK VINA RESULT: -7.095444464      3.558      6.244
REMARK  5 active torsions:
REMARK  status: ('A' for Active; 'I' for Inactive)
REMARK    1  A    between atoms: C2_2  and  N1_3 
REMARK    2  A    between atoms: C8_10  and  C9_11 
REMARK    3  A    between atoms: C9_11  and  O1_12 
REMARK    4  A    between atoms: C9_11  and  C10_14 
REMARK    5  A    between atoms: N3_20  and  C11_21 
ROOT
HETATM    1  N1  UNL     1      -5.805   2.252  16.754  1.00  0.00    -0.302 N 
HETATM    2  C3  UNL     1      -6.395   3.387  16.428  1.00  0.00     0.131 A 
HETATM    3  C4  UNL     1      -5.963   3.808  15.162  1.00  0.00     0.058 A 
HETATM    4 BR1  UNL     1      -6.577   5.363  14.231  1.00  0.00    -0.047 Br
HETATM    5  C5  UNL     1      -5.072   2.850  14.753  1.00  0.00     0.095 A 
HETATM    6  C6  UNL     1      -4.329   2.662  13.533  1.00  0.00     0.083 A 
HETATM    7  C7  UNL     1      -4.575   1.528  12.734  1.00  0.00     0.063 A 
HETATM    8  C8  UNL     1      -3.685   1.621  11.698  1.00  0.00     0.066 A 
HETATM    9  N2  UNL     1      -2.980   2.713  11.877  1.00  0.00    -0.299 N 
ATOM     10  H2  UNL     1      -2.240   3.030  11.250  1.00  0.00     0.187 HD
HETATM   11  N3  UNL     1      -3.363   3.365  13.002  1.00  0.00    -0.281 N 
HETATM   12  N4  UNL     1      -5.022   1.927  15.772  1.00  0.00    -0.295 N 
ATOM     13  H4  UNL     1      -4.441   1.089  15.756  1.00  0.00     0.187 HD
ENDROOT
BRANCH  11  14
HETATM   14  C11 UNL     1      -2.692   4.562  13.416  1.00  0.00     0.043 C 
HETATM   15  C12 UNL     1      -3.349   5.833  12.881  1.00  0.00     0.039 C 
HETATM   16  C13 UNL     1      -1.302   4.579  12.679  1.00  0.00     0.039 C 
HETATM   17  C14 UNL     1      -2.282   4.640  14.835  1.00  0.00     0.039 C 
ENDBRANCH  11  14
BRANCH   8  18
HETATM   18  C9  UNL     1      -3.567   0.635  10.587  1.00  0.00     0.276 C 
BRANCH  18  19
HETATM   19  O1  UNL     1      -4.784   0.279  10.052  1.00  0.00    -0.381 OA
ATOM     20  H1  UNL     1      -5.263   1.017   9.694  1.00  0.00     0.210 HD
ENDBRANCH  18  19
BRANCH  18  21
HETATM   21  C10 UNL     1      -2.831  -0.614  11.014  1.00  0.00     0.418 C 
HETATM   22  F1  UNL     1      -3.478  -1.254  12.052  1.00  0.00    -0.168 F 
HETATM   23  F2  UNL     1      -2.900  -1.480   9.914  1.00  0.00    -0.168 F 
HETATM   24  F3  UNL     1      -1.496  -0.408  11.241  1.00  0.00    -0.168 F 
ENDBRANCH  18  21
ENDBRANCH   8  18
BRANCH   1  25
HETATM   25  C2  UNL     1      -5.944   1.442  17.969  1.00  0.00     0.143 C 
HETATM   26  C1  UNL     1      -6.215   2.333  19.157  1.00  0.00     0.028 C 
ENDBRANCH   1  25
TORSDOF 5
ENDMDL
MODEL 4
REMARK VINA RESULT: -7.028915492      2.299      2.631
REMARK  5 active torsions:
REMARK  status: ('A' for Active; 'I' for Inactive)
REMARK    1  A    between atoms: C2_2  and  N1_3 
REMARK    2  A    between atoms: C8_10  and  C9_11 
REMARK    3  A    between atoms: C9_11  and  O1_12 
REMARK    4  A    between atoms: C9_11  and  C10_14 
REMARK    5  A    between atoms: N3_20  and  C11_21 
ROOT
HETATM    1  N1  UNL     1      -2.094   7.274  13.466  1.00  0.00    -0.302 N 
HETATM    2  C3  UNL     1      -2.717   7.436  12.314  1.00  0.00     0.131 A 
HETATM    3  C4  UNL     1      -3.620   6.385  12.103  1.00  0.00     0.058 A 
HETATM    4 BR1  UNL     1      -4.799   6.207  10.605  1.00  0.00    -0.047 Br
HETATM    5  C5  UNL     1      -3.493   5.579  13.204  1.00  0.00     0.095 A 
HETATM    6  C6  UNL     1      -4.176   4.382  13.625  1.00  0.00     0.083 A 
HETATM    7  C7  UNL     1      -4.943   4.395  14.807  1.00  0.00     0.063 A 
HETATM    8  C8  UNL     1      -5.405   3.115  14.947  1.00  0.00     0.066 A 
HETATM    9  N2  UNL     1      -4.948   2.415  13.936  1.00  0.00    -0.299 N 
ATOM     10  H2  UNL     1      -5.140   1.424  13.789  1.00  0.00     0.187 HD
HETATM   11  N3  UNL     1      -4.189   3.179  13.113  1.00  0.00    -0.281 N 
HETATM   12  N4  UNL     1      -2.545   6.180  13.999  1.00  0.00    -0.295 N 
ATOM     13  H4  UNL     1      -2.234   5.811  14.898  1.00  0.00     0.187 HD
ENDROOT
BRANCH  11  14
HETATM   14  C11 UNL     1      -3.550   2.604  11.967  1.00  0.00     0.043 C 
HETATM   15  C12 UNL     1      -4.413   2.658  10.708  1.00  0.00     0.039 C 
HETATM   16  C13 UNL     1      -3.455   1.055  12.231  1.00  0.00     0.039 C 
HETATM   17  C14 UNL     1      -2.130   2.960  11.747  1.00  0.00     0.039 C 
ENDBRANCH  11  14
BRANCH   8  18
HETATM   18  C9  UNL     1      -6.269   2.641  16.065  1.00  0.00     0.276 C 
BRANCH  18  19
HETATM   19  O1  UNL     1      -6.828   3.670  16.789  1.00  0.00    -0.381 OA
ATOM     20  H1  UNL     1      -7.664   3.441  17.176  1.00  0.00     0.210 HD
ENDBRANCH  18  19
BRANCH  18  21
HETATM   21  C10 UNL     1      -5.523   1.722  17.006  1.00  0.00     0.418 C 
HETATM   22  F1  UNL     1      -4.156   1.859  16.869  1.00  0.00    -0.168 F 
HETATM   23  F2  UNL     1      -5.838   2.177  18.294  1.00  0.00    -0.168 F 
HETATM   24  F3  UNL     1      -5.954   0.424  16.956  1.00  0.00    -0.168 F 
ENDBRANCH  18  21
ENDBRANCH   8  18
BRANCH   1  25
HETATM   25  C2  UNL     1      -1.073   8.113  14.102  1.00  0.00     0.143 C 
HETATM   26  C1  UNL     1      -1.487   8.451  15.513  1.00  0.00     0.028 C 
ENDBRANCH   1  25
TORSDOF 5
ENDMDL
MODEL 5
REMARK VINA RESULT: -6.760832672      1.042      1.509
REMARK  5 active torsions:
REMARK  status: ('A' for Active; 'I' for Inactive)
REMARK    1  A    between atoms: C2_2  and  N1_3 
REMARK    2  A    between atoms: C8_10  and  C9_11 
REMARK    3  A    between atoms: C9_11  and  O1_12 
REMARK    4  A    between atoms: C9_11  and  C10_14 
REMARK    5  A    between atoms: N3_20  and  C11_21 
ROOT
HETATM    1  N1  UNL     1      -1.256   6.107  12.470  1.00  0.00    -0.302 N 
HETATM    2  C3  UNL     1      -2.204   6.304  11.573  1.00  0.00     0.131 A 
HETATM    3  C4  UNL     1      -3.214   5.344  11.722  1.00  0.00     0.058 A 
HETATM    4 BR1  UNL     1      -4.828   5.250  10.697  1.00  0.00    -0.047 Br
HETATM    5  C5  UNL     1      -2.806   4.556  12.767  1.00  0.00     0.095 A 
HETATM    6  C6  UNL     1      -3.416   3.444  13.450  1.00  0.00     0.083 A 
HETATM    7  C7  UNL     1      -3.751   3.562  14.814  1.00  0.00     0.063 A 
HETATM    8  C8  UNL     1      -4.252   2.338  15.166  1.00  0.00     0.066 A 
HETATM    9  N2  UNL     1      -4.213   1.572  14.102  1.00  0.00    -0.299 N 
ATOM     10  H2  UNL     1      -4.527   0.602  14.079  1.00  0.00     0.187 HD
HETATM   11  N3  UNL     1      -3.700   2.236  13.038  1.00  0.00    -0.281 N 
HETATM   12  N4  UNL     1      -1.602   5.077  13.179  1.00  0.00    -0.295 N 
ATOM     13  H4  UNL     1      -1.049   4.701  13.949  1.00  0.00     0.187 HD
ENDROOT
BRANCH  11  14
HETATM   14  C11 UNL     1      -3.522   1.573  11.780  1.00  0.00     0.043 C 
HETATM   15  C12 UNL     1      -4.644   1.862  10.785  1.00  0.00     0.039 C 
HETATM   16  C13 UNL     1      -3.714   0.034  12.049  1.00  0.00     0.039 C 
HETATM   17  C14 UNL     1      -2.163   1.609  11.193  1.00  0.00     0.039 C 
ENDBRANCH  11  14
BRANCH   8  18
HETATM   18  C9  UNL     1      -4.742   1.980  16.527  1.00  0.00     0.276 C 
BRANCH  18  19
HETATM   19  O1  UNL     1      -4.447   0.683  16.882  1.00  0.00    -0.381 OA
ATOM     20  H1  UNL     1      -3.720   0.620  17.489  1.00  0.00     0.210 HD
ENDBRANCH  18  19
BRANCH  18  21
HETATM   21  C10 UNL     1      -6.230   2.205  16.669  1.00  0.00     0.418 C 
HETATM   22  F1  UNL     1      -6.516   3.061  17.714  1.00  0.00    -0.168 F 
HETATM   23  F2  UNL     1      -6.618   2.869  15.498  1.00  0.00    -0.168 F 
HETATM   24  F3  UNL     1      -6.957   1.044  16.695  1.00  0.00    -0.168 F 
ENDBRANCH  18  21
ENDBRANCH   8  18
BRANCH   1  25
HETATM   25  C2  UNL     1      -0.014   6.855  12.696  1.00  0.00     0.143 C 
HETATM   26  C1  UNL     1      -0.323   8.199  13.309  1.00  0.00     0.028 C 
ENDBRANCH   1  25
TORSDOF 5
ENDMDL
