MODEL 1
REMARK VINA RESULT: -7.889447522      0.000      0.000
REMARK  8 active torsions:
REMARK  status: ('A' for Active; 'I' for Inactive)
REMARK    1  A    between atoms: C2_2  and  C3_3 
REMARK    2  A    between atoms: C5_9  and  O1_10 
REMARK    3  A    between atoms: C5_9  and  N3_12 
REMARK    4  A    between atoms: N3_12  and  C6_13 
REMARK    5  A    between atoms: N3_12  and  C11_21 
REMARK       I    between atoms: N6_28  and  C16_29 
REMARK    6  A    between atoms: C16_29  and  C17_31 
REMARK    7  A    between atoms: C17_31  and  C18_32 
REMARK    8  A    between atoms: C18_32  and  C19_33 
ROOT
HETATM    1  C3  UNL     1      24.807   8.715  13.676  1.00  0.00     0.124 A 
HETATM    2  N1  UNL     1      24.442   8.867  12.336  1.00  0.00    -0.285 N 
ATOM      3  H1  UNL     1      24.037   9.700  11.906  1.00  0.00     0.188 HD
HETATM    4  N2  UNL     1      24.718   7.735  11.738  1.00  0.00    -0.281 N 
ATOM      5  H2  UNL     1      24.547   7.567  10.747  1.00  0.00     0.188 HD
HETATM    6  C4  UNL     1      25.242   6.827  12.553  1.00  0.00     0.173 A 
HETATM    7  C5  UNL     1      25.756   5.509  12.327  1.00  0.00     0.185 C 
HETATM    8  N5  UNL     1      25.271   7.510  13.755  1.00  0.00    -0.325 N 
ATOM      9  H5  UNL     1      25.623   7.102  14.621  1.00  0.00     0.169 HD
ENDROOT
BRANCH   7  10
HETATM   10  O1  UNL     1      26.000   4.866  13.445  1.00  0.00    -0.343 OA
ATOM     11  H1  UNL     1      26.571   5.352  14.027  1.00  0.00     0.219 HD
ENDBRANCH   7  10
BRANCH   7  12
HETATM   12  N3  UNL     1      26.048   4.756  11.170  1.00  0.00    -0.349 N 
BRANCH  12  13
HETATM   13  C6  UNL     1      25.118   3.697  10.851  1.00  0.00     0.090 C 
HETATM   14  C7  UNL     1      23.712   4.337  10.886  1.00  0.00     0.052 C 
HETATM   15  C8  UNL     1      22.681   3.240  10.902  1.00  0.00     0.234 C 
HETATM   16  N4  UNL     1      22.848   2.368   9.748  1.00  0.00    -0.075 N 
HETATM   17  C9  UNL     1      24.144   1.740   9.780  1.00  0.00     0.234 C 
ATOM     18  H42 UNL     1      22.095   1.684   9.676  1.00  0.00     0.277 HD
ATOM     19  H41 UNL     1      22.686   2.863   8.871  1.00  0.00     0.277 HD
HETATM   20  C10 UNL     1      25.216   2.863   9.681  1.00  0.00     0.052 C 
ENDBRANCH  12  13
BRANCH  12  21
HETATM   21  C11 UNL     1      27.246   5.015  10.450  1.00  0.00     0.087 A 
HETATM   22  C12 UNL     1      28.319   5.930  10.774  1.00  0.00     0.027 A 
HETATM   23  C13 UNL     1      27.304   6.362   9.681  1.00  0.00     0.027 A 
ENDBRANCH  12  21
ENDBRANCH   7  12
BRANCH   1  24
HETATM   24  C2  UNL     1      24.600   9.874  14.568  1.00  0.00     0.108 C 
HETATM   25  C1  UNL     1      23.260  10.550  14.142  1.00  0.00     0.044 C 
HETATM   26  C14 UNL     1      24.411   9.461  16.035  1.00  0.00     0.058 C 
HETATM   27  C15 UNL     1      25.213  10.542  16.760  1.00  0.00     0.150 C 
HETATM   28  N6  UNL     1      25.179  11.605  15.764  1.00  0.00    -0.264 N 
HETATM   29  C16 UNL     1      24.787  12.914  15.985  1.00  0.00     0.235 C 
HETATM   30  N7  UNL     1      25.591  10.900  14.593  1.00  0.00    -0.118 NA
HETATM   31  O2  UNL     1      24.397  13.308  17.158  1.00  0.00    -0.272 OA
BRANCH  29  32
HETATM   32  C17 UNL     1      24.748  14.019  14.976  1.00  0.00     0.113 C 
BRANCH  32  33
HETATM   33  C18 UNL     1      23.305  14.216  14.497  1.00  0.00     0.126 C 
BRANCH  33  34
HETATM   34  C19 UNL     1      23.267  13.997  13.024  1.00  0.00     0.388 C 
HETATM   35  F1  UNL     1      23.279  15.252  12.394  1.00  0.00    -0.171 F 
HETATM   36  F2  UNL     1      24.459  13.384  12.661  1.00  0.00    -0.171 F 
HETATM   37  F3  UNL     1      22.185  13.278  12.586  1.00  0.00    -0.171 F 
ENDBRANCH  33  34
ENDBRANCH  32  33
ENDBRANCH  29  32
ENDBRANCH   1  24
TORSDOF 8
ENDMDL
MODEL 2
REMARK VINA RESULT: -7.472738614      2.966      3.724
REMARK  8 active torsions:
REMARK  status: ('A' for Active; 'I' for Inactive)
REMARK    1  A    between atoms: C2_2  and  C3_3 
REMARK    2  A    between atoms: C5_9  and  O1_10 
REMARK    3  A    between atoms: C5_9  and  N3_12 
REMARK    4  A    between atoms: N3_12  and  C6_13 
REMARK    5  A    between atoms: N3_12  and  C11_21 
REMARK       I    between atoms: N6_28  and  C16_29 
REMARK    6  A    between atoms: C16_29  and  C17_31 
REMARK    7  A    between atoms: C17_31  and  C18_32 
REMARK    8  A    between atoms: C18_32  and  C19_33 
ROOT
HETATM    1  C3  UNL     1      25.000   9.301  13.910  1.00  0.00     0.124 A 
HETATM    2  N1  UNL     1      24.392   9.399  12.655  1.00  0.00    -0.285 N 
ATOM      3  H1  UNL     1      23.903  10.211  12.277  1.00  0.00     0.188 HD
HETATM    4  N2  UNL     1      24.570   8.246  12.058  1.00  0.00    -0.281 N 
ATOM      5  H2  UNL     1      24.222   8.039  11.122  1.00  0.00     0.188 HD
HETATM    6  C4  UNL     1      25.247   7.374  12.795  1.00  0.00     0.173 A 
HETATM    7  C5  UNL     1      25.729   6.052  12.528  1.00  0.00     0.185 C 
HETATM    8  N5  UNL     1      25.487   8.103  13.946  1.00  0.00    -0.325 N 
ATOM      9  H5  UNL     1      25.998   7.732  14.747  1.00  0.00     0.169 HD
ENDROOT
BRANCH   7  10
HETATM   10  O1  UNL     1      26.183   5.454  13.604  1.00  0.00    -0.343 OA
ATOM     11  H1  UNL     1      27.077   5.150  13.501  1.00  0.00     0.219 HD
ENDBRANCH   7  10
BRANCH   7  12
HETATM   12  N3  UNL     1      25.814   5.257  11.365  1.00  0.00    -0.349 N 
BRANCH  12  13
HETATM   13  C6  UNL     1      24.611   4.550  10.990  1.00  0.00     0.090 C 
HETATM   14  C7  UNL     1      25.066   3.374  10.096  1.00  0.00     0.052 C 
HETATM   15  C8  UNL     1      23.860   2.804   9.396  1.00  0.00     0.234 C 
HETATM   16  N4  UNL     1      22.859   2.388  10.367  1.00  0.00    -0.075 N 
HETATM   17  C9  UNL     1      22.411   3.518  11.140  1.00  0.00     0.234 C 
ATOM     18  H42 UNL     1      22.081   1.897   9.925  1.00  0.00     0.277 HD
ATOM     19  H41 UNL     1      23.196   1.630  10.961  1.00  0.00     0.277 HD
HETATM   20  C10 UNL     1      23.634   4.063  11.930  1.00  0.00     0.052 C 
ENDBRANCH  12  13
BRANCH  12  21
HETATM   21  C11 UNL     1      27.060   5.131  10.693  1.00  0.00     0.087 A 
HETATM   22  C12 UNL     1      28.316   5.790  10.980  1.00  0.00     0.027 A 
HETATM   23  C13 UNL     1      27.474   6.323   9.789  1.00  0.00     0.027 A 
ENDBRANCH  12  21
ENDBRANCH   7  12
BRANCH   1  24
HETATM   24  C2  UNL     1      24.944  10.492  14.781  1.00  0.00     0.108 C 
HETATM   25  C1  UNL     1      26.398  10.772  15.274  1.00  0.00     0.044 C 
HETATM   26  C14 UNL     1      24.509  11.756  14.022  1.00  0.00     0.058 C 
HETATM   27  C15 UNL     1      23.587  12.420  15.044  1.00  0.00     0.150 C 
HETATM   28  N6  UNL     1      24.098  11.837  16.277  1.00  0.00    -0.264 N 
HETATM   29  C16 UNL     1      24.486  12.536  17.407  1.00  0.00     0.235 C 
HETATM   30  N7  UNL     1      24.115  10.450  15.941  1.00  0.00    -0.118 NA
HETATM   31  O2  UNL     1      24.421  13.831  17.450  1.00  0.00    -0.272 OA
BRANCH  29  32
HETATM   32  C17 UNL     1      25.010  11.954  18.683  1.00  0.00     0.113 C 
BRANCH  32  33
HETATM   33  C18 UNL     1      26.479  12.357  18.856  1.00  0.00     0.126 C 
BRANCH  33  34
HETATM   34  C19 UNL     1      26.675  12.821  20.258  1.00  0.00     0.388 C 
HETATM   35  F1  UNL     1      27.383  14.034  20.223  1.00  0.00    -0.171 F 
HETATM   36  F2  UNL     1      25.425  13.133  20.774  1.00  0.00    -0.171 F 
HETATM   37  F3  UNL     1      27.337  11.930  21.063  1.00  0.00    -0.171 F 
ENDBRANCH  33  34
ENDBRANCH  32  33
ENDBRANCH  29  32
ENDBRANCH   1  24
TORSDOF 8
ENDMDL
MODEL 3
REMARK VINA RESULT: -7.472635287      5.446      8.883
REMARK  8 active torsions:
REMARK  status: ('A' for Active; 'I' for Inactive)
REMARK    1  A    between atoms: C2_2  and  C3_3 
REMARK    2  A    between atoms: C5_9  and  O1_10 
REMARK    3  A    between atoms: C5_9  and  N3_12 
REMARK    4  A    between atoms: N3_12  and  C6_13 
REMARK    5  A    between atoms: N3_12  and  C11_21 
REMARK       I    between atoms: N6_28  and  C16_29 
REMARK    6  A    between atoms: C16_29  and  C17_31 
REMARK    7  A    between atoms: C17_31  and  C18_32 
REMARK    8  A    between atoms: C18_32  and  C19_33 
ROOT
HETATM    1  C3  UNL     1      26.782   7.113  12.629  1.00  0.00     0.124 A 
HETATM    2  N1  UNL     1      27.240   7.514  13.888  1.00  0.00    -0.285 N 
ATOM      3  H1  UNL     1      26.991   7.099  14.786  1.00  0.00     0.188 HD
HETATM    4  N2  UNL     1      28.050   8.524  13.690  1.00  0.00    -0.281 N 
ATOM      5  H2  UNL     1      28.528   9.016  14.444  1.00  0.00     0.188 HD
HETATM    6  C4  UNL     1      28.185   8.844  12.408  1.00  0.00     0.173 A 
HETATM    7  C5  UNL     1      29.004   9.807  11.735  1.00  0.00     0.185 C 
HETATM    8  N5  UNL     1      27.361   7.917  11.797  1.00  0.00    -0.325 N 
ATOM      9  H5  UNL     1      27.223   7.871  10.788  1.00  0.00     0.169 HD
ENDROOT
BRANCH   7  10
HETATM   10  O1  UNL     1      28.686   9.941  10.469  1.00  0.00    -0.343 OA
ATOM     11  H1  UNL     1      28.468  10.837  10.241  1.00  0.00     0.219 HD
ENDBRANCH   7  10
BRANCH   7  12
HETATM   12  N3  UNL     1      30.069  10.641  12.138  1.00  0.00    -0.349 N 
BRANCH  12  13
HETATM   13  C6  UNL     1      31.394  10.073  12.032  1.00  0.00     0.090 C 
HETATM   14  C7  UNL     1      31.649   9.331  13.364  1.00  0.00     0.052 C 
HETATM   15  C8  UNL     1      33.117   9.011  13.465  1.00  0.00     0.234 C 
HETATM   16  N4  UNL     1      33.546   8.223  12.318  1.00  0.00    -0.075 N 
HETATM   17  C9  UNL     1      33.352   8.968  11.100  1.00  0.00     0.234 C 
ATOM     18  H42 UNL     1      34.508   7.899  12.417  1.00  0.00     0.277 HD
ATOM     19  H41 UNL     1      33.083   7.314  12.286  1.00  0.00     0.277 HD
HETATM   20  C10 UNL     1      31.827   9.233  10.946  1.00  0.00     0.052 C 
ENDBRANCH  12  13
BRANCH  12  21
HETATM   21  C11 UNL     1      29.787  11.922  12.685  1.00  0.00     0.087 A 
HETATM   22  C12 UNL     1      28.829  12.909  12.237  1.00  0.00     0.027 A 
HETATM   23  C13 UNL     1      30.325  13.140  11.888  1.00  0.00     0.027 A 
ENDBRANCH  12  21
ENDBRANCH   7  12
BRANCH   1  24
HETATM   24  C2  UNL     1      25.850   5.968  12.584  1.00  0.00     0.108 C 
HETATM   25  C1  UNL     1      26.517   4.864  11.706  1.00  0.00     0.044 C 
HETATM   26  C14 UNL     1      25.636   5.329  13.965  1.00  0.00     0.058 C 
HETATM   27  C15 UNL     1      24.136   5.037  13.935  1.00  0.00     0.150 C 
HETATM   28  N6  UNL     1      23.912   4.970  12.497  1.00  0.00    -0.264 N 
HETATM   29  C16 UNL     1      23.286   3.938  11.819  1.00  0.00     0.235 C 
HETATM   30  N7  UNL     1      24.539   6.176  12.062  1.00  0.00    -0.118 NA
HETATM   31  O2  UNL     1      22.832   2.899  12.451  1.00  0.00    -0.272 OA
BRANCH  29  32
HETATM   32  C17 UNL     1      23.044   3.853  10.345  1.00  0.00     0.113 C 
BRANCH  32  33
HETATM   33  C18 UNL     1      23.054   2.381   9.915  1.00  0.00     0.126 C 
BRANCH  33  34
HETATM   34  C19 UNL     1      24.328   2.114   9.190  1.00  0.00     0.388 C 
HETATM   35  F1  UNL     1      24.716   0.791   9.461  1.00  0.00    -0.171 F 
HETATM   36  F2  UNL     1      24.052   2.151   7.830  1.00  0.00    -0.171 F 
HETATM   37  F3  UNL     1      25.353   2.965   9.514  1.00  0.00    -0.171 F 
ENDBRANCH  33  34
ENDBRANCH  32  33
ENDBRANCH  29  32
ENDBRANCH   1  24
TORSDOF 8
ENDMDL
MODEL 4
REMARK VINA RESULT: -7.327291060      5.436      8.913
REMARK  8 active torsions:
REMARK  status: ('A' for Active; 'I' for Inactive)
REMARK    1  A    between atoms: C2_2  and  C3_3 
REMARK    2  A    between atoms: C5_9  and  O1_10 
REMARK    3  A    between atoms: C5_9  and  N3_12 
REMARK    4  A    between atoms: N3_12  and  C6_13 
REMARK    5  A    between atoms: N3_12  and  C11_21 
REMARK       I    between atoms: N6_28  and  C16_29 
REMARK    6  A    between atoms: C16_29  and  C17_31 
REMARK    7  A    between atoms: C17_31  and  C18_32 
REMARK    8  A    between atoms: C18_32  and  C19_33 
ROOT
HETATM    1  C3  UNL     1      27.021   6.695  12.498  1.00  0.00     0.124 A 
HETATM    2  N1  UNL     1      27.901   6.734  11.414  1.00  0.00    -0.285 N 
ATOM      3  H1  UNL     1      27.901   6.110  10.607  1.00  0.00     0.188 HD
HETATM    4  N2  UNL     1      28.728   7.726  11.634  1.00  0.00    -0.281 N 
ATOM      5  H2  UNL     1      29.483   7.980  10.997  1.00  0.00     0.188 HD
HETATM    6  C4  UNL     1      28.486   8.366  12.771  1.00  0.00     0.173 A 
HETATM    7  C5  UNL     1      29.071   9.530  13.368  1.00  0.00     0.185 C 
HETATM    8  N5  UNL     1      27.400   7.667  13.264  1.00  0.00    -0.325 N 
ATOM      9  H5  UNL     1      26.941   7.895  14.145  1.00  0.00     0.169 HD
ENDROOT
BRANCH   7  10
HETATM   10  O1  UNL     1      28.672   9.717  14.604  1.00  0.00    -0.343 OA
ATOM     11  H1  UNL     1      28.385  10.609  14.762  1.00  0.00     0.219 HD
ENDBRANCH   7  10
BRANCH   7  12
HETATM   12  N3  UNL     1      29.983  10.508  12.918  1.00  0.00    -0.349 N 
BRANCH  12  13
HETATM   13  C6  UNL     1      29.546  11.319  11.805  1.00  0.00     0.090 C 
HETATM   14  C7  UNL     1      29.938  12.773  12.153  1.00  0.00     0.052 C 
HETATM   15  C8  UNL     1      29.219  13.706  11.215  1.00  0.00     0.234 C 
HETATM   16  N4  UNL     1      29.535  13.379   9.832  1.00  0.00    -0.075 N 
HETATM   17  C9  UNL     1      29.100  12.041   9.523  1.00  0.00     0.234 C 
ATOM     18  H42 UNL     1      29.151  14.064   9.181  1.00  0.00     0.277 HD
ATOM     19  H41 UNL     1      30.525  13.515   9.626  1.00  0.00     0.277 HD
HETATM   20  C10 UNL     1      29.898  11.063  10.432  1.00  0.00     0.052 C 
ENDBRANCH  12  13
BRANCH  12  21
HETATM   21  C11 UNL     1      31.274  10.588  13.509  1.00  0.00     0.087 A 
HETATM   22  C12 UNL     1      32.567  10.385  12.893  1.00  0.00     0.027 A 
HETATM   23  C13 UNL     1      31.992   9.237  13.767  1.00  0.00     0.027 A 
ENDBRANCH  12  21
ENDBRANCH   7  12
BRANCH   1  24
HETATM   24  C2  UNL     1      25.972   5.655  12.479  1.00  0.00     0.108 C 
HETATM   25  C1  UNL     1      26.517   4.466  11.627  1.00  0.00     0.044 C 
HETATM   26  C14 UNL     1      25.694   5.075  13.874  1.00  0.00     0.058 C 
HETATM   27  C15 UNL     1      24.172   4.943  13.849  1.00  0.00     0.150 C 
HETATM   28  N6  UNL     1      23.939   4.868  12.413  1.00  0.00    -0.264 N 
HETATM   29  C16 UNL     1      23.205   3.892  11.759  1.00  0.00     0.235 C 
HETATM   30  N7  UNL     1      24.690   5.989  11.951  1.00  0.00    -0.118 NA
HETATM   31  O2  UNL     1      22.645   2.923  12.414  1.00  0.00    -0.272 OA
BRANCH  29  32
HETATM   32  C17 UNL     1      22.953   3.800  10.287  1.00  0.00     0.113 C 
BRANCH  32  33
HETATM   33  C18 UNL     1      23.025   2.331   9.852  1.00  0.00     0.126 C 
BRANCH  33  34
HETATM   34  C19 UNL     1      24.325   2.112   9.157  1.00  0.00     0.388 C 
HETATM   35  F1  UNL     1      24.766   0.812   9.454  1.00  0.00    -0.171 F 
HETATM   36  F2  UNL     1      24.075   2.120   7.792  1.00  0.00    -0.171 F 
HETATM   37  F3  UNL     1      25.304   3.012   9.490  1.00  0.00    -0.171 F 
ENDBRANCH  33  34
ENDBRANCH  32  33
ENDBRANCH  29  32
ENDBRANCH   1  24
TORSDOF 8
ENDMDL
MODEL 5
REMARK VINA RESULT: -7.300222881      5.608      9.076
REMARK  8 active torsions:
REMARK  status: ('A' for Active; 'I' for Inactive)
REMARK    1  A    between atoms: C2_2  and  C3_3 
REMARK    2  A    between atoms: C5_9  and  O1_10 
REMARK    3  A    between atoms: C5_9  and  N3_12 
REMARK    4  A    between atoms: N3_12  and  C6_13 
REMARK    5  A    between atoms: N3_12  and  C11_21 
REMARK       I    between atoms: N6_28  and  C16_29 
REMARK    6  A    between atoms: C16_29  and  C17_31 
REMARK    7  A    between atoms: C17_31  and  C18_32 
REMARK    8  A    between atoms: C18_32  and  C19_33 
ROOT
HETATM    1  C3  UNL     1      27.022   6.892  12.184  1.00  0.00     0.124 A 
HETATM    2  N1  UNL     1      27.491   7.210  10.907  1.00  0.00    -0.285 N 
ATOM      3  H1  UNL     1      27.206   6.776  10.028  1.00  0.00     0.188 HD
HETATM    4  N2  UNL     1      28.368   8.172  11.055  1.00  0.00    -0.281 N 
ATOM      5  H2  UNL     1      28.872   8.597  10.278  1.00  0.00     0.188 HD
HETATM    6  C4  UNL     1      28.534   8.538  12.321  1.00  0.00     0.173 A 
HETATM    7  C5  UNL     1      29.313   9.573  12.932  1.00  0.00     0.185 C 
HETATM    8  N5  UNL     1      27.658   7.693  12.977  1.00  0.00    -0.325 N 
ATOM      9  H5  UNL     1      27.525   7.701  13.988  1.00  0.00     0.169 HD
ENDROOT
BRANCH   7  10
HETATM   10  O1  UNL     1      29.353   9.468  14.239  1.00  0.00    -0.343 OA
ATOM     11  H1  UNL     1      28.491   9.350  14.622  1.00  0.00     0.219 HD
ENDBRANCH   7  10
BRANCH   7  12
HETATM   12  N3  UNL     1      30.045  10.672  12.435  1.00  0.00    -0.349 N 
BRANCH  12  13
HETATM   13  C6  UNL     1      31.479  10.503  12.374  1.00  0.00     0.090 C 
HETATM   14  C7  UNL     1      31.759   9.671  11.102  1.00  0.00     0.052 C 
HETATM   15  C8  UNL     1      33.177   9.168  11.155  1.00  0.00     0.234 C 
HETATM   16  N4  UNL     1      34.107  10.281  11.286  1.00  0.00    -0.075 N 
HETATM   17  C9  UNL     1      33.859  10.997  12.512  1.00  0.00     0.234 C 
ATOM     18  H42 UNL     1      35.078   9.978  11.213  1.00  0.00     0.277 HD
ATOM     19  H41 UNL     1      34.080  10.898  10.474  1.00  0.00     0.277 HD
HETATM   20  C10 UNL     1      32.423  11.589  12.431  1.00  0.00     0.052 C 
ENDBRANCH  12  13
BRANCH  12  21
HETATM   21  C11 UNL     1      29.366  11.877  12.108  1.00  0.00     0.087 A 
HETATM   22  C12 UNL     1      27.980  12.065  11.736  1.00  0.00     0.027 A 
HETATM   23  C13 UNL     1      29.045  12.096  10.605  1.00  0.00     0.027 A 
ENDBRANCH  12  21
ENDBRANCH   7  12
BRANCH   1  24
HETATM   24  C2  UNL     1      26.003   5.827  12.283  1.00  0.00     0.108 C 
HETATM   25  C1  UNL     1      26.544   4.595  11.492  1.00  0.00     0.044 C 
HETATM   26  C14 UNL     1      25.798   5.341  13.725  1.00  0.00     0.058 C 
HETATM   27  C15 UNL     1      24.280   5.171  13.775  1.00  0.00     0.150 C 
HETATM   28  N6  UNL     1      23.991   4.988  12.359  1.00  0.00    -0.264 N 
HETATM   29  C16 UNL     1      23.258   3.951  11.807  1.00  0.00     0.235 C 
HETATM   30  N7  UNL     1      24.691   6.092  11.788  1.00  0.00    -0.118 NA
HETATM   31  O2  UNL     1      22.752   3.017  12.551  1.00  0.00    -0.272 OA
BRANCH  29  32
HETATM   32  C17 UNL     1      22.948   3.748  10.357  1.00  0.00     0.113 C 
BRANCH  32  33
HETATM   33  C18 UNL     1      23.064   2.257  10.018  1.00  0.00     0.126 C 
BRANCH  33  34
HETATM   34  C19 UNL     1      24.322   2.049   9.247  1.00  0.00     0.388 C 
HETATM   35  F1  UNL     1      24.751   0.729   9.458  1.00  0.00    -0.171 F 
HETATM   36  F2  UNL     1      24.003   2.128   7.898  1.00  0.00    -0.171 F 
HETATM   37  F3  UNL     1      25.335   2.915   9.570  1.00  0.00    -0.171 F 
ENDBRANCH  33  34
ENDBRANCH  32  33
ENDBRANCH  29  32
ENDBRANCH   1  24
TORSDOF 8
ENDMDL
