MODEL 1
REMARK VINA RESULT: -7.255423576      0.000      0.000
REMARK  8 active torsions:
REMARK  status: ('A' for Active; 'I' for Inactive)
REMARK       I    between atoms: C1_2  and  N1_3 
REMARK       I    between atoms: C1_2  and  N3_21 
REMARK    1  A    between atoms: N1_3  and  C2_4 
REMARK    2  A    between atoms: C2_4  and  C3_5 
REMARK    3  A    between atoms: C3_5  and  O2_6 
REMARK    4  A    between atoms: N2_10  and  C6_11 
REMARK    5  A    between atoms: C6_11  and  C7_12 
REMARK    6  A    between atoms: C7_12  and  C8_13 
REMARK    7  A    between atoms: N3_21  and  C15_23 
REMARK    8  A    between atoms: C15_23  and  C16_24 
ROOT
HETATM    1  C3  UNL     1      24.538   8.167  15.074  1.00  0.00     0.105 C 
HETATM    2  C4  UNL     1      25.723   7.211  15.020  1.00  0.00     0.064 C 
HETATM    3  C5  UNL     1      25.386   5.882  15.641  1.00  0.00     0.120 C 
HETATM    4  N2  UNL     1      24.047   5.443  15.448  1.00  0.00    -0.412 N 
HETATM    5  C13 UNL     1      23.009   6.367  15.583  1.00  0.00     0.120 C 
HETATM    6  C14 UNL     1      23.253   7.536  14.620  1.00  0.00     0.064 C 
ENDROOT
BRANCH   1   7
HETATM    7  C2  UNL     1      24.804   9.374  14.200  1.00  0.00     0.198 C 
BRANCH   7   8
HETATM    8  N1  UNL     1      25.868   9.217  13.299  1.00  0.00    -0.366 NA
HETATM    9  C1  UNL     1      26.875   9.070  12.446  1.00  0.00     0.394 C 
HETATM   10  O1  UNL     1      27.552  10.028  11.923  1.00  0.00    -0.230 OA
HETATM   11  N3  UNL     1      27.374   7.788  11.968  1.00  0.00    -0.303 N 
ATOM     12  H3  UNL     1      26.916   6.935  12.290  1.00  0.00     0.167 HD
BRANCH  11  13
HETATM   13  C15 UNL     1      28.475   7.672  11.069  1.00  0.00     0.204 C 
HETATM   14  C17 UNL     1      29.819   7.931  11.712  1.00  0.00     0.219 C 
HETATM   15  O4  UNL     1      30.345   9.115  11.287  1.00  0.00    -0.387 OA
HETATM   16  C18 UNL     1      30.962   9.116  10.064  1.00  0.00     0.178 C 
HETATM   17  C19 UNL     1      29.970   9.003   8.918  1.00  0.00     0.103 C 
HETATM   18  S1  UNL     1      28.326   8.745   9.622  1.00  0.00    -0.124 SA
BRANCH  13  19
HETATM   19  C16 UNL     1      28.457   6.229  10.508  1.00  0.00     0.424 C 
HETATM   20  F1  UNL     1      28.045   5.341  11.485  1.00  0.00    -0.167 F 
HETATM   21  F2  UNL     1      29.747   5.926  10.125  1.00  0.00    -0.167 F 
HETATM   22  F3  UNL     1      27.657   6.191   9.392  1.00  0.00    -0.167 F 
ENDBRANCH  13  19
ENDBRANCH  11  13
ENDBRANCH   7   8
ENDBRANCH   1   7
BRANCH   1  23
HETATM   23  O2  UNL     1      24.383   8.541  16.413  1.00  0.00    -0.383 OA
ATOM     24  H2  UNL     1      24.166   7.791  16.953  1.00  0.00     0.211 HD
ENDBRANCH   1  23
BRANCH   4  25
HETATM   25  C6  UNL     1      23.908   4.347  14.558  1.00  0.00     0.117 C 
BRANCH  25  26
HETATM   26  C7  UNL     1      24.783   4.477  13.356  1.00  0.00     0.024 C 
BRANCH  26  27
HETATM   27  C8  UNL     1      23.979   4.816  12.122  1.00  0.00    -0.009 C 
HETATM   28  C9  UNL     1      24.881   5.020  10.941  1.00  0.00     0.031 C 
HETATM   29  C10 UNL     1      25.283   3.657  10.384  1.00  0.00     0.168 C 
HETATM   30  O3  UNL     1      24.213   3.121   9.658  1.00  0.00    -0.391 OA
HETATM   31  C11 UNL     1      23.001   3.497  10.250  1.00  0.00     0.168 C 
HETATM   32  C12 UNL     1      23.133   3.575  11.758  1.00  0.00     0.031 C 
ENDBRANCH  26  27
ENDBRANCH  25  26
ENDBRANCH   4  25
TORSDOF 8
ENDMDL
MODEL 2
REMARK VINA RESULT: -7.158613782      1.226      1.441
REMARK  8 active torsions:
REMARK  status: ('A' for Active; 'I' for Inactive)
REMARK       I    between atoms: C1_2  and  N1_3 
REMARK       I    between atoms: C1_2  and  N3_21 
REMARK    1  A    between atoms: N1_3  and  C2_4 
REMARK    2  A    between atoms: C2_4  and  C3_5 
REMARK    3  A    between atoms: C3_5  and  O2_6 
REMARK    4  A    between atoms: N2_10  and  C6_11 
REMARK    5  A    between atoms: C6_11  and  C7_12 
REMARK    6  A    between atoms: C7_12  and  C8_13 
REMARK    7  A    between atoms: N3_21  and  C15_23 
REMARK    8  A    between atoms: C15_23  and  C16_24 
ROOT
HETATM    1  C3  UNL     1      24.848   8.226  14.944  1.00  0.00     0.105 C 
HETATM    2  C4  UNL     1      25.891   7.117  14.981  1.00  0.00     0.064 C 
HETATM    3  C5  UNL     1      25.362   5.886  15.667  1.00  0.00     0.120 C 
HETATM    4  N2  UNL     1      23.981   5.622  15.461  1.00  0.00    -0.412 N 
HETATM    5  C13 UNL     1      23.077   6.685  15.511  1.00  0.00     0.120 C 
HETATM    6  C14 UNL     1      23.499   7.748  14.490  1.00  0.00     0.064 C 
ENDROOT
BRANCH   1   7
HETATM    7  C2  UNL     1      25.295   9.331  14.010  1.00  0.00     0.198 C 
BRANCH   7   8
HETATM    8  N1  UNL     1      26.141   8.908  12.974  1.00  0.00    -0.366 NA
HETATM    9  C1  UNL     1      26.941   8.509  11.992  1.00  0.00     0.394 C 
HETATM   10  O1  UNL     1      26.653   8.541  10.740  1.00  0.00    -0.230 OA
HETATM   11  N3  UNL     1      28.280   7.970  12.183  1.00  0.00    -0.303 N 
ATOM     12  H3  UNL     1      28.635   7.871  13.134  1.00  0.00     0.167 HD
BRANCH  11  13
HETATM   13  C15 UNL     1      29.118   7.574  11.098  1.00  0.00     0.204 C 
HETATM   14  C17 UNL     1      29.781   8.731  10.385  1.00  0.00     0.219 C 
HETATM   15  O4  UNL     1      29.246   8.913   9.144  1.00  0.00    -0.387 OA
HETATM   16  C18 UNL     1      29.688   8.083   8.149  1.00  0.00     0.178 C 
HETATM   17  C19 UNL     1      29.159   6.666   8.305  1.00  0.00     0.103 C 
HETATM   18  S1  UNL     1      28.255   6.572   9.866  1.00  0.00    -0.124 SA
BRANCH  13  19
HETATM   19  C16 UNL     1      30.213   6.648  11.680  1.00  0.00     0.424 C 
HETATM   20  F1  UNL     1      30.289   6.802  13.053  1.00  0.00    -0.167 F 
HETATM   21  F2  UNL     1      31.410   7.024  11.108  1.00  0.00    -0.167 F 
HETATM   22  F3  UNL     1      29.948   5.352  11.312  1.00  0.00    -0.167 F 
ENDBRANCH  13  19
ENDBRANCH  11  13
ENDBRANCH   7   8
ENDBRANCH   1   7
BRANCH   1  23
HETATM   23  O2  UNL     1      24.717   8.699  16.254  1.00  0.00    -0.383 OA
ATOM     24  H2  UNL     1      23.809   8.677  16.535  1.00  0.00     0.211 HD
ENDBRANCH   1  23
BRANCH   4  25
HETATM   25  C6  UNL     1      23.712   4.503  14.631  1.00  0.00     0.117 C 
BRANCH  25  26
HETATM   26  C7  UNL     1      24.629   4.433  13.456  1.00  0.00     0.024 C 
BRANCH  26  27
HETATM   27  C8  UNL     1      23.916   4.807  12.176  1.00  0.00    -0.009 C 
HETATM   28  C9  UNL     1      24.902   5.065  11.076  1.00  0.00     0.031 C 
HETATM   29  C10 UNL     1      25.368   3.729  10.504  1.00  0.00     0.168 C 
HETATM   30  O3  UNL     1      24.364   3.206   9.680  1.00  0.00    -0.391 OA
HETATM   31  C11 UNL     1      23.105   3.545  10.189  1.00  0.00     0.168 C 
HETATM   32  C12 UNL     1      23.120   3.569  11.704  1.00  0.00     0.031 C 
ENDBRANCH  26  27
ENDBRANCH  25  26
ENDBRANCH   4  25
TORSDOF 8
ENDMDL
MODEL 3
REMARK VINA RESULT: -7.108119412      2.172      2.462
REMARK  8 active torsions:
REMARK  status: ('A' for Active; 'I' for Inactive)
REMARK       I    between atoms: C1_2  and  N1_3 
REMARK       I    between atoms: C1_2  and  N3_21 
REMARK    1  A    between atoms: N1_3  and  C2_4 
REMARK    2  A    between atoms: C2_4  and  C3_5 
REMARK    3  A    between atoms: C3_5  and  O2_6 
REMARK    4  A    between atoms: N2_10  and  C6_11 
REMARK    5  A    between atoms: C6_11  and  C7_12 
REMARK    6  A    between atoms: C7_12  and  C8_13 
REMARK    7  A    between atoms: N3_21  and  C15_23 
REMARK    8  A    between atoms: C15_23  and  C16_24 
ROOT
HETATM    1  C3  UNL     1      24.430   8.286  15.078  1.00  0.00     0.105 C 
HETATM    2  C4  UNL     1      25.730   7.515  14.894  1.00  0.00     0.064 C 
HETATM    3  C5  UNL     1      25.663   6.160  15.546  1.00  0.00     0.120 C 
HETATM    4  N2  UNL     1      24.392   5.525  15.499  1.00  0.00    -0.412 N 
HETATM    5  C13 UNL     1      23.249   6.287  15.746  1.00  0.00     0.120 C 
HETATM    6  C14 UNL     1      23.212   7.465  14.765  1.00  0.00     0.064 C 
ENDROOT
BRANCH   1   7
HETATM    7  C2  UNL     1      24.417   9.506  14.182  1.00  0.00     0.198 C 
BRANCH   7   8
HETATM    8  N1  UNL     1      25.025   9.316  12.932  1.00  0.00    -0.366 NA
HETATM    9  C1  UNL     1      25.599   9.135  11.748  1.00  0.00     0.394 C 
HETATM   10  O1  UNL     1      25.027   8.627  10.715  1.00  0.00    -0.230 OA
HETATM   11  N3  UNL     1      26.976   9.489  11.433  1.00  0.00    -0.303 N 
ATOM     12  H3  UNL     1      27.557   9.889  12.169  1.00  0.00     0.167 HD
BRANCH  11  13
HETATM   13  C15 UNL     1      27.548   9.300  10.140  1.00  0.00     0.204 C 
HETATM   14  C17 UNL     1      27.021   8.085   9.411  1.00  0.00     0.219 C 
HETATM   15  O4  UNL     1      27.970   7.109   9.335  1.00  0.00    -0.387 OA
HETATM   16  C18 UNL     1      28.924   7.245   8.362  1.00  0.00     0.178 C 
HETATM   17  C19 UNL     1      29.913   8.355   8.676  1.00  0.00     0.103 C 
HETATM   18  S1  UNL     1      29.353   9.201  10.171  1.00  0.00    -0.124 SA
BRANCH  13  19
HETATM   19  C16 UNL     1      27.226  10.565   9.308  1.00  0.00     0.424 C 
HETATM   20  F1  UNL     1      26.421  11.423  10.036  1.00  0.00    -0.167 F 
HETATM   21  F2  UNL     1      26.551  10.148   8.180  1.00  0.00    -0.167 F 
HETATM   22  F3  UNL     1      28.401  11.156   8.914  1.00  0.00    -0.167 F 
ENDBRANCH  13  19
ENDBRANCH  11  13
ENDBRANCH   7   8
ENDBRANCH   1   7
BRANCH   1  23
HETATM   23  O2  UNL     1      24.365   8.652  16.426  1.00  0.00    -0.383 OA
ATOM     24  H2  UNL     1      23.935   7.980  16.941  1.00  0.00     0.211 HD
ENDBRANCH   1  23
BRANCH   4  25
HETATM   25  C6  UNL     1      24.322   4.408  14.626  1.00  0.00     0.117 C 
BRANCH  25  26
HETATM   26  C7  UNL     1      25.129   4.604  13.387  1.00  0.00     0.024 C 
BRANCH  26  27
HETATM   27  C8  UNL     1      24.254   4.982  12.213  1.00  0.00    -0.009 C 
HETATM   28  C9  UNL     1      25.061   5.055  10.951  1.00  0.00     0.031 C 
HETATM   29  C10 UNL     1      25.279   3.643  10.419  1.00  0.00     0.168 C 
HETATM   30  O3  UNL     1      24.102   3.192   9.811  1.00  0.00    -0.391 OA
HETATM   31  C11 UNL     1      22.990   3.706  10.488  1.00  0.00     0.168 C 
HETATM   32  C12 UNL     1      23.263   3.819  11.975  1.00  0.00     0.031 C 
ENDBRANCH  26  27
ENDBRANCH  25  26
ENDBRANCH   4  25
TORSDOF 8
ENDMDL
MODEL 4
REMARK VINA RESULT: -7.101282341      2.141      2.695
REMARK  8 active torsions:
REMARK  status: ('A' for Active; 'I' for Inactive)
REMARK       I    between atoms: C1_2  and  N1_3 
REMARK       I    between atoms: C1_2  and  N3_21 
REMARK    1  A    between atoms: N1_3  and  C2_4 
REMARK    2  A    between atoms: C2_4  and  C3_5 
REMARK    3  A    between atoms: C3_5  and  O2_6 
REMARK    4  A    between atoms: N2_10  and  C6_11 
REMARK    5  A    between atoms: C6_11  and  C7_12 
REMARK    6  A    between atoms: C7_12  and  C8_13 
REMARK    7  A    between atoms: N3_21  and  C15_23 
REMARK    8  A    between atoms: C15_23  and  C16_24 
ROOT
HETATM    1  C3  UNL     1      23.884   6.529  16.015  1.00  0.00     0.105 C 
HETATM    2  C4  UNL     1      25.071   6.043  15.194  1.00  0.00     0.064 C 
HETATM    3  C5  UNL     1      24.924   4.593  14.818  1.00  0.00     0.120 C 
HETATM    4  N2  UNL     1      23.593   4.167  14.554  1.00  0.00    -0.412 N 
HETATM    5  C13 UNL     1      22.567   4.601  15.395  1.00  0.00     0.120 C 
HETATM    6  C14 UNL     1      22.561   6.135  15.424  1.00  0.00     0.064 C 
ENDROOT
BRANCH   1   7
HETATM    7  C2  UNL     1      23.916   8.038  16.132  1.00  0.00     0.198 C 
BRANCH   7   8
HETATM    8  N1  UNL     1      24.554   8.691  15.067  1.00  0.00    -0.366 NA
HETATM    9  C1  UNL     1      25.158   9.310  14.059  1.00  0.00     0.394 C 
HETATM   10  O1  UNL     1      25.455  10.560  14.026  1.00  0.00    -0.230 OA
HETATM   11  N3  UNL     1      25.582   8.663  12.826  1.00  0.00    -0.303 N 
ATOM     12  H3  UNL     1      25.393   7.668  12.707  1.00  0.00     0.167 HD
BRANCH  11  13
HETATM   13  C15 UNL     1      26.250   9.361  11.776  1.00  0.00     0.204 C 
HETATM   14  C17 UNL     1      27.744   9.480  11.975  1.00  0.00     0.219 C 
HETATM   15  O4  UNL     1      28.098  10.764  12.268  1.00  0.00    -0.387 OA
HETATM   16  C18 UNL     1      28.197  11.635  11.215  1.00  0.00     0.178 C 
HETATM   17  C19 UNL     1      26.838  12.008  10.646  1.00  0.00     0.103 C 
HETATM   18  S1  UNL     1      25.585  11.017  11.490  1.00  0.00    -0.124 SA
BRANCH  13  19
HETATM   19  C16 UNL     1      25.978   8.583  10.465  1.00  0.00     0.424 C 
HETATM   20  F1  UNL     1      26.818   9.031   9.461  1.00  0.00    -0.167 F 
HETATM   21  F2  UNL     1      24.668   8.827  10.112  1.00  0.00    -0.167 F 
HETATM   22  F3  UNL     1      26.117   7.237  10.704  1.00  0.00    -0.167 F 
ENDBRANCH  13  19
ENDBRANCH  11  13
ENDBRANCH   7   8
ENDBRANCH   1   7
BRANCH   1  23
HETATM   23  O2  UNL     1      23.989   5.926  17.272  1.00  0.00    -0.383 OA
ATOM     24  H2  UNL     1      23.646   5.040  17.255  1.00  0.00     0.211 HD
ENDBRANCH   1  23
BRANCH   4  25
HETATM   25  C6  UNL     1      23.321   3.893  13.188  1.00  0.00     0.117 C 
BRANCH  25  26
HETATM   26  C7  UNL     1      24.369   4.443  12.279  1.00  0.00     0.024 C 
BRANCH  26  27
HETATM   27  C8  UNL     1      23.943   4.359  10.831  1.00  0.00    -0.009 C 
HETATM   28  C9  UNL     1      25.074   3.877   9.973  1.00  0.00     0.031 C 
HETATM   29  C10 UNL     1      25.181   2.360  10.098  1.00  0.00     0.168 C 
HETATM   30  O3  UNL     1      24.164   1.762   9.345  1.00  0.00    -0.391 OA
HETATM   31  C11 UNL     1      23.014   2.561   9.380  1.00  0.00     0.168 C 
HETATM   32  C12 UNL     1      22.871   3.250  10.722  1.00  0.00     0.031 C 
ENDBRANCH  26  27
ENDBRANCH  25  26
ENDBRANCH   4  25
TORSDOF 8
ENDMDL
MODEL 5
REMARK VINA RESULT: -7.010860200      2.238      4.661
REMARK  8 active torsions:
REMARK  status: ('A' for Active; 'I' for Inactive)
REMARK       I    between atoms: C1_2  and  N1_3 
REMARK       I    between atoms: C1_2  and  N3_21 
REMARK    1  A    between atoms: N1_3  and  C2_4 
REMARK    2  A    between atoms: C2_4  and  C3_5 
REMARK    3  A    between atoms: C3_5  and  O2_6 
REMARK    4  A    between atoms: N2_10  and  C6_11 
REMARK    5  A    between atoms: C6_11  and  C7_12 
REMARK    6  A    between atoms: C7_12  and  C8_13 
REMARK    7  A    between atoms: N3_21  and  C15_23 
REMARK    8  A    between atoms: C15_23  and  C16_24 
ROOT
HETATM    1  C3  UNL     1      25.152   4.943  13.870  1.00  0.00     0.105 C 
HETATM    2  C4  UNL     1      23.672   4.791  14.196  1.00  0.00     0.064 C 
HETATM    3  C5  UNL     1      23.314   5.500  15.474  1.00  0.00     0.120 C 
HETATM    4  N2  UNL     1      24.025   6.707  15.718  1.00  0.00    -0.412 N 
HETATM    5  C13 UNL     1      25.396   6.747  15.458  1.00  0.00     0.120 C 
HETATM    6  C14 UNL     1      25.638   6.358  13.994  1.00  0.00     0.064 C 
ENDROOT
BRANCH   1   7
HETATM    7  C2  UNL     1      25.425   4.474  12.456  1.00  0.00     0.198 C 
BRANCH   7   8
HETATM    8  N1  UNL     1      26.509   5.111  11.832  1.00  0.00    -0.366 NA
HETATM    9  C1  UNL     1      27.535   5.713  11.241  1.00  0.00     0.394 C 
HETATM   10  O1  UNL     1      28.750   5.294  11.255  1.00  0.00    -0.230 OA
HETATM   11  N3  UNL     1      27.441   6.950  10.479  1.00  0.00    -0.303 N 
ATOM     12  H3  UNL     1      26.533   7.406  10.398  1.00  0.00     0.167 HD
BRANCH  11  13
HETATM   13  C15 UNL     1      28.565   7.552   9.839  1.00  0.00     0.204 C 
HETATM   14  C17 UNL     1      29.896   7.135  10.423  1.00  0.00     0.219 C 
HETATM   15  O4  UNL     1      30.472   8.162  11.112  1.00  0.00    -0.387 OA
HETATM   16  C18 UNL     1      31.125   9.113  10.374  1.00  0.00     0.178 C 
HETATM   17  C19 UNL     1      30.165  10.004   9.604  1.00  0.00     0.103 C 
HETATM   18  S1  UNL     1      28.494   9.358   9.832  1.00  0.00    -0.124 SA
BRANCH  13  19
HETATM   19  C16 UNL     1      28.519   7.138   8.348  1.00  0.00     0.424 C 
HETATM   20  F1  UNL     1      29.739   7.387   7.745  1.00  0.00    -0.167 F 
HETATM   21  F2  UNL     1      27.542   7.902   7.744  1.00  0.00    -0.167 F 
HETATM   22  F3  UNL     1      28.150   5.818   8.259  1.00  0.00    -0.167 F 
ENDBRANCH  13  19
ENDBRANCH  11  13
ENDBRANCH   7   8
ENDBRANCH   1   7
BRANCH   1  23
HETATM   23  O2  UNL     1      25.852   4.166  14.799  1.00  0.00    -0.383 OA
ATOM     24  H2  UNL     1      26.589   4.646  15.158  1.00  0.00     0.211 HD
ENDBRANCH   1  23
BRANCH   4  25
HETATM   25  C6  UNL     1      23.246   7.887  15.588  1.00  0.00     0.117 C 
BRANCH  25  26
HETATM   26  C7  UNL     1      24.079   9.124  15.625  1.00  0.00     0.024 C 
BRANCH  26  27
HETATM   27  C8  UNL     1      23.793  10.017  14.439  1.00  0.00    -0.009 C 
HETATM   28  C9  UNL     1      23.670  11.448  14.870  1.00  0.00     0.031 C 
HETATM   29  C10 UNL     1      25.068  12.032  15.057  1.00  0.00     0.168 C 
HETATM   30  O3  UNL     1      25.624  12.306  13.801  1.00  0.00    -0.391 OA
HETATM   31  C11 UNL     1      25.195  11.351  12.872  1.00  0.00     0.168 C 
HETATM   32  C12 UNL     1      25.038   9.991  13.522  1.00  0.00     0.031 C 
ENDBRANCH  26  27
ENDBRANCH  25  26
ENDBRANCH   4  25
TORSDOF 8
ENDMDL
