MODEL 1
REMARK VINA RESULT: -6.144444979      0.000      0.000
REMARK  9 active torsions:
REMARK  status: ('A' for Active; 'I' for Inactive)
REMARK       I    between atoms: N1_2  and  C3_4 
REMARK    1  A    between atoms: C3_4  and  C4_6 
REMARK    2  A    between atoms: C4_6  and  O2_7 
REMARK    3  A    between atoms: N2_10  and  C6_12 
REMARK    4  A    between atoms: C6_12  and  O3_13 
REMARK    5  A    between atoms: C6_12  and  C7_15 
REMARK    6  A    between atoms: C7_15  and  N3_16 
REMARK    7  A    between atoms: C7_15  and  O4_20 
REMARK    8  A    between atoms: C9_27  and  N6_28 
REMARK    9  A    between atoms: C13_36  and  C14_37 
ROOT
HETATM    1  C4  UNL     1     -14.689 -19.777  35.996  1.00  0.00     0.227 C 
HETATM    2  C5  UNL     1     -13.204 -19.710  36.276  1.00  0.00     0.131 C 
HETATM    3  N2  UNL     1     -12.513 -18.883  35.618  1.00  0.00    -0.347 N 
ATOM      4  H2  UNL     1     -13.017 -18.315  34.937  1.00  0.00     0.163 HD
HETATM    5  N4  UNL     1     -12.685 -20.579  37.255  1.00  0.00    -0.328 N 
ATOM      6  H4  UNL     1     -11.689 -20.799  37.291  1.00  0.00     0.169 HD
HETATM    7  C8  UNL     1     -13.593 -21.137  38.188  1.00  0.00     0.139 A 
HETATM    8  N5  UNL     1     -13.117 -22.115  39.005  1.00  0.00    -0.176 N 
ATOM      9  H5  UNL     1     -12.116 -22.308  39.002  1.00  0.00     0.186 HD
HETATM   10  C9  UNL     1     -13.904 -22.834  39.814  1.00  0.00     0.682 A 
HETATM   11  N7  UNL     1     -15.220 -22.584  39.821  1.00  0.00    -0.151 N 
HETATM   12  C10 UNL     1     -16.158 -23.308  40.655  1.00  0.00     0.179 C 
HETATM   13  C11 UNL     1     -15.761 -21.606  39.019  1.00  0.00     0.276 A 
HETATM   14  O5  UNL     1     -16.981 -21.414  39.052  1.00  0.00    -0.266 OA
HETATM   15  C12 UNL     1     -14.982 -20.854  38.189  1.00  0.00     0.088 A 
HETATM   16  C13 UNL     1     -15.382 -19.733  37.401  1.00  0.00     0.026 C 
ENDROOT
BRANCH   1  17
HETATM   17  C3  UNL     1     -15.077 -20.892  35.183  1.00  0.00     0.266 C 
HETATM   18  N1  UNL     1     -16.103 -20.880  34.189  1.00  0.00    -0.358 N 
HETATM   19  C1  UNL     1     -16.351 -22.113  33.468  1.00  0.00     0.152 C 
HETATM   20  C2  UNL     1     -16.891 -19.719  33.876  1.00  0.00     0.152 C 
HETATM   21  O1  UNL     1     -14.469 -22.005  35.341  1.00  0.00    -0.269 OA
ENDBRANCH   1  17
BRANCH   1  22
HETATM   22  O2  UNL     1     -15.031 -18.571  35.401  1.00  0.00    -0.369 OA
ATOM     23  H2  UNL     1     -14.441 -18.358  34.687  1.00  0.00     0.212 HD
ENDBRANCH   1  22
BRANCH   3  24
HETATM   24  C6  UNL     1     -11.098 -18.651  35.718  1.00  0.00     0.275 C 
BRANCH  24  25
HETATM   25  O3  UNL     1     -10.425 -19.857  35.884  1.00  0.00    -0.372 OA
ATOM     26  H3  UNL     1     -10.020 -19.890  36.743  1.00  0.00     0.212 HD
ENDBRANCH  24  25
BRANCH  24  27
HETATM   27  C7  UNL     1     -10.538 -17.868  34.545  1.00  0.00     0.365 C 
BRANCH  27  28
HETATM   28  N3  UNL     1      -9.238 -18.417  34.228  1.00  0.00    -0.049 N 
ATOM     29  H33 UNL     1      -8.470 -17.861  34.605  1.00  0.00     0.277 HD
ATOM     30  H32 UNL     1      -9.040 -19.281  34.733  1.00  0.00     0.277 HD
ATOM     31  H31 UNL     1      -9.186 -18.529  33.216  1.00  0.00     0.277 HD
ENDBRANCH  27  28
BRANCH  27  32
HETATM   32  O4  UNL     1     -10.420 -16.519  34.946  1.00  0.00    -0.367 OA
ATOM     33  H4  UNL     1     -11.068 -16.017  34.466  1.00  0.00     0.212 HD
ENDBRANCH  27  32
ENDBRANCH  24  27
ENDBRANCH   3  24
BRANCH  16  34
HETATM   34  C14 UNL     1     -16.696 -19.192  37.201  1.00  0.00     0.112 C 
HETATM   35  N8  UNL     1     -16.945 -17.847  37.638  1.00  0.00    -0.114 NA
ENDBRANCH  16  34
BRANCH  10  36
HETATM   36  N6  UNL     1     -13.466 -23.764  40.595  1.00  0.00    -0.234 N 
ATOM     37  H62 UNL     1     -13.298 -23.522  41.572  1.00  0.00     0.174 HD
ATOM     38  H61 UNL     1     -13.282 -24.719  40.287  1.00  0.00     0.174 HD
ENDBRANCH  10  36
TORSDOF 9
ENDMDL
MODEL 2
REMARK VINA RESULT: -6.123937684      2.054      4.390
REMARK  9 active torsions:
REMARK  status: ('A' for Active; 'I' for Inactive)
REMARK       I    between atoms: N1_2  and  C3_4 
REMARK    1  A    between atoms: C3_4  and  C4_6 
REMARK    2  A    between atoms: C4_6  and  O2_7 
REMARK    3  A    between atoms: N2_10  and  C6_12 
REMARK    4  A    between atoms: C6_12  and  O3_13 
REMARK    5  A    between atoms: C6_12  and  C7_15 
REMARK    6  A    between atoms: C7_15  and  N3_16 
REMARK    7  A    between atoms: C7_15  and  O4_20 
REMARK    8  A    between atoms: C9_27  and  N6_28 
REMARK    9  A    between atoms: C13_36  and  C14_37 
ROOT
HETATM    1  C4  UNL     1     -13.929 -20.358  37.340  1.00  0.00     0.227 C 
HETATM    2  C5  UNL     1     -12.884 -20.855  36.366  1.00  0.00     0.131 C 
HETATM    3  N2  UNL     1     -11.678 -20.856  36.738  1.00  0.00    -0.347 N 
ATOM      4  H2  UNL     1     -11.497 -20.516  37.682  1.00  0.00     0.163 HD
HETATM    5  N4  UNL     1     -13.326 -21.284  35.099  1.00  0.00    -0.328 N 
ATOM      6  H4  UNL     1     -12.682 -21.349  34.310  1.00  0.00     0.169 HD
HETATM    7  C8  UNL     1     -14.695 -21.621  34.959  1.00  0.00     0.139 A 
HETATM    8  N5  UNL     1     -15.148 -21.851  33.697  1.00  0.00    -0.176 N 
ATOM      9  H5  UNL     1     -14.471 -21.899  32.936  1.00  0.00     0.186 HD
HETATM   10  C9  UNL     1     -16.444 -22.018  33.410  1.00  0.00     0.682 A 
HETATM   11  N7  UNL     1     -17.339 -21.955  34.405  1.00  0.00    -0.151 N 
HETATM   12  C10 UNL     1     -18.764 -22.117  34.200  1.00  0.00     0.179 C 
HETATM   13  C11 UNL     1     -16.941 -21.728  35.702  1.00  0.00     0.276 A 
HETATM   14  O5  UNL     1     -17.799 -21.670  36.589  1.00  0.00    -0.266 OA
HETATM   15  C12 UNL     1     -15.626 -21.560  36.026  1.00  0.00     0.088 A 
HETATM   16  C13 UNL     1     -15.060 -21.442  37.330  1.00  0.00     0.026 C 
ENDROOT
BRANCH   1  17
HETATM   17  C3  UNL     1     -14.387 -19.027  37.072  1.00  0.00     0.266 C 
HETATM   18  N1  UNL     1     -14.880 -18.104  38.045  1.00  0.00    -0.358 N 
HETATM   19  C1  UNL     1     -15.300 -16.798  37.576  1.00  0.00     0.152 C 
HETATM   20  C2  UNL     1     -14.979 -18.406  39.447  1.00  0.00     0.152 C 
HETATM   21  O1  UNL     1     -14.364 -18.603  35.866  1.00  0.00    -0.269 OA
ENDBRANCH   1  17
BRANCH   1  22
HETATM   22  O2  UNL     1     -13.363 -20.455  38.604  1.00  0.00    -0.369 OA
ATOM     23  H2  UNL     1     -13.187 -21.359  38.836  1.00  0.00     0.212 HD
ENDBRANCH   1  22
BRANCH   3  24
HETATM   24  C6  UNL     1     -10.530 -21.281  35.984  1.00  0.00     0.275 C 
BRANCH  24  25
HETATM   25  O3  UNL     1     -10.788 -22.501  35.366  1.00  0.00    -0.372 OA
ATOM     26  H3  UNL     1     -10.488 -23.216  35.916  1.00  0.00     0.212 HD
ENDBRANCH  24  25
BRANCH  24  27
HETATM   27  C7  UNL     1     -10.060 -20.246  34.979  1.00  0.00     0.365 C 
BRANCH  27  28
HETATM   28  N3  UNL     1     -10.108 -18.952  35.623  1.00  0.00    -0.049 N 
ATOM     29  H33 UNL     1     -11.061 -18.639  35.811  1.00  0.00     0.277 HD
ATOM     30  H32 UNL     1      -9.781 -18.978  36.588  1.00  0.00     0.277 HD
ATOM     31  H31 UNL     1      -9.583 -18.296  35.044  1.00  0.00     0.277 HD
ENDBRANCH  27  28
BRANCH  27  32
HETATM   32  O4  UNL     1     -10.943 -20.284  33.878  1.00  0.00    -0.367 OA
ATOM     33  H4  UNL     1     -10.649 -19.634  33.250  1.00  0.00     0.212 HD
ENDBRANCH  27  32
ENDBRANCH  24  27
ENDBRANCH   3  24
BRANCH  16  34
HETATM   34  C14 UNL     1     -15.725 -21.363  38.600  1.00  0.00     0.112 C 
HETATM   35  N8  UNL     1     -15.476 -22.404  39.557  1.00  0.00    -0.114 NA
ENDBRANCH  16  34
BRANCH  10  36
HETATM   36  N6  UNL     1     -16.889 -22.237  32.217  1.00  0.00    -0.234 N 
ATOM     37  H62 UNL     1     -17.122 -23.199  31.969  1.00  0.00     0.174 HD
ATOM     38  H61 UNL     1     -17.018 -21.505  31.520  1.00  0.00     0.174 HD
ENDBRANCH  10  36
TORSDOF 9
ENDMDL
MODEL 3
REMARK VINA RESULT: -6.095764993      1.718      1.828
REMARK  9 active torsions:
REMARK  status: ('A' for Active; 'I' for Inactive)
REMARK       I    between atoms: N1_2  and  C3_4 
REMARK    1  A    between atoms: C3_4  and  C4_6 
REMARK    2  A    between atoms: C4_6  and  O2_7 
REMARK    3  A    between atoms: N2_10  and  C6_12 
REMARK    4  A    between atoms: C6_12  and  O3_13 
REMARK    5  A    between atoms: C6_12  and  C7_15 
REMARK    6  A    between atoms: C7_15  and  N3_16 
REMARK    7  A    between atoms: C7_15  and  O4_20 
REMARK    8  A    between atoms: C9_27  and  N6_28 
REMARK    9  A    between atoms: C13_36  and  C14_37 
ROOT
HETATM    1  C4  UNL     1     -14.958 -20.681  35.617  1.00  0.00     0.227 C 
HETATM    2  C5  UNL     1     -13.596 -21.202  36.016  1.00  0.00     0.131 C 
HETATM    3  N2  UNL     1     -12.578 -20.643  35.522  1.00  0.00    -0.347 N 
ATOM      4  H2  UNL     1     -12.754 -19.869  34.881  1.00  0.00     0.163 HD
HETATM    5  N4  UNL     1     -13.549 -22.285  36.916  1.00  0.00    -0.328 N 
ATOM      6  H4  UNL     1     -12.715 -22.866  37.000  1.00  0.00     0.169 HD
HETATM    7  C8  UNL     1     -14.703 -22.539  37.699  1.00  0.00     0.139 A 
HETATM    8  N5  UNL     1     -14.717 -23.692  38.422  1.00  0.00    -0.176 N 
ATOM      9  H5  UNL     1     -13.863 -24.247  38.470  1.00  0.00     0.186 HD
HETATM   10  C9  UNL     1     -15.801 -24.129  39.071  1.00  0.00     0.682 A 
HETATM   11  N7  UNL     1     -16.927 -23.404  39.008  1.00  0.00    -0.151 N 
HETATM   12  C10 UNL     1     -18.156 -23.791  39.670  1.00  0.00     0.179 C 
HETATM   13  C11 UNL     1     -16.973 -22.228  38.296  1.00  0.00     0.276 A 
HETATM   14  O5  UNL     1     -18.033 -21.594  38.259  1.00  0.00    -0.266 OA
HETATM   15  C12 UNL     1     -15.881 -21.755  37.629  1.00  0.00     0.088 A 
HETATM   16  C13 UNL     1     -15.747 -20.502  36.959  1.00  0.00     0.026 C 
ENDROOT
BRANCH   1  17
HETATM   17  C3  UNL     1     -15.628 -21.491  34.643  1.00  0.00     0.266 C 
HETATM   18  N1  UNL     1     -16.628 -21.038  33.729  1.00  0.00    -0.358 N 
HETATM   19  C1  UNL     1     -17.191 -22.013  32.816  1.00  0.00     0.152 C 
HETATM   20  C2  UNL     1     -17.096 -19.679  33.673  1.00  0.00     0.152 C 
HETATM   21  O1  UNL     1     -15.324 -22.730  34.566  1.00  0.00    -0.269 OA
ENDBRANCH   1  17
BRANCH   1  22
HETATM   22  O2  UNL     1     -14.762 -19.387  35.153  1.00  0.00    -0.369 OA
ATOM     23  H2  UNL     1     -13.919 -19.044  35.428  1.00  0.00     0.212 HD
ENDBRANCH   1  22
BRANCH   3  24
HETATM   24  C6  UNL     1     -11.198 -20.970  35.758  1.00  0.00     0.275 C 
BRANCH  24  25
HETATM   25  O3  UNL     1     -11.013 -22.347  35.685  1.00  0.00    -0.372 OA
ATOM     26  H3  UNL     1     -11.792 -22.798  35.989  1.00  0.00     0.212 HD
ENDBRANCH  24  25
BRANCH  24  27
HETATM   27  C7  UNL     1     -10.244 -20.239  34.833  1.00  0.00     0.365 C 
BRANCH  27  28
HETATM   28  N3  UNL     1      -9.905 -18.978  35.455  1.00  0.00    -0.049 N 
ATOM     29  H33 UNL     1     -10.016 -18.994  36.469  1.00  0.00     0.277 HD
ATOM     30  H32 UNL     1      -8.905 -18.780  35.431  1.00  0.00     0.277 HD
ATOM     31  H31 UNL     1     -10.463 -18.250  35.007  1.00  0.00     0.277 HD
ENDBRANCH  27  28
BRANCH  27  32
HETATM   32  O4  UNL     1     -10.914 -20.022  33.609  1.00  0.00    -0.367 OA
ATOM     33  H4  UNL     1     -11.001 -19.083  33.490  1.00  0.00     0.212 HD
ENDBRANCH  27  32
ENDBRANCH  24  27
ENDBRANCH   3  24
BRANCH  16  34
HETATM   34  C14 UNL     1     -16.738 -19.490  36.729  1.00  0.00     0.112 C 
HETATM   35  N8  UNL     1     -16.519 -18.189  37.294  1.00  0.00    -0.114 NA
ENDBRANCH  16  34
BRANCH  10  36
HETATM   36  N6  UNL     1     -15.829 -25.220  39.760  1.00  0.00    -0.234 N 
ATOM     37  H62 UNL     1     -16.256 -25.184  40.686  1.00  0.00     0.174 HD
ATOM     38  H61 UNL     1     -15.452 -26.107  39.428  1.00  0.00     0.174 HD
ENDBRANCH  10  36
TORSDOF 9
ENDMDL
MODEL 4
REMARK VINA RESULT: -5.981150210      2.196      4.546
REMARK  9 active torsions:
REMARK  status: ('A' for Active; 'I' for Inactive)
REMARK       I    between atoms: N1_2  and  C3_4 
REMARK    1  A    between atoms: C3_4  and  C4_6 
REMARK    2  A    between atoms: C4_6  and  O2_7 
REMARK    3  A    between atoms: N2_10  and  C6_12 
REMARK    4  A    between atoms: C6_12  and  O3_13 
REMARK    5  A    between atoms: C6_12  and  C7_15 
REMARK    6  A    between atoms: C7_15  and  N3_16 
REMARK    7  A    between atoms: C7_15  and  O4_20 
REMARK    8  A    between atoms: C9_27  and  N6_28 
REMARK    9  A    between atoms: C13_36  and  C14_37 
ROOT
HETATM    1  C4  UNL     1     -13.264 -21.059  36.056  1.00  0.00     0.227 C 
HETATM    2  C5  UNL     1     -12.981 -19.643  35.608  1.00  0.00     0.131 C 
HETATM    3  N2  UNL     1     -11.801 -19.354  35.263  1.00  0.00    -0.347 N 
ATOM      4  H2  UNL     1     -11.119 -20.110  35.314  1.00  0.00     0.163 HD
HETATM    5  N4  UNL     1     -14.055 -18.731  35.607  1.00  0.00    -0.328 N 
ATOM      6  H4  UNL     1     -13.893 -17.724  35.605  1.00  0.00     0.169 HD
HETATM    7  C8  UNL     1     -15.369 -19.263  35.608  1.00  0.00     0.139 A 
HETATM    8  N5  UNL     1     -16.390 -18.385  35.796  1.00  0.00    -0.176 N 
ATOM      9  H5  UNL     1     -16.181 -17.387  35.797  1.00  0.00     0.186 HD
HETATM   10  C9  UNL     1     -17.657 -18.773  35.980  1.00  0.00     0.682 A 
HETATM   11  N7  UNL     1     -17.937 -20.084  35.981  1.00  0.00    -0.151 N 
HETATM   12  C10 UNL     1     -19.273 -20.607  36.177  1.00  0.00     0.179 C 
HETATM   13  C11 UNL     1     -16.947 -21.020  35.793  1.00  0.00     0.276 A 
HETATM   14  O5  UNL     1     -17.247 -22.218  35.809  1.00  0.00    -0.266 OA
HETATM   15  C12 UNL     1     -15.647 -20.653  35.598  1.00  0.00     0.088 A 
HETATM   16  C13 UNL     1     -14.545 -21.498  35.269  1.00  0.00     0.026 C 
ENDROOT
BRANCH   1  17
HETATM   17  C3  UNL     1     -13.366 -21.209  37.478  1.00  0.00     0.266 C 
HETATM   18  N1  UNL     1     -12.275 -21.432  38.373  1.00  0.00    -0.358 N 
HETATM   19  C1  UNL     1     -12.582 -21.560  39.784  1.00  0.00     0.152 C 
HETATM   20  C2  UNL     1     -10.906 -21.536  37.945  1.00  0.00     0.152 C 
HETATM   21  O1  UNL     1     -14.523 -21.143  38.018  1.00  0.00    -0.269 OA
ENDBRANCH   1  17
BRANCH   1  22
HETATM   22  O2  UNL     1     -12.247 -21.846  35.535  1.00  0.00    -0.369 OA
ATOM     23  H2  UNL     1     -11.396 -21.572  35.858  1.00  0.00     0.212 HD
ENDBRANCH   1  22
BRANCH   3  24
HETATM   24  C6  UNL     1     -11.309 -18.082  34.807  1.00  0.00     0.275 C 
BRANCH  24  25
HETATM   25  O3  UNL     1     -11.521 -17.110  35.780  1.00  0.00    -0.372 OA
ATOM     26  H3  UNL     1     -10.809 -17.116  36.409  1.00  0.00     0.212 HD
ENDBRANCH  24  25
BRANCH  24  27
HETATM   27  C7  UNL     1      -9.854 -18.123  34.381  1.00  0.00     0.365 C 
BRANCH  27  28
HETATM   28  N3  UNL     1      -9.331 -19.427  34.724  1.00  0.00    -0.049 N 
ATOM     29  H33 UNL     1      -8.557 -19.381  35.387  1.00  0.00     0.277 HD
ATOM     30  H32 UNL     1      -9.971 -19.971  35.302  1.00  0.00     0.277 HD
ATOM     31  H31 UNL     1      -9.081 -19.901  33.856  1.00  0.00     0.277 HD
ENDBRANCH  27  28
BRANCH  27  32
HETATM   32  O4  UNL     1      -9.170 -17.114  35.091  1.00  0.00    -0.367 OA
ATOM     33  H4  UNL     1      -8.617 -16.649  34.473  1.00  0.00     0.212 HD
ENDBRANCH  27  32
ENDBRANCH  24  27
ENDBRANCH   3  24
BRANCH  16  34
HETATM   34  C14 UNL     1     -14.503 -22.930  35.170  1.00  0.00     0.112 C 
HETATM   35  N8  UNL     1     -14.372 -23.512  33.864  1.00  0.00    -0.114 NA
ENDBRANCH  16  34
BRANCH  10  36
HETATM   36  N6  UNL     1     -18.637 -17.951  36.159  1.00  0.00    -0.234 N 
ATOM     37  H62 UNL     1     -18.847 -17.294  35.408  1.00  0.00     0.174 HD
ATOM     38  H61 UNL     1     -19.205 -17.927  37.006  1.00  0.00     0.174 HD
ENDBRANCH  10  36
TORSDOF 9
ENDMDL
MODEL 5
REMARK VINA RESULT: -5.922119594      1.913      2.179
REMARK  9 active torsions:
REMARK  status: ('A' for Active; 'I' for Inactive)
REMARK       I    between atoms: N1_2  and  C3_4 
REMARK    1  A    between atoms: C3_4  and  C4_6 
REMARK    2  A    between atoms: C4_6  and  O2_7 
REMARK    3  A    between atoms: N2_10  and  C6_12 
REMARK    4  A    between atoms: C6_12  and  O3_13 
REMARK    5  A    between atoms: C6_12  and  C7_15 
REMARK    6  A    between atoms: C7_15  and  N3_16 
REMARK    7  A    between atoms: C7_15  and  O4_20 
REMARK    8  A    between atoms: C9_27  and  N6_28 
REMARK    9  A    between atoms: C13_36  and  C14_37 
ROOT
HETATM    1  C4  UNL     1     -14.412 -18.969  36.798  1.00  0.00     0.227 C 
HETATM    2  C5  UNL     1     -13.228 -19.738  36.257  1.00  0.00     0.131 C 
HETATM    3  N2  UNL     1     -12.294 -19.085  35.714  1.00  0.00    -0.347 N 
ATOM      4  H2  UNL     1     -12.412 -18.072  35.681  1.00  0.00     0.163 HD
HETATM    5  N4  UNL     1     -13.244 -21.140  36.391  1.00  0.00    -0.328 N 
ATOM      6  H4  UNL     1     -12.650 -21.733  35.811  1.00  0.00     0.169 HD
HETATM    7  C8  UNL     1     -14.114 -21.698  37.361  1.00  0.00     0.139 A 
HETATM    8  N5  UNL     1     -14.260 -23.050  37.354  1.00  0.00    -0.176 N 
ATOM      9  H5  UNL     1     -13.652 -23.604  36.751  1.00  0.00     0.186 HD
HETATM   10  C9  UNL     1     -15.168 -23.687  38.103  1.00  0.00     0.682 A 
HETATM   11  N7  UNL     1     -15.971 -22.964  38.896  1.00  0.00    -0.151 N 
HETATM   12  C10 UNL     1     -16.988 -23.555  39.742  1.00  0.00     0.179 C 
HETATM   13  C11 UNL     1     -15.868 -21.594  38.949  1.00  0.00     0.276 A 
HETATM   14  O5  UNL     1     -16.632 -20.965  39.688  1.00  0.00    -0.266 OA
HETATM   15  C12 UNL     1     -14.948 -20.919  38.201  1.00  0.00     0.088 A 
HETATM   16  C13 UNL     1     -14.646 -19.524  38.245  1.00  0.00     0.026 C 
ENDROOT
BRANCH   1  17
HETATM   17  C3  UNL     1     -15.571 -19.016  35.955  1.00  0.00     0.266 C 
HETATM   18  N1  UNL     1     -16.596 -18.023  35.893  1.00  0.00    -0.358 N 
HETATM   19  C1  UNL     1     -17.694 -18.252  34.974  1.00  0.00     0.152 C 
HETATM   20  C2  UNL     1     -16.591 -16.826  36.689  1.00  0.00     0.152 C 
HETATM   21  O1  UNL     1     -15.724 -20.023  35.183  1.00  0.00    -0.269 OA
ENDBRANCH   1  17
BRANCH   1  22
HETATM   22  O2  UNL     1     -13.978 -17.665  36.991  1.00  0.00    -0.369 OA
ATOM     23  H2  UNL     1     -14.603 -17.163  37.502  1.00  0.00     0.212 HD
ENDBRANCH   1  22
BRANCH   3  24
HETATM   24  C6  UNL     1     -11.084 -19.604  35.136  1.00  0.00     0.275 C 
BRANCH  24  25
HETATM   25  O3  UNL     1     -11.364 -20.238  33.929  1.00  0.00    -0.372 OA
ATOM     26  H3  UNL     1     -11.752 -21.090  34.089  1.00  0.00     0.212 HD
ENDBRANCH  24  25
BRANCH  24  27
HETATM   27  C7  UNL     1     -10.005 -18.551  34.966  1.00  0.00     0.365 C 
BRANCH  27  28
HETATM   28  N3  UNL     1     -10.543 -17.500  34.131  1.00  0.00    -0.049 N 
ATOM     29  H33 UNL     1     -11.137 -17.854  33.381  1.00  0.00     0.277 HD
ATOM     30  H32 UNL     1     -11.247 -16.937  34.607  1.00  0.00     0.277 HD
ATOM     31  H31 UNL     1      -9.759 -16.945  33.786  1.00  0.00     0.277 HD
ENDBRANCH  27  28
BRANCH  27  32
HETATM   32  O4  UNL     1      -8.901 -19.166  34.337  1.00  0.00    -0.367 OA
ATOM     33  H4  UNL     1      -8.245 -19.334  35.004  1.00  0.00     0.212 HD
ENDBRANCH  27  32
ENDBRANCH  24  27
ENDBRANCH   3  24
BRANCH  16  34
HETATM   34  C14 UNL     1     -15.292 -18.483  38.992  1.00  0.00     0.112 C 
HETATM   35  N8  UNL     1     -14.599 -17.935  40.123  1.00  0.00    -0.114 NA
ENDBRANCH  16  34
BRANCH  10  36
HETATM   36  N6  UNL     1     -15.318 -24.969  38.106  1.00  0.00    -0.234 N 
ATOM     37  H62 UNL     1     -14.954 -25.486  38.907  1.00  0.00     0.174 HD
ATOM     38  H61 UNL     1     -15.779 -25.485  37.357  1.00  0.00     0.174 HD
ENDBRANCH  10  36
TORSDOF 9
ENDMDL
