MODEL 1
REMARK VINA RESULT: -9.224042738      0.000      0.000
REMARK  5 active torsions:
REMARK  status: ('A' for Active; 'I' for Inactive)
REMARK    1  A    between atoms: C19_22  and  C20_23 
REMARK    2  A    between atoms: C20_23  and  C21_24 
REMARK    3  A    between atoms: C21_24  and  C22_25 
REMARK    4  A    between atoms: C22_25  and  N1_26 
REMARK    5  A    between atoms: C22_25  and  O4_30 
ROOT
HETATM    1  C1  UNL     1       4.350  13.091  24.406  1.00  0.00     0.044 C 
HETATM    2  C2  UNL     1       3.345  12.025  24.132  1.00  0.00    -0.074 C 
HETATM    3  C3  UNL     1       2.036  12.217  24.328  1.00  0.00     0.085 C 
HETATM    4  C4  UNL     1       1.062  11.126  24.046  1.00  0.00     0.284 C 
HETATM    5  O1  UNL     1       0.017  11.600  23.454  1.00  0.00    -0.260 OA
HETATM    6  O2  UNL     1       1.338   9.923  24.392  1.00  0.00    -0.303 OA
HETATM    7  C5  UNL     1       1.270   8.691  24.939  1.00  0.00     0.106 C 
HETATM    8  C6  UNL     1      -0.150   8.603  25.575  1.00  0.00     0.074 C 
HETATM    9  C7  UNL     1      -0.392   7.183  25.746  1.00  0.00     0.130 C 
HETATM   10  O3  UNL     1       0.426   6.612  24.732  1.00  0.00    -0.377 OA
HETATM   11  C8  UNL     1       0.934   7.598  23.968  1.00  0.00     0.154 C 
HETATM   12  C9  UNL     1       1.794   7.208  22.882  1.00  0.00     0.042 C 
HETATM   13  C10 UNL     1      -0.442   6.459  26.986  1.00  0.00     0.031 A 
HETATM   14  C11 UNL     1       0.228   6.175  28.122  1.00  0.00     0.008 A 
HETATM   15  C12 UNL     1       1.321   6.739  28.879  1.00  0.00    -0.013 C 
HETATM   16  C13 UNL     1       0.686   7.228  30.218  1.00  0.00     0.010 C 
HETATM   17  C14 UNL     1       2.294   7.746  28.465  1.00  0.00     0.005 C 
HETATM   18  C15 UNL     1       1.834   8.695  27.402  1.00  0.00     0.013 C 
HETATM   19  C16 UNL     1       2.337   8.394  25.980  1.00  0.00    -0.003 C 
HETATM   20  C17 UNL     1       3.339   9.591  25.816  1.00  0.00     0.013 C 
HETATM   21  C18 UNL     1       4.162   9.703  24.648  1.00  0.00     0.010 C 
HETATM   22  C19 UNL     1       3.882  10.745  23.613  1.00  0.00     0.014 C 
HETATM   23  C23 UNL     1       3.164   7.208  25.881  1.00  0.00     0.053 C 
HETATM   24  C24 UNL     1       2.955   5.831  26.282  1.00  0.00     0.085 A 
HETATM   25  C25 UNL     1       4.365   5.128  26.450  1.00  0.00     0.049 C 
HETATM   26  O5  UNL     1       2.344   4.792  25.582  1.00  0.00    -0.369 OA
HETATM   27  C26 UNL     1       1.906   5.287  26.918  1.00  0.00     0.166 A 
HETATM   28  C27 UNL     1       0.491   5.376  26.875  1.00  0.00    -0.004 A 
HETATM   29  C28 UNL     1      -0.190   4.014  26.623  1.00  0.00     0.019 C 
ENDROOT
BRANCH  22  30
HETATM   30  C20 UNL     1       5.183  10.998  22.838  1.00  0.00     0.013 C 
BRANCH  30  31
HETATM   31  C21 UNL     1       6.308  10.161  23.338  1.00  0.00     0.061 C 
BRANCH  31  32
HETATM   32  C22 UNL     1       7.177   9.801  22.121  1.00  0.00     0.316 C 
BRANCH  32  33
HETATM   33  N1  UNL     1       7.993   8.645  22.469  1.00  0.00    -0.053 N 
ATOM     34  H13 UNL     1       8.478   8.759  23.360  1.00  0.00     0.277 HD
ATOM     35  H12 UNL     1       7.434   7.829  22.720  1.00  0.00     0.277 HD
ATOM     36  H11 UNL     1       8.632   8.460  21.696  1.00  0.00     0.277 HD
ENDBRANCH  32  33
BRANCH  32  37
HETATM   37  O4  UNL     1       6.379   9.428  21.042  1.00  0.00    -0.370 OA
ATOM     38  H4  UNL     1       6.711   9.803  20.236  1.00  0.00     0.212 HD
ENDBRANCH  32  37
ENDBRANCH  31  32
ENDBRANCH  30  31
ENDBRANCH  22  30
TORSDOF 5
ENDMDL
MODEL 2
REMARK VINA RESULT: -7.513955762      3.123      6.059
REMARK  5 active torsions:
REMARK  status: ('A' for Active; 'I' for Inactive)
REMARK    1  A    between atoms: C19_22  and  C20_23 
REMARK    2  A    between atoms: C20_23  and  C21_24 
REMARK    3  A    between atoms: C21_24  and  C22_25 
REMARK    4  A    between atoms: C22_25  and  N1_26 
REMARK    5  A    between atoms: C22_25  and  O4_30 
ROOT
HETATM    1  C1  UNL     1       0.021   8.405  28.892  1.00  0.00     0.044 C 
HETATM    2  C2  UNL     1       0.183   7.493  27.724  1.00  0.00    -0.074 C 
HETATM    3  C3  UNL     1      -0.134   6.195  27.787  1.00  0.00     0.085 C 
HETATM    4  C4  UNL     1       0.045   5.314  26.600  1.00  0.00     0.284 C 
HETATM    5  O1  UNL     1      -0.965   4.519  26.474  1.00  0.00    -0.260 OA
HETATM    6  O2  UNL     1       1.099   5.427  25.880  1.00  0.00    -0.303 OA
HETATM    7  C5  UNL     1       2.231   5.148  25.198  1.00  0.00     0.106 C 
HETATM    8  C6  UNL     1       2.385   3.599  25.275  1.00  0.00     0.074 C 
HETATM    9  C7  UNL     1       3.298   3.263  24.200  1.00  0.00     0.130 C 
HETATM   10  O3  UNL     1       3.092   4.332  23.283  1.00  0.00    -0.377 OA
HETATM   11  C8  UNL     1       2.060   5.085  23.709  1.00  0.00     0.154 C 
HETATM   12  C9  UNL     1       1.703   6.222  22.902  1.00  0.00     0.042 C 
HETATM   13  C10 UNL     1       4.655   2.809  24.329  1.00  0.00     0.031 A 
HETATM   14  C11 UNL     1       5.862   3.087  24.863  1.00  0.00     0.008 A 
HETATM   15  C12 UNL     1       6.390   3.916  25.922  1.00  0.00    -0.013 C 
HETATM   16  C13 UNL     1       6.940   2.919  26.990  1.00  0.00     0.010 C 
HETATM   17  C14 UNL     1       5.734   5.005  26.640  1.00  0.00     0.005 C 
HETATM   18  C15 UNL     1       4.241   4.929  26.714  1.00  0.00     0.013 C 
HETATM   19  C16 UNL     1       3.481   5.832  25.729  1.00  0.00    -0.003 C 
HETATM   20  C17 UNL     1       2.909   6.880  26.748  1.00  0.00     0.013 C 
HETATM   21  C18 UNL     1       2.179   8.025  26.290  1.00  0.00     0.010 C 
HETATM   22  C19 UNL     1       0.699   8.116  26.482  1.00  0.00     0.014 C 
HETATM   23  C23 UNL     1       4.335   6.605  24.850  1.00  0.00     0.053 C 
HETATM   24  C24 UNL     1       5.406   6.233  23.946  1.00  0.00     0.085 A 
HETATM   25  C25 UNL     1       6.330   7.496  23.699  1.00  0.00     0.049 C 
HETATM   26  O5  UNL     1       5.334   5.827  22.615  1.00  0.00    -0.369 OA
HETATM   27  C26 UNL     1       5.932   5.019  23.716  1.00  0.00     0.166 A 
HETATM   28  C27 UNL     1       5.468   3.690  23.543  1.00  0.00    -0.004 A 
HETATM   29  C28 UNL     1       5.910   3.069  22.201  1.00  0.00     0.019 C 
ENDROOT
BRANCH  22  30
HETATM   30  C20 UNL     1       0.309   9.599  26.439  1.00  0.00     0.013 C 
BRANCH  30  31
HETATM   31  C21 UNL     1      -0.354   9.969  25.157  1.00  0.00     0.061 C 
BRANCH  31  32
HETATM   32  C22 UNL     1      -1.272  11.167  25.455  1.00  0.00     0.316 C 
BRANCH  32  33
HETATM   33  N1  UNL     1      -2.419  11.095  24.558  1.00  0.00    -0.053 N 
ATOM     34  H13 UNL     1      -2.148  11.002  23.579  1.00  0.00     0.277 HD
ATOM     35  H12 UNL     1      -2.931  10.216  24.644  1.00  0.00     0.277 HD
ATOM     36  H11 UNL     1      -3.008  11.911  24.727  1.00  0.00     0.277 HD
ENDBRANCH  32  33
BRANCH  32  37
HETATM   37  O4  UNL     1      -1.764  11.095  26.755  1.00  0.00    -0.370 OA
ATOM     38  H4  UNL     1      -1.592  11.904  27.223  1.00  0.00     0.212 HD
ENDBRANCH  32  37
ENDBRANCH  31  32
ENDBRANCH  30  31
ENDBRANCH  22  30
TORSDOF 5
ENDMDL
MODEL 3
REMARK VINA RESULT: -7.476415637      2.139      3.615
REMARK  5 active torsions:
REMARK  status: ('A' for Active; 'I' for Inactive)
REMARK    1  A    between atoms: C19_22  and  C20_23 
REMARK    2  A    between atoms: C20_23  and  C21_24 
REMARK    3  A    between atoms: C21_24  and  C22_25 
REMARK    4  A    between atoms: C22_25  and  N1_26 
REMARK    5  A    between atoms: C22_25  and  O4_30 
ROOT
HETATM    1  C1  UNL     1       6.954  10.312  21.977  1.00  0.00     0.044 C 
HETATM    2  C2  UNL     1       6.033   9.173  22.257  1.00  0.00    -0.074 C 
HETATM    3  C3  UNL     1       5.071   8.811  21.400  1.00  0.00     0.085 C 
HETATM    4  C4  UNL     1       4.168   7.670  21.716  1.00  0.00     0.284 C 
HETATM    5  O1  UNL     1       3.980   6.943  20.665  1.00  0.00    -0.260 OA
HETATM    6  O2  UNL     1       3.707   7.536  22.904  1.00  0.00    -0.303 OA
HETATM    7  C5  UNL     1       2.870   7.386  23.953  1.00  0.00     0.106 C 
HETATM    8  C6  UNL     1       1.458   7.192  23.327  1.00  0.00     0.074 C 
HETATM    9  C7  UNL     1       0.664   6.591  24.380  1.00  0.00     0.130 C 
HETATM   10  O3  UNL     1       1.651   5.928  25.162  1.00  0.00    -0.377 OA
HETATM   11  C8  UNL     1       2.837   6.001  24.529  1.00  0.00     0.154 C 
HETATM   12  C9  UNL     1       3.964   5.381  25.175  1.00  0.00     0.042 C 
HETATM   13  C10 UNL     1      -0.402   7.209  25.120  1.00  0.00     0.031 A 
HETATM   14  C11 UNL     1      -0.741   8.269  25.882  1.00  0.00     0.008 A 
HETATM   15  C12 UNL     1      -0.242   9.601  26.131  1.00  0.00    -0.013 C 
HETATM   16  C13 UNL     1      -1.332  10.563  25.564  1.00  0.00     0.010 C 
HETATM   17  C14 UNL     1       1.060  10.167  25.786  1.00  0.00     0.005 C 
HETATM   18  C15 UNL     1       1.743   9.552  24.605  1.00  0.00     0.013 C 
HETATM   19  C16 UNL     1       2.862   8.549  24.933  1.00  0.00    -0.003 C 
HETATM   20  C17 UNL     1       4.098   9.404  24.484  1.00  0.00     0.013 C 
HETATM   21  C18 UNL     1       5.434   8.925  24.686  1.00  0.00     0.010 C 
HETATM   22  C19 UNL     1       6.260   8.454  23.532  1.00  0.00     0.014 C 
HETATM   23  C23 UNL     1       3.065   8.328  26.351  1.00  0.00     0.053 C 
HETATM   24  C24 UNL     1       2.168   7.938  27.421  1.00  0.00     0.085 A 
HETATM   25  C25 UNL     1       2.789   8.402  28.803  1.00  0.00     0.049 C 
HETATM   26  O5  UNL     1       1.795   6.661  27.837  1.00  0.00    -0.369 OA
HETATM   27  C26 UNL     1       0.846   7.712  27.374  1.00  0.00     0.166 A 
HETATM   28  C27 UNL     1      -0.080   7.073  26.510  1.00  0.00    -0.004 A 
HETATM   29  C28 UNL     1      -0.897   5.969  27.215  1.00  0.00     0.019 C 
ENDROOT
BRANCH  22  30
HETATM   30  C20 UNL     1       7.736   8.559  23.938  1.00  0.00     0.013 C 
BRANCH  30  31
HETATM   31  C21 UNL     1       8.438   7.247  23.851  1.00  0.00     0.061 C 
BRANCH  31  32
HETATM   32  C22 UNL     1       7.360   6.154  23.939  1.00  0.00     0.316 C 
BRANCH  32  33
HETATM   33  N1  UNL     1       7.712   5.091  23.005  1.00  0.00    -0.053 N 
ATOM     34  H13 UNL     1       7.743   5.412  22.037  1.00  0.00     0.277 HD
ATOM     35  H12 UNL     1       8.687   4.804  23.086  1.00  0.00     0.277 HD
ATOM     36  H11 UNL     1       7.061   4.318  23.141  1.00  0.00     0.277 HD
ENDBRANCH  32  33
BRANCH  32  37
HETATM   37  O4  UNL     1       7.337   5.589  25.211  1.00  0.00    -0.370 OA
ATOM     38  H4  UNL     1       7.621   4.683  25.179  1.00  0.00     0.212 HD
ENDBRANCH  32  37
ENDBRANCH  31  32
ENDBRANCH  30  31
ENDBRANCH  22  30
TORSDOF 5
ENDMDL
MODEL 4
REMARK VINA RESULT: -7.462631158      2.659      4.794
REMARK  5 active torsions:
REMARK  status: ('A' for Active; 'I' for Inactive)
REMARK    1  A    between atoms: C19_22  and  C20_23 
REMARK    2  A    between atoms: C20_23  and  C21_24 
REMARK    3  A    between atoms: C21_24  and  C22_25 
REMARK    4  A    between atoms: C22_25  and  N1_26 
REMARK    5  A    between atoms: C22_25  and  O4_30 
ROOT
HETATM    1  C1  UNL     1       6.667   3.710  22.758  1.00  0.00     0.044 C 
HETATM    2  C2  UNL     1       5.741   4.864  22.936  1.00  0.00    -0.074 C 
HETATM    3  C3  UNL     1       6.180   6.080  23.281  1.00  0.00     0.085 C 
HETATM    4  C4  UNL     1       5.224   7.209  23.452  1.00  0.00     0.284 C 
HETATM    5  O1  UNL     1       5.706   8.288  22.932  1.00  0.00    -0.260 OA
HETATM    6  O2  UNL     1       4.109   7.010  24.050  1.00  0.00    -0.303 OA
HETATM    7  C5  UNL     1       3.067   7.112  24.903  1.00  0.00     0.106 C 
HETATM    8  C6  UNL     1       3.359   8.381  25.758  1.00  0.00     0.074 C 
HETATM    9  C7  UNL     1       2.077   8.747  26.329  1.00  0.00     0.130 C 
HETATM   10  O3  UNL     1       1.160   8.212  25.381  1.00  0.00    -0.377 OA
HETATM   11  C8  UNL     1       1.844   7.754  24.316  1.00  0.00     0.154 C 
HETATM   12  C9  UNL     1       1.077   7.172  23.246  1.00  0.00     0.042 C 
HETATM   13  C10 UNL     1       1.682   8.637  27.706  1.00  0.00     0.031 A 
HETATM   14  C11 UNL     1       1.570   7.796  28.755  1.00  0.00     0.008 A 
HETATM   15  C12 UNL     1       2.114   6.519  29.155  1.00  0.00    -0.013 C 
HETATM   16  C13 UNL     1       2.999   6.821  30.404  1.00  0.00     0.010 C 
HETATM   17  C14 UNL     1       2.826   5.536  28.343  1.00  0.00     0.005 C 
HETATM   18  C15 UNL     1       3.559   6.082  27.157  1.00  0.00     0.013 C 
HETATM   19  C16 UNL     1       2.857   5.904  25.801  1.00  0.00    -0.003 C 
HETATM   20  C17 UNL     1       3.805   4.822  25.174  1.00  0.00     0.013 C 
HETATM   21  C18 UNL     1       3.506   4.235  23.901  1.00  0.00     0.010 C 
HETATM   22  C19 UNL     1       4.306   4.589  22.689  1.00  0.00     0.014 C 
HETATM   23  C23 UNL     1       1.564   5.254  25.883  1.00  0.00     0.053 C 
HETATM   24  C24 UNL     1       0.371   5.537  26.657  1.00  0.00     0.085 A 
HETATM   25  C25 UNL     1      -0.489   4.211  26.775  1.00  0.00     0.049 C 
HETATM   26  O5  UNL     1      -0.692   6.388  26.358  1.00  0.00    -0.369 OA
HETATM   27  C26 UNL     1       0.167   6.498  27.572  1.00  0.00     0.166 A 
HETATM   28  C27 UNL     1       0.469   7.874  27.733  1.00  0.00    -0.004 A 
HETATM   29  C28 UNL     1      -0.787   8.743  27.957  1.00  0.00     0.019 C 
ENDROOT
BRANCH  22  30
HETATM   30  C20 UNL     1       4.159   3.444  21.677  1.00  0.00     0.013 C 
BRANCH  30  31
HETATM   31  C21 UNL     1       3.796   3.936  20.319  1.00  0.00     0.061 C 
BRANCH  31  32
HETATM   32  C22 UNL     1       3.111   5.301  20.503  1.00  0.00     0.316 C 
BRANCH  32  33
HETATM   33  N1  UNL     1       3.798   6.273  19.662  1.00  0.00    -0.053 N 
ATOM     34  H13 UNL     1       4.423   6.880  20.192  1.00  0.00     0.277 HD
ATOM     35  H12 UNL     1       4.500   5.844  19.059  1.00  0.00     0.277 HD
ATOM     36  H11 UNL     1       3.095   6.795  19.138  1.00  0.00     0.277 HD
ENDBRANCH  32  33
BRANCH  32  37
HETATM   37  O4  UNL     1       1.789   5.247  20.070  1.00  0.00    -0.370 OA
ATOM     38  H4  UNL     1       1.702   5.643  19.212  1.00  0.00     0.212 HD
ENDBRANCH  32  37
ENDBRANCH  31  32
ENDBRANCH  30  31
ENDBRANCH  22  30
TORSDOF 5
ENDMDL
MODEL 5
REMARK VINA RESULT: -7.349269299      2.336      2.803
REMARK  5 active torsions:
REMARK  status: ('A' for Active; 'I' for Inactive)
REMARK    1  A    between atoms: C19_22  and  C20_23 
REMARK    2  A    between atoms: C20_23  and  C21_24 
REMARK    3  A    between atoms: C21_24  and  C22_25 
REMARK    4  A    between atoms: C22_25  and  N1_26 
REMARK    5  A    between atoms: C22_25  and  O4_30 
ROOT
HETATM    1  C1  UNL     1       4.516  13.744  25.302  1.00  0.00     0.044 C 
HETATM    2  C2  UNL     1       3.998  12.650  24.431  1.00  0.00    -0.074 C 
HETATM    3  C3  UNL     1       2.693  12.509  24.170  1.00  0.00     0.085 C 
HETATM    4  C4  UNL     1       2.213  11.403  23.297  1.00  0.00     0.284 C 
HETATM    5  O1  UNL     1       1.297  11.830  22.493  1.00  0.00    -0.260 OA
HETATM    6  O2  UNL     1       2.717  10.231  23.421  1.00  0.00    -0.303 OA
HETATM    7  C5  UNL     1       2.858   8.899  23.593  1.00  0.00     0.106 C 
HETATM    8  C6  UNL     1       1.407   8.334  23.619  1.00  0.00     0.074 C 
HETATM    9  C7  UNL     1       1.555   6.918  23.344  1.00  0.00     0.130 C 
HETATM   10  O3  UNL     1       2.766   6.880  22.598  1.00  0.00    -0.377 OA
HETATM   11  C8  UNL     1       3.161   8.140  22.335  1.00  0.00     0.154 C 
HETATM   12  C9  UNL     1       4.378   8.301  21.583  1.00  0.00     0.042 C 
HETATM   13  C10 UNL     1       1.358   5.834  24.266  1.00  0.00     0.031 A 
HETATM   14  C11 UNL     1       1.717   5.331  25.465  1.00  0.00     0.008 A 
HETATM   15  C12 UNL     1       2.321   5.818  26.683  1.00  0.00    -0.013 C 
HETATM   16  C13 UNL     1       1.205   5.710  27.769  1.00  0.00     0.010 C 
HETATM   17  C14 UNL     1       3.030   7.074  26.911  1.00  0.00     0.005 C 
HETATM   18  C15 UNL     1       2.645   8.209  26.014  1.00  0.00     0.013 C 
HETATM   19  C16 UNL     1       3.609   8.493  24.850  1.00  0.00    -0.003 C 
HETATM   20  C17 UNL     1       4.215   9.849  25.358  1.00  0.00     0.013 C 
HETATM   21  C18 UNL     1       5.274  10.494  24.640  1.00  0.00     0.010 C 
HETATM   22  C19 UNL     1       5.016  11.741  23.857  1.00  0.00     0.014 C 
HETATM   23  C23 UNL     1       4.740   7.590  24.782  1.00  0.00     0.053 C 
HETATM   24  C24 UNL     1       4.839   6.144  24.736  1.00  0.00     0.085 A 
HETATM   25  C25 UNL     1       6.279   5.714  25.238  1.00  0.00     0.049 C 
HETATM   26  O5  UNL     1       4.796   5.293  23.633  1.00  0.00    -0.369 OA
HETATM   27  C26 UNL     1       3.859   5.229  24.790  1.00  0.00     0.166 A 
HETATM   28  C27 UNL     1       2.558   5.050  24.251  1.00  0.00    -0.004 A 
HETATM   29  C28 UNL     1       2.416   3.740  23.448  1.00  0.00     0.019 C 
ENDROOT
BRANCH  22  30
HETATM   30  C20 UNL     1       6.352  12.481  23.700  1.00  0.00     0.013 C 
BRANCH  30  31
HETATM   31  C21 UNL     1       7.444  11.843  24.486  1.00  0.00     0.061 C 
BRANCH  31  32
HETATM   32  C22 UNL     1       8.100  12.952  25.327  1.00  0.00     0.316 C 
BRANCH  32  33
HETATM   33  N1  UNL     1       9.502  12.605  25.523  1.00  0.00    -0.053 N 
ATOM     34  H13 UNL     1       9.925  13.103  26.307  1.00  0.00     0.277 HD
ATOM     35  H12 UNL     1       9.627  11.657  25.878  1.00  0.00     0.277 HD
ATOM     36  H11 UNL     1       9.996  12.765  24.645  1.00  0.00     0.277 HD
ENDBRANCH  32  33
BRANCH  32  37
HETATM   37  O4  UNL     1       8.070  14.166  24.647  1.00  0.00    -0.370 OA
ATOM     38  H4  UNL     1       7.174  14.458  24.524  1.00  0.00     0.212 HD
ENDBRANCH  32  37
ENDBRANCH  31  32
ENDBRANCH  30  31
ENDBRANCH  22  30
TORSDOF 5
ENDMDL
