MODEL 1
REMARK VINA RESULT: -7.385856020      0.000      0.000
REMARK  11 active torsions:
REMARK  status: ('A' for Active; 'I' for Inactive)
REMARK    1  A    between atoms: N1_1  and  C1_4 
REMARK    2  A    between atoms: N4_13  and  C4_14 
REMARK    3  A    between atoms: C4_14  and  C5_15 
REMARK    4  A    between atoms: C5_15  and  C6_16 
REMARK    5  A    between atoms: C5_15  and  N8_30 
REMARK    6  A    between atoms: C6_16  and  C7_17 
REMARK    7  A    between atoms: C7_17  and  N5_18 
REMARK    8  A    between atoms: C7_17  and  C8_22 
REMARK    9  A    between atoms: C8_22  and  N6_23 
REMARK   10  A    between atoms: C8_22  and  C9_27 
REMARK   11  A    between atoms: N8_30  and  C10_32 
ROOT
HETATM    1  C5  UNL     1      41.386 -65.168  32.756  1.00  0.00     0.105 C 
ENDROOT
BRANCH   1   2
HETATM    2  C4  UNL     1      42.504 -65.477  33.691  1.00  0.00     0.177 C 
BRANCH   2   3
HETATM    3  N4  UNL     1      43.445 -64.431  33.921  1.00  0.00    -0.131 N 
HETATM    4  C1  UNL     1      43.883 -63.667  32.922  1.00  0.00     0.686 A 
HETATM    5  N2  UNL     1      44.793 -62.677  33.129  1.00  0.00    -0.141 N 
HETATM    6  C2  UNL     1      45.266 -62.450  34.350  1.00  0.00     0.342 A 
ATOM      7  H2  UNL     1      45.113 -62.107  32.346  1.00  0.00     0.189 HD
HETATM    8  O1  UNL     1      46.114 -61.550  34.627  1.00  0.00    -0.246 OA
HETATM    9  N3  UNL     1      44.836 -63.214  35.386  1.00  0.00    -0.259 N 
HETATM   10  C3  UNL     1      43.937 -64.188  35.164  1.00  0.00     0.344 A 
ATOM     11  H3  UNL     1      45.191 -63.049  36.327  1.00  0.00     0.175 HD
HETATM   12  O2  UNL     1      43.572 -64.865  36.165  1.00  0.00    -0.246 OA
BRANCH   4  13
HETATM   13  N1  UNL     1      43.482 -63.783  31.702  1.00  0.00    -0.234 N 
ATOM     14  H12 UNL     1      43.585 -63.051  30.999  1.00  0.00     0.174 HD
ATOM     15  H11 UNL     1      43.056 -64.682  31.477  1.00  0.00     0.174 HD
ENDBRANCH   4  13
ENDBRANCH   2   3
ENDBRANCH   1   2
BRANCH   1  16
HETATM   16  C6  UNL     1      40.820 -66.437  32.192  1.00  0.00     0.062 C 
BRANCH  16  17
HETATM   17  C7  UNL     1      41.794 -67.116  31.277  1.00  0.00     0.224 C 
BRANCH  17  18
HETATM   18  N5  UNL     1      41.203 -67.126  29.946  1.00  0.00    -0.072 N 
ATOM     19  H53 UNL     1      40.340 -67.669  29.897  1.00  0.00     0.274 HD
ATOM     20  H52 UNL     1      40.807 -66.225  29.679  1.00  0.00     0.274 HD
ATOM     21  H51 UNL     1      41.919 -67.455  29.299  1.00  0.00     0.274 HD
ENDBRANCH  17  18
BRANCH  17  22
HETATM   22  C8  UNL     1      41.942 -68.575  31.744  1.00  0.00     0.302 C 
BRANCH  22  23
HETATM   23  N6  UNL     1      42.967 -69.242  30.994  1.00  0.00    -0.065 N 
ATOM     24  H63 UNL     1      43.436 -68.609  30.346  1.00  0.00     0.275 HD
ATOM     25  H62 UNL     1      43.768 -69.484  31.578  1.00  0.00     0.275 HD
ATOM     26  H61 UNL     1      42.586 -70.058  30.517  1.00  0.00     0.275 HD
ENDBRANCH  22  23
BRANCH  22  27
HETATM   27  C9  UNL     1      40.679 -69.313  31.566  1.00  0.00     0.263 C 
HETATM   28  N7  UNL     1      40.543 -70.364  30.627  1.00  0.00    -0.060 NA
HETATM   29  O3  UNL     1      39.682 -69.010  32.263  1.00  0.00    -0.275 OA
ENDBRANCH  22  27
ENDBRANCH  17  22
ENDBRANCH  16  17
ENDBRANCH   1  16
BRANCH   1  30
HETATM   30  N8  UNL     1      40.277 -64.507  33.431  1.00  0.00    -0.362 N 
ATOM     31  H8  UNL     1      39.328 -64.809  33.212  1.00  0.00     0.162 HD
BRANCH  30  32
HETATM   32  C10 UNL     1      40.447 -63.469  34.373  1.00  0.00     0.348 C 
HETATM   33  O4  UNL     1      40.804 -62.297  34.043  1.00  0.00    -0.284 OA
ENDBRANCH  30  32
ENDBRANCH   1  30
TORSDOF 11
ENDMDL
MODEL 2
REMARK VINA RESULT: -7.071905466      1.092      1.727
REMARK  11 active torsions:
REMARK  status: ('A' for Active; 'I' for Inactive)
REMARK    1  A    between atoms: N1_1  and  C1_4 
REMARK    2  A    between atoms: N4_13  and  C4_14 
REMARK    3  A    between atoms: C4_14  and  C5_15 
REMARK    4  A    between atoms: C5_15  and  C6_16 
REMARK    5  A    between atoms: C5_15  and  N8_30 
REMARK    6  A    between atoms: C6_16  and  C7_17 
REMARK    7  A    between atoms: C7_17  and  N5_18 
REMARK    8  A    between atoms: C7_17  and  C8_22 
REMARK    9  A    between atoms: C8_22  and  N6_23 
REMARK   10  A    between atoms: C8_22  and  C9_27 
REMARK   11  A    between atoms: N8_30  and  C10_32 
ROOT
HETATM    1  C5  UNL     1      41.350 -65.272  32.580  1.00  0.00     0.105 C 
ENDROOT
BRANCH   1   2
HETATM    2  C4  UNL     1      42.303 -65.480  33.706  1.00  0.00     0.177 C 
BRANCH   2   3
HETATM    3  N4  UNL     1      43.297 -64.475  33.889  1.00  0.00    -0.131 N 
HETATM    4  C1  UNL     1      43.830 -64.243  35.087  1.00  0.00     0.686 A 
HETATM    5  N2  UNL     1      44.767 -63.274  35.274  1.00  0.00    -0.141 N 
HETATM    6  C2  UNL     1      45.175 -62.534  34.248  1.00  0.00     0.342 A 
ATOM      7  H2  UNL     1      45.158 -63.116  36.203  1.00  0.00     0.189 HD
HETATM    8  O1  UNL     1      46.042 -61.615  34.338  1.00  0.00    -0.246 OA
HETATM    9  N3  UNL     1      44.649 -62.751  33.017  1.00  0.00    -0.259 N 
HETATM   10  C3  UNL     1      43.723 -63.710  32.850  1.00  0.00     0.344 A 
ATOM     11  H3  UNL     1      44.955 -62.189  32.222  1.00  0.00     0.175 HD
HETATM   12  O2  UNL     1      43.270 -63.867  31.682  1.00  0.00    -0.246 OA
BRANCH   4  13
HETATM   13  N1  UNL     1      43.525 -64.908  36.148  1.00  0.00    -0.234 N 
ATOM     14  H12 UNL     1      42.570 -65.151  36.411  1.00  0.00     0.174 HD
ATOM     15  H11 UNL     1      44.322 -65.193  36.716  1.00  0.00     0.174 HD
ENDBRANCH   4  13
ENDBRANCH   2   3
ENDBRANCH   1   2
BRANCH   1  16
HETATM   16  C6  UNL     1      40.797 -66.589  32.122  1.00  0.00     0.062 C 
BRANCH  16  17
HETATM   17  C7  UNL     1      41.748 -67.298  31.205  1.00  0.00     0.224 C 
BRANCH  17  18
HETATM   18  N5  UNL     1      41.073 -67.461  29.924  1.00  0.00    -0.072 N 
ATOM     19  H53 UNL     1      41.044 -66.600  29.376  1.00  0.00     0.274 HD
ATOM     20  H52 UNL     1      41.608 -68.022  29.261  1.00  0.00     0.274 HD
ATOM     21  H51 UNL     1      40.148 -67.843  30.117  1.00  0.00     0.274 HD
ENDBRANCH  17  18
BRANCH  17  22
HETATM   22  C8  UNL     1      42.009 -68.697  31.788  1.00  0.00     0.302 C 
BRANCH  22  23
HETATM   23  N6  UNL     1      43.025 -69.375  31.034  1.00  0.00    -0.065 N 
ATOM     24  H63 UNL     1      42.688 -69.659  30.114  1.00  0.00     0.275 HD
ATOM     25  H62 UNL     1      43.764 -68.738  30.736  1.00  0.00     0.275 HD
ATOM     26  H61 UNL     1      43.396 -70.164  31.563  1.00  0.00     0.275 HD
ENDBRANCH  22  23
BRANCH  22  27
HETATM   27  C9  UNL     1      40.784 -69.515  31.758  1.00  0.00     0.263 C 
HETATM   28  N7  UNL     1      40.358 -70.198  30.592  1.00  0.00    -0.060 NA
HETATM   29  O3  UNL     1      40.084 -69.619  32.792  1.00  0.00    -0.275 OA
ENDBRANCH  22  27
ENDBRANCH  17  22
ENDBRANCH  16  17
ENDBRANCH   1  16
BRANCH   1  30
HETATM   30  N8  UNL     1      40.198 -64.476  32.980  1.00  0.00    -0.362 N 
ATOM     31  H8  UNL     1      39.302 -64.665  32.532  1.00  0.00     0.162 HD
BRANCH  30  32
HETATM   32  C10 UNL     1      40.257 -63.459  33.957  1.00  0.00     0.348 C 
HETATM   33  O4  UNL     1      40.789 -62.329  33.736  1.00  0.00    -0.284 OA
ENDBRANCH  30  32
ENDBRANCH   1  30
TORSDOF 11
ENDMDL
MODEL 3
REMARK VINA RESULT: -6.646832246      2.516      7.503
REMARK  11 active torsions:
REMARK  status: ('A' for Active; 'I' for Inactive)
REMARK    1  A    between atoms: N1_1  and  C1_4 
REMARK    2  A    between atoms: N4_13  and  C4_14 
REMARK    3  A    between atoms: C4_14  and  C5_15 
REMARK    4  A    between atoms: C5_15  and  C6_16 
REMARK    5  A    between atoms: C5_15  and  N8_30 
REMARK    6  A    between atoms: C6_16  and  C7_17 
REMARK    7  A    between atoms: C7_17  and  N5_18 
REMARK    8  A    between atoms: C7_17  and  C8_22 
REMARK    9  A    between atoms: C8_22  and  N6_23 
REMARK   10  A    between atoms: C8_22  and  C9_27 
REMARK   11  A    between atoms: N8_30  and  C10_32 
ROOT
HETATM    1  C5  UNL     1      43.931 -62.359  34.945  1.00  0.00     0.105 C 
ENDROOT
BRANCH   1   2
HETATM    2  C4  UNL     1      42.973 -63.274  35.628  1.00  0.00     0.177 C 
BRANCH   2   3
HETATM    3  N4  UNL     1      42.285 -64.205  34.796  1.00  0.00    -0.131 N 
HETATM    4  C1  UNL     1      41.069 -63.938  34.322  1.00  0.00     0.686 A 
HETATM    5  N2  UNL     1      40.399 -64.829  33.541  1.00  0.00    -0.141 N 
HETATM    6  C2  UNL     1      40.954 -65.996  33.232  1.00  0.00     0.342 A 
ATOM      7  H2  UNL     1      39.468 -64.600  33.192  1.00  0.00     0.189 HD
HETATM    8  O1  UNL     1      40.398 -66.877  32.512  1.00  0.00    -0.246 OA
HETATM    9  N3  UNL     1      42.192 -66.292  33.701  1.00  0.00    -0.259 N 
HETATM   10  C3  UNL     1      42.840 -65.402  34.472  1.00  0.00     0.344 A 
ATOM     11  H3  UNL     1      42.628 -67.185  33.471  1.00  0.00     0.175 HD
HETATM   12  O2  UNL     1      43.988 -65.732  34.880  1.00  0.00    -0.246 OA
BRANCH   4  13
HETATM   13  N1  UNL     1      40.440 -62.834  34.541  1.00  0.00    -0.234 N 
ATOM     14  H12 UNL     1      39.485 -62.655  34.232  1.00  0.00     0.174 HD
ATOM     15  H11 UNL     1      40.970 -62.140  35.068  1.00  0.00     0.174 HD
ENDBRANCH   4  13
ENDBRANCH   2   3
ENDBRANCH   1   2
BRANCH   1  16
HETATM   16  C6  UNL     1      44.765 -61.635  35.961  1.00  0.00     0.062 C 
BRANCH  16  17
HETATM   17  C7  UNL     1      46.101 -61.248  35.401  1.00  0.00     0.224 C 
BRANCH  17  18
HETATM   18  N5  UNL     1      47.102 -62.076  36.059  1.00  0.00    -0.072 N 
ATOM     19  H53 UNL     1      47.825 -61.531  36.529  1.00  0.00     0.274 HD
ATOM     20  H52 UNL     1      46.742 -62.557  36.884  1.00  0.00     0.274 HD
ATOM     21  H51 UNL     1      47.475 -62.714  35.356  1.00  0.00     0.274 HD
ENDBRANCH  17  18
BRANCH  17  22
HETATM   22  C8  UNL     1      46.365 -59.782  35.788  1.00  0.00     0.302 C 
BRANCH  22  23
HETATM   23  N6  UNL     1      45.317 -59.287  36.633  1.00  0.00    -0.065 N 
ATOM     24  H63 UNL     1      44.582 -58.826  36.096  1.00  0.00     0.275 HD
ATOM     25  H62 UNL     1      44.761 -60.045  37.031  1.00  0.00     0.275 HD
ATOM     26  H61 UNL     1      45.698 -58.677  37.356  1.00  0.00     0.275 HD
ENDBRANCH  22  23
BRANCH  22  27
HETATM   27  C9  UNL     1      46.439 -58.928  34.589  1.00  0.00     0.263 C 
HETATM   28  N7  UNL     1      46.178 -57.537  34.634  1.00  0.00    -0.060 NA
HETATM   29  O3  UNL     1      46.739 -59.438  33.484  1.00  0.00    -0.275 OA
ENDBRANCH  22  27
ENDBRANCH  17  22
ENDBRANCH  16  17
ENDBRANCH   1  16
BRANCH   1  30
HETATM   30  N8  UNL     1      44.873 -63.085  34.105  1.00  0.00    -0.362 N 
ATOM     31  H8  UNL     1      45.655 -63.560  34.555  1.00  0.00     0.162 HD
BRANCH  30  32
HETATM   32  C10 UNL     1      44.760 -63.165  32.700  1.00  0.00     0.348 C 
HETATM   33  O4  UNL     1      43.644 -63.123  32.100  1.00  0.00    -0.284 OA
ENDBRANCH  30  32
ENDBRANCH   1  30
TORSDOF 11
ENDMDL
MODEL 4
REMARK VINA RESULT: -6.481165761      2.651      7.589
REMARK  11 active torsions:
REMARK  status: ('A' for Active; 'I' for Inactive)
REMARK    1  A    between atoms: N1_1  and  C1_4 
REMARK    2  A    between atoms: N4_13  and  C4_14 
REMARK    3  A    between atoms: C4_14  and  C5_15 
REMARK    4  A    between atoms: C5_15  and  C6_16 
REMARK    5  A    between atoms: C5_15  and  N8_30 
REMARK    6  A    between atoms: C6_16  and  C7_17 
REMARK    7  A    between atoms: C7_17  and  N5_18 
REMARK    8  A    between atoms: C7_17  and  C8_22 
REMARK    9  A    between atoms: C8_22  and  N6_23 
REMARK   10  A    between atoms: C8_22  and  C9_27 
REMARK   11  A    between atoms: N8_30  and  C10_32 
ROOT
HETATM    1  C5  UNL     1      44.178 -62.491  34.585  1.00  0.00     0.105 C 
ENDROOT
BRANCH   1   2
HETATM    2  C4  UNL     1      43.259 -63.326  35.407  1.00  0.00     0.177 C 
BRANCH   2   3
HETATM    3  N4  UNL     1      42.363 -64.173  34.692  1.00  0.00    -0.131 N 
HETATM    4  C1  UNL     1      42.670 -65.444  34.439  1.00  0.00     0.686 A 
HETATM    5  N2  UNL     1      41.828 -66.255  33.743  1.00  0.00    -0.141 N 
HETATM    6  C2  UNL     1      40.666 -65.787  33.298  1.00  0.00     0.342 A 
ATOM      7  H2  UNL     1      42.088 -67.225  33.562  1.00  0.00     0.189 HD
HETATM    8  O1  UNL     1      39.828 -66.475  32.644  1.00  0.00    -0.246 OA
HETATM    9  N3  UNL     1      40.329 -64.496  33.543  1.00  0.00    -0.259 N 
HETATM   10  C3  UNL     1      41.173 -63.708  34.231  1.00  0.00     0.344 A 
ATOM     11  H3  UNL     1      39.440 -64.126  33.207  1.00  0.00     0.175 HD
HETATM   12  O2  UNL     1      40.805 -62.517  34.429  1.00  0.00    -0.246 OA
BRANCH   4  13
HETATM   13  N1  UNL     1      43.758 -66.011  34.835  1.00  0.00    -0.234 N 
ATOM     14  H12 UNL     1      44.393 -66.515  34.216  1.00  0.00     0.174 HD
ATOM     15  H11 UNL     1      43.954 -65.909  35.830  1.00  0.00     0.174 HD
ENDBRANCH   4  13
ENDBRANCH   2   3
ENDBRANCH   1   2
BRANCH   1  16
HETATM   16  C6  UNL     1      45.283 -61.944  35.441  1.00  0.00     0.062 C 
BRANCH  16  17
HETATM   17  C7  UNL     1      46.094 -60.919  34.707  1.00  0.00     0.224 C 
BRANCH  17  18
HETATM   18  N5  UNL     1      47.376 -61.530  34.385  1.00  0.00    -0.072 N 
ATOM     19  H53 UNL     1      48.035 -61.506  35.163  1.00  0.00     0.274 HD
ATOM     20  H52 UNL     1      47.321 -62.545  34.290  1.00  0.00     0.274 HD
ATOM     21  H51 UNL     1      47.729 -61.069  33.548  1.00  0.00     0.274 HD
ENDBRANCH  17  18
BRANCH  17  22
HETATM   22  C8  UNL     1      46.352 -59.746  35.668  1.00  0.00     0.302 C 
BRANCH  22  23
HETATM   23  N6  UNL     1      45.309 -59.662  36.651  1.00  0.00    -0.065 N 
ATOM     24  H63 UNL     1      44.415 -59.403  36.233  1.00  0.00     0.275 HD
ATOM     25  H62 UNL     1      45.049 -60.582  37.008  1.00  0.00     0.275 HD
ATOM     26  H61 UNL     1      45.576 -59.026  37.401  1.00  0.00     0.275 HD
ENDBRANCH  22  23
BRANCH  22  27
HETATM   27  C9  UNL     1      46.404 -58.469  34.935  1.00  0.00     0.263 C 
HETATM   28  N7  UNL     1      47.202 -58.292  33.779  1.00  0.00    -0.060 NA
HETATM   29  O3  UNL     1      45.724 -57.495  35.339  1.00  0.00    -0.275 OA
ENDBRANCH  22  27
ENDBRANCH  17  22
ENDBRANCH  16  17
ENDBRANCH   1  16
BRANCH   1  30
HETATM   30  N8  UNL     1      44.834 -63.266  33.541  1.00  0.00    -0.362 N 
ATOM     31  H8  UNL     1      45.698 -63.756  33.773  1.00  0.00     0.162 HD
BRANCH  30  32
HETATM   32  C10 UNL     1      44.337 -63.375  32.225  1.00  0.00     0.348 C 
HETATM   33  O4  UNL     1      43.174 -62.985  31.898  1.00  0.00    -0.284 OA
ENDBRANCH  30  32
ENDBRANCH   1  30
TORSDOF 11
ENDMDL
MODEL 5
REMARK VINA RESULT: -6.467276937      2.951      5.213
REMARK  11 active torsions:
REMARK  status: ('A' for Active; 'I' for Inactive)
REMARK    1  A    between atoms: N1_1  and  C1_4 
REMARK    2  A    between atoms: N4_13  and  C4_14 
REMARK    3  A    between atoms: C4_14  and  C5_15 
REMARK    4  A    between atoms: C5_15  and  C6_16 
REMARK    5  A    between atoms: C5_15  and  N8_30 
REMARK    6  A    between atoms: C6_16  and  C7_17 
REMARK    7  A    between atoms: C7_17  and  N5_18 
REMARK    8  A    between atoms: C7_17  and  C8_22 
REMARK    9  A    between atoms: C8_22  and  N6_23 
REMARK   10  A    between atoms: C8_22  and  C9_27 
REMARK   11  A    between atoms: N8_30  and  C10_32 
ROOT
HETATM    1  C5  UNL     1      44.657 -62.914  35.057  1.00  0.00     0.105 C 
ENDROOT
BRANCH   1   2
HETATM    2  C4  UNL     1      45.726 -62.201  35.810  1.00  0.00     0.177 C 
BRANCH   2   3
HETATM    3  N4  UNL     1      46.058 -60.893  35.353  1.00  0.00    -0.131 N 
HETATM    4  C1  UNL     1      45.612 -59.809  35.985  1.00  0.00     0.686 A 
HETATM    5  N2  UNL     1      45.911 -58.556  35.546  1.00  0.00    -0.141 N 
HETATM    6  C2  UNL     1      46.664 -58.389  34.464  1.00  0.00     0.342 A 
ATOM      7  H2  UNL     1      45.555 -57.742  36.049  1.00  0.00     0.189 HD
HETATM    8  O1  UNL     1      46.986 -57.259  33.991  1.00  0.00    -0.246 OA
HETATM    9  N3  UNL     1      47.131 -59.477  33.801  1.00  0.00    -0.259 N 
HETATM   10  C3  UNL     1      46.826 -60.707  34.248  1.00  0.00     0.344 A 
ATOM     11  H3  UNL     1      47.710 -59.362  32.970  1.00  0.00     0.175 HD
HETATM   12  O2  UNL     1      47.289 -61.682  33.592  1.00  0.00    -0.246 OA
BRANCH   4  13
HETATM   13  N1  UNL     1      44.890 -59.847  37.053  1.00  0.00    -0.234 N 
ATOM     14  H12 UNL     1      43.994 -59.370  37.149  1.00  0.00     0.174 HD
ATOM     15  H11 UNL     1      45.278 -60.411  37.809  1.00  0.00     0.174 HD
ENDBRANCH   4  13
ENDBRANCH   2   3
ENDBRANCH   1   2
BRANCH   1  16
HETATM   16  C6  UNL     1      43.310 -62.566  35.620  1.00  0.00     0.062 C 
BRANCH  16  17
HETATM   17  C7  UNL     1      42.452 -63.784  35.789  1.00  0.00     0.224 C 
BRANCH  17  18
HETATM   18  N5  UNL     1      43.328 -64.944  35.712  1.00  0.00    -0.072 N 
ATOM     19  H53 UNL     1      42.974 -65.747  36.233  1.00  0.00     0.274 HD
ATOM     20  H52 UNL     1      43.334 -65.379  34.789  1.00  0.00     0.274 HD
ATOM     21  H51 UNL     1      44.253 -64.645  36.019  1.00  0.00     0.274 HD
ENDBRANCH  17  18
BRANCH  17  22
HETATM   22  C8  UNL     1      41.477 -63.842  34.600  1.00  0.00     0.302 C 
BRANCH  22  23
HETATM   23  N6  UNL     1      40.298 -63.072  34.878  1.00  0.00    -0.065 N 
ATOM     24  H63 UNL     1      39.906 -62.660  34.031  1.00  0.00     0.275 HD
ATOM     25  H62 UNL     1      39.510 -63.666  35.137  1.00  0.00     0.275 HD
ATOM     26  H61 UNL     1      40.491 -62.367  35.588  1.00  0.00     0.275 HD
ENDBRANCH  22  23
BRANCH  22  27
HETATM   27  C9  UNL     1      41.071 -65.231  34.322  1.00  0.00     0.263 C 
HETATM   28  N7  UNL     1      41.473 -65.916  33.149  1.00  0.00    -0.060 NA
HETATM   29  O3  UNL     1      40.345 -65.839  35.143  1.00  0.00    -0.275 OA
ENDBRANCH  22  27
ENDBRANCH  17  22
ENDBRANCH  16  17
ENDBRANCH   1  16
BRANCH   1  30
HETATM   30  N8  UNL     1      44.615 -62.514  33.657  1.00  0.00    -0.362 N 
ATOM     31  H8  UNL     1      44.833 -61.546  33.425  1.00  0.00     0.162 HD
BRANCH  30  32
HETATM   32  C10 UNL     1      44.290 -63.398  32.605  1.00  0.00     0.348 C 
HETATM   33  O4  UNL     1      43.217 -63.301  31.937  1.00  0.00    -0.284 OA
ENDBRANCH  30  32
ENDBRANCH   1  30
TORSDOF 11
ENDMDL
