MODEL 1
REMARK VINA RESULT: -10.588746591      0.000      0.000
REMARK  4 active torsions:
REMARK  status: ('A' for Active; 'I' for Inactive)
REMARK    1  A    between atoms: C2_2  and  C4_4 
REMARK    2  A    between atoms: C11_13  and  N2_14 
REMARK       I    between atoms: N2_14  and  C12_15 
REMARK       I    between atoms: C12_15  and  N3_17 
REMARK    3  A    between atoms: N3_17  and  C13_19 
REMARK    4  A    between atoms: C23_29  and  C24_30 
ROOT
HETATM    1  C24 UNL     1      16.200  17.952  10.328  1.00  0.00    -0.019 A 
HETATM    2  C25 UNL     1      17.040  17.186   9.517  1.00  0.00     0.012 A 
HETATM    3  C26 UNL     1      17.974  17.829   8.744  1.00  0.00     0.002 A 
HETATM    4  C27 UNL     1      18.131  19.202   8.720  1.00  0.00     0.023 A 
HETATM    5  C28 UNL     1      17.302  19.970   9.520  1.00  0.00     0.045 A 
HETATM    6  C29 UNL     1      17.441  21.406   9.524  1.00  0.00     0.099 C 
HETATM    7  N4  UNL     1      17.560  22.556   9.551  1.00  0.00    -0.191 NA
HETATM    8  C30 UNL     1      16.367  19.315  10.295  1.00  0.00     0.035 A 
ENDROOT
BRANCH   1   9
HETATM    9  C23 UNL     1      15.221  17.258  11.151  1.00  0.00     0.039 A 
HETATM   10  C4  UNL     1      13.920  17.186  10.729  1.00  0.00     0.027 A 
HETATM   11  N1  UNL     1      12.960  16.578  11.490  1.00  0.00    -0.358 N 
HETATM   12  C5  UNL     1      13.257  16.028  12.682  1.00  0.00     0.046 A 
ATOM     13  H1  UNL     1      12.000  16.541  11.148  1.00  0.00     0.166 HD
HETATM   14  C6  UNL     1      12.239  15.421  13.411  1.00  0.00     0.030 A 
HETATM   15  C10 UNL     1      14.538  16.070  13.157  1.00  0.00     0.032 A 
HETATM   16  C7  UNL     1      12.503  14.840  14.645  1.00  0.00     0.002 A 
HETATM   17  C8  UNL     1      13.781  14.880  15.122  1.00  0.00     0.001 A 
HETATM   18  C9  UNL     1      14.801  15.494  14.379  1.00  0.00     0.017 A 
HETATM   19  C11 UNL     1      15.557  16.691  12.394  1.00  0.00     0.138 A 
BRANCH  10  20
HETATM   20  C2  UNL     1      13.461  17.721   9.401  1.00  0.00     0.028 C 
HETATM   21  C1  UNL     1      13.298  19.229   9.441  1.00  0.00     0.016 C 
HETATM   22  C3  UNL     1      12.070  17.186   9.083  1.00  0.00     0.016 C 
ENDBRANCH  10  20
BRANCH  19  23
HETATM   23  N2  UNL     1      16.664  16.738  12.834  1.00  0.00    -0.350 NA
HETATM   24  C12 UNL     1      17.915  17.101  13.144  1.00  0.00     0.398 C 
HETATM   25  O1  UNL     1      18.742  17.281  12.217  1.00  0.00    -0.230 OA
HETATM   26  N3  UNL     1      18.385  17.303  14.497  1.00  0.00    -0.296 N 
ATOM     27  H3  UNL     1      17.717  17.151  15.253  1.00  0.00     0.172 HD
BRANCH  26  28
HETATM   28  C13 UNL     1      19.684  17.691  14.851  1.00  0.00     0.048 A 
HETATM   29  C14 UNL     1      20.820  17.248  14.228  1.00  0.00     0.030 A 
HETATM   30  C15 UNL     1      22.114  17.672  14.556  1.00  0.00     0.003 A 
HETATM   31  C16 UNL     1      22.264  18.588  15.556  1.00  0.00     0.012 A 
HETATM   32  C17 UNL     1      21.146  19.062  16.208  1.00  0.00    -0.024 A 
HETATM   33  C18 UNL     1      21.307  19.981  17.220  1.00  0.00     0.012 A 
HETATM   34  C22 UNL     1      19.863  18.641  15.884  1.00  0.00     0.001 A 
HETATM   35  C19 UNL     1      20.220  20.473  17.900  1.00  0.00     0.001 A 
HETATM   36  C20 UNL     1      18.952  20.048  17.573  1.00  0.00     0.001 A 
HETATM   37  C21 UNL     1      18.760  19.107  16.540  1.00  0.00     0.014 A 
ENDBRANCH  26  28
ENDBRANCH  19  23
ENDBRANCH   1   9
TORSDOF 4
ENDMDL
MODEL 2
REMARK VINA RESULT: -10.351741604      3.780      6.260
REMARK  4 active torsions:
REMARK  status: ('A' for Active; 'I' for Inactive)
REMARK    1  A    between atoms: C2_2  and  C4_4 
REMARK    2  A    between atoms: C11_13  and  N2_14 
REMARK       I    between atoms: N2_14  and  C12_15 
REMARK       I    between atoms: C12_15  and  N3_17 
REMARK    3  A    between atoms: N3_17  and  C13_19 
REMARK    4  A    between atoms: C23_29  and  C24_30 
ROOT
HETATM    1  C24 UNL     1      12.954  22.935   9.360  1.00  0.00    -0.019 A 
HETATM    2  C25 UNL     1      13.312  23.670  10.492  1.00  0.00     0.012 A 
HETATM    3  C26 UNL     1      14.273  24.641  10.369  1.00  0.00     0.002 A 
HETATM    4  C27 UNL     1      14.915  24.935   9.181  1.00  0.00     0.023 A 
HETATM    5  C28 UNL     1      14.567  24.210   8.053  1.00  0.00     0.045 A 
HETATM    6  C29 UNL     1      15.212  24.493   6.794  1.00  0.00     0.099 C 
HETATM    7  N4  UNL     1      15.708  24.728   5.775  1.00  0.00    -0.191 NA
HETATM    8  C30 UNL     1      13.599  23.237   8.185  1.00  0.00     0.035 A 
ENDROOT
BRANCH   1   9
HETATM    9  C23 UNL     1      11.925  21.915   9.501  1.00  0.00     0.039 A 
HETATM   10  C4  UNL     1      10.618  22.299   9.655  1.00  0.00     0.027 A 
HETATM   11  N1  UNL     1       9.625  21.376   9.830  1.00  0.00    -0.358 N 
HETATM   12  C5  UNL     1       9.892  20.057   9.858  1.00  0.00     0.046 A 
ATOM     13  H1  UNL     1       8.662  21.693   9.942  1.00  0.00     0.166 HD
HETATM   14  C6  UNL     1       8.839  19.165  10.036  1.00  0.00     0.030 A 
HETATM   15  C10 UNL     1      11.177  19.614   9.711  1.00  0.00     0.032 A 
HETATM   16  C7  UNL     1       9.072  17.796  10.070  1.00  0.00     0.002 A 
HETATM   17  C8  UNL     1      10.354  17.350   9.923  1.00  0.00     0.001 A 
HETATM   18  C9  UNL     1      11.408  18.258   9.743  1.00  0.00     0.017 A 
HETATM   19  C11 UNL     1      12.230  20.543   9.527  1.00  0.00     0.138 A 
BRANCH  10  20
HETATM   20  C2  UNL     1      10.176  23.735   9.601  1.00  0.00     0.028 C 
HETATM   21  C1  UNL     1       8.902  23.949  10.397  1.00  0.00     0.016 C 
HETATM   22  C3  UNL     1       9.810  24.108   8.170  1.00  0.00     0.016 C 
ENDBRANCH  10  20
BRANCH  19  23
HETATM   23  N2  UNL     1      13.347  20.140   9.423  1.00  0.00    -0.350 NA
HETATM   24  C12 UNL     1      14.603  19.741   9.663  1.00  0.00     0.398 C 
HETATM   25  O1  UNL     1      15.405  20.546  10.194  1.00  0.00    -0.230 OA
HETATM   26  N3  UNL     1      15.104  18.422   9.347  1.00  0.00    -0.296 N 
ATOM     27  H3  UNL     1      14.457  17.766   8.908  1.00  0.00     0.172 HD
BRANCH  26  28
HETATM   28  C13 UNL     1      16.408  17.973   9.595  1.00  0.00     0.048 A 
HETATM   29  C14 UNL     1      17.466  18.163   8.746  1.00  0.00     0.030 A 
HETATM   30  C15 UNL     1      18.777  17.752   9.017  1.00  0.00     0.003 A 
HETATM   31  C16 UNL     1      19.029  17.123  10.201  1.00  0.00     0.012 A 
HETATM   32  C17 UNL     1      17.993  16.912  11.086  1.00  0.00    -0.024 A 
HETATM   33  C18 UNL     1      18.255  16.270  12.274  1.00  0.00     0.012 A 
HETATM   34  C22 UNL     1      16.693  17.319  10.816  1.00  0.00     0.001 A 
HETATM   35  C19 UNL     1      17.250  16.034  13.180  1.00  0.00     0.001 A 
HETATM   36  C20 UNL     1      15.963  16.439  12.904  1.00  0.00     0.001 A 
HETATM   37  C21 UNL     1      15.669  17.098  11.693  1.00  0.00     0.014 A 
ENDBRANCH  26  28
ENDBRANCH  19  23
ENDBRANCH   1   9
TORSDOF 4
ENDMDL
MODEL 3
REMARK VINA RESULT: -10.228559980      4.738      7.536
REMARK  4 active torsions:
REMARK  status: ('A' for Active; 'I' for Inactive)
REMARK    1  A    between atoms: C2_2  and  C4_4 
REMARK    2  A    between atoms: C11_13  and  N2_14 
REMARK       I    between atoms: N2_14  and  C12_15 
REMARK       I    between atoms: C12_15  and  N3_17 
REMARK    3  A    between atoms: N3_17  and  C13_19 
REMARK    4  A    between atoms: C23_29  and  C24_30 
ROOT
HETATM    1  C24 UNL     1      15.053  23.557   8.216  1.00  0.00    -0.019 A 
HETATM    2  C25 UNL     1      15.912  23.188   9.253  1.00  0.00     0.012 A 
HETATM    3  C26 UNL     1      17.257  23.099   8.994  1.00  0.00     0.002 A 
HETATM    4  C27 UNL     1      17.814  23.354   7.755  1.00  0.00     0.023 A 
HETATM    5  C28 UNL     1      16.970  23.719   6.720  1.00  0.00     0.045 A 
HETATM    6  C29 UNL     1      17.518  23.997   5.414  1.00  0.00     0.099 C 
HETATM    7  N4  UNL     1      17.950  24.244   4.370  1.00  0.00    -0.191 NA
HETATM    8  C30 UNL     1      15.620  23.808   6.990  1.00  0.00     0.035 A 
ENDROOT
BRANCH   1   9
HETATM    9  C23 UNL     1      13.631  23.659   8.506  1.00  0.00     0.039 A 
HETATM   10  C4  UNL     1      12.948  24.784   8.121  1.00  0.00     0.027 A 
HETATM   11  N1  UNL     1      11.620  24.939   8.408  1.00  0.00    -0.358 N 
HETATM   12  C5  UNL     1      10.934  23.994   9.079  1.00  0.00     0.046 A 
ATOM     13  H1  UNL     1      11.139  25.787   8.109  1.00  0.00     0.166 HD
HETATM   14  C6  UNL     1       9.583  24.206   9.340  1.00  0.00     0.030 A 
HETATM   15  C10 UNL     1      11.562  22.852   9.489  1.00  0.00     0.032 A 
HETATM   16  C7  UNL     1       8.839  23.256  10.028  1.00  0.00     0.002 A 
HETATM   17  C8  UNL     1       9.464  22.114  10.439  1.00  0.00     0.001 A 
HETATM   18  C9  UNL     1      10.826  21.909  10.170  1.00  0.00     0.017 A 
HETATM   19  C11 UNL     1      12.937  22.659   9.208  1.00  0.00     0.138 A 
BRANCH  10  20
HETATM   20  C2  UNL     1      13.581  25.895   7.331  1.00  0.00     0.028 C 
HETATM   21  C1  UNL     1      13.037  27.248   7.750  1.00  0.00     0.016 C 
HETATM   22  C3  UNL     1      13.204  25.761   5.861  1.00  0.00     0.016 C 
ENDBRANCH  10  20
BRANCH  19  23
HETATM   23  N2  UNL     1      13.474  21.666   9.594  1.00  0.00    -0.350 NA
HETATM   24  C12 UNL     1      14.066  20.468   9.676  1.00  0.00     0.398 C 
HETATM   25  O1  UNL     1      13.445  19.455   9.272  1.00  0.00    -0.230 OA
HETATM   26  N3  UNL     1      15.395  20.260  10.206  1.00  0.00    -0.296 N 
ATOM     27  H3  UNL     1      15.900  21.080  10.543  1.00  0.00     0.172 HD
BRANCH  26  28
HETATM   28  C13 UNL     1      16.044  19.021  10.296  1.00  0.00     0.048 A 
HETATM   29  C14 UNL     1      15.548  17.935  10.967  1.00  0.00     0.030 A 
HETATM   30  C15 UNL     1      16.177  16.685  11.016  1.00  0.00     0.003 A 
HETATM   31  C16 UNL     1      17.360  16.527  10.356  1.00  0.00     0.012 A 
HETATM   32  C17 UNL     1      17.895  17.594   9.666  1.00  0.00    -0.024 A 
HETATM   33  C18 UNL     1      19.092  17.427   9.008  1.00  0.00     0.012 A 
HETATM   34  C22 UNL     1      17.271  18.834   9.618  1.00  0.00     0.001 A 
HETATM   35  C19 UNL     1      19.662  18.467   8.316  1.00  0.00     0.001 A 
HETATM   36  C20 UNL     1      19.038  19.693   8.274  1.00  0.00     0.001 A 
HETATM   37  C21 UNL     1      17.810  19.890   8.941  1.00  0.00     0.014 A 
ENDBRANCH  26  28
ENDBRANCH  19  23
ENDBRANCH   1   9
TORSDOF 4
ENDMDL
MODEL 4
REMARK VINA RESULT: -10.208557435      3.894      9.562
REMARK  4 active torsions:
REMARK  status: ('A' for Active; 'I' for Inactive)
REMARK    1  A    between atoms: C2_2  and  C4_4 
REMARK    2  A    between atoms: C11_13  and  N2_14 
REMARK       I    between atoms: N2_14  and  C12_15 
REMARK       I    between atoms: C12_15  and  N3_17 
REMARK    3  A    between atoms: N3_17  and  C13_19 
REMARK    4  A    between atoms: C23_29  and  C24_30 
ROOT
HETATM    1  C24 UNL     1      16.127  19.098  10.121  1.00  0.00    -0.019 A 
HETATM    2  C25 UNL     1      15.361  18.217   9.355  1.00  0.00     0.012 A 
HETATM    3  C26 UNL     1      14.764  17.150   9.977  1.00  0.00     0.002 A 
HETATM    4  C27 UNL     1      14.880  16.893  11.330  1.00  0.00     0.023 A 
HETATM    5  C28 UNL     1      15.638  17.761  12.099  1.00  0.00     0.045 A 
HETATM    6  C29 UNL     1      15.777  17.527  13.516  1.00  0.00     0.099 C 
HETATM    7  N4  UNL     1      15.876  17.360  14.656  1.00  0.00    -0.191 NA
HETATM    8  C30 UNL     1      16.234  18.832  11.464  1.00  0.00     0.035 A 
ENDROOT
BRANCH   1   9
HETATM    9  C23 UNL     1      16.745  20.232   9.451  1.00  0.00     0.039 A 
HETATM   10  C4  UNL     1      18.036  20.124   9.004  1.00  0.00     0.027 A 
HETATM   11  N1  UNL     1      18.669  21.178   8.405  1.00  0.00    -0.358 N 
HETATM   12  C5  UNL     1      18.048  22.360   8.231  1.00  0.00     0.046 A 
ATOM     13  H1  UNL     1      19.630  21.067   8.083  1.00  0.00     0.166 HD
HETATM   14  C6  UNL     1      18.742  23.396   7.612  1.00  0.00     0.030 A 
HETATM   15  C10 UNL     1      16.761  22.528   8.657  1.00  0.00     0.032 A 
HETATM   16  C7  UNL     1      18.138  24.630   7.413  1.00  0.00     0.002 A 
HETATM   17  C8  UNL     1      16.852  24.801   7.837  1.00  0.00     0.001 A 
HETATM   18  C9  UNL     1      16.161  23.751   8.459  1.00  0.00     0.017 A 
HETATM   19  C11 UNL     1      16.075  21.457   9.282  1.00  0.00     0.138 A 
BRANCH  10  20
HETATM   20  C2  UNL     1      18.830  18.851   9.096  1.00  0.00     0.028 C 
HETATM   21  C1  UNL     1      20.313  19.135   9.245  1.00  0.00     0.016 C 
HETATM   22  C3  UNL     1      18.710  18.074   7.791  1.00  0.00     0.016 C 
ENDBRANCH  10  20
BRANCH  19  23
HETATM   23  N2  UNL     1      14.960  21.628   9.667  1.00  0.00    -0.350 NA
HETATM   24  C12 UNL     1      13.788  22.165  10.029  1.00  0.00     0.398 C 
HETATM   25  O1  UNL     1      13.771  23.034  10.934  1.00  0.00    -0.230 OA
HETATM   26  N3  UNL     1      12.519  21.805   9.436  1.00  0.00    -0.296 N 
ATOM     27  H3  UNL     1      12.527  21.094   8.705  1.00  0.00     0.172 HD
BRANCH  26  28
HETATM   28  C13 UNL     1      11.279  22.356   9.786  1.00  0.00     0.048 A 
HETATM   29  C14 UNL     1      10.389  21.771  10.647  1.00  0.00     0.030 A 
HETATM   30  C15 UNL     1       9.170  22.346  11.030  1.00  0.00     0.003 A 
HETATM   31  C16 UNL     1       8.839  23.567  10.520  1.00  0.00     0.012 A 
HETATM   32  C17 UNL     1       9.707  24.192   9.651  1.00  0.00    -0.024 A 
HETATM   33  C18 UNL     1       9.363  25.421   9.136  1.00  0.00     0.012 A 
HETATM   34  C22 UNL     1      10.916  23.622   9.271  1.00  0.00     0.001 A 
HETATM   35  C19 UNL     1      10.195  26.074   8.262  1.00  0.00     0.001 A 
HETATM   36  C20 UNL     1      11.390  25.501   7.889  1.00  0.00     0.001 A 
HETATM   37  C21 UNL     1      11.767  24.242   8.402  1.00  0.00     0.014 A 
ENDBRANCH  26  28
ENDBRANCH  19  23
ENDBRANCH   1   9
TORSDOF 4
ENDMDL
MODEL 5
REMARK VINA RESULT: -9.989618903      2.203      6.845
REMARK  4 active torsions:
REMARK  status: ('A' for Active; 'I' for Inactive)
REMARK    1  A    between atoms: C2_2  and  C4_4 
REMARK    2  A    between atoms: C11_13  and  N2_14 
REMARK       I    between atoms: N2_14  and  C12_15 
REMARK       I    between atoms: C12_15  and  N3_17 
REMARK    3  A    between atoms: N3_17  and  C13_19 
REMARK    4  A    between atoms: C23_29  and  C24_30 
ROOT
HETATM    1  C24 UNL     1      16.331  16.972  12.750  1.00  0.00    -0.019 A 
HETATM    2  C25 UNL     1      17.293  16.136  12.181  1.00  0.00     0.012 A 
HETATM    3  C26 UNL     1      18.551  16.112  12.728  1.00  0.00     0.002 A 
HETATM    4  C27 UNL     1      18.924  16.875  13.818  1.00  0.00     0.023 A 
HETATM    5  C28 UNL     1      17.977  17.708  14.389  1.00  0.00     0.045 A 
HETATM    6  C29 UNL     1      18.330  18.516  15.532  1.00  0.00     0.099 C 
HETATM    7  N4  UNL     1      18.597  19.151  16.462  1.00  0.00    -0.191 NA
HETATM    8  C30 UNL     1      16.715  17.725  13.833  1.00  0.00     0.035 A 
ENDROOT
BRANCH   1   9
HETATM    9  C23 UNL     1      14.997  16.980  12.168  1.00  0.00     0.039 A 
HETATM   10  C4  UNL     1      14.063  16.085  12.620  1.00  0.00     0.027 A 
HETATM   11  N1  UNL     1      12.810  16.031  12.074  1.00  0.00    -0.358 N 
HETATM   12  C5  UNL     1      12.448  16.855  11.072  1.00  0.00     0.046 A 
ATOM     13  H1  UNL     1      12.137  15.354  12.432  1.00  0.00     0.166 HD
HETATM   14  C6  UNL     1      11.159  16.755  10.558  1.00  0.00     0.030 A 
HETATM   15  C10 UNL     1      13.338  17.767  10.578  1.00  0.00     0.032 A 
HETATM   16  C7  UNL     1      10.745  17.586   9.525  1.00  0.00     0.002 A 
HETATM   17  C8  UNL     1      11.631  18.499   9.029  1.00  0.00     0.001 A 
HETATM   18  C9  UNL     1      12.928  18.592   9.555  1.00  0.00     0.017 A 
HETATM   19  C11 UNL     1      14.643  17.850  11.121  1.00  0.00     0.138 A 
BRANCH  10  20
HETATM   20  C2  UNL     1      14.321  15.140  13.760  1.00  0.00     0.028 C 
HETATM   21  C1  UNL     1      13.304  14.014  13.783  1.00  0.00     0.016 C 
HETATM   22  C3  UNL     1      14.130  15.866  15.086  1.00  0.00     0.016 C 
ENDBRANCH  10  20
BRANCH  19  23
HETATM   23  N2  UNL     1      15.413  18.636  10.663  1.00  0.00    -0.350 NA
HETATM   24  C12 UNL     1      16.096  19.447   9.845  1.00  0.00     0.398 C 
HETATM   25  O1  UNL     1      16.676  18.955   8.847  1.00  0.00    -0.230 OA
HETATM   26  N3  UNL     1      16.212  20.876  10.037  1.00  0.00    -0.296 N 
ATOM     27  H3  UNL     1      15.749  21.279  10.852  1.00  0.00     0.172 HD
BRANCH  26  28
HETATM   28  C13 UNL     1      16.911  21.750   9.194  1.00  0.00     0.048 A 
HETATM   29  C14 UNL     1      18.273  21.889   9.183  1.00  0.00     0.030 A 
HETATM   30  C15 UNL     1      18.972  22.731   8.308  1.00  0.00     0.003 A 
HETATM   31  C16 UNL     1      18.259  23.463   7.404  1.00  0.00     0.012 A 
HETATM   32  C17 UNL     1      16.886  23.352   7.379  1.00  0.00    -0.024 A 
HETATM   33  C18 UNL     1      16.175  24.098   6.468  1.00  0.00     0.012 A 
HETATM   34  C22 UNL     1      16.193  22.517   8.247  1.00  0.00     0.001 A 
HETATM   35  C19 UNL     1      14.805  24.022   6.416  1.00  0.00     0.001 A 
HETATM   36  C20 UNL     1      14.126  23.194   7.281  1.00  0.00     0.001 A 
HETATM   37  C21 UNL     1      14.832  22.419   8.225  1.00  0.00     0.014 A 
ENDBRANCH  26  28
ENDBRANCH  19  23
ENDBRANCH   1   9
TORSDOF 4
ENDMDL
