MODEL 1
REMARK VINA RESULT: -5.257645131      0.000      0.000
REMARK  1 active torsions:
REMARK  status: ('A' for Active; 'I' for Inactive)
REMARK    1  A    between atoms: N2_5  and  O1_6 
ROOT
HETATM    1  C1  UNL     1      -4.200  19.563  -7.867  1.00  0.00     0.043 C 
HETATM    2  C2  UNL     1      -5.582  19.183  -8.317  1.00  0.00     0.161 C 
HETATM    3  C3  UNL     1      -5.931  19.904  -9.617  1.00  0.00     0.167 C 
HETATM    4  N1  UNL     1      -6.640  18.863 -10.374  1.00  0.00    -0.110 NA
HETATM    5  N2  UNL     1      -6.818  17.875  -9.430  1.00  0.00     0.029 NA
HETATM    6  O2  UNL     1      -5.670  17.853  -8.723  1.00  0.00    -0.258 OA
ENDROOT
BRANCH   5   7
HETATM    7  O1  UNL     1      -7.219  16.704  -9.883  1.00  0.00    -0.274 OA
ATOM      8  H1  UNL     1      -7.970  16.321  -9.446  1.00  0.00     0.241 HD
ENDBRANCH   5   7
TORSDOF 1
ENDMDL
MODEL 2
REMARK VINA RESULT: -4.868791029      1.890      2.152
REMARK  1 active torsions:
REMARK  status: ('A' for Active; 'I' for Inactive)
REMARK    1  A    between atoms: N2_5  and  O1_6 
ROOT
HETATM    1  C1  UNL     1      -6.061  20.722  -7.589  1.00  0.00     0.043 C 
HETATM    2  C2  UNL     1      -5.720  19.855  -8.768  1.00  0.00     0.161 C 
HETATM    3  C3  UNL     1      -6.352  18.474  -8.607  1.00  0.00     0.167 C 
HETATM    4  N1  UNL     1      -6.803  18.174  -9.973  1.00  0.00    -0.110 NA
HETATM    5  N2  UNL     1      -6.216  19.179 -10.710  1.00  0.00     0.029 NA
HETATM    6  O2  UNL     1      -6.325  20.285  -9.947  1.00  0.00    -0.258 OA
ENDROOT
BRANCH   5   7
HETATM    7  O1  UNL     1      -6.639  19.313 -11.951  1.00  0.00    -0.274 OA
ATOM      8  H1  UNL     1      -5.970  19.467 -12.607  1.00  0.00     0.241 HD
ENDBRANCH   5   7
TORSDOF 1
ENDMDL
MODEL 3
REMARK VINA RESULT: -4.764889406      1.392      1.966
REMARK  1 active torsions:
REMARK  status: ('A' for Active; 'I' for Inactive)
REMARK    1  A    between atoms: N2_5  and  O1_6 
ROOT
HETATM    1  C1  UNL     1      -6.882  21.592  -8.738  1.00  0.00     0.043 C 
HETATM    2  C2  UNL     1      -6.352  20.341  -9.378  1.00  0.00     0.161 C 
HETATM    3  C3  UNL     1      -5.230  19.749  -8.528  1.00  0.00     0.167 C 
HETATM    4  N1  UNL     1      -5.499  18.306  -8.613  1.00  0.00    -0.110 NA
HETATM    5  N2  UNL     1      -6.466  18.239  -9.592  1.00  0.00     0.029 NA
HETATM    6  O2  UNL     1      -7.273  19.295  -9.362  1.00  0.00    -0.258 OA
ENDROOT
BRANCH   5   7
HETATM    7  O1  UNL     1      -7.083  17.082  -9.720  1.00  0.00    -0.274 OA
ATOM      8  H1  UNL     1      -7.194  16.763 -10.607  1.00  0.00     0.241 HD
ENDBRANCH   5   7
TORSDOF 1
ENDMDL
MODEL 4
REMARK VINA RESULT: -4.672468750      1.819      1.978
REMARK  1 active torsions:
REMARK  status: ('A' for Active; 'I' for Inactive)
REMARK    1  A    between atoms: N2_5  and  O1_6 
ROOT
HETATM    1  C1  UNL     1      -5.315  19.708  -7.606  1.00  0.00     0.043 C 
HETATM    2  C2  UNL     1      -6.286  19.414  -8.715  1.00  0.00     0.161 C 
HETATM    3  C3  UNL     1      -7.159  20.636  -8.990  1.00  0.00     0.167 C 
HETATM    4  N1  UNL     1      -7.251  20.632 -10.457  1.00  0.00    -0.110 NA
HETATM    5  N2  UNL     1      -6.705  19.411 -10.788  1.00  0.00     0.029 NA
HETATM    6  O2  UNL     1      -5.661  19.253  -9.950  1.00  0.00    -0.258 OA
ENDROOT
BRANCH   5   7
HETATM    7  O1  UNL     1      -6.431  19.225 -12.064  1.00  0.00    -0.274 OA
ATOM      8  H1  UNL     1      -7.162  19.307 -12.665  1.00  0.00     0.241 HD
ENDBRANCH   5   7
TORSDOF 1
ENDMDL
MODEL 5
REMARK VINA RESULT: -4.301161949      2.859      3.599
REMARK  1 active torsions:
REMARK  status: ('A' for Active; 'I' for Inactive)
REMARK    1  A    between atoms: N2_5  and  O1_6 
ROOT
HETATM    1  C1  UNL     1      -6.323  18.056  -9.094  1.00  0.00     0.043 C 
HETATM    2  C2  UNL     1      -5.796  19.349  -8.537  1.00  0.00     0.161 C 
HETATM    3  C3  UNL     1      -4.475  19.111  -7.811  1.00  0.00     0.167 C 
HETATM    4  N1  UNL     1      -3.684  20.286  -8.203  1.00  0.00    -0.110 NA
HETATM    5  N2  UNL     1      -4.622  21.086  -8.819  1.00  0.00     0.029 NA
HETATM    6  O2  UNL     1      -5.393  20.239  -9.531  1.00  0.00    -0.258 OA
ENDROOT
BRANCH   5   7
HETATM    7  O1  UNL     1      -4.153  22.116  -9.494  1.00  0.00    -0.274 OA
ATOM      8  H1  UNL     1      -4.792  22.764  -9.767  1.00  0.00     0.241 HD
ENDBRANCH   5   7
TORSDOF 1
ENDMDL
