MODEL 1
REMARK VINA RESULT: -6.579976116      0.000      0.000
REMARK  13 active torsions:
REMARK  status: ('A' for Active; 'I' for Inactive)
REMARK    1  A    between atoms: N1_1  and  C1_5 
REMARK    2  A    between atoms: N2_9  and  C5_10 
REMARK    3  A    between atoms: C5_10  and  C6_11 
REMARK    4  A    between atoms: C6_11  and  C7_12 
REMARK    5  A    between atoms: C7_12  and  C8_13 
REMARK    6  A    between atoms: C8_13  and  C9_14 
REMARK    7  A    between atoms: C9_14  and  C10_15 
REMARK    8  A    between atoms: C10_15  and  C11_16 
REMARK    9  A    between atoms: C11_16  and  N3_17 
REMARK   10  A    between atoms: C13_19  and  O1_20 
REMARK   11  A    between atoms: C14_22  and  O2_23 
REMARK   12  A    between atoms: C15_25  and  O3_26 
REMARK   13  A    between atoms: C16_28  and  O4_29 
ROOT
HETATM    1  C10 UNL     1      11.285  38.904  -6.100  1.00  0.00     0.019 C 
ENDROOT
BRANCH   1   2
HETATM    2  C9  UNL     1      12.534  38.342  -6.800  1.00  0.00     0.002 C 
BRANCH   2   3
HETATM    3  C8  UNL     1      12.634  38.865  -8.188  1.00  0.00     0.000 C 
BRANCH   3   4
HETATM    4  C7  UNL     1      13.922  38.427  -8.859  1.00  0.00     0.002 C 
BRANCH   4   5
HETATM    5  C6  UNL     1      13.705  38.423 -10.370  1.00  0.00     0.030 C 
BRANCH   5   6
HETATM    6  C5  UNL     1      13.219  37.125 -10.866  1.00  0.00     0.275 C 
BRANCH   6   7
HETATM    7  N2  UNL     1      14.188  36.323 -11.560  1.00  0.00     0.119 N 
HETATM    8  C1  UNL     1      15.074  37.111 -12.382  1.00  0.00     0.417 C 
HETATM    9  C2  UNL     1      14.485  37.089 -13.777  1.00  0.00     0.067 C 
HETATM   10  C3  UNL     1      13.424  36.021 -13.733  1.00  0.00     0.034 C 
HETATM   11  C4  UNL     1      13.612  35.316 -12.409  1.00  0.00     0.275 C 
BRANCH   8  12
HETATM   12  N1  UNL     1      16.367  36.436 -12.404  1.00  0.00    -0.048 N 
ATOM     13  H13 UNL     1      16.286  35.437 -12.209  1.00  0.00     0.276 HD
ATOM     14  H12 UNL     1      16.754  36.367 -13.345  1.00  0.00     0.276 HD
ATOM     15  H11 UNL     1      16.999  36.908 -11.757  1.00  0.00     0.276 HD
ENDBRANCH   8  12
ENDBRANCH   6   7
ENDBRANCH   5   6
ENDBRANCH   4   5
ENDBRANCH   3   4
ENDBRANCH   2   3
ENDBRANCH   1   2
BRANCH   1  16
HETATM   16  C11 UNL     1      10.980  38.183  -4.834  1.00  0.00     0.119 C 
BRANCH  16  17
HETATM   17  N3  UNL     1       9.878  38.749  -4.133  1.00  0.00    -0.383 N 
HETATM   18  C12 UNL     1       9.004  37.854  -3.467  1.00  0.00     0.153 C 
HETATM   19  C13 UNL     1       9.433  37.470  -2.091  1.00  0.00     0.167 C 
HETATM   20  C14 UNL     1       9.658  38.715  -1.277  1.00  0.00     0.181 C 
HETATM   21  C15 UNL     1      10.570  39.671  -1.970  1.00  0.00     0.197 C 
HETATM   22  C16 UNL     1      10.169  39.950  -3.399  1.00  0.00     0.247 C 
BRANCH  19  23
HETATM   23  O1  UNL     1      10.594  36.705  -2.074  1.00  0.00    -0.391 OA
ATOM     24  H1  UNL     1      11.365  37.190  -2.342  1.00  0.00     0.210 HD
ENDBRANCH  19  23
BRANCH  20  25
HETATM   25  O2  UNL     1      10.314  38.282  -0.101  1.00  0.00    -0.390 OA
ATOM     26  H2  UNL     1      10.574  39.078   0.350  1.00  0.00     0.210 HD
ENDBRANCH  20  25
BRANCH  21  27
HETATM   27  O3  UNL     1      11.880  39.273  -1.867  1.00  0.00    -0.389 OA
ATOM     28  H3  UNL     1      12.117  39.093  -0.965  1.00  0.00     0.210 HD
ENDBRANCH  21  27
BRANCH  22  29
HETATM   29  O4  UNL     1       9.075  40.813  -3.421  1.00  0.00    -0.374 OA
ATOM     30  H4  UNL     1       9.362  41.717  -3.368  1.00  0.00     0.212 HD
ENDBRANCH  22  29
ENDBRANCH  16  17
ENDBRANCH   1  16
TORSDOF 13
ENDMDL
MODEL 2
REMARK VINA RESULT: -6.470039643      4.804     10.171
REMARK  13 active torsions:
REMARK  status: ('A' for Active; 'I' for Inactive)
REMARK    1  A    between atoms: N1_1  and  C1_5 
REMARK    2  A    between atoms: N2_9  and  C5_10 
REMARK    3  A    between atoms: C5_10  and  C6_11 
REMARK    4  A    between atoms: C6_11  and  C7_12 
REMARK    5  A    between atoms: C7_12  and  C8_13 
REMARK    6  A    between atoms: C8_13  and  C9_14 
REMARK    7  A    between atoms: C9_14  and  C10_15 
REMARK    8  A    between atoms: C10_15  and  C11_16 
REMARK    9  A    between atoms: C11_16  and  N3_17 
REMARK   10  A    between atoms: C13_19  and  O1_20 
REMARK   11  A    between atoms: C14_22  and  O2_23 
REMARK   12  A    between atoms: C15_25  and  O3_26 
REMARK   13  A    between atoms: C16_28  and  O4_29 
ROOT
HETATM    1  C10 UNL     1      12.969  37.994  -9.387  1.00  0.00     0.019 C 
ENDROOT
BRANCH   1   2
HETATM    2  C9  UNL     1      13.180  38.872  -8.141  1.00  0.00     0.002 C 
BRANCH   2   3
HETATM    3  C8  UNL     1      11.896  39.074  -7.420  1.00  0.00     0.000 C 
BRANCH   3   4
HETATM    4  C7  UNL     1      11.863  38.306  -6.112  1.00  0.00     0.002 C 
BRANCH   4   5
HETATM    5  C6  UNL     1      10.909  39.018  -5.156  1.00  0.00     0.030 C 
BRANCH   5   6
HETATM    6  C5  UNL     1      10.579  38.200  -3.977  1.00  0.00     0.275 C 
BRANCH   6   7
HETATM    7  N2  UNL     1       9.910  38.890  -2.910  1.00  0.00     0.119 N 
HETATM    8  C1  UNL     1      10.798  39.226  -1.823  1.00  0.00     0.417 C 
HETATM    9  C2  UNL     1      10.657  38.114  -0.805  1.00  0.00     0.067 C 
HETATM   10  C3  UNL     1       9.448  37.334  -1.248  1.00  0.00     0.034 C 
HETATM   11  C4  UNL     1       8.811  38.159  -2.342  1.00  0.00     0.275 C 
BRANCH   8  12
HETATM   12  N1  UNL     1      10.317  40.471  -1.235  1.00  0.00    -0.048 N 
ATOM     13  H13 UNL     1       9.755  41.017  -1.887  1.00  0.00     0.276 HD
ATOM     14  H12 UNL     1       9.602  40.314  -0.525  1.00  0.00     0.276 HD
ATOM     15  H11 UNL     1      11.114  40.997  -0.874  1.00  0.00     0.276 HD
ENDBRANCH   8  12
ENDBRANCH   6   7
ENDBRANCH   5   6
ENDBRANCH   4   5
ENDBRANCH   3   4
ENDBRANCH   2   3
ENDBRANCH   1   2
BRANCH   1  16
HETATM   16  C11 UNL     1      13.524  38.623 -10.616  1.00  0.00     0.119 C 
BRANCH  16  17
HETATM   17  N3  UNL     1      13.360  37.807 -11.771  1.00  0.00    -0.383 N 
HETATM   18  C12 UNL     1      13.921  38.277 -12.984  1.00  0.00     0.153 C 
HETATM   19  C13 UNL     1      15.358  37.932 -13.182  1.00  0.00     0.167 C 
HETATM   20  C14 UNL     1      15.533  36.444 -13.045  1.00  0.00     0.181 C 
HETATM   21  C15 UNL     1      14.939  35.933 -11.775  1.00  0.00     0.197 C 
HETATM   22  C16 UNL     1      13.519  36.395 -11.552  1.00  0.00     0.247 C 
BRANCH  19  23
HETATM   23  O1  UNL     1      16.203  38.570 -12.280  1.00  0.00    -0.391 OA
ATOM     24  H1  UNL     1      16.943  38.035 -12.018  1.00  0.00     0.210 HD
ENDBRANCH  19  23
BRANCH  20  25
HETATM   25  O2  UNL     1      16.930  36.234 -12.971  1.00  0.00    -0.390 OA
ATOM     26  H2  UNL     1      17.307  36.811 -13.626  1.00  0.00     0.210 HD
ENDBRANCH  20  25
BRANCH  21  27
HETATM   27  O3  UNL     1      15.749  36.206 -10.700  1.00  0.00    -0.389 OA
ATOM     28  H3  UNL     1      15.247  36.544  -9.967  1.00  0.00     0.210 HD
ENDBRANCH  21  27
BRANCH  22  29
HETATM   29  O4  UNL     1      12.654  35.673 -12.373  1.00  0.00    -0.374 OA
ATOM     30  H4  UNL     1      12.201  35.004 -11.872  1.00  0.00     0.212 HD
ENDBRANCH  22  29
ENDBRANCH  16  17
ENDBRANCH   1  16
TORSDOF 13
ENDMDL
MODEL 3
REMARK VINA RESULT: -6.421398833      3.087      4.373
REMARK  13 active torsions:
REMARK  status: ('A' for Active; 'I' for Inactive)
REMARK    1  A    between atoms: N1_1  and  C1_5 
REMARK    2  A    between atoms: N2_9  and  C5_10 
REMARK    3  A    between atoms: C5_10  and  C6_11 
REMARK    4  A    between atoms: C6_11  and  C7_12 
REMARK    5  A    between atoms: C7_12  and  C8_13 
REMARK    6  A    between atoms: C8_13  and  C9_14 
REMARK    7  A    between atoms: C9_14  and  C10_15 
REMARK    8  A    between atoms: C10_15  and  C11_16 
REMARK    9  A    between atoms: C11_16  and  N3_17 
REMARK   10  A    between atoms: C13_19  and  O1_20 
REMARK   11  A    between atoms: C14_22  and  O2_23 
REMARK   12  A    between atoms: C15_25  and  O3_26 
REMARK   13  A    between atoms: C16_28  and  O4_29 
ROOT
HETATM    1  C10 UNL     1      14.528  38.621  -9.565  1.00  0.00     0.019 C 
ENDROOT
BRANCH   1   2
HETATM    2  C9  UNL     1      14.451  38.976 -11.059  1.00  0.00     0.002 C 
BRANCH   2   3
HETATM    3  C8  UNL     1      13.514  38.062 -11.765  1.00  0.00     0.000 C 
BRANCH   3   4
HETATM    4  C7  UNL     1      13.552  36.662 -11.183  1.00  0.00     0.002 C 
BRANCH   4   5
HETATM    5  C6  UNL     1      14.042  35.701 -12.262  1.00  0.00     0.030 C 
BRANCH   5   6
HETATM    6  C5  UNL     1      13.548  36.059 -13.602  1.00  0.00     0.275 C 
BRANCH   6   7
HETATM    7  N2  UNL     1      14.538  36.087 -14.642  1.00  0.00     0.119 N 
HETATM    8  C1  UNL     1      15.797  36.634 -14.195  1.00  0.00     0.417 C 
HETATM    9  C2  UNL     1      15.777  38.101 -14.572  1.00  0.00     0.067 C 
HETATM   10  C3  UNL     1      14.597  38.247 -15.497  1.00  0.00     0.034 C 
HETATM   11  C4  UNL     1      14.144  36.838 -15.803  1.00  0.00     0.275 C 
BRANCH   8  12
HETATM   12  N1  UNL     1      16.854  35.967 -14.946  1.00  0.00    -0.048 N 
ATOM     13  H13 UNL     1      16.988  36.373 -15.872  1.00  0.00     0.276 HD
ATOM     14  H12 UNL     1      17.781  36.162 -14.569  1.00  0.00     0.276 HD
ATOM     15  H11 UNL     1      16.653  34.967 -14.985  1.00  0.00     0.276 HD
ENDBRANCH   8  12
ENDBRANCH   6   7
ENDBRANCH   5   6
ENDBRANCH   4   5
ENDBRANCH   3   4
ENDBRANCH   2   3
ENDBRANCH   1   2
BRANCH   1  16
HETATM   16  C11 UNL     1      14.051  39.734  -8.699  1.00  0.00     0.119 C 
BRANCH  16  17
HETATM   17  N3  UNL     1      12.632  39.834  -8.668  1.00  0.00    -0.383 N 
HETATM   18  C12 UNL     1      11.911  38.704  -8.209  1.00  0.00     0.153 C 
HETATM   19  C13 UNL     1      11.745  38.628  -6.729  1.00  0.00     0.167 C 
HETATM   20  C14 UNL     1      11.122  39.906  -6.235  1.00  0.00     0.181 C 
HETATM   21  C15 UNL     1      11.866  41.105  -6.717  1.00  0.00     0.197 C 
HETATM   22  C16 UNL     1      12.116  41.094  -8.206  1.00  0.00     0.247 C 
BRANCH  19  23
HETATM   23  O1  UNL     1      12.943  38.420  -6.054  1.00  0.00    -0.391 OA
ATOM     24  H1  UNL     1      12.824  38.223  -5.133  1.00  0.00     0.210 HD
ENDBRANCH  19  23
BRANCH  20  25
HETATM   25  O2  UNL     1      11.252  39.867  -4.827  1.00  0.00    -0.390 OA
ATOM     26  H2  UNL     1      10.498  40.339  -4.491  1.00  0.00     0.210 HD
ENDBRANCH  20  25
BRANCH  21  27
HETATM   27  O3  UNL     1      13.021  41.298  -6.000  1.00  0.00    -0.389 OA
ATOM     28  H3  UNL     1      13.509  42.045  -6.325  1.00  0.00     0.210 HD
ENDBRANCH  21  27
BRANCH  22  29
HETATM   29  O4  UNL     1      10.941  41.417  -8.883  1.00  0.00    -0.374 OA
ATOM     30  H4  UNL     1      11.043  42.236  -9.355  1.00  0.00     0.212 HD
ENDBRANCH  22  29
ENDBRANCH  16  17
ENDBRANCH   1  16
TORSDOF 13
ENDMDL
MODEL 4
REMARK VINA RESULT: -6.411778629      6.259     10.828
REMARK  13 active torsions:
REMARK  status: ('A' for Active; 'I' for Inactive)
REMARK    1  A    between atoms: N1_1  and  C1_5 
REMARK    2  A    between atoms: N2_9  and  C5_10 
REMARK    3  A    between atoms: C5_10  and  C6_11 
REMARK    4  A    between atoms: C6_11  and  C7_12 
REMARK    5  A    between atoms: C7_12  and  C8_13 
REMARK    6  A    between atoms: C8_13  and  C9_14 
REMARK    7  A    between atoms: C9_14  and  C10_15 
REMARK    8  A    between atoms: C10_15  and  C11_16 
REMARK    9  A    between atoms: C11_16  and  N3_17 
REMARK   10  A    between atoms: C13_19  and  O1_20 
REMARK   11  A    between atoms: C14_22  and  O2_23 
REMARK   12  A    between atoms: C15_25  and  O3_26 
REMARK   13  A    between atoms: C16_28  and  O4_29 
ROOT
HETATM    1  C10 UNL     1       7.909  41.962  -2.088  1.00  0.00     0.019 C 
ENDROOT
BRANCH   1   2
HETATM    2  C9  UNL     1       7.614  42.675  -0.758  1.00  0.00     0.002 C 
BRANCH   2   3
HETATM    3  C8  UNL     1       7.081  44.041  -1.004  1.00  0.00     0.000 C 
BRANCH   3   4
HETATM    4  C7  UNL     1       6.493  44.648   0.256  1.00  0.00     0.002 C 
BRANCH   4   5
HETATM    5  C6  UNL     1       4.987  44.802   0.062  1.00  0.00     0.030 C 
BRANCH   5   6
HETATM    6  C5  UNL     1       4.611  44.932  -1.355  1.00  0.00     0.275 C 
BRANCH   6   7
HETATM    7  N2  UNL     1       3.484  44.148  -1.774  1.00  0.00     0.119 N 
HETATM    8  C1  UNL     1       3.293  42.971  -0.959  1.00  0.00     0.417 C 
HETATM    9  C2  UNL     1       3.986  41.838  -1.687  1.00  0.00     0.067 C 
HETATM   10  C3  UNL     1       4.292  42.386  -3.056  1.00  0.00     0.034 C 
HETATM   11  C4  UNL     1       3.557  43.704  -3.139  1.00  0.00     0.275 C 
BRANCH   8  12
HETATM   12  N1  UNL     1       1.861  42.699  -0.913  1.00  0.00    -0.048 N 
ATOM     13  H13 UNL     1       1.389  42.957  -1.780  1.00  0.00     0.276 HD
ATOM     14  H12 UNL     1       1.655  41.701  -0.930  1.00  0.00     0.276 HD
ATOM     15  H11 UNL     1       1.461  43.165  -0.099  1.00  0.00     0.276 HD
ENDBRANCH   8  12
ENDBRANCH   6   7
ENDBRANCH   5   6
ENDBRANCH   4   5
ENDBRANCH   3   4
ENDBRANCH   2   3
ENDBRANCH   1   2
BRANCH   1  16
HETATM   16  C11 UNL     1       9.062  41.027  -1.980  1.00  0.00     0.119 C 
BRANCH  16  17
HETATM   17  N3  UNL     1       8.736  39.704  -2.391  1.00  0.00    -0.383 N 
HETATM   18  C12 UNL     1       8.458  39.500  -3.765  1.00  0.00     0.153 C 
HETATM   19  C13 UNL     1       9.659  39.261  -4.616  1.00  0.00     0.167 C 
HETATM   20  C14 UNL     1      10.448  38.113  -4.046  1.00  0.00     0.181 C 
HETATM   21  C15 UNL     1      10.741  38.310  -2.597  1.00  0.00     0.197 C 
HETATM   22  C16 UNL     1       9.518  38.663  -1.784  1.00  0.00     0.247 C 
BRANCH  19  23
HETATM   23  O1  UNL     1      10.490  40.373  -4.716  1.00  0.00    -0.391 OA
ATOM     24  H1  UNL     1      10.622  40.816  -3.886  1.00  0.00     0.210 HD
ENDBRANCH  19  23
BRANCH  20  25
HETATM   25  O2  UNL     1      11.685  38.130  -4.732  1.00  0.00    -0.390 OA
ATOM     26  H2  UNL     1      12.344  37.961  -4.069  1.00  0.00     0.210 HD
ENDBRANCH  20  25
BRANCH  21  27
HETATM   27  O3  UNL     1      11.764  39.207  -2.411  1.00  0.00    -0.389 OA
ATOM     28  H3  UNL     1      12.304  38.966  -1.668  1.00  0.00     0.210 HD
ENDBRANCH  21  27
BRANCH  22  29
HETATM   29  O4  UNL     1       8.742  37.523  -1.582  1.00  0.00    -0.374 OA
ATOM     30  H4  UNL     1       8.850  37.198  -0.696  1.00  0.00     0.212 HD
ENDBRANCH  22  29
ENDBRANCH  16  17
ENDBRANCH   1  16
TORSDOF 13
ENDMDL
MODEL 5
REMARK VINA RESULT: -6.278832796      1.232      1.914
REMARK  13 active torsions:
REMARK  status: ('A' for Active; 'I' for Inactive)
REMARK    1  A    between atoms: N1_1  and  C1_5 
REMARK    2  A    between atoms: N2_9  and  C5_10 
REMARK    3  A    between atoms: C5_10  and  C6_11 
REMARK    4  A    between atoms: C6_11  and  C7_12 
REMARK    5  A    between atoms: C7_12  and  C8_13 
REMARK    6  A    between atoms: C8_13  and  C9_14 
REMARK    7  A    between atoms: C9_14  and  C10_15 
REMARK    8  A    between atoms: C10_15  and  C11_16 
REMARK    9  A    between atoms: C11_16  and  N3_17 
REMARK   10  A    between atoms: C13_19  and  O1_20 
REMARK   11  A    between atoms: C14_22  and  O2_23 
REMARK   12  A    between atoms: C15_25  and  O3_26 
REMARK   13  A    between atoms: C16_28  and  O4_29 
ROOT
HETATM    1  C10 UNL     1      11.764  38.592  -6.366  1.00  0.00     0.019 C 
ENDROOT
BRANCH   1   2
HETATM    2  C9  UNL     1      11.868  39.968  -7.045  1.00  0.00     0.002 C 
BRANCH   2   3
HETATM    3  C8  UNL     1      12.623  39.866  -8.322  1.00  0.00     0.000 C 
BRANCH   3   4
HETATM    4  C7  UNL     1      13.165  38.466  -8.541  1.00  0.00     0.002 C 
BRANCH   4   5
HETATM    5  C6  UNL     1      13.712  38.375  -9.963  1.00  0.00     0.030 C 
BRANCH   5   6
HETATM    6  C5  UNL     1      13.298  37.140 -10.648  1.00  0.00     0.275 C 
BRANCH   6   7
HETATM    7  N2  UNL     1      14.315  36.490 -11.426  1.00  0.00     0.119 N 
HETATM    8  C1  UNL     1      15.050  37.411 -12.260  1.00  0.00     0.417 C 
HETATM    9  C2  UNL     1      14.387  37.366 -13.621  1.00  0.00     0.067 C 
HETATM   10  C3  UNL     1      13.469  36.174 -13.567  1.00  0.00     0.034 C 
HETATM   11  C4  UNL     1      13.818  35.451 -12.286  1.00  0.00     0.275 C 
BRANCH   8  12
HETATM   12  N1  UNL     1      16.412  36.902 -12.379  1.00  0.00    -0.048 N 
ATOM     13  H13 UNL     1      16.958  37.413 -13.073  1.00  0.00     0.276 HD
ATOM     14  H12 UNL     1      16.980  37.119 -11.561  1.00  0.00     0.276 HD
ATOM     15  H11 UNL     1      16.376  35.901 -12.574  1.00  0.00     0.276 HD
ENDBRANCH   8  12
ENDBRANCH   6   7
ENDBRANCH   5   6
ENDBRANCH   4   5
ENDBRANCH   3   4
ENDBRANCH   2   3
ENDBRANCH   1   2
BRANCH   1  16
HETATM   16  C11 UNL     1      10.561  38.485  -5.497  1.00  0.00     0.119 C 
BRANCH  16  17
HETATM   17  N3  UNL     1      10.665  39.276  -4.318  1.00  0.00    -0.383 N 
HETATM   18  C12 UNL     1       9.697  40.294  -4.131  1.00  0.00     0.153 C 
HETATM   19  C13 UNL     1       8.432  39.842  -3.484  1.00  0.00     0.167 C 
HETATM   20  C14 UNL     1       8.759  39.159  -2.183  1.00  0.00     0.181 C 
HETATM   21  C15 UNL     1       9.783  38.089  -2.363  1.00  0.00     0.197 C 
HETATM   22  C16 UNL     1      11.003  38.553  -3.122  1.00  0.00     0.247 C 
BRANCH  19  23
HETATM   23  O1  UNL     1       7.693  38.971  -4.276  1.00  0.00    -0.391 OA
ATOM     24  H1  UNL     1       7.243  39.405  -4.991  1.00  0.00     0.210 HD
ENDBRANCH  19  23
BRANCH  20  25
HETATM   25  O2  UNL     1       7.559  38.530  -1.777  1.00  0.00    -0.390 OA
ATOM     26  H2  UNL     1       6.990  39.234  -1.488  1.00  0.00     0.210 HD
ENDBRANCH  20  25
BRANCH  21  27
HETATM   27  O3  UNL     1       9.232  36.957  -2.909  1.00  0.00    -0.389 OA
ATOM     28  H3  UNL     1       8.301  36.902  -2.724  1.00  0.00     0.210 HD
ENDBRANCH  21  27
BRANCH  22  29
HETATM   29  O4  UNL     1      11.807  39.332  -2.292  1.00  0.00    -0.374 OA
ATOM     30  H4  UNL     1      11.492  39.299  -1.396  1.00  0.00     0.212 HD
ENDBRANCH  22  29
ENDBRANCH  16  17
ENDBRANCH   1  16
TORSDOF 13
ENDMDL
