MODEL 1
REMARK VINA RESULT: -6.390232516      0.000      0.000
REMARK  1 active torsions:
REMARK  status: ('A' for Active; 'I' for Inactive)
REMARK    1  A    between atoms: C10_11  and  O2_13 
ROOT
HETATM    1  C1  UNL     1     -19.709  -0.087  -7.975  1.00  0.00     0.018 C 
HETATM    2  C2  UNL     1     -19.190  -1.378  -8.607  1.00  0.00    -0.017 C 
HETATM    3  C3  UNL     1     -19.929  -1.493  -9.948  1.00  0.00     0.014 C 
HETATM    4  C4  UNL     1     -21.144  -2.343  -9.854  1.00  0.00     0.027 C 
HETATM    5  C5  UNL     1     -21.818  -2.365  -8.534  1.00  0.00     0.168 C 
HETATM    6  O1  UNL     1     -20.981  -2.297  -7.445  1.00  0.00    -0.385 OA
HETATM    7  C6  UNL     1     -19.650  -2.541  -7.797  1.00  0.00     0.130 C 
HETATM    8  C7  UNL     1     -18.825  -2.734  -6.555  1.00  0.00     0.038 C 
HETATM    9  C8  UNL     1     -17.379  -2.806  -6.827  1.00  0.00     0.002 C 
HETATM   10  C9  UNL     1     -16.951  -4.007  -7.642  1.00  0.00     0.043 C 
HETATM   11  C10 UNL     1     -15.978  -3.091  -8.354  1.00  0.00     0.062 C 
HETATM   12  C11 UNL     1     -16.013  -3.328  -9.820  1.00  0.00     0.046 C 
HETATM   13  C12 UNL     1     -16.833  -1.917  -7.864  1.00  0.00    -0.009 C 
HETATM   14  C13 UNL     1     -15.875  -0.902  -7.222  1.00  0.00     0.019 C 
HETATM   15  C14 UNL     1     -17.725  -1.296  -8.828  1.00  0.00     0.024 C 
ENDROOT
BRANCH  11  16
HETATM   16  O2  UNL     1     -14.718  -3.158  -7.820  1.00  0.00    -0.389 OA
ATOM     17  H2  UNL     1     -14.051  -3.274  -8.487  1.00  0.00     0.210 HD
ENDBRANCH  11  16
TORSDOF 1
ENDMDL
MODEL 2
REMARK VINA RESULT: -6.260872525      1.840      4.816
REMARK  1 active torsions:
REMARK  status: ('A' for Active; 'I' for Inactive)
REMARK    1  A    between atoms: C10_11  and  O2_13 
ROOT
HETATM    1  C1  UNL     1     -17.878  -2.705  -6.574  1.00  0.00     0.018 C 
HETATM    2  C2  UNL     1     -17.570  -1.783  -7.752  1.00  0.00    -0.017 C 
HETATM    3  C3  UNL     1     -16.508  -2.526  -8.576  1.00  0.00     0.014 C 
HETATM    4  C4  UNL     1     -15.125  -2.105  -8.230  1.00  0.00     0.027 C 
HETATM    5  C5  UNL     1     -14.919  -1.645  -6.836  1.00  0.00     0.168 C 
HETATM    6  O1  UNL     1     -15.971  -0.955  -6.282  1.00  0.00    -0.385 OA
HETATM    7  C6  UNL     1     -16.895  -0.552  -7.251  1.00  0.00     0.130 C 
HETATM    8  C7  UNL     1     -17.865   0.425  -6.648  1.00  0.00     0.038 C 
HETATM    9  C8  UNL     1     -18.987   0.754  -7.546  1.00  0.00     0.002 C 
HETATM   10  C9  UNL     1     -18.588   1.490  -8.807  1.00  0.00     0.043 C 
HETATM   11  C10 UNL     1     -19.618   0.653  -9.537  1.00  0.00     0.062 C 
HETATM   12  C11 UNL     1     -19.065   0.146 -10.820  1.00  0.00     0.046 C 
HETATM   13  C12 UNL     1     -19.548  -0.331  -8.365  1.00  0.00    -0.009 C 
HETATM   14  C13 UNL     1     -20.995  -0.611  -7.928  1.00  0.00     0.019 C 
HETATM   15  C14 UNL     1     -18.789  -1.553  -8.566  1.00  0.00     0.024 C 
ENDROOT
BRANCH  11  16
HETATM   16  O2  UNL     1     -20.812   1.309  -9.679  1.00  0.00    -0.389 OA
ATOM     17  H2  UNL     1     -21.553   0.714  -9.663  1.00  0.00     0.210 HD
ENDBRANCH  11  16
TORSDOF 1
ENDMDL
MODEL 3
REMARK VINA RESULT: -6.091498604      1.846      2.978
REMARK  1 active torsions:
REMARK  status: ('A' for Active; 'I' for Inactive)
REMARK    1  A    between atoms: C10_11  and  O2_13 
ROOT
HETATM    1  C1  UNL     1     -18.937   0.575 -10.031  1.00  0.00     0.018 C 
HETATM    2  C2  UNL     1     -19.161  -0.252  -8.765  1.00  0.00    -0.017 C 
HETATM    3  C3  UNL     1     -20.655  -0.095  -8.444  1.00  0.00     0.014 C 
HETATM    4  C4  UNL     1     -20.912   0.989  -7.460  1.00  0.00     0.027 C 
HETATM    5  C5  UNL     1     -19.945   2.112  -7.468  1.00  0.00     0.168 C 
HETATM    6  O1  UNL     1     -18.641   1.764  -7.732  1.00  0.00    -0.385 OA
HETATM    7  C6  UNL     1     -18.441   0.385  -7.627  1.00  0.00     0.130 C 
HETATM    8  C7  UNL     1     -16.967   0.085  -7.646  1.00  0.00     0.038 C 
HETATM    9  C8  UNL     1     -16.671  -1.356  -7.733  1.00  0.00     0.002 C 
HETATM   10  C9  UNL     1     -17.110  -2.161  -6.528  1.00  0.00     0.043 C 
HETATM   11  C10 UNL     1     -17.520  -3.253  -7.495  1.00  0.00     0.062 C 
HETATM   12  C11 UNL     1     -18.852  -3.801  -7.130  1.00  0.00     0.046 C 
HETATM   13  C12 UNL     1     -17.536  -2.182  -8.591  1.00  0.00    -0.009 C 
HETATM   14  C13 UNL     1     -16.717  -2.733  -9.769  1.00  0.00     0.019 C 
HETATM   15  C14 UNL     1     -18.832  -1.678  -9.010  1.00  0.00     0.024 C 
ENDROOT
BRANCH  11  16
HETATM   16  O2  UNL     1     -16.553  -4.214  -7.631  1.00  0.00    -0.389 OA
ATOM     17  H2  UNL     1     -16.228  -4.272  -8.522  1.00  0.00     0.210 HD
ENDBRANCH  11  16
TORSDOF 1
ENDMDL
MODEL 4
REMARK VINA RESULT: -5.941269294      1.606      1.900
REMARK  1 active torsions:
REMARK  status: ('A' for Active; 'I' for Inactive)
REMARK    1  A    between atoms: C10_11  and  O2_13 
ROOT
HETATM    1  C1  UNL     1     -18.371   0.890  -8.814  1.00  0.00     0.018 C 
HETATM    2  C2  UNL     1     -19.011  -0.496  -8.883  1.00  0.00    -0.017 C 
HETATM    3  C3  UNL     1     -20.051  -0.402 -10.009  1.00  0.00     0.014 C 
HETATM    4  C4  UNL     1     -21.412  -0.093  -9.498  1.00  0.00     0.027 C 
HETATM    5  C5  UNL     1     -21.469   0.705  -8.250  1.00  0.00     0.168 C 
HETATM    6  O1  UNL     1     -20.472   0.445  -7.339  1.00  0.00    -0.385 OA
HETATM    7  C6  UNL     1     -19.793  -0.739  -7.638  1.00  0.00     0.130 C 
HETATM    8  C7  UNL     1     -18.915  -1.124  -6.479  1.00  0.00     0.038 C 
HETATM    9  C8  UNL     1     -18.020  -2.254  -6.782  1.00  0.00     0.002 C 
HETATM   10  C9  UNL     1     -18.729  -3.564  -7.049  1.00  0.00     0.043 C 
HETATM   11  C10 UNL     1     -17.704  -3.819  -8.134  1.00  0.00     0.062 C 
HETATM   12  C11 UNL     1     -18.360  -4.332  -9.365  1.00  0.00     0.046 C 
HETATM   13  C12 UNL     1     -17.422  -2.313  -8.126  1.00  0.00    -0.009 C 
HETATM   14  C13 UNL     1     -15.899  -2.141  -8.020  1.00  0.00     0.019 C 
HETATM   15  C14 UNL     1     -17.990  -1.524  -9.205  1.00  0.00     0.024 C 
ENDROOT
BRANCH  11  16
HETATM   16  O2  UNL     1     -16.672  -4.608  -7.697  1.00  0.00    -0.389 OA
ATOM     17  H2  UNL     1     -15.830  -4.308  -8.018  1.00  0.00     0.210 HD
ENDBRANCH  11  16
TORSDOF 1
ENDMDL
MODEL 5
REMARK VINA RESULT: -5.817807370      1.754      3.135
REMARK  1 active torsions:
REMARK  status: ('A' for Active; 'I' for Inactive)
REMARK    1  A    between atoms: C10_11  and  O2_13 
ROOT
HETATM    1  C1  UNL     1     -19.093  -2.360  -6.562  1.00  0.00     0.018 C 
HETATM    2  C2  UNL     1     -17.770  -2.031  -7.252  1.00  0.00    -0.017 C 
HETATM    3  C3  UNL     1     -17.289  -0.728  -6.596  1.00  0.00     0.014 C 
HETATM    4  C4  UNL     1     -17.687   0.476  -7.371  1.00  0.00     0.027 C 
HETATM    5  C5  UNL     1     -18.940   0.358  -8.154  1.00  0.00     0.168 C 
HETATM    6  O1  UNL     1     -19.175  -0.881  -8.704  1.00  0.00    -0.385 OA
HETATM    7  C6  UNL     1     -18.032  -1.686  -8.678  1.00  0.00     0.130 C 
HETATM    8  C7  UNL     1     -18.254  -2.905  -9.529  1.00  0.00     0.038 C 
HETATM    9  C8  UNL     1     -17.174  -3.900  -9.405  1.00  0.00     0.002 C 
HETATM   10  C9  UNL     1     -15.829  -3.435  -9.919  1.00  0.00     0.043 C 
HETATM   11  C10 UNL     1     -15.207  -4.157  -8.742  1.00  0.00     0.062 C 
HETATM   12  C11 UNL     1     -14.165  -3.313  -8.102  1.00  0.00     0.046 C 
HETATM   13  C12 UNL     1     -16.585  -4.108  -8.073  1.00  0.00    -0.009 C 
HETATM   14  C13 UNL     1     -16.898  -5.532  -7.587  1.00  0.00     0.019 C 
HETATM   15  C14 UNL     1     -16.784  -3.117  -7.030  1.00  0.00     0.024 C 
ENDROOT
BRANCH  11  16
HETATM   16  O2  UNL     1     -14.765  -5.410  -9.077  1.00  0.00    -0.389 OA
ATOM     17  H2  UNL     1     -15.242  -5.774  -9.814  1.00  0.00     0.210 HD
ENDBRANCH  11  16
TORSDOF 1
ENDMDL
