MODEL 1
REMARK VINA RESULT: -6.136110960      0.000      0.000
REMARK  1 active torsions:
REMARK  status: ('A' for Active; 'I' for Inactive)
REMARK    1  A    between atoms: C3_3  and  O1_4 
ROOT
HETATM    1  C1  UNL     1     -19.793   0.452  -7.611  1.00  0.00     0.014 C 
HETATM    2  C2  UNL     1     -19.412  -0.835  -6.910  1.00  0.00     0.029 C 
HETATM    3  C3  UNL     1     -20.515  -1.839  -7.013  1.00  0.00     0.124 C 
HETATM    4  C4  UNL     1     -20.882  -2.300  -8.348  1.00  0.00     0.042 C 
HETATM    5  C5  UNL     1     -20.057  -1.935  -9.507  1.00  0.00     0.077 C 
HETATM    6  S1  UNL     1     -18.328  -1.589  -9.201  1.00  0.00    -0.158 SA
HETATM    7  C6  UNL     1     -18.101  -1.296  -7.448  1.00  0.00     0.018 C 
HETATM    8  C7  UNL     1     -16.997  -0.371  -7.057  1.00  0.00     0.026 C 
HETATM    9  C8  UNL     1     -16.164  -1.610  -6.715  1.00  0.00    -0.007 C 
HETATM   10  C9  UNL     1     -15.338  -1.995  -7.894  1.00  0.00     0.005 C 
HETATM   11  C10 UNL     1     -15.810  -3.347  -8.329  1.00  0.00     0.001 C 
HETATM   12  C11 UNL     1     -17.148  -3.599  -7.697  1.00  0.00     0.006 C 
HETATM   13  C12 UNL     1     -17.439  -2.450  -6.775  1.00  0.00     0.009 C 
ENDROOT
BRANCH   3  14
HETATM   14  O1  UNL     1     -21.608  -1.266  -6.319  1.00  0.00    -0.395 OA
ATOM     15  H1  UNL     1     -21.855  -1.910  -5.666  1.00  0.00     0.210 HD
ENDBRANCH   3  14
TORSDOF 1
ENDMDL
MODEL 2
REMARK VINA RESULT: -5.744560182      1.108      1.507
REMARK  1 active torsions:
REMARK  status: ('A' for Active; 'I' for Inactive)
REMARK    1  A    between atoms: C3_3  and  O1_4 
ROOT
HETATM    1  C1  UNL     1     -17.932   0.546  -7.439  1.00  0.00     0.014 C 
HETATM    2  C2  UNL     1     -17.989  -0.861  -6.882  1.00  0.00     0.029 C 
HETATM    3  C3  UNL     1     -19.399  -1.247  -6.567  1.00  0.00     0.124 C 
HETATM    4  C4  UNL     1     -20.346  -1.305  -7.676  1.00  0.00     0.042 C 
HETATM    5  C5  UNL     1     -19.868  -1.184  -9.059  1.00  0.00     0.077 C 
HETATM    6  S1  UNL     1     -18.182  -1.687  -9.387  1.00  0.00    -0.158 SA
HETATM    7  C6  UNL     1     -17.295  -1.775  -7.833  1.00  0.00     0.018 C 
HETATM    8  C7  UNL     1     -15.829  -1.500  -7.877  1.00  0.00     0.026 C 
HETATM    9  C8  UNL     1     -15.607  -3.015  -7.817  1.00  0.00    -0.007 C 
HETATM   10  C9  UNL     1     -15.483  -3.555  -9.200  1.00  0.00     0.005 C 
HETATM   11  C10 UNL     1     -16.640  -4.482  -9.406  1.00  0.00     0.001 C 
HETATM   12  C11 UNL     1     -17.657  -4.201  -8.339  1.00  0.00     0.006 C 
HETATM   13  C12 UNL     1     -17.068  -3.185  -7.404  1.00  0.00     0.009 C 
ENDROOT
BRANCH   3  14
HETATM   14  O1  UNL     1     -19.812  -0.353  -5.549  1.00  0.00    -0.395 OA
ATOM     15  H1  UNL     1     -20.667  -0.041  -5.822  1.00  0.00     0.210 HD
ENDBRANCH   3  14
TORSDOF 1
ENDMDL
MODEL 3
REMARK VINA RESULT: -5.734696161      2.371      3.540
REMARK  1 active torsions:
REMARK  status: ('A' for Active; 'I' for Inactive)
REMARK    1  A    between atoms: C3_3  and  O1_4 
ROOT
HETATM    1  C1  UNL     1     -21.026  -0.114  -9.767  1.00  0.00     0.014 C 
HETATM    2  C2  UNL     1     -19.612  -0.528 -10.119  1.00  0.00     0.029 C 
HETATM    3  C3  UNL     1     -18.744   0.674 -10.315  1.00  0.00     0.124 C 
HETATM    4  C4  UNL     1     -18.542   1.553  -9.168  1.00  0.00     0.042 C 
HETATM    5  C5  UNL     1     -19.014   1.148  -7.837  1.00  0.00     0.077 C 
HETATM    6  S1  UNL     1     -19.146  -0.608  -7.517  1.00  0.00    -0.158 SA
HETATM    7  C6  UNL     1     -19.126  -1.481  -9.081  1.00  0.00     0.018 C 
HETATM    8  C7  UNL     1     -19.870  -2.773  -9.141  1.00  0.00     0.026 C 
HETATM    9  C8  UNL     1     -18.520  -3.484  -8.999  1.00  0.00    -0.007 C 
HETATM   10  C9  UNL     1     -18.259  -3.773  -7.561  1.00  0.00     0.005 C 
HETATM   11  C10 UNL     1     -17.045  -2.987  -7.177  1.00  0.00     0.001 C 
HETATM   12  C11 UNL     1     -16.817  -1.939  -8.226  1.00  0.00     0.006 C 
HETATM   13  C12 UNL     1     -17.822  -2.163  -9.319  1.00  0.00     0.009 C 
ENDROOT
BRANCH   3  14
HETATM   14  O1  UNL     1     -19.294   1.355 -11.428  1.00  0.00    -0.395 OA
ATOM     15  H1  UNL     1     -20.024   1.853 -11.080  1.00  0.00     0.210 HD
ENDBRANCH   3  14
TORSDOF 1
ENDMDL
MODEL 4
REMARK VINA RESULT: -5.665168314      2.428      4.322
REMARK  1 active torsions:
REMARK  status: ('A' for Active; 'I' for Inactive)
REMARK    1  A    between atoms: C3_3  and  O1_4 
ROOT
HETATM    1  C1  UNL     1     -18.395  -5.183  -9.282  1.00  0.00     0.014 C 
HETATM    2  C2  UNL     1     -17.749  -4.722  -7.992  1.00  0.00     0.029 C 
HETATM    3  C3  UNL     1     -16.300  -5.094  -7.964  1.00  0.00     0.124 C 
HETATM    4  C4  UNL     1     -15.435  -4.507  -8.982  1.00  0.00     0.042 C 
HETATM    5  C5  UNL     1     -15.943  -3.444  -9.858  1.00  0.00     0.077 C 
HETATM    6  S1  UNL     1     -17.274  -2.429  -9.222  1.00  0.00    -0.158 SA
HETATM    7  C6  UNL     1     -18.017  -3.265  -7.823  1.00  0.00     0.018 C 
HETATM    8  C7  UNL     1     -19.465  -3.006  -7.574  1.00  0.00     0.026 C 
HETATM    9  C8  UNL     1     -19.038  -2.039  -6.466  1.00  0.00    -0.007 C 
HETATM   10  C9  UNL     1     -18.950  -0.658  -7.018  1.00  0.00     0.005 C 
HETATM   11  C10 UNL     1     -17.517  -0.241  -6.911  1.00  0.00     0.001 C 
HETATM   12  C11 UNL     1     -16.689  -1.473  -6.685  1.00  0.00     0.006 C 
HETATM   13  C12 UNL     1     -17.631  -2.632  -6.530  1.00  0.00     0.009 C 
ENDROOT
BRANCH   3  14
HETATM   14  O1  UNL     1     -16.279  -6.510  -7.987  1.00  0.00    -0.395 OA
ATOM     15  H1  UNL     1     -15.775  -6.740  -8.759  1.00  0.00     0.210 HD
ENDBRANCH   3  14
TORSDOF 1
ENDMDL
MODEL 5
REMARK VINA RESULT: -5.604715720      1.920      3.325
REMARK  1 active torsions:
REMARK  status: ('A' for Active; 'I' for Inactive)
REMARK    1  A    between atoms: C3_3  and  O1_4 
ROOT
HETATM    1  C1  UNL     1     -19.843  -2.760  -7.602  1.00  0.00     0.014 C 
HETATM    2  C2  UNL     1     -18.983  -2.934  -8.836  1.00  0.00     0.029 C 
HETATM    3  C3  UNL     1     -18.778  -1.623  -9.526  1.00  0.00     0.124 C 
HETATM    4  C4  UNL     1     -18.075  -0.577  -8.791  1.00  0.00     0.042 C 
HETATM    5  C5  UNL     1     -17.426  -0.887  -7.511  1.00  0.00     0.077 C 
HETATM    6  S1  UNL     1     -16.897  -2.577  -7.250  1.00  0.00    -0.158 SA
HETATM    7  C6  UNL     1     -17.724  -3.628  -8.441  1.00  0.00     0.018 C 
HETATM    8  C7  UNL     1     -17.990  -5.037  -8.027  1.00  0.00     0.026 C 
HETATM    9  C8  UNL     1     -16.775  -5.447  -8.866  1.00  0.00    -0.007 C 
HETATM   10  C9  UNL     1     -15.563  -5.487  -8.000  1.00  0.00     0.005 C 
HETATM   11  C10 UNL     1     -14.631  -4.436  -8.515  1.00  0.00     0.001 C 
HETATM   12  C11 UNL     1     -15.414  -3.512  -9.401  1.00  0.00     0.006 C 
HETATM   13  C12 UNL     1     -16.802  -4.070  -9.526  1.00  0.00     0.009 C 
ENDROOT
BRANCH   3  14
HETATM   14  O1  UNL     1     -20.070  -1.215  -9.943  1.00  0.00    -0.395 OA
ATOM     15  H1  UNL     1     -20.236  -0.402  -9.481  1.00  0.00     0.210 HD
ENDBRANCH   3  14
TORSDOF 1
ENDMDL
