MODEL 1
REMARK VINA RESULT: -6.968859691      0.000      0.000
REMARK  1 active torsions:
REMARK  status: ('A' for Active; 'I' for Inactive)
REMARK    1  A    between atoms: C14_14  and  O1_15 
ROOT
HETATM    1  C1  UNL     1     -13.902  -7.950  -9.448  1.00  0.00     0.013 C 
HETATM    2  C2  UNL     1     -14.769  -6.736  -9.555  1.00  0.00     0.017 C 
HETATM    3  C3  UNL     1     -16.247  -6.982  -9.272  1.00  0.00     0.015 C 
HETATM    4  C4  UNL     1     -16.213  -5.892  -8.198  1.00  0.00     0.029 C 
HETATM    5  C5  UNL     1     -17.020  -4.695  -8.506  1.00  0.00    -0.034 C 
HETATM    6  C6  UNL     1     -18.239  -5.170  -9.314  1.00  0.00     0.016 C 
HETATM    7  C7  UNL     1     -17.548  -4.096  -7.247  1.00  0.00     0.010 C 
HETATM    8  C8  UNL     1     -17.957  -2.686  -7.316  1.00  0.00     0.001 C 
HETATM    9  C9  UNL     1     -18.071  -2.075  -8.659  1.00  0.00     0.000 C 
HETATM   10  C10 UNL     1     -17.005  -2.451  -9.630  1.00  0.00     0.005 C 
HETATM   11  C11 UNL     1     -16.251  -3.676  -9.297  1.00  0.00    -0.006 C 
HETATM   12  C12 UNL     1     -15.012  -3.332  -8.459  1.00  0.00     0.008 C 
HETATM   13  C13 UNL     1     -14.120  -4.536  -8.586  1.00  0.00     0.039 C 
HETATM   14  C14 UNL     1     -14.768  -5.829  -8.325  1.00  0.00     0.065 C 
ENDROOT
BRANCH  14  15
HETATM   15  O1  UNL     1     -14.104  -6.516  -7.282  1.00  0.00    -0.389 OA
ATOM     16  H1  UNL     1     -13.418  -7.045  -7.672  1.00  0.00     0.210 HD
ENDBRANCH  14  15
TORSDOF 1
ENDMDL
MODEL 2
REMARK VINA RESULT: -6.876591926      1.301      2.666
REMARK  1 active torsions:
REMARK  status: ('A' for Active; 'I' for Inactive)
REMARK    1  A    between atoms: C14_14  and  O1_15 
ROOT
HETATM    1  C1  UNL     1     -13.709  -6.822  -8.761  1.00  0.00     0.013 C 
HETATM    2  C2  UNL     1     -14.573  -5.718  -8.241  1.00  0.00     0.017 C 
HETATM    3  C3  UNL     1     -14.184  -4.324  -8.721  1.00  0.00     0.015 C 
HETATM    4  C4  UNL     1     -15.605  -4.120  -9.251  1.00  0.00     0.029 C 
HETATM    5  C5  UNL     1     -16.382  -3.080  -8.550  1.00  0.00    -0.034 C 
HETATM    6  C6  UNL     1     -15.387  -1.994  -8.111  1.00  0.00     0.016 C 
HETATM    7  C7  UNL     1     -17.335  -2.429  -9.495  1.00  0.00     0.010 C 
HETATM    8  C8  UNL     1     -18.479  -1.731  -8.893  1.00  0.00     0.001 C 
HETATM    9  C9  UNL     1     -18.441  -1.497  -7.431  1.00  0.00     0.000 C 
HETATM   10  C10 UNL     1     -17.912  -2.624  -6.613  1.00  0.00     0.005 C 
HETATM   11  C11 UNL     1     -17.109  -3.620  -7.352  1.00  0.00    -0.006 C 
HETATM   12  C12 UNL     1     -18.006  -4.752  -7.872  1.00  0.00     0.008 C 
HETATM   13  C13 UNL     1     -17.058  -5.880  -8.172  1.00  0.00     0.039 C 
HETATM   14  C14 UNL     1     -15.890  -5.520  -8.990  1.00  0.00     0.065 C 
ENDROOT
BRANCH  14  15
HETATM   15  O1  UNL     1     -15.844  -6.308 -10.163  1.00  0.00    -0.389 OA
ATOM     16  H1  UNL     1     -16.698  -6.265 -10.576  1.00  0.00     0.210 HD
ENDBRANCH  14  15
TORSDOF 1
ENDMDL
MODEL 3
REMARK VINA RESULT: -6.363111631      1.895      3.616
REMARK  1 active torsions:
REMARK  status: ('A' for Active; 'I' for Inactive)
REMARK    1  A    between atoms: C14_14  and  O1_15 
ROOT
HETATM    1  C1  UNL     1     -13.914  -4.617  -8.670  1.00  0.00     0.013 C 
HETATM    2  C2  UNL     1     -15.050  -3.915  -7.996  1.00  0.00     0.017 C 
HETATM    3  C3  UNL     1     -15.042  -2.398  -8.149  1.00  0.00     0.015 C 
HETATM    4  C4  UNL     1     -16.459  -2.459  -8.725  1.00  0.00     0.029 C 
HETATM    5  C5  UNL     1     -17.497  -1.835  -7.882  1.00  0.00    -0.034 C 
HETATM    6  C6  UNL     1     -16.835  -0.651  -7.157  1.00  0.00     0.016 C 
HETATM    7  C7  UNL     1     -18.576  -1.264  -8.737  1.00  0.00     0.010 C 
HETATM    8  C8  UNL     1     -19.874  -1.035  -8.086  1.00  0.00     0.001 C 
HETATM    9  C9  UNL     1     -19.920  -1.124  -6.609  1.00  0.00     0.000 C 
HETATM   10  C10 UNL     1     -19.119  -2.225  -6.006  1.00  0.00     0.005 C 
HETATM   11  C11 UNL     1     -18.068  -2.793  -6.876  1.00  0.00    -0.006 C 
HETATM   12  C12 UNL     1     -18.620  -3.977  -7.680  1.00  0.00     0.008 C 
HETATM   13  C13 UNL     1     -17.400  -4.727  -8.139  1.00  0.00     0.039 C 
HETATM   14  C14 UNL     1     -16.361  -3.907  -8.780  1.00  0.00     0.065 C 
ENDROOT
BRANCH  14  15
HETATM   15  O1  UNL     1     -16.089  -4.381 -10.084  1.00  0.00    -0.389 OA
ATOM     16  H1  UNL     1     -16.886  -4.300 -10.595  1.00  0.00     0.210 HD
ENDBRANCH  14  15
TORSDOF 1
ENDMDL
MODEL 4
REMARK VINA RESULT: -6.321863489      2.985      4.080
REMARK  1 active torsions:
REMARK  status: ('A' for Active; 'I' for Inactive)
REMARK    1  A    between atoms: C14_14  and  O1_15 
ROOT
HETATM    1  C1  UNL     1     -13.520  -2.272  -7.652  1.00  0.00     0.013 C 
HETATM    2  C2  UNL     1     -14.952  -2.047  -8.021  1.00  0.00     0.017 C 
HETATM    3  C3  UNL     1     -15.862  -3.251  -7.803  1.00  0.00     0.015 C 
HETATM    4  C4  UNL     1     -16.775  -2.390  -6.928  1.00  0.00     0.029 C 
HETATM    5  C5  UNL     1     -18.119  -2.148  -7.487  1.00  0.00    -0.034 C 
HETATM    6  C6  UNL     1     -18.507  -3.404  -8.285  1.00  0.00     0.016 C 
HETATM    7  C7  UNL     1     -19.116  -2.017  -6.386  1.00  0.00     0.010 C 
HETATM    8  C8  UNL     1     -20.371  -1.326  -6.718  1.00  0.00     0.001 C 
HETATM    9  C9  UNL     1     -20.650  -1.075  -8.150  1.00  0.00     0.000 C 
HETATM   10  C10 UNL     1     -19.481  -0.646  -8.968  1.00  0.00     0.005 C 
HETATM   11  C11 UNL     1     -18.157  -0.943  -8.383  1.00  0.00    -0.006 C 
HETATM   12  C12 UNL     1     -17.671   0.237  -7.531  1.00  0.00     0.008 C 
HETATM   13  C13 UNL     1     -16.189   0.021  -7.393  1.00  0.00     0.039 C 
HETATM   14  C14 UNL     1     -15.787  -1.326  -6.964  1.00  0.00     0.065 C 
ENDROOT
BRANCH  14  15
HETATM   15  O1  UNL     1     -15.020  -1.262  -5.777  1.00  0.00    -0.389 OA
ATOM     16  H1  UNL     1     -14.783  -0.353  -5.633  1.00  0.00     0.210 HD
ENDBRANCH  14  15
TORSDOF 1
ENDMDL
MODEL 5
REMARK VINA RESULT: -6.166872940      3.226      4.907
REMARK  1 active torsions:
REMARK  status: ('A' for Active; 'I' for Inactive)
REMARK    1  A    between atoms: C14_14  and  O1_15 
ROOT
HETATM    1  C1  UNL     1     -14.327  -1.385  -6.728  1.00  0.00     0.013 C 
HETATM    2  C2  UNL     1     -15.822  -1.368  -6.696  1.00  0.00     0.017 C 
HETATM    3  C3  UNL     1     -16.459  -0.120  -7.298  1.00  0.00     0.015 C 
HETATM    4  C4  UNL     1     -17.277  -1.004  -8.241  1.00  0.00     0.029 C 
HETATM    5  C5  UNL     1     -18.733  -0.982  -8.003  1.00  0.00    -0.034 C 
HETATM    6  C6  UNL     1     -19.086   0.431  -7.509  1.00  0.00     0.016 C 
HETATM    7  C7  UNL     1     -19.466  -1.181  -9.286  1.00  0.00     0.010 C 
HETATM    8  C8  UNL     1     -20.855  -1.648  -9.180  1.00  0.00     0.001 C 
HETATM    9  C9  UNL     1     -21.485  -1.612  -7.840  1.00  0.00     0.000 C 
HETATM   10  C10 UNL     1     -20.611  -2.029  -6.708  1.00  0.00     0.005 C 
HETATM   11  C11 UNL     1     -19.160  -1.999  -6.984  1.00  0.00    -0.006 C 
HETATM   12  C12 UNL     1     -18.688  -3.359  -7.516  1.00  0.00     0.008 C 
HETATM   13  C13 UNL     1     -17.198  -3.350  -7.313  1.00  0.00     0.039 C 
HETATM   14  C14 UNL     1     -16.502  -2.156  -7.814  1.00  0.00     0.065 C 
ENDROOT
BRANCH  14  15
HETATM   15  O1  UNL     1     -15.510  -2.518  -8.755  1.00  0.00    -0.389 OA
ATOM     16  H1  UNL     1     -15.653  -3.426  -8.994  1.00  0.00     0.210 HD
ENDBRANCH  14  15
TORSDOF 1
ENDMDL
