MODEL 1
REMARK VINA RESULT: -6.433962629      0.000      0.000
REMARK  6 active torsions:
REMARK  status: ('A' for Active; 'I' for Inactive)
REMARK    1  A    between atoms: C2_2  and  N1_3 
REMARK    2  A    between atoms: N1_3  and  C3_5 
REMARK    3  A    between atoms: C5_9  and  O1_10 
REMARK    4  A    between atoms: O1_10  and  C6_11 
REMARK    5  A    between atoms: C8_15  and  C9_16 
REMARK    6  A    between atoms: C10_17  and  C11_18 
ROOT
HETATM    1  C3  UNL     1      21.484   1.287  57.035  1.00  0.00     0.137 A 
HETATM    2  N2  UNL     1      21.475   2.105  58.102  1.00  0.00    -0.346 N 
ATOM      3  H2  UNL     1      21.408   1.693  59.033  1.00  0.00     0.167 HD
HETATM    4  C4  UNL     1      21.551   3.453  57.993  1.00  0.00     0.145 A 
HETATM    5  C5  UNL     1      21.644   4.051  56.753  1.00  0.00     0.159 A 
HETATM    6  N3  UNL     1      21.654   3.235  55.683  1.00  0.00    -0.326 N 
ATOM      7  H3  UNL     1      21.721   3.646  54.752  1.00  0.00     0.169 HD
HETATM    8  C8  UNL     1      21.577   1.892  55.799  1.00  0.00     0.133 A 
ENDROOT
BRANCH   8   9
HETATM    9  C9  UNL     1      21.589   1.029  54.646  1.00  0.00    -0.044 C 
HETATM   10  C10 UNL     1      21.577   0.303  53.679  1.00  0.00    -0.095 C 
BRANCH  10  11
HETATM   11  C11 UNL     1      21.540  -0.591  52.507  1.00  0.00     0.057 C 
HETATM   12  C12 UNL     1      21.239   0.278  51.315  1.00  0.00     0.023 C 
HETATM   13  C13 UNL     1      20.544  -1.683  52.723  1.00  0.00     0.023 C 
ENDBRANCH  10  11
ENDBRANCH   8   9
BRANCH   1  14
HETATM   14  N1  UNL     1      21.413   0.011  57.120  1.00  0.00    -0.374 N 
ATOM     15  H1  UNL     1      22.243  -0.508  56.834  1.00  0.00     0.161 HD
BRANCH  14  16
HETATM   16  C2  UNL     1      20.316  -0.760  57.566  1.00  0.00     0.116 C 
HETATM   17  C1  UNL     1      19.624  -1.556  56.508  1.00  0.00     0.026 C 
ENDBRANCH  14  16
ENDBRANCH   1  14
BRANCH   5  18
HETATM   18  O1  UNL     1      21.722   5.433  56.663  1.00  0.00    -0.335 OA
BRANCH  18  19
HETATM   19  C6  UNL     1      20.575   6.254  56.561  1.00  0.00     0.173 C 
HETATM   20  C7  UNL     1      20.083   6.367  55.157  1.00  0.00     0.034 C 
ENDBRANCH  18  19
ENDBRANCH   5  18
TORSDOF 6
ENDMDL
MODEL 2
REMARK VINA RESULT: -6.291094666      1.432      3.591
REMARK  6 active torsions:
REMARK  status: ('A' for Active; 'I' for Inactive)
REMARK    1  A    between atoms: C2_2  and  N1_3 
REMARK    2  A    between atoms: N1_3  and  C3_5 
REMARK    3  A    between atoms: C5_9  and  O1_10 
REMARK    4  A    between atoms: O1_10  and  C6_11 
REMARK    5  A    between atoms: C8_15  and  C9_16 
REMARK    6  A    between atoms: C10_17  and  C11_18 
ROOT
HETATM    1  C3  UNL     1      21.940   1.876  55.773  1.00  0.00     0.137 A 
HETATM    2  N2  UNL     1      22.121   3.129  55.320  1.00  0.00    -0.346 N 
ATOM      3  H2  UNL     1      22.412   3.261  54.351  1.00  0.00     0.167 HD
HETATM    4  C4  UNL     1      21.932   4.224  56.095  1.00  0.00     0.145 A 
HETATM    5  C5  UNL     1      21.539   4.091  57.410  1.00  0.00     0.159 A 
HETATM    6  N3  UNL     1      21.356   2.838  57.867  1.00  0.00    -0.326 N 
ATOM      7  H3  UNL     1      21.065   2.705  58.835  1.00  0.00     0.169 HD
HETATM    8  C8  UNL     1      21.545   1.752  57.088  1.00  0.00     0.133 A 
ENDROOT
BRANCH   8   9
HETATM    9  C9  UNL     1      21.346   0.416  57.589  1.00  0.00    -0.044 C 
HETATM   10  C10 UNL     1      21.171  -0.711  57.990  1.00  0.00    -0.095 C 
BRANCH  10  11
HETATM   11  C11 UNL     1      20.938  -2.089  58.462  1.00  0.00     0.057 C 
HETATM   12  C12 UNL     1      22.229  -2.550  59.086  1.00  0.00     0.023 C 
HETATM   13  C13 UNL     1      20.474  -2.949  57.333  1.00  0.00     0.023 C 
ENDBRANCH  10  11
ENDBRANCH   8   9
BRANCH   1  14
HETATM   14  N1  UNL     1      22.112   0.831  55.053  1.00  0.00    -0.374 N 
ATOM     15  H1  UNL     1      22.895   0.230  55.311  1.00  0.00     0.161 HD
BRANCH  14  16
HETATM   16  C2  UNL     1      21.344   0.417  53.942  1.00  0.00     0.116 C 
HETATM   17  C1  UNL     1      20.570  -0.846  54.138  1.00  0.00     0.026 C 
ENDBRANCH  14  16
ENDBRANCH   1  14
BRANCH   5  18
HETATM   18  O1  UNL     1      21.351   5.225  58.188  1.00  0.00    -0.335 OA
BRANCH  18  19
HETATM   19  C6  UNL     1      21.296   6.525  57.635  1.00  0.00     0.173 C 
HETATM   20  C7  UNL     1      19.903   6.934  57.288  1.00  0.00     0.034 C 
ENDBRANCH  18  19
ENDBRANCH   5  18
TORSDOF 6
ENDMDL
MODEL 3
REMARK VINA RESULT: -6.183537077      3.237      5.653
REMARK  6 active torsions:
REMARK  status: ('A' for Active; 'I' for Inactive)
REMARK    1  A    between atoms: C2_2  and  N1_3 
REMARK    2  A    between atoms: N1_3  and  C3_5 
REMARK    3  A    between atoms: C5_9  and  O1_10 
REMARK    4  A    between atoms: O1_10  and  C6_11 
REMARK    5  A    between atoms: C8_15  and  C9_16 
REMARK    6  A    between atoms: C10_17  and  C11_18 
ROOT
HETATM    1  C3  UNL     1      20.087  -0.897  53.273  1.00  0.00     0.137 A 
HETATM    2  N2  UNL     1      19.351  -1.310  52.225  1.00  0.00    -0.346 N 
ATOM      3  H2  UNL     1      19.232  -2.313  52.077  1.00  0.00     0.167 HD
HETATM    4  C4  UNL     1      18.762  -0.452  51.359  1.00  0.00     0.145 A 
HETATM    5  C5  UNL     1      18.898   0.911  51.523  1.00  0.00     0.159 A 
HETATM    6  N3  UNL     1      19.632   1.328  52.570  1.00  0.00    -0.326 N 
ATOM      7  H3  UNL     1      19.752   2.330  52.719  1.00  0.00     0.169 HD
HETATM    8  C8  UNL     1      20.217   0.466  53.430  1.00  0.00     0.133 A 
ENDROOT
BRANCH   8   9
HETATM    9  C9  UNL     1      21.001   0.925  54.547  1.00  0.00    -0.044 C 
HETATM   10  C10 UNL     1      21.641   1.315  55.496  1.00  0.00    -0.095 C 
BRANCH  10  11
HETATM   11  C11 UNL     1      22.402   1.804  56.661  1.00  0.00     0.057 C 
HETATM   12  C12 UNL     1      21.547   1.541  57.872  1.00  0.00     0.023 C 
HETATM   13  C13 UNL     1      22.759   3.243  56.476  1.00  0.00     0.023 C 
ENDBRANCH  10  11
ENDBRANCH   8   9
BRANCH   1  14
HETATM   14  N1  UNL     1      20.650  -1.695  54.101  1.00  0.00    -0.374 N 
ATOM     15  H1  UNL     1      21.670  -1.695  54.106  1.00  0.00     0.161 HD
BRANCH  14  16
HETATM   16  C2  UNL     1      20.019  -2.576  55.008  1.00  0.00     0.116 C 
HETATM   17  C1  UNL     1      19.654  -1.979  56.328  1.00  0.00     0.026 C 
ENDBRANCH  14  16
ENDBRANCH   1  14
BRANCH   5  18
HETATM   18  O1  UNL     1      18.285   1.774  50.625  1.00  0.00    -0.335 OA
BRANCH  18  19
HETATM   19  C6  UNL     1      19.010   2.490  49.645  1.00  0.00     0.173 C 
HETATM   20  C7  UNL     1      18.591   2.133  48.258  1.00  0.00     0.034 C 
ENDBRANCH  18  19
ENDBRANCH   5  18
TORSDOF 6
ENDMDL
MODEL 4
REMARK VINA RESULT: -6.077383103      0.989      1.021
REMARK  6 active torsions:
REMARK  status: ('A' for Active; 'I' for Inactive)
REMARK    1  A    between atoms: C2_2  and  N1_3 
REMARK    2  A    between atoms: N1_3  and  C3_5 
REMARK    3  A    between atoms: C5_9  and  O1_10 
REMARK    4  A    between atoms: O1_10  and  C6_11 
REMARK    5  A    between atoms: C8_15  and  C9_16 
REMARK    6  A    between atoms: C10_17  and  C11_18 
ROOT
HETATM    1  C3  UNL     1      21.234   0.613  56.356  1.00  0.00     0.137 A 
HETATM    2  N2  UNL     1      21.179   1.239  57.545  1.00  0.00    -0.346 N 
ATOM      3  H2  UNL     1      20.876   0.709  58.363  1.00  0.00     0.167 HD
HETATM    4  C4  UNL     1      21.509   2.543  57.704  1.00  0.00     0.145 A 
HETATM    5  C5  UNL     1      21.923   3.296  56.625  1.00  0.00     0.159 A 
HETATM    6  N3  UNL     1      21.980   2.673  55.433  1.00  0.00    -0.326 N 
ATOM      7  H3  UNL     1      22.283   3.201  54.615  1.00  0.00     0.169 HD
HETATM    8  C8  UNL     1      21.650   1.372  55.283  1.00  0.00     0.133 A 
ENDROOT
BRANCH   8   9
HETATM    9  C9  UNL     1      21.715   0.716  54.002  1.00  0.00    -0.044 C 
HETATM   10  C10 UNL     1      21.787   0.178  52.922  1.00  0.00    -0.095 C 
BRANCH  10  11
HETATM   11  C11 UNL     1      21.887  -0.459  51.596  1.00  0.00     0.057 C 
HETATM   12  C12 UNL     1      20.990   0.325  50.676  1.00  0.00     0.023 C 
HETATM   13  C13 UNL     1      21.533  -1.908  51.692  1.00  0.00     0.023 C 
ENDBRANCH  10  11
ENDBRANCH   8   9
BRANCH   1  14
HETATM   14  N1  UNL     1      20.927  -0.619  56.190  1.00  0.00    -0.374 N 
ATOM     15  H1  UNL     1      21.324  -1.077  55.369  1.00  0.00     0.161 HD
BRANCH  14  16
HETATM   16  C2  UNL     1      20.100  -1.416  57.013  1.00  0.00     0.116 C 
HETATM   17  C1  UNL     1      20.479  -2.860  57.090  1.00  0.00     0.026 C 
ENDBRANCH  14  16
ENDBRANCH   1  14
BRANCH   5  18
HETATM   18  O1  UNL     1      22.257   4.630  56.807  1.00  0.00    -0.335 OA
BRANCH  18  19
HETATM   19  C6  UNL     1      21.301   5.613  57.150  1.00  0.00     0.173 C 
HETATM   20  C7  UNL     1      20.403   5.952  56.006  1.00  0.00     0.034 C 
ENDBRANCH  18  19
ENDBRANCH   5  18
TORSDOF 6
ENDMDL
MODEL 5
REMARK VINA RESULT: -5.904773692      2.536      5.387
REMARK  6 active torsions:
REMARK  status: ('A' for Active; 'I' for Inactive)
REMARK    1  A    between atoms: C2_2  and  N1_3 
REMARK    2  A    between atoms: N1_3  and  C3_5 
REMARK    3  A    between atoms: C5_9  and  O1_10 
REMARK    4  A    between atoms: O1_10  and  C6_11 
REMARK    5  A    between atoms: C8_15  and  C9_16 
REMARK    6  A    between atoms: C10_17  and  C11_18 
ROOT
HETATM    1  C3  UNL     1      20.872  -0.468  55.244  1.00  0.00     0.137 A 
HETATM    2  N2  UNL     1      20.477  -1.508  54.488  1.00  0.00    -0.346 N 
ATOM      3  H2  UNL     1      20.462  -2.438  54.906  1.00  0.00     0.167 HD
HETATM    4  C4  UNL     1      20.098  -1.372  53.194  1.00  0.00     0.145 A 
HETATM    5  C5  UNL     1      20.104  -0.132  52.590  1.00  0.00     0.159 A 
HETATM    6  N3  UNL     1      20.498   0.911  53.344  1.00  0.00    -0.326 N 
ATOM      7  H3  UNL     1      20.513   1.841  52.927  1.00  0.00     0.169 HD
HETATM    8  C8  UNL     1      20.873   0.768  54.633  1.00  0.00     0.133 A 
ENDROOT
BRANCH   8   9
HETATM    9  C9  UNL     1      21.293   1.892  55.430  1.00  0.00    -0.044 C 
HETATM   10  C10 UNL     1      21.633   2.828  56.115  1.00  0.00    -0.095 C 
BRANCH  10  11
HETATM   11  C11 UNL     1      22.027   3.967  56.965  1.00  0.00     0.057 C 
HETATM   12  C12 UNL     1      21.746   3.557  58.386  1.00  0.00     0.023 C 
HETATM   13  C13 UNL     1      21.304   5.203  56.540  1.00  0.00     0.023 C 
ENDBRANCH  10  11
ENDBRANCH   8   9
BRANCH   1  14
HETATM   14  N1  UNL     1      21.232  -0.579  56.468  1.00  0.00    -0.374 N 
ATOM     15  H1  UNL     1      22.220  -0.420  56.664  1.00  0.00     0.161 HD
BRANCH  14  16
HETATM   16  C2  UNL     1      20.417  -0.898  57.577  1.00  0.00     0.116 C 
HETATM   17  C1  UNL     1      20.481   0.068  58.715  1.00  0.00     0.026 C 
ENDBRANCH  14  16
ENDBRANCH   1  14
BRANCH   5  18
HETATM   18  O1  UNL     1      19.712  -0.014  51.264  1.00  0.00    -0.335 OA
BRANCH  18  19
HETATM   19  C6  UNL     1      20.133   1.054  50.440  1.00  0.00     0.173 C 
HETATM   20  C7  UNL     1      19.055   2.065  50.230  1.00  0.00     0.034 C 
ENDBRANCH  18  19
ENDBRANCH   5  18
TORSDOF 6
ENDMDL
