MODEL 1
REMARK VINA RESULT: -8.689461774      0.000      0.000
REMARK  11 active torsions:
REMARK  status: ('A' for Active; 'I' for Inactive)
REMARK    1  A    between atoms: N1_2  and  C2_5 
REMARK       I    between atoms: N2_9  and  C6_10 
REMARK    2  A    between atoms: C6_10  and  C7_12 
REMARK    3  A    between atoms: C7_12  and  C8_13 
REMARK    4  A    between atoms: C8_13  and  C9_14 
REMARK    5  A    between atoms: C9_14  and  C10_15 
REMARK    6  A    between atoms: C10_15  and  C11_16 
REMARK    7  A    between atoms: C11_16  and  N3_17 
REMARK    8  A    between atoms: C13_22  and  C14_23 
REMARK    9  A    between atoms: C14_23  and  C15_24 
REMARK   10  A    between atoms: C16_25  and  C17_26 
REMARK   11  A    between atoms: C19_33  and  O3_34 
ROOT
HETATM    1  N3  UNL     1      12.999  38.227  -6.940  1.00  0.00    -0.356 N 
ATOM      2  H3  UNL     1      13.605  37.889  -6.192  1.00  0.00     0.163 HD
HETATM    3  C12 UNL     1      13.393  38.088  -8.155  1.00  0.00     0.215 C 
HETATM    4  N4  UNL     1      12.698  38.491  -9.326  1.00  0.00    -0.349 N 
ATOM      5  H4  UNL     1      11.924  39.153  -9.374  1.00  0.00     0.163 HD
HETATM    6  C13 UNL     1      13.294  37.790 -10.435  1.00  0.00     0.112 C 
HETATM    7  C20 UNL     1      14.397  36.974  -9.864  1.00  0.00     0.204 C 
HETATM    8  O4  UNL     1      14.609  37.500  -8.567  1.00  0.00    -0.320 OA
ENDROOT
BRANCH   1   9
HETATM    9  C11 UNL     1      11.753  38.831  -6.585  1.00  0.00     0.123 C 
BRANCH   9  10
HETATM   10  C10 UNL     1      11.202  38.451  -5.243  1.00  0.00     0.020 C 
BRANCH  10  11
HETATM   11  C9  UNL     1       9.907  39.049  -4.864  1.00  0.00     0.002 C 
BRANCH  11  12
HETATM   12  C8  UNL     1       9.134  38.435  -3.762  1.00  0.00     0.009 C 
BRANCH  12  13
HETATM   13  C7  UNL     1       9.909  37.691  -2.731  1.00  0.00     0.103 C 
BRANCH  13  14
HETATM   14  C6  UNL     1       9.099  37.074  -1.661  1.00  0.00     0.221 C 
HETATM   15  N2  UNL     1       9.116  37.583  -0.343  1.00  0.00    -0.324 N 
HETATM   16  C2  UNL     1       9.889  38.716   0.126  1.00  0.00     0.288 C 
HETATM   17  C5  UNL     1       8.352  37.048   0.762  1.00  0.00     0.128 C 
HETATM   18  C3  UNL     1       9.654  38.812   1.616  1.00  0.00     0.056 C 
HETATM   19  C4  UNL     1       8.271  38.213   1.758  1.00  0.00     0.024 C 
HETATM   20  O1  UNL     1       8.384  36.085  -1.924  1.00  0.00    -0.273 OA
BRANCH  16  21
HETATM   21  N1  UNL     1       9.341  39.934  -0.475  1.00  0.00    -0.058 N 
HETATM   22  C1  UNL     1      10.342  40.938  -0.676  1.00  0.00     0.269 C 
ATOM     23  H12 UNL     1       8.560  40.296   0.072  1.00  0.00     0.279 HD
ATOM     24  H11 UNL     1       8.847  39.726  -1.343  1.00  0.00     0.279 HD
ENDBRANCH  16  21
ENDBRANCH  13  14
ENDBRANCH  12  13
ENDBRANCH  11  12
ENDBRANCH  10  11
ENDBRANCH   9  10
ENDBRANCH   1   9
BRANCH   6  25
HETATM   25  C14 UNL     1      13.775  38.812 -11.445  1.00  0.00     0.054 C 
BRANCH  25  26
HETATM   26  C15 UNL     1      14.450  38.130 -12.600  1.00  0.00    -0.022 C 
HETATM   27  C16 UNL     1      13.760  37.281 -13.309  1.00  0.00     0.030 C 
BRANCH  27  28
HETATM   28  C17 UNL     1      14.266  36.542 -14.452  1.00  0.00     0.087 A 
HETATM   29  N5  UNL     1      15.564  36.588 -14.851  1.00  0.00    -0.305 N 
HETATM   30  C18 UNL     1      15.745  35.813 -15.927  1.00  0.00     0.326 A 
ATOM     31  H5  UNL     1      16.295  37.133 -14.395  1.00  0.00     0.171 HD
HETATM   32  O2  UNL     1      16.833  35.618 -16.565  1.00  0.00    -0.247 OA
HETATM   33  N6  UNL     1      14.567  35.258 -16.232  1.00  0.00    -0.287 N 
HETATM   34  C19 UNL     1      13.656  35.696 -15.338  1.00  0.00     0.171 A 
ATOM     35  H6  UNL     1      14.388  34.617 -17.005  1.00  0.00     0.172 HD
BRANCH  34  36
HETATM   36  O3  UNL     1      12.301  35.351 -15.310  1.00  0.00    -0.344 OA
ATOM     37  H3  UNL     1      11.746  35.270 -16.076  1.00  0.00     0.219 HD
ENDBRANCH  34  36
ENDBRANCH  27  28
ENDBRANCH  25  26
ENDBRANCH   6  25
TORSDOF 11
ENDMDL
MODEL 2
REMARK VINA RESULT: -8.206483074      2.888     12.173
REMARK  11 active torsions:
REMARK  status: ('A' for Active; 'I' for Inactive)
REMARK    1  A    between atoms: N1_2  and  C2_5 
REMARK       I    between atoms: N2_9  and  C6_10 
REMARK    2  A    between atoms: C6_10  and  C7_12 
REMARK    3  A    between atoms: C7_12  and  C8_13 
REMARK    4  A    between atoms: C8_13  and  C9_14 
REMARK    5  A    between atoms: C9_14  and  C10_15 
REMARK    6  A    between atoms: C10_15  and  C11_16 
REMARK    7  A    between atoms: C11_16  and  N3_17 
REMARK    8  A    between atoms: C13_22  and  C14_23 
REMARK    9  A    between atoms: C14_23  and  C15_24 
REMARK   10  A    between atoms: C16_25  and  C17_26 
REMARK   11  A    between atoms: C19_33  and  O3_34 
ROOT
HETATM    1  N3  UNL     1      14.811  38.531  -9.982  1.00  0.00    -0.356 N 
ATOM      2  H3  UNL     1      15.801  38.500 -10.224  1.00  0.00     0.163 HD
HETATM    3  C12 UNL     1      14.287  39.669  -9.695  1.00  0.00     0.215 C 
HETATM    4  N4  UNL     1      12.937  39.919  -9.335  1.00  0.00    -0.349 N 
ATOM      5  H4  UNL     1      12.257  39.228  -9.017  1.00  0.00     0.163 HD
HETATM    6  C13 UNL     1      12.707  41.331  -9.504  1.00  0.00     0.112 C 
HETATM    7  C20 UNL     1      13.999  41.910  -9.953  1.00  0.00     0.204 C 
HETATM    8  O4  UNL     1      14.964  40.909  -9.682  1.00  0.00    -0.320 OA
ENDROOT
BRANCH   1   9
HETATM    9  C11 UNL     1      14.072  37.307  -9.979  1.00  0.00     0.123 C 
BRANCH   9  10
HETATM   10  C10 UNL     1      13.262  37.030 -11.210  1.00  0.00     0.020 C 
BRANCH  10  11
HETATM   11  C9  UNL     1      13.744  35.950 -12.093  1.00  0.00     0.002 C 
BRANCH  11  12
HETATM   12  C8  UNL     1      13.182  35.840 -13.457  1.00  0.00     0.009 C 
BRANCH  12  13
HETATM   13  C7  UNL     1      13.855  36.629 -14.526  1.00  0.00     0.103 C 
BRANCH  13  14
HETATM   14  C6  UNL     1      14.437  35.830 -15.624  1.00  0.00     0.221 C 
HETATM   15  N2  UNL     1      15.817  35.886 -15.919  1.00  0.00    -0.324 N 
HETATM   16  C2  UNL     1      16.807  36.692 -15.231  1.00  0.00     0.288 C 
HETATM   17  C5  UNL     1      16.471  35.136 -16.967  1.00  0.00     0.128 C 
HETATM   18  C3  UNL     1      18.113  36.490 -15.965  1.00  0.00     0.056 C 
HETATM   19  C4  UNL     1      17.944  35.099 -16.537  1.00  0.00     0.024 C 
HETATM   20  O1  UNL     1      13.697  35.091 -16.305  1.00  0.00    -0.273 OA
BRANCH  16  21
HETATM   21  N1  UNL     1      16.986  36.155 -13.880  1.00  0.00    -0.058 N 
HETATM   22  C1  UNL     1      17.141  37.189 -12.902  1.00  0.00     0.269 C 
ATOM     23  H12 UNL     1      17.762  35.494 -13.845  1.00  0.00     0.279 HD
ATOM     24  H11 UNL     1      16.225  35.523 -13.631  1.00  0.00     0.279 HD
ENDBRANCH  16  21
ENDBRANCH  13  14
ENDBRANCH  12  13
ENDBRANCH  11  12
ENDBRANCH  10  11
ENDBRANCH   9  10
ENDBRANCH   1   9
BRANCH   6  25
HETATM   25  C14 UNL     1      12.230  41.899  -8.182  1.00  0.00     0.054 C 
BRANCH  25  26
HETATM   26  C15 UNL     1      11.337  40.916  -7.481  1.00  0.00    -0.022 C 
HETATM   27  C16 UNL     1      11.457  40.778  -6.190  1.00  0.00     0.030 C 
BRANCH  27  28
HETATM   28  C17 UNL     1      10.671  39.873  -5.371  1.00  0.00     0.087 A 
HETATM   29  N5  UNL     1       9.628  40.282  -4.603  1.00  0.00    -0.305 N 
HETATM   30  C18 UNL     1       9.091  39.240  -3.957  1.00  0.00     0.326 A 
ATOM     31  H5  UNL     1       9.301  41.245  -4.528  1.00  0.00     0.171 HD
HETATM   32  O2  UNL     1       8.100  39.256  -3.153  1.00  0.00    -0.247 OA
HETATM   33  N6  UNL     1       9.780  38.148  -4.304  1.00  0.00    -0.287 N 
HETATM   34  C19 UNL     1      10.747  38.522  -5.167  1.00  0.00     0.171 A 
ATOM     35  H6  UNL     1       9.605  37.198  -3.974  1.00  0.00     0.172 HD
BRANCH  34  36
HETATM   36  O3  UNL     1      11.687  37.676  -5.765  1.00  0.00    -0.344 OA
ATOM     37  H3  UNL     1      12.476  37.358  -5.344  1.00  0.00     0.219 HD
ENDBRANCH  34  36
ENDBRANCH  27  28
ENDBRANCH  25  26
ENDBRANCH   6  25
TORSDOF 11
ENDMDL
MODEL 3
REMARK VINA RESULT: -8.199595307      3.265     12.106
REMARK  11 active torsions:
REMARK  status: ('A' for Active; 'I' for Inactive)
REMARK    1  A    between atoms: N1_2  and  C2_5 
REMARK       I    between atoms: N2_9  and  C6_10 
REMARK    2  A    between atoms: C6_10  and  C7_12 
REMARK    3  A    between atoms: C7_12  and  C8_13 
REMARK    4  A    between atoms: C8_13  and  C9_14 
REMARK    5  A    between atoms: C9_14  and  C10_15 
REMARK    6  A    between atoms: C10_15  and  C11_16 
REMARK    7  A    between atoms: C11_16  and  N3_17 
REMARK    8  A    between atoms: C13_22  and  C14_23 
REMARK    9  A    between atoms: C14_23  and  C15_24 
REMARK   10  A    between atoms: C16_25  and  C17_26 
REMARK   11  A    between atoms: C19_33  and  O3_34 
ROOT
HETATM    1  N3  UNL     1      10.322  38.453  -5.149  1.00  0.00    -0.356 N 
ATOM      2  H3  UNL     1       9.643  37.989  -5.753  1.00  0.00     0.163 HD
HETATM    3  C12 UNL     1      10.127  38.429  -3.879  1.00  0.00     0.215 C 
HETATM    4  N4  UNL     1      10.950  39.013  -2.880  1.00  0.00    -0.349 N 
ATOM      5  H4  UNL     1      11.662  39.728  -3.024  1.00  0.00     0.163 HD
HETATM    6  C13 UNL     1      10.590  38.404  -1.625  1.00  0.00     0.112 C 
HETATM    7  C20 UNL     1       9.490  37.452  -1.927  1.00  0.00     0.204 C 
HETATM    8  O4  UNL     1       9.041  37.808  -3.222  1.00  0.00    -0.320 OA
ENDROOT
BRANCH   1   9
HETATM    9  C11 UNL     1      11.443  39.098  -5.757  1.00  0.00     0.123 C 
BRANCH   9  10
HETATM   10  C10 UNL     1      11.182  40.459  -6.330  1.00  0.00     0.020 C 
BRANCH  10  11
HETATM   11  C9  UNL     1      12.276  41.073  -7.108  1.00  0.00     0.002 C 
BRANCH  11  12
HETATM   12  C8  UNL     1      12.292  40.896  -8.577  1.00  0.00     0.009 C 
BRANCH  12  13
HETATM   13  C7  UNL     1      13.425  40.115  -9.147  1.00  0.00     0.103 C 
BRANCH  13  14
HETATM   14  C6  UNL     1      13.089  38.741  -9.572  1.00  0.00     0.221 C 
HETATM   15  N2  UNL     1      13.439  38.264 -10.854  1.00  0.00    -0.324 N 
HETATM   16  C2  UNL     1      14.135  39.010 -11.883  1.00  0.00     0.288 C 
HETATM   17  C5  UNL     1      13.157  36.935 -11.349  1.00  0.00     0.128 C 
HETATM   18  C3  UNL     1      14.192  38.116 -13.102  1.00  0.00     0.056 C 
HETATM   19  C4  UNL     1      14.173  36.735 -12.482  1.00  0.00     0.024 C 
HETATM   20  O1  UNL     1      12.484  37.985  -8.783  1.00  0.00    -0.273 OA
BRANCH  16  21
HETATM   21  N1  UNL     1      15.516  39.229 -11.446  1.00  0.00    -0.058 N 
HETATM   22  C1  UNL     1      16.025  40.497 -11.872  1.00  0.00     0.269 C 
ATOM     23  H12 UNL     1      16.124  38.467 -11.748  1.00  0.00     0.279 HD
ATOM     24  H11 UNL     1      15.605  39.116 -10.436  1.00  0.00     0.279 HD
ENDBRANCH  16  21
ENDBRANCH  13  14
ENDBRANCH  12  13
ENDBRANCH  11  12
ENDBRANCH  10  11
ENDBRANCH   9  10
ENDBRANCH   1   9
BRANCH   6  25
HETATM   25  C14 UNL     1      10.177  39.500  -0.663  1.00  0.00     0.054 C 
BRANCH  25  26
HETATM   26  C15 UNL     1       9.271  40.483  -1.348  1.00  0.00    -0.022 C 
HETATM   27  C16 UNL     1       9.368  41.744  -1.029  1.00  0.00     0.030 C 
BRANCH  27  28
HETATM   28  C17 UNL     1       8.567  42.813  -1.597  1.00  0.00     0.087 A 
HETATM   29  N5  UNL     1       7.825  43.666  -0.844  1.00  0.00    -0.305 N 
HETATM   30  C18 UNL     1       7.192  44.546  -1.629  1.00  0.00     0.326 A 
ATOM     31  H5  UNL     1       7.759  43.639   0.173  1.00  0.00     0.171 HD
HETATM   32  O2  UNL     1       6.412  45.487  -1.263  1.00  0.00    -0.247 OA
HETATM   33  N6  UNL     1       7.521  44.272  -2.895  1.00  0.00    -0.287 N 
HETATM   34  C19 UNL     1       8.361  43.215  -2.888  1.00  0.00     0.171 A 
ATOM     35  H6  UNL     1       7.195  44.773  -3.722  1.00  0.00     0.172 HD
BRANCH  34  36
HETATM   36  O3  UNL     1       8.935  42.615  -4.014  1.00  0.00    -0.344 OA
ATOM     37  H3  UNL     1       8.683  41.770  -4.366  1.00  0.00     0.219 HD
ENDBRANCH  34  36
ENDBRANCH  27  28
ENDBRANCH  25  26
ENDBRANCH   6  25
TORSDOF 11
ENDMDL
MODEL 4
REMARK VINA RESULT: -8.194841844      4.233      7.175
REMARK  11 active torsions:
REMARK  status: ('A' for Active; 'I' for Inactive)
REMARK    1  A    between atoms: N1_2  and  C2_5 
REMARK       I    between atoms: N2_9  and  C6_10 
REMARK    2  A    between atoms: C6_10  and  C7_12 
REMARK    3  A    between atoms: C7_12  and  C8_13 
REMARK    4  A    between atoms: C8_13  and  C9_14 
REMARK    5  A    between atoms: C9_14  and  C10_15 
REMARK    6  A    between atoms: C10_15  and  C11_16 
REMARK    7  A    between atoms: C11_16  and  N3_17 
REMARK    8  A    between atoms: C13_22  and  C14_23 
REMARK    9  A    between atoms: C14_23  and  C15_24 
REMARK   10  A    between atoms: C16_25  and  C17_26 
REMARK   11  A    between atoms: C19_33  and  O3_34 
ROOT
HETATM    1  N3  UNL     1      12.766  38.208  -6.949  1.00  0.00    -0.356 N 
ATOM      2  H3  UNL     1      13.371  37.967  -6.164  1.00  0.00     0.163 HD
HETATM    3  C12 UNL     1      13.231  38.079  -8.140  1.00  0.00     0.215 C 
HETATM    4  N4  UNL     1      12.552  38.362  -9.355  1.00  0.00    -0.349 N 
ATOM      5  H4  UNL     1      11.709  38.926  -9.460  1.00  0.00     0.163 HD
HETATM    6  C13 UNL     1      13.277  37.701 -10.410  1.00  0.00     0.112 C 
HETATM    7  C20 UNL     1      14.438  37.038  -9.762  1.00  0.00     0.204 C 
HETATM    8  O4  UNL     1      14.526  37.626  -8.477  1.00  0.00    -0.320 OA
ENDROOT
BRANCH   1   9
HETATM    9  C11 UNL     1      11.444  38.673  -6.671  1.00  0.00     0.123 C 
BRANCH   9  10
HETATM   10  C10 UNL     1      11.349  40.011  -6.002  1.00  0.00     0.020 C 
BRANCH  10  11
HETATM   11  C9  UNL     1      11.626  41.194  -6.841  1.00  0.00     0.002 C 
BRANCH  11  12
HETATM   12  C8  UNL     1      12.952  41.842  -6.742  1.00  0.00     0.009 C 
BRANCH  12  13
HETATM   13  C7  UNL     1      13.166  43.063  -7.568  1.00  0.00     0.103 C 
BRANCH  13  14
HETATM   14  C6  UNL     1      14.377  43.841  -7.236  1.00  0.00     0.221 C 
HETATM   15  N2  UNL     1      15.528  43.789  -8.052  1.00  0.00    -0.324 N 
HETATM   16  C2  UNL     1      15.684  43.006  -9.262  1.00  0.00     0.288 C 
HETATM   17  C5  UNL     1      16.751  44.520  -7.807  1.00  0.00     0.128 C 
HETATM   18  C3  UNL     1      17.112  43.200  -9.721  1.00  0.00     0.056 C 
HETATM   19  C4  UNL     1      17.434  44.577  -9.180  1.00  0.00     0.024 C 
HETATM   20  O1  UNL     1      14.384  44.560  -6.215  1.00  0.00    -0.273 OA
BRANCH  16  21
HETATM   21  N1  UNL     1      14.818  43.574 -10.298  1.00  0.00    -0.058 N 
HETATM   22  C1  UNL     1      14.535  42.637 -11.342  1.00  0.00     0.269 C 
ATOM     23  H12 UNL     1      15.210  44.437 -10.674  1.00  0.00     0.279 HD
ATOM     24  H11 UNL     1      13.959  43.949  -9.896  1.00  0.00     0.279 HD
ENDBRANCH  16  21
ENDBRANCH  13  14
ENDBRANCH  12  13
ENDBRANCH  11  12
ENDBRANCH  10  11
ENDBRANCH   9  10
ENDBRANCH   1   9
BRANCH   6  25
HETATM   25  C14 UNL     1      13.684  38.742 -11.434  1.00  0.00     0.054 C 
BRANCH  25  26
HETATM   26  C15 UNL     1      14.385  38.090 -12.592  1.00  0.00    -0.022 C 
HETATM   27  C16 UNL     1      13.746  37.178 -13.271  1.00  0.00     0.030 C 
BRANCH  27  28
HETATM   28  C17 UNL     1      14.282  36.458 -14.412  1.00  0.00     0.087 A 
HETATM   29  N5  UNL     1      15.602  36.454 -14.734  1.00  0.00    -0.305 N 
HETATM   30  C18 UNL     1      15.809  35.711 -15.829  1.00  0.00     0.326 A 
ATOM     31  H5  UNL     1      16.330  36.945 -14.216  1.00  0.00     0.171 HD
HETATM   32  O2  UNL     1      16.922  35.487 -16.411  1.00  0.00    -0.247 OA
HETATM   33  N6  UNL     1      14.627  35.228 -16.222  1.00  0.00    -0.287 N 
HETATM   34  C19 UNL     1      13.687  35.677 -15.364  1.00  0.00     0.171 A 
ATOM     35  H6  UNL     1      14.463  34.625 -17.029  1.00  0.00     0.172 HD
BRANCH  34  36
HETATM   36  O3  UNL     1      12.317  35.398 -15.426  1.00  0.00    -0.344 OA
ATOM     37  H3  UNL     1      11.840  35.198 -16.223  1.00  0.00     0.219 HD
ENDBRANCH  34  36
ENDBRANCH  27  28
ENDBRANCH  25  26
ENDBRANCH   6  25
TORSDOF 11
ENDMDL
MODEL 5
REMARK VINA RESULT: -8.155740716      4.209      5.665
REMARK  11 active torsions:
REMARK  status: ('A' for Active; 'I' for Inactive)
REMARK    1  A    between atoms: N1_2  and  C2_5 
REMARK       I    between atoms: N2_9  and  C6_10 
REMARK    2  A    between atoms: C6_10  and  C7_12 
REMARK    3  A    between atoms: C7_12  and  C8_13 
REMARK    4  A    between atoms: C8_13  and  C9_14 
REMARK    5  A    between atoms: C9_14  and  C10_15 
REMARK    6  A    between atoms: C10_15  and  C11_16 
REMARK    7  A    between atoms: C11_16  and  N3_17 
REMARK    8  A    between atoms: C13_22  and  C14_23 
REMARK    9  A    between atoms: C14_23  and  C15_24 
REMARK   10  A    between atoms: C16_25  and  C17_26 
REMARK   11  A    between atoms: C19_33  and  O3_34 
ROOT
HETATM    1  N3  UNL     1      10.895  40.356  -5.429  1.00  0.00    -0.356 N 
ATOM      2  H3  UNL     1      10.402  41.062  -4.882  1.00  0.00     0.163 HD
HETATM    3  C12 UNL     1      11.613  40.742  -6.422  1.00  0.00     0.215 C 
HETATM    4  N4  UNL     1      12.368  39.919  -7.298  1.00  0.00    -0.349 N 
ATOM      5  H4  UNL     1      12.263  38.912  -7.424  1.00  0.00     0.163 HD
HETATM    6  C13 UNL     1      13.311  40.773  -7.975  1.00  0.00     0.112 C 
HETATM    7  C20 UNL     1      13.055  42.149  -7.478  1.00  0.00     0.204 C 
HETATM    8  O4  UNL     1      11.791  42.079  -6.841  1.00  0.00    -0.320 OA
ENDROOT
BRANCH   1   9
HETATM    9  C11 UNL     1      10.753  38.984  -5.052  1.00  0.00     0.123 C 
BRANCH   9  10
HETATM   10  C10 UNL     1      10.017  38.732  -3.770  1.00  0.00     0.020 C 
BRANCH  10  11
HETATM   11  C9  UNL     1       8.660  39.300  -3.661  1.00  0.00     0.002 C 
BRANCH  11  12
HETATM   12  C8  UNL     1       8.490  40.621  -3.017  1.00  0.00     0.009 C 
BRANCH  12  13
HETATM   13  C7  UNL     1       7.416  41.499  -3.559  1.00  0.00     0.103 C 
BRANCH  13  14
HETATM   14  C6  UNL     1       7.835  42.406  -4.647  1.00  0.00     0.221 C 
HETATM   15  N2  UNL     1       6.891  43.159  -5.378  1.00  0.00    -0.324 N 
HETATM   16  C2  UNL     1       5.455  43.150  -5.185  1.00  0.00     0.288 C 
HETATM   17  C5  UNL     1       7.212  44.074  -6.451  1.00  0.00     0.128 C 
HETATM   18  C3  UNL     1       4.867  44.034  -6.262  1.00  0.00     0.056 C 
HETATM   19  C4  UNL     1       5.996  45.008  -6.523  1.00  0.00     0.024 C 
HETATM   20  O1  UNL     1       9.048  42.511  -4.925  1.00  0.00    -0.273 OA
BRANCH  16  21
HETATM   21  N1  UNL     1       5.155  43.784  -3.898  1.00  0.00    -0.058 N 
HETATM   22  C1  UNL     1       3.933  43.301  -3.328  1.00  0.00     0.269 C 
ATOM     23  H12 UNL     1       5.147  44.800  -3.980  1.00  0.00     0.279 HD
ATOM     24  H11 UNL     1       5.932  43.679  -3.246  1.00  0.00     0.279 HD
ENDBRANCH  16  21
ENDBRANCH  13  14
ENDBRANCH  12  13
ENDBRANCH  11  12
ENDBRANCH  10  11
ENDBRANCH   9  10
ENDBRANCH   1   9
BRANCH   6  25
HETATM   25  C14 UNL     1      13.096  40.632  -9.469  1.00  0.00     0.054 C 
BRANCH  25  26
HETATM   26  C15 UNL     1      13.285  39.204  -9.893  1.00  0.00    -0.022 C 
HETATM   27  C16 UNL     1      13.846  38.968 -11.046  1.00  0.00     0.030 C 
BRANCH  27  28
HETATM   28  C17 UNL     1      14.098  37.648 -11.597  1.00  0.00     0.087 A 
HETATM   29  N5  UNL     1      13.163  36.663 -11.622  1.00  0.00    -0.305 N 
HETATM   30  C18 UNL     1      13.670  35.558 -12.184  1.00  0.00     0.326 A 
ATOM     31  H5  UNL     1      12.212  36.751 -11.264  1.00  0.00     0.171 HD
HETATM   32  O2  UNL     1      13.076  34.444 -12.372  1.00  0.00    -0.247 OA
HETATM   33  N6  UNL     1      14.934  35.821 -12.530  1.00  0.00    -0.287 N 
HETATM   34  C19 UNL     1      15.207  37.095 -12.176  1.00  0.00     0.171 A 
ATOM     35  H6  UNL     1      15.580  35.173 -12.981  1.00  0.00     0.172 HD
BRANCH  34  36
HETATM   36  O3  UNL     1      16.425  37.756 -12.364  1.00  0.00    -0.344 OA
ATOM     37  H3  UNL     1      17.266  37.444 -12.051  1.00  0.00     0.219 HD
ENDBRANCH  34  36
ENDBRANCH  27  28
ENDBRANCH  25  26
ENDBRANCH   6  25
TORSDOF 11
ENDMDL
