MODEL 1
REMARK VINA RESULT: -7.842403244      0.000      0.000
REMARK  14 active torsions:
REMARK  status: ('A' for Active; 'I' for Inactive)
REMARK    1  A    between atoms: C2_2  and  C3_3 
REMARK    2  A    between atoms: C3_3  and  C4_4 
REMARK    3  A    between atoms: C4_4  and  C5_5 
REMARK    4  A    between atoms: C5_5  and  C6_6 
REMARK    5  A    between atoms: C6_6  and  C7_7 
REMARK    6  A    between atoms: C7_7  and  N1_8 
REMARK       I    between atoms: N1_8  and  C8_10 
REMARK       I    between atoms: C8_10  and  N2_11 
REMARK    7  A    between atoms: N2_11  and  C9_13 
REMARK    8  A    between atoms: C9_13  and  C10_14 
REMARK    9  A    between atoms: C11_15  and  O1_16 
REMARK   10  A    between atoms: N4_21  and  C13_23 
REMARK   11  A    between atoms: C13_23  and  C14_24 
REMARK   12  A    between atoms: C14_24  and  C15_25 
REMARK   13  A    between atoms: C15_25  and  C16_26 
REMARK   14  A    between atoms: C16_26  and  N5_27 
ROOT
HETATM    1  N1  UNL     1       8.284  41.163  -3.539  1.00  0.00    -0.225 N 
ATOM      2  H1  UNL     1       7.509  41.130  -4.203  1.00  0.00     0.177 HD
HETATM    3  C8  UNL     1       8.986  39.981  -3.243  1.00  0.00     0.686 C 
HETATM    4  N2  UNL     1      10.118  39.698  -4.091  1.00  0.00    -0.200 N 
ATOM      5  H2  UNL     1      11.060  39.741  -3.702  1.00  0.00     0.183 HD
HETATM    6  N7  UNL     1       8.730  39.151  -2.326  1.00  0.00    -0.126 N 
ATOM      7  H7  UNL     1       7.928  39.343  -1.724  1.00  0.00     0.197 HD
HETATM    8  C19 UNL     1       9.462  37.991  -2.074  1.00  0.00     0.196 C 
HETATM    9  N8  UNL     1      10.088  37.025  -1.878  1.00  0.00    -0.171 NA
ENDROOT
BRANCH   1  10
HETATM   10  C7  UNL     1       8.631  42.408  -2.932  1.00  0.00     0.138 C 
BRANCH  10  11
HETATM   11  C6  UNL     1       8.463  42.492  -1.477  1.00  0.00     0.020 C 
BRANCH  11  12
HETATM   12  C5  UNL     1       7.551  43.500  -0.879  1.00  0.00     0.002 C 
BRANCH  12  13
HETATM   13  C4  UNL     1       8.059  44.887  -0.856  1.00  0.00     0.000 C 
BRANCH  13  14
HETATM   14  C3  UNL     1       7.273  45.771   0.121  1.00  0.00    -0.000 C 
BRANCH  14  15
HETATM   15  C2  UNL     1       6.336  44.968   0.961  1.00  0.00    -0.005 C 
HETATM   16  C1  UNL     1       4.979  45.684   1.006  1.00  0.00     0.005 C 
ENDBRANCH  14  15
ENDBRANCH  13  14
ENDBRANCH  12  13
ENDBRANCH  11  12
ENDBRANCH  10  11
ENDBRANCH   1  10
BRANCH   4  17
HETATM   17  C9  UNL     1       9.957  39.391  -5.331  1.00  0.00     0.127 C 
BRANCH  17  18
HETATM   18  C10 UNL     1      11.087  39.583  -6.229  1.00  0.00     0.099 C 
HETATM   19  C11 UNL     1      11.901  38.501  -6.492  1.00  0.00     0.159 C 
HETATM   20  N3  UNL     1      12.896  38.387  -7.427  1.00  0.00    -0.318 N 
HETATM   21  C12 UNL     1      13.124  39.147  -8.510  1.00  0.00     0.172 C 
ATOM     22  H3  UNL     1      13.552  37.621  -7.280  1.00  0.00     0.169 HD
HETATM   23  N4  UNL     1      13.893  38.688  -9.418  1.00  0.00    -0.372 N 
HETATM   24  C17 UNL     1      12.610  40.399  -8.759  1.00  0.00     0.292 C 
ATOM     25  H4  UNL     1      14.084  39.245 -10.251  1.00  0.00     0.161 HD
HETATM   26  O2  UNL     1      12.841  40.814  -9.923  1.00  0.00    -0.264 OA
HETATM   27  N6  UNL     1      11.911  41.194  -7.915  1.00  0.00    -0.286 N 
HETATM   28  C18 UNL     1      11.263  40.853  -6.763  1.00  0.00     0.264 C 
ATOM     29  H6  UNL     1      11.863  42.179  -8.174  1.00  0.00     0.172 HD
HETATM   30  O3  UNL     1      10.755  41.759  -6.079  1.00  0.00    -0.267 OA
BRANCH  19  31
HETATM   31  O1  UNL     1      11.673  37.398  -5.705  1.00  0.00    -0.345 OA
ATOM     32  H1  UNL     1      12.455  36.965  -5.384  1.00  0.00     0.219 HD
ENDBRANCH  19  31
BRANCH  23  33
HETATM   33  C13 UNL     1      14.490  37.391  -9.274  1.00  0.00     0.121 C 
BRANCH  33  34
HETATM   34  C14 UNL     1      14.563  36.710 -10.638  1.00  0.00     0.021 C 
BRANCH  34  35
HETATM   35  C15 UNL     1      13.262  36.911 -11.381  1.00  0.00     0.029 C 
BRANCH  35  36
HETATM   36  C16 UNL     1      13.351  36.079 -12.648  1.00  0.00     0.229 C 
BRANCH  36  37
HETATM   37  N5  UNL     1      13.834  34.757 -12.406  1.00  0.00    -0.079 N 
ATOM     38  H53 UNL     1      13.246  34.270 -11.730  1.00  0.00     0.274 HD
ATOM     39  H52 UNL     1      13.683  34.158 -13.218  1.00  0.00     0.274 HD
ATOM     40  H51 UNL     1      14.813  34.743 -12.118  1.00  0.00     0.274 HD
ENDBRANCH  36  37
ENDBRANCH  35  36
ENDBRANCH  34  35
ENDBRANCH  33  34
ENDBRANCH  23  33
ENDBRANCH  17  18
ENDBRANCH   4  17
TORSDOF 14
ENDMDL
MODEL 2
REMARK VINA RESULT: -7.654033521      3.604      9.754
REMARK  14 active torsions:
REMARK  status: ('A' for Active; 'I' for Inactive)
REMARK    1  A    between atoms: C2_2  and  C3_3 
REMARK    2  A    between atoms: C3_3  and  C4_4 
REMARK    3  A    between atoms: C4_4  and  C5_5 
REMARK    4  A    between atoms: C5_5  and  C6_6 
REMARK    5  A    between atoms: C6_6  and  C7_7 
REMARK    6  A    between atoms: C7_7  and  N1_8 
REMARK       I    between atoms: N1_8  and  C8_10 
REMARK       I    between atoms: C8_10  and  N2_11 
REMARK    7  A    between atoms: N2_11  and  C9_13 
REMARK    8  A    between atoms: C9_13  and  C10_14 
REMARK    9  A    between atoms: C11_15  and  O1_16 
REMARK   10  A    between atoms: N4_21  and  C13_23 
REMARK   11  A    between atoms: C13_23  and  C14_24 
REMARK   12  A    between atoms: C14_24  and  C15_25 
REMARK   13  A    between atoms: C15_25  and  C16_26 
REMARK   14  A    between atoms: C16_26  and  N5_27 
ROOT
HETATM    1  N1  UNL     1      11.212  39.564  -5.182  1.00  0.00    -0.225 N 
ATOM      2  H1  UNL     1      11.877  40.284  -4.899  1.00  0.00     0.177 HD
HETATM    3  C8  UNL     1      10.269  39.095  -4.249  1.00  0.00     0.686 C 
HETATM    4  N2  UNL     1       9.019  39.812  -4.211  1.00  0.00    -0.200 N 
ATOM      5  H2  UNL     1       8.165  39.351  -4.528  1.00  0.00     0.183 HD
HETATM    6  N7  UNL     1      10.403  38.125  -3.450  1.00  0.00    -0.126 N 
ATOM      7  H7  UNL     1      11.286  37.616  -3.469  1.00  0.00     0.197 HD
HETATM    8  C19 UNL     1       9.432  37.700  -2.544  1.00  0.00     0.196 C 
HETATM    9  N8  UNL     1       8.607  37.359  -1.792  1.00  0.00    -0.171 NA
ENDROOT
BRANCH   1  10
HETATM   10  C7  UNL     1      11.258  39.054  -6.515  1.00  0.00     0.138 C 
BRANCH  10  11
HETATM   11  C6  UNL     1      12.580  38.662  -7.016  1.00  0.00     0.020 C 
BRANCH  11  12
HETATM   12  C5  UNL     1      12.801  38.439  -8.468  1.00  0.00     0.002 C 
BRANCH  12  13
HETATM   13  C4  UNL     1      14.197  38.161  -8.867  1.00  0.00     0.000 C 
BRANCH  13  14
HETATM   14  C3  UNL     1      14.279  37.089  -9.961  1.00  0.00    -0.000 C 
BRANCH  14  15
HETATM   15  C2  UNL     1      13.173  37.227 -10.954  1.00  0.00    -0.005 C 
HETATM   16  C1  UNL     1      13.383  36.194 -12.070  1.00  0.00     0.005 C 
ENDBRANCH  14  15
ENDBRANCH  13  14
ENDBRANCH  12  13
ENDBRANCH  11  12
ENDBRANCH  10  11
ENDBRANCH   1  10
BRANCH   4  17
HETATM   17  C9  UNL     1       8.963  41.026  -3.784  1.00  0.00     0.127 C 
BRANCH  17  18
HETATM   18  C10 UNL     1       8.163  41.976  -4.543  1.00  0.00     0.099 C 
HETATM   19  C11 UNL     1       6.825  42.097  -4.231  1.00  0.00     0.159 C 
HETATM   20  N3  UNL     1       5.927  43.034  -4.670  1.00  0.00    -0.318 N 
HETATM   21  C12 UNL     1       6.164  44.226  -5.240  1.00  0.00     0.172 C 
ATOM     22  H3  UNL     1       4.944  42.792  -4.547  1.00  0.00     0.169 HD
HETATM   23  N4  UNL     1       5.215  45.078  -5.277  1.00  0.00    -0.372 N 
HETATM   24  C17 UNL     1       7.347  44.647  -5.804  1.00  0.00     0.292 C 
ATOM     25  H4  UNL     1       5.369  45.990  -5.705  1.00  0.00     0.161 HD
HETATM   26  O2  UNL     1       7.353  45.866  -6.108  1.00  0.00    -0.264 OA
HETATM   27  N6  UNL     1       8.456  43.912  -6.055  1.00  0.00    -0.286 N 
HETATM   28  C18 UNL     1       8.813  42.702  -5.533  1.00  0.00     0.264 C 
ATOM     29  H6  UNL     1       9.112  44.316  -6.723  1.00  0.00     0.172 HD
HETATM   30  O3  UNL     1       9.838  42.149  -5.969  1.00  0.00    -0.267 OA
BRANCH  19  31
HETATM   31  O1  UNL     1       6.342  41.145  -3.366  1.00  0.00    -0.345 OA
ATOM     32  H1  UNL     1       6.563  41.284  -2.453  1.00  0.00     0.219 HD
ENDBRANCH  19  31
BRANCH  23  33
HETATM   33  C13 UNL     1       3.933  44.757  -4.719  1.00  0.00     0.121 C 
BRANCH  33  34
HETATM   34  C14 UNL     1       2.895  44.686  -5.836  1.00  0.00     0.021 C 
BRANCH  34  35
HETATM   35  C15 UNL     1       2.408  43.263  -5.994  1.00  0.00     0.029 C 
BRANCH  35  36
HETATM   36  C16 UNL     1       2.076  42.759  -4.601  1.00  0.00     0.229 C 
BRANCH  36  37
HETATM   37  N5  UNL     1       1.208  41.625  -4.619  1.00  0.00    -0.079 N 
ATOM     38  H53 UNL     1       0.253  41.890  -4.381  1.00  0.00     0.274 HD
ATOM     39  H52 UNL     1       1.055  41.296  -5.573  1.00  0.00     0.274 HD
ATOM     40  H51 UNL     1       1.538  40.867  -4.020  1.00  0.00     0.274 HD
ENDBRANCH  36  37
ENDBRANCH  35  36
ENDBRANCH  34  35
ENDBRANCH  33  34
ENDBRANCH  23  33
ENDBRANCH  17  18
ENDBRANCH   4  17
TORSDOF 14
ENDMDL
MODEL 3
REMARK VINA RESULT: -7.615004776      2.946      4.436
REMARK  14 active torsions:
REMARK  status: ('A' for Active; 'I' for Inactive)
REMARK    1  A    between atoms: C2_2  and  C3_3 
REMARK    2  A    between atoms: C3_3  and  C4_4 
REMARK    3  A    between atoms: C4_4  and  C5_5 
REMARK    4  A    between atoms: C5_5  and  C6_6 
REMARK    5  A    between atoms: C6_6  and  C7_7 
REMARK    6  A    between atoms: C7_7  and  N1_8 
REMARK       I    between atoms: N1_8  and  C8_10 
REMARK       I    between atoms: C8_10  and  N2_11 
REMARK    7  A    between atoms: N2_11  and  C9_13 
REMARK    8  A    between atoms: C9_13  and  C10_14 
REMARK    9  A    between atoms: C11_15  and  O1_16 
REMARK   10  A    between atoms: N4_21  and  C13_23 
REMARK   11  A    between atoms: C13_23  and  C14_24 
REMARK   12  A    between atoms: C14_24  and  C15_25 
REMARK   13  A    between atoms: C15_25  and  C16_26 
REMARK   14  A    between atoms: C16_26  and  N5_27 
ROOT
HETATM    1  N1  UNL     1       9.685  40.111  -3.625  1.00  0.00    -0.225 N 
ATOM      2  H1  UNL     1      10.532  40.172  -3.059  1.00  0.00     0.177 HD
HETATM    3  C8  UNL     1       9.405  41.129  -4.554  1.00  0.00     0.686 C 
HETATM    4  N2  UNL     1       9.945  40.932  -5.878  1.00  0.00    -0.200 N 
ATOM      5  H2  UNL     1       9.311  40.759  -6.657  1.00  0.00     0.183 HD
HETATM    6  N7  UNL     1       8.743  42.186  -4.353  1.00  0.00    -0.126 N 
ATOM      7  H7  UNL     1       8.362  42.334  -3.418  1.00  0.00     0.197 HD
HETATM    8  C19 UNL     1       8.494  43.166  -5.314  1.00  0.00     0.196 C 
HETATM    9  N8  UNL     1       8.296  43.974  -6.132  1.00  0.00    -0.171 NA
ENDROOT
BRANCH   1  10
HETATM   10  C7  UNL     1       8.809  38.996  -3.457  1.00  0.00     0.138 C 
BRANCH  10  11
HETATM   11  C6  UNL     1       9.431  37.740  -3.021  1.00  0.00     0.020 C 
BRANCH  11  12
HETATM   12  C5  UNL     1       8.884  36.990  -1.862  1.00  0.00     0.002 C 
BRANCH  12  13
HETATM   13  C4  UNL     1       9.729  36.982  -0.649  1.00  0.00     0.000 C 
BRANCH  13  14
HETATM   14  C3  UNL     1      10.483  38.305  -0.465  1.00  0.00    -0.000 C 
BRANCH  14  15
HETATM   15  C2  UNL     1       9.708  39.272   0.366  1.00  0.00    -0.005 C 
HETATM   16  C1  UNL     1       9.022  38.502   1.504  1.00  0.00     0.005 C 
ENDBRANCH  14  15
ENDBRANCH  13  14
ENDBRANCH  12  13
ENDBRANCH  11  12
ENDBRANCH  10  11
ENDBRANCH   1  10
BRANCH   4  17
HETATM   17  C9  UNL     1      11.214  40.971  -6.089  1.00  0.00     0.127 C 
BRANCH  17  18
HETATM   18  C10 UNL     1      11.758  40.099  -7.120  1.00  0.00     0.099 C 
HETATM   19  C11 UNL     1      11.966  40.626  -8.377  1.00  0.00     0.159 C 
HETATM   20  N3  UNL     1      12.625  40.067  -9.440  1.00  0.00    -0.318 N 
HETATM   21  C12 UNL     1      13.488  39.038  -9.449  1.00  0.00     0.172 C 
ATOM     22  H3  UNL     1      12.433  40.489 -10.348  1.00  0.00     0.169 HD
HETATM   23  N4  UNL     1      14.230  38.882 -10.474  1.00  0.00    -0.372 N 
HETATM   24  C17 UNL     1      13.668  38.107  -8.452  1.00  0.00     0.292 C 
ATOM     25  H4  UNL     1      14.894  38.108 -10.507  1.00  0.00     0.161 HD
HETATM   26  O2  UNL     1      14.659  37.357  -8.638  1.00  0.00    -0.264 OA
HETATM   27  N6  UNL     1      12.918  37.926  -7.339  1.00  0.00    -0.286 N 
HETATM   28  C18 UNL     1      12.033  38.786  -6.757  1.00  0.00     0.264 C 
ATOM     29  H6  UNL     1      13.030  37.025  -6.873  1.00  0.00     0.172 HD
HETATM   30  O3  UNL     1      11.372  38.386  -5.783  1.00  0.00    -0.267 OA
BRANCH  19  31
HETATM   31  O1  UNL     1      11.437  41.879  -8.576  1.00  0.00    -0.345 OA
ATOM     32  H1  UNL     1      11.651  42.276  -9.412  1.00  0.00     0.219 HD
ENDBRANCH  19  31
BRANCH  23  33
HETATM   33  C13 UNL     1      14.137  39.790 -11.581  1.00  0.00     0.121 C 
BRANCH  33  34
HETATM   34  C14 UNL     1      14.052  38.999 -12.883  1.00  0.00     0.021 C 
BRANCH  34  35
HETATM   35  C15 UNL     1      14.647  37.623 -12.686  1.00  0.00     0.029 C 
BRANCH  35  36
HETATM   36  C16 UNL     1      13.674  36.634 -13.302  1.00  0.00     0.229 C 
BRANCH  36  37
HETATM   37  N5  UNL     1      13.915  35.291 -12.882  1.00  0.00    -0.079 N 
ATOM     38  H53 UNL     1      14.843  34.978 -13.166  1.00  0.00     0.274 HD
ATOM     39  H52 UNL     1      14.026  35.238 -11.869  1.00  0.00     0.274 HD
ATOM     40  H51 UNL     1      13.196  34.643 -13.206  1.00  0.00     0.274 HD
ENDBRANCH  36  37
ENDBRANCH  35  36
ENDBRANCH  34  35
ENDBRANCH  33  34
ENDBRANCH  23  33
ENDBRANCH  17  18
ENDBRANCH   4  17
TORSDOF 14
ENDMDL
MODEL 4
REMARK VINA RESULT: -7.585221441      2.013      2.280
REMARK  14 active torsions:
REMARK  status: ('A' for Active; 'I' for Inactive)
REMARK    1  A    between atoms: C2_2  and  C3_3 
REMARK    2  A    between atoms: C3_3  and  C4_4 
REMARK    3  A    between atoms: C4_4  and  C5_5 
REMARK    4  A    between atoms: C5_5  and  C6_6 
REMARK    5  A    between atoms: C6_6  and  C7_7 
REMARK    6  A    between atoms: C7_7  and  N1_8 
REMARK       I    between atoms: N1_8  and  C8_10 
REMARK       I    between atoms: C8_10  and  N2_11 
REMARK    7  A    between atoms: N2_11  and  C9_13 
REMARK    8  A    between atoms: C9_13  and  C10_14 
REMARK    9  A    between atoms: C11_15  and  O1_16 
REMARK   10  A    between atoms: N4_21  and  C13_23 
REMARK   11  A    between atoms: C13_23  and  C14_24 
REMARK   12  A    between atoms: C14_24  and  C15_25 
REMARK   13  A    between atoms: C15_25  and  C16_26 
REMARK   14  A    between atoms: C16_26  and  N5_27 
ROOT
HETATM    1  N1  UNL     1       8.226  40.527  -3.089  1.00  0.00    -0.225 N 
ATOM      2  H1  UNL     1       7.444  40.486  -3.744  1.00  0.00     0.177 HD
HETATM    3  C8  UNL     1       8.974  39.362  -2.839  1.00  0.00     0.686 C 
HETATM    4  N2  UNL     1      10.104  39.147  -3.710  1.00  0.00    -0.200 N 
ATOM      5  H2  UNL     1      11.049  39.212  -3.331  1.00  0.00     0.183 HD
HETATM    6  N7  UNL     1       8.761  38.495  -1.945  1.00  0.00    -0.126 N 
ATOM      7  H7  UNL     1       7.961  38.640  -1.328  1.00  0.00     0.197 HD
HETATM    8  C19 UNL     1       9.537  37.355  -1.739  1.00  0.00     0.196 C 
HETATM    9  N8  UNL     1      10.200  36.408  -1.582  1.00  0.00    -0.171 NA
ENDROOT
BRANCH   1  10
HETATM   10  C7  UNL     1       8.537  41.764  -2.447  1.00  0.00     0.138 C 
BRANCH  10  11
HETATM   11  C6  UNL     1       7.452  42.749  -2.373  1.00  0.00     0.020 C 
BRANCH  11  12
HETATM   12  C5  UNL     1       6.178  42.524  -3.100  1.00  0.00     0.002 C 
BRANCH  12  13
HETATM   13  C4  UNL     1       5.149  43.571  -2.926  1.00  0.00     0.000 C 
BRANCH  13  14
HETATM   14  C3  UNL     1       3.807  43.169  -3.552  1.00  0.00    -0.000 C 
BRANCH  14  15
HETATM   15  C2  UNL     1       3.359  41.825  -3.082  1.00  0.00    -0.005 C 
HETATM   16  C1  UNL     1       2.073  41.446  -3.832  1.00  0.00     0.005 C 
ENDBRANCH  14  15
ENDBRANCH  13  14
ENDBRANCH  12  13
ENDBRANCH  11  12
ENDBRANCH  10  11
ENDBRANCH   1  10
BRANCH   4  17
HETATM   17  C9  UNL     1       9.937  38.873  -4.957  1.00  0.00     0.127 C 
BRANCH  17  18
HETATM   18  C10 UNL     1      10.904  39.411  -5.904  1.00  0.00     0.099 C 
HETATM   19  C11 UNL     1      11.854  38.555  -6.421  1.00  0.00     0.159 C 
HETATM   20  N3  UNL     1      12.736  38.777  -7.446  1.00  0.00    -0.318 N 
HETATM   21  C12 UNL     1      12.701  39.724  -8.397  1.00  0.00     0.172 C 
ATOM     22  H3  UNL     1      13.527  38.135  -7.493  1.00  0.00     0.169 HD
HETATM   23  N4  UNL     1      13.424  39.565  -9.435  1.00  0.00    -0.372 N 
HETATM   24  C17 UNL     1      11.954  40.880  -8.379  1.00  0.00     0.292 C 
ATOM     25  H4  UNL     1      13.417  40.270 -10.172  1.00  0.00     0.161 HD
HETATM   26  O2  UNL     1      11.971  41.506  -9.469  1.00  0.00    -0.264 OA
HETATM   27  N6  UNL     1      11.234  41.389  -7.351  1.00  0.00    -0.286 N 
HETATM   28  C18 UNL     1      10.795  40.758  -6.223  1.00  0.00     0.264 C 
ATOM     29  H6  UNL     1      10.987  42.376  -7.430  1.00  0.00     0.172 HD
HETATM   30  O3  UNL     1      10.224  41.436  -5.350  1.00  0.00    -0.267 OA
BRANCH  19  31
HETATM   31  O1  UNL     1      11.913  37.321  -5.820  1.00  0.00    -0.345 OA
ATOM     32  H1  UNL     1      12.372  36.654  -6.318  1.00  0.00     0.219 HD
ENDBRANCH  19  31
BRANCH  23  33
HETATM   33  C13 UNL     1      14.248  38.397  -9.572  1.00  0.00     0.121 C 
BRANCH  33  34
HETATM   34  C14 UNL     1      13.482  37.321 -10.336  1.00  0.00     0.021 C 
BRANCH  34  35
HETATM   35  C15 UNL     1      13.753  37.455 -11.818  1.00  0.00     0.029 C 
BRANCH  35  36
HETATM   36  C16 UNL     1      13.377  36.128 -12.451  1.00  0.00     0.229 C 
BRANCH  36  37
HETATM   37  N5  UNL     1      14.264  35.071 -12.082  1.00  0.00    -0.079 N 
ATOM     38  H53 UNL     1      14.286  34.344 -12.797  1.00  0.00     0.274 HD
ATOM     39  H52 UNL     1      15.237  35.377 -12.128  1.00  0.00     0.274 HD
ATOM     40  H51 UNL     1      14.048  34.677 -11.166  1.00  0.00     0.274 HD
ENDBRANCH  36  37
ENDBRANCH  35  36
ENDBRANCH  34  35
ENDBRANCH  33  34
ENDBRANCH  23  33
ENDBRANCH  17  18
ENDBRANCH   4  17
TORSDOF 14
ENDMDL
MODEL 5
REMARK VINA RESULT: -7.534114708      1.953      2.601
REMARK  14 active torsions:
REMARK  status: ('A' for Active; 'I' for Inactive)
REMARK    1  A    between atoms: C2_2  and  C3_3 
REMARK    2  A    between atoms: C3_3  and  C4_4 
REMARK    3  A    between atoms: C4_4  and  C5_5 
REMARK    4  A    between atoms: C5_5  and  C6_6 
REMARK    5  A    between atoms: C6_6  and  C7_7 
REMARK    6  A    between atoms: C7_7  and  N1_8 
REMARK       I    between atoms: N1_8  and  C8_10 
REMARK       I    between atoms: C8_10  and  N2_11 
REMARK    7  A    between atoms: N2_11  and  C9_13 
REMARK    8  A    between atoms: C9_13  and  C10_14 
REMARK    9  A    between atoms: C11_15  and  O1_16 
REMARK   10  A    between atoms: N4_21  and  C13_23 
REMARK   11  A    between atoms: C13_23  and  C14_24 
REMARK   12  A    between atoms: C14_24  and  C15_25 
REMARK   13  A    between atoms: C15_25  and  C16_26 
REMARK   14  A    between atoms: C16_26  and  N5_27 
ROOT
HETATM    1  N1  UNL     1       8.174  40.533  -3.186  1.00  0.00    -0.225 N 
ATOM      2  H1  UNL     1       7.397  40.464  -3.843  1.00  0.00     0.177 HD
HETATM    3  C8  UNL     1       8.945  39.390  -2.910  1.00  0.00     0.686 C 
HETATM    4  N2  UNL     1      10.084  39.182  -3.771  1.00  0.00    -0.200 N 
ATOM      5  H2  UNL     1      11.025  39.275  -3.390  1.00  0.00     0.183 HD
HETATM    6  N7  UNL     1       8.746  38.536  -2.001  1.00  0.00    -0.126 N 
ATOM      7  H7  UNL     1       7.940  38.675  -1.390  1.00  0.00     0.197 HD
HETATM    8  C19 UNL     1       9.545  37.417  -1.769  1.00  0.00     0.196 C 
HETATM    9  N8  UNL     1      10.227  36.486  -1.591  1.00  0.00    -0.171 NA
ENDROOT
BRANCH   1  10
HETATM   10  C7  UNL     1       8.456  41.789  -2.566  1.00  0.00     0.138 C 
BRANCH  10  11
HETATM   11  C6  UNL     1       7.577  42.906  -2.929  1.00  0.00     0.020 C 
BRANCH  11  12
HETATM   12  C5  UNL     1       6.607  42.771  -4.045  1.00  0.00     0.002 C 
BRANCH  12  13
HETATM   13  C4  UNL     1       7.069  43.269  -5.358  1.00  0.00     0.000 C 
BRANCH  13  14
HETATM   14  C3  UNL     1       5.921  43.862  -6.185  1.00  0.00    -0.000 C 
BRANCH  14  15
HETATM   15  C2  UNL     1       4.608  43.716  -5.491  1.00  0.00    -0.005 C 
HETATM   16  C1  UNL     1       3.490  44.110  -6.467  1.00  0.00     0.005 C 
ENDBRANCH  14  15
ENDBRANCH  13  14
ENDBRANCH  12  13
ENDBRANCH  11  12
ENDBRANCH  10  11
ENDBRANCH   1  10
BRANCH   4  17
HETATM   17  C9  UNL     1       9.929  38.881  -5.014  1.00  0.00     0.127 C 
BRANCH  17  18
HETATM   18  C10 UNL     1      10.906  39.395  -5.963  1.00  0.00     0.099 C 
HETATM   19  C11 UNL     1      11.845  38.522  -6.468  1.00  0.00     0.159 C 
HETATM   20  N3  UNL     1      12.734  38.721  -7.492  1.00  0.00    -0.318 N 
HETATM   21  C12 UNL     1      12.716  39.659  -8.452  1.00  0.00     0.172 C 
ATOM     22  H3  UNL     1      13.515  38.067  -7.530  1.00  0.00     0.169 HD
HETATM   23  N4  UNL     1      13.440  39.479  -9.486  1.00  0.00    -0.372 N 
HETATM   24  C17 UNL     1      11.986  40.826  -8.448  1.00  0.00     0.292 C 
ATOM     25  H4  UNL     1      13.445  40.177 -10.230  1.00  0.00     0.161 HD
HETATM   26  O2  UNL     1      12.015  41.441  -9.543  1.00  0.00    -0.264 OA
HETATM   27  N6  UNL     1      11.270  41.355  -7.428  1.00  0.00    -0.286 N 
HETATM   28  C18 UNL     1      10.818  40.741  -6.295  1.00  0.00     0.264 C 
ATOM     29  H6  UNL     1      11.038  42.344  -7.517  1.00  0.00     0.172 HD
HETATM   30  O3  UNL     1      10.253  41.436  -5.431  1.00  0.00    -0.267 OA
BRANCH  19  31
HETATM   31  O1  UNL     1      11.884  37.292  -5.855  1.00  0.00    -0.345 OA
ATOM     32  H1  UNL     1      12.609  37.167  -5.254  1.00  0.00     0.219 HD
ENDBRANCH  19  31
BRANCH  23  33
HETATM   33  C13 UNL     1      14.247  38.298  -9.609  1.00  0.00     0.121 C 
BRANCH  33  34
HETATM   34  C14 UNL     1      13.502  37.256 -10.438  1.00  0.00     0.021 C 
BRANCH  34  35
HETATM   35  C15 UNL     1      13.789  37.470 -11.907  1.00  0.00     0.029 C 
BRANCH  35  36
HETATM   36  C16 UNL     1      13.434  36.175 -12.614  1.00  0.00     0.229 C 
BRANCH  36  37
HETATM   37  N5  UNL     1      14.268  35.085 -12.216  1.00  0.00    -0.079 N 
ATOM     38  H53 UNL     1      14.471  34.472 -13.006  1.00  0.00     0.274 HD
ATOM     39  H52 UNL     1      15.214  35.405 -12.009  1.00  0.00     0.274 HD
ATOM     40  H51 UNL     1      13.880  34.558 -11.433  1.00  0.00     0.274 HD
ENDBRANCH  36  37
ENDBRANCH  35  36
ENDBRANCH  34  35
ENDBRANCH  33  34
ENDBRANCH  23  33
ENDBRANCH  17  18
ENDBRANCH   4  17
TORSDOF 14
ENDMDL
