MODEL 1
REMARK VINA RESULT: -9.200377977      0.000      0.000
REMARK  6 active torsions:
REMARK  status: ('A' for Active; 'I' for Inactive)
REMARK    1  A    between atoms: O1_2  and  C2_3 
REMARK    2  A    between atoms: C4_5  and  C5_6 
REMARK    3  A    between atoms: C7_8  and  O2_9 
REMARK    4  A    between atoms: C17_20  and  O4_21 
REMARK    5  A    between atoms: C23_28  and  O5_29 
REMARK    6  A    between atoms: C25_31  and  O6_32 
ROOT
HETATM    1  C5  UNL     1      33.012  26.218  54.747  1.00  0.00    -0.022 A 
HETATM    2  C6  UNL     1      32.853  25.227  55.724  1.00  0.00     0.050 A 
HETATM    3  C7  UNL     1      33.798  24.224  55.928  1.00  0.00     0.081 A 
HETATM    4  C9  UNL     1      34.884  24.259  55.117  1.00  0.00     0.019 A 
HETATM    5  C10 UNL     1      35.080  25.240  54.135  1.00  0.00    -0.015 A 
HETATM    6  C11 UNL     1      34.142  26.202  53.962  1.00  0.00     0.025 A 
HETATM    7  C12 UNL     1      36.231  25.454  53.375  1.00  0.00    -0.047 C 
HETATM    8  C13 UNL     1      36.002  26.108  52.097  1.00  0.00     0.049 C 
HETATM    9  C14 UNL     1      37.515  25.113  53.810  1.00  0.00     0.063 C 
HETATM   10  C15 UNL     1      37.926  24.244  54.797  1.00  0.00     0.186 C 
HETATM   11  O3  UNL     1      39.039  24.323  55.310  1.00  0.00    -0.287 OA
HETATM   12  C16 UNL     1      37.141  23.212  55.295  1.00  0.00     0.058 A 
HETATM   13  C17 UNL     1      37.832  22.093  55.634  1.00  0.00     0.080 A 
HETATM   14  C18 UNL     1      37.157  20.952  56.006  1.00  0.00     0.037 A 
HETATM   15  C19 UNL     1      35.769  20.955  56.029  1.00  0.00     0.004 A 
HETATM   16  C20 UNL     1      35.030  22.073  55.692  1.00  0.00     0.013 A 
HETATM   17  C21 UNL     1      35.727  23.182  55.339  1.00  0.00    -0.005 A 
ENDROOT
BRANCH   1  18
HETATM   18  C4  UNL     1      32.006  27.257  54.550  1.00  0.00    -0.020 A 
HETATM   19  C3  UNL     1      31.828  27.828  53.314  1.00  0.00     0.052 A 
HETATM   20  C2  UNL     1      30.890  28.817  53.066  1.00  0.00     0.105 A 
HETATM   21  C25 UNL     1      30.115  29.225  54.135  1.00  0.00     0.135 A 
HETATM   22  C23 UNL     1      30.259  28.676  55.408  1.00  0.00     0.105 A 
HETATM   23  C22 UNL     1      31.200  27.710  55.575  1.00  0.00     0.052 A 
BRANCH  20  24
HETATM   24  O1  UNL     1      30.724  29.382  51.808  1.00  0.00    -0.353 OA
HETATM   25  C1  UNL     1      31.675  30.330  51.362  1.00  0.00     0.210 C 
ENDBRANCH  20  24
BRANCH  21  26
HETATM   26  O6  UNL     1      29.168  30.220  53.896  1.00  0.00    -0.351 OA
HETATM   27  C26 UNL     1      27.848  29.887  53.477  1.00  0.00     0.210 C 
ENDBRANCH  21  26
BRANCH  22  28
HETATM   28  O5  UNL     1      29.431  29.164  56.388  1.00  0.00    -0.353 OA
HETATM   29  C24 UNL     1      29.697  29.185  57.756  1.00  0.00     0.210 C 
ENDBRANCH  22  28
ENDBRANCH   1  18
BRANCH   3  30
HETATM   30  O2  UNL     1      33.638  23.278  56.898  1.00  0.00    -0.355 OA
HETATM   31  C8  UNL     1      32.468  23.128  57.705  1.00  0.00     0.210 C 
ENDBRANCH   3  30
BRANCH  13  32
HETATM   32  O4  UNL     1      39.222  22.192  55.577  1.00  0.00    -0.360 OA
ATOM     33  H4  UNL     1      39.575  22.719  54.869  1.00  0.00     0.217 HD
ENDBRANCH  13  32
TORSDOF 6
ENDMDL
MODEL 2
REMARK VINA RESULT: -9.170734575      0.405      2.285
REMARK  6 active torsions:
REMARK  status: ('A' for Active; 'I' for Inactive)
REMARK    1  A    between atoms: O1_2  and  C2_3 
REMARK    2  A    between atoms: C4_5  and  C5_6 
REMARK    3  A    between atoms: C7_8  and  O2_9 
REMARK    4  A    between atoms: C17_20  and  O4_21 
REMARK    5  A    between atoms: C23_28  and  O5_29 
REMARK    6  A    between atoms: C25_31  and  O6_32 
ROOT
HETATM    1  C5  UNL     1      33.238  26.109  54.457  1.00  0.00    -0.022 A 
HETATM    2  C6  UNL     1      33.028  25.191  55.495  1.00  0.00     0.050 A 
HETATM    3  C7  UNL     1      33.933  24.172  55.781  1.00  0.00     0.081 A 
HETATM    4  C9  UNL     1      35.033  24.116  54.989  1.00  0.00     0.019 A 
HETATM    5  C10 UNL     1      35.279  25.023  53.948  1.00  0.00    -0.015 A 
HETATM    6  C11 UNL     1      34.379  26.002  53.696  1.00  0.00     0.025 A 
HETATM    7  C12 UNL     1      36.448  25.147  53.197  1.00  0.00    -0.047 C 
HETATM    8  C13 UNL     1      36.263  25.722  51.875  1.00  0.00     0.049 C 
HETATM    9  C14 UNL     1      37.713  24.791  53.677  1.00  0.00     0.063 C 
HETATM   10  C15 UNL     1      38.077  23.975  54.726  1.00  0.00     0.186 C 
HETATM   11  O3  UNL     1      39.184  24.051  55.252  1.00  0.00    -0.287 OA
HETATM   12  C16 UNL     1      37.249  23.006  55.276  1.00  0.00     0.058 A 
HETATM   13  C17 UNL     1      37.894  21.890  55.700  1.00  0.00     0.080 A 
HETATM   14  C18 UNL     1      37.173  20.799  56.134  1.00  0.00     0.037 A 
HETATM   15  C19 UNL     1      35.786  20.851  56.131  1.00  0.00     0.004 A 
HETATM   16  C20 UNL     1      35.092  21.969  55.708  1.00  0.00     0.013 A 
HETATM   17  C21 UNL     1      35.834  23.028  55.296  1.00  0.00    -0.005 A 
ENDROOT
BRANCH   1  18
HETATM   18  C4  UNL     1      32.272  27.166  54.175  1.00  0.00    -0.020 A 
HETATM   19  C3  UNL     1      31.453  27.644  55.168  1.00  0.00     0.052 A 
HETATM   20  C2  UNL     1      30.518  28.645  54.960  1.00  0.00     0.105 A 
HETATM   21  C25 UNL     1      30.431  29.164  53.682  1.00  0.00     0.135 A 
HETATM   22  C23 UNL     1      31.240  28.711  52.641  1.00  0.00     0.105 A 
HETATM   23  C22 UNL     1      32.135  27.727  52.921  1.00  0.00     0.052 A 
BRANCH  20  24
HETATM   24  O1  UNL     1      29.698  29.116  55.978  1.00  0.00    -0.353 OA
HETATM   25  C1  UNL     1      30.002  28.756  57.313  1.00  0.00     0.210 C 
ENDBRANCH  20  24
BRANCH  21  26
HETATM   26  O6  UNL     1      29.493  30.172  53.463  1.00  0.00    -0.351 OA
HETATM   27  C26 UNL     1      28.165  29.858  53.053  1.00  0.00     0.210 C 
ENDBRANCH  21  26
BRANCH  22  28
HETATM   28  O5  UNL     1      31.060  29.305  51.417  1.00  0.00    -0.353 OA
HETATM   29  C24 UNL     1      31.873  30.285  50.849  1.00  0.00     0.210 C 
ENDBRANCH  22  28
ENDBRANCH   1  18
BRANCH   3  30
HETATM   30  O2  UNL     1      33.725  23.298  56.807  1.00  0.00    -0.355 OA
HETATM   31  C8  UNL     1      32.564  23.282  57.640  1.00  0.00     0.210 C 
ENDBRANCH   3  30
BRANCH  13  32
HETATM   32  O4  UNL     1      39.287  21.936  55.662  1.00  0.00    -0.360 OA
ATOM     33  H4  UNL     1      39.732  21.803  56.491  1.00  0.00     0.217 HD
ENDBRANCH  13  32
TORSDOF 6
ENDMDL
MODEL 3
REMARK VINA RESULT: -8.904912506      2.152      3.174
REMARK  6 active torsions:
REMARK  status: ('A' for Active; 'I' for Inactive)
REMARK    1  A    between atoms: O1_2  and  C2_3 
REMARK    2  A    between atoms: C4_5  and  C5_6 
REMARK    3  A    between atoms: C7_8  and  O2_9 
REMARK    4  A    between atoms: C17_20  and  O4_21 
REMARK    5  A    between atoms: C23_28  and  O5_29 
REMARK    6  A    between atoms: C25_31  and  O6_32 
ROOT
HETATM    1  C5  UNL     1      35.098  26.629  53.926  1.00  0.00    -0.022 A 
HETATM    2  C6  UNL     1      35.601  25.763  54.906  1.00  0.00     0.050 A 
HETATM    3  C7  UNL     1      36.819  25.103  54.761  1.00  0.00     0.081 A 
HETATM    4  C9  UNL     1      37.490  25.344  53.606  1.00  0.00     0.019 A 
HETATM    5  C10 UNL     1      37.021  26.210  52.610  1.00  0.00    -0.015 A 
HETATM    6  C11 UNL     1      35.833  26.837  52.781  1.00  0.00     0.025 A 
HETATM    7  C12 UNL     1      37.711  26.646  51.478  1.00  0.00    -0.047 C 
HETATM    8  C13 UNL     1      36.864  27.044  50.365  1.00  0.00     0.049 C 
HETATM    9  C14 UNL     1      39.105  26.740  51.415  1.00  0.00     0.063 C 
HETATM   10  C15 UNL     1      40.079  26.153  52.193  1.00  0.00     0.186 C 
HETATM   11  O3  UNL     1      41.217  26.608  52.260  1.00  0.00    -0.287 OA
HETATM   12  C16 UNL     1      39.876  25.011  52.956  1.00  0.00     0.058 A 
HETATM   13  C17 UNL     1      40.951  24.186  53.032  1.00  0.00     0.080 A 
HETATM   14  C18 UNL     1      40.835  22.955  53.640  1.00  0.00     0.037 A 
HETATM   15  C19 UNL     1      39.613  22.567  54.170  1.00  0.00     0.004 A 
HETATM   16  C20 UNL     1      38.495  23.379  54.114  1.00  0.00     0.013 A 
HETATM   17  C21 UNL     1      38.647  24.587  53.517  1.00  0.00    -0.005 A 
ENDROOT
BRANCH   1  18
HETATM   18  C4  UNL     1      33.817  27.307  54.100  1.00  0.00    -0.020 A 
HETATM   19  C3  UNL     1      32.899  27.333  53.078  1.00  0.00     0.052 A 
HETATM   20  C2  UNL     1      31.669  27.960  53.184  1.00  0.00     0.105 A 
HETATM   21  C25 UNL     1      31.383  28.578  54.386  1.00  0.00     0.135 A 
HETATM   22  C23 UNL     1      32.282  28.578  55.452  1.00  0.00     0.105 A 
HETATM   23  C22 UNL     1      33.469  27.942  55.275  1.00  0.00     0.052 A 
BRANCH  20  24
HETATM   24  O1  UNL     1      30.753  27.976  52.139  1.00  0.00    -0.353 OA
HETATM   25  C1  UNL     1      30.989  27.141  51.020  1.00  0.00     0.210 C 
ENDBRANCH  20  24
BRANCH  21  26
HETATM   26  O6  UNL     1      30.146  29.211  54.502  1.00  0.00    -0.351 OA
HETATM   27  C26 UNL     1      29.027  28.532  55.066  1.00  0.00     0.210 C 
ENDBRANCH  21  26
BRANCH  22  28
HETATM   28  O5  UNL     1      31.883  29.225  56.595  1.00  0.00    -0.353 OA
HETATM   29  C24 UNL     1      31.658  28.637  57.839  1.00  0.00     0.210 C 
ENDBRANCH  22  28
ENDBRANCH   1  18
BRANCH   3  30
HETATM   30  O2  UNL     1      37.306  24.279  55.732  1.00  0.00    -0.355 OA
HETATM   31  C8  UNL     1      36.548  23.264  56.395  1.00  0.00     0.210 C 
ENDBRANCH   3  30
BRANCH  13  32
HETATM   32  O4  UNL     1      42.132  24.667  52.467  1.00  0.00    -0.360 OA
ATOM     33  H4  UNL     1      42.886  24.705  53.045  1.00  0.00     0.217 HD
ENDBRANCH  13  32
TORSDOF 6
ENDMDL
MODEL 4
REMARK VINA RESULT: -8.887054548      2.146      3.768
REMARK  6 active torsions:
REMARK  status: ('A' for Active; 'I' for Inactive)
REMARK    1  A    between atoms: O1_2  and  C2_3 
REMARK    2  A    between atoms: C4_5  and  C5_6 
REMARK    3  A    between atoms: C7_8  and  O2_9 
REMARK    4  A    between atoms: C17_20  and  O4_21 
REMARK    5  A    between atoms: C23_28  and  O5_29 
REMARK    6  A    between atoms: C25_31  and  O6_32 
ROOT
HETATM    1  C5  UNL     1      35.060  26.647  53.900  1.00  0.00    -0.022 A 
HETATM    2  C6  UNL     1      35.558  25.780  54.883  1.00  0.00     0.050 A 
HETATM    3  C7  UNL     1      36.776  25.119  54.742  1.00  0.00     0.081 A 
HETATM    4  C9  UNL     1      37.451  25.358  53.590  1.00  0.00     0.019 A 
HETATM    5  C10 UNL     1      36.987  26.225  52.591  1.00  0.00    -0.015 A 
HETATM    6  C11 UNL     1      35.799  26.853  52.759  1.00  0.00     0.025 A 
HETATM    7  C12 UNL     1      37.682  26.659  51.462  1.00  0.00    -0.047 C 
HETATM    8  C13 UNL     1      36.839  27.057  50.346  1.00  0.00     0.049 C 
HETATM    9  C14 UNL     1      39.076  26.751  51.404  1.00  0.00     0.063 C 
HETATM   10  C15 UNL     1      40.046  26.162  52.185  1.00  0.00     0.186 C 
HETATM   11  O3  UNL     1      41.185  26.616  52.257  1.00  0.00    -0.287 OA
HETATM   12  C16 UNL     1      39.838  25.021  52.949  1.00  0.00     0.058 A 
HETATM   13  C17 UNL     1      40.912  24.194  53.028  1.00  0.00     0.080 A 
HETATM   14  C18 UNL     1      40.792  22.963  53.636  1.00  0.00     0.037 A 
HETATM   15  C19 UNL     1      39.567  22.578  54.162  1.00  0.00     0.004 A 
HETATM   16  C20 UNL     1      38.451  23.391  54.102  1.00  0.00     0.013 A 
HETATM   17  C21 UNL     1      38.607  24.599  53.505  1.00  0.00    -0.005 A 
ENDROOT
BRANCH   1  18
HETATM   18  C4  UNL     1      33.779  27.326  54.069  1.00  0.00    -0.020 A 
HETATM   19  C3  UNL     1      33.473  27.949  55.255  1.00  0.00     0.052 A 
HETATM   20  C2  UNL     1      32.275  28.609  55.473  1.00  0.00     0.105 A 
HETATM   21  C25 UNL     1      31.368  28.622  54.431  1.00  0.00     0.135 A 
HETATM   22  C23 UNL     1      31.633  28.003  53.210  1.00  0.00     0.105 A 
HETATM   23  C22 UNL     1      32.830  27.376  53.068  1.00  0.00     0.052 A 
BRANCH  20  24
HETATM   24  O1  UNL     1      31.983  29.234  56.679  1.00  0.00    -0.353 OA
HETATM   25  C1  UNL     1      31.739  28.429  57.817  1.00  0.00     0.210 C 
ENDBRANCH  20  24
BRANCH  21  26
HETATM   26  O6  UNL     1      30.159  29.284  54.642  1.00  0.00    -0.351 OA
HETATM   27  C26 UNL     1      29.031  28.594  55.173  1.00  0.00     0.210 C 
ENDBRANCH  21  26
BRANCH  22  28
HETATM   28  O5  UNL     1      30.654  28.085  52.252  1.00  0.00    -0.353 OA
HETATM   29  C24 UNL     1      30.606  27.364  51.059  1.00  0.00     0.210 C 
ENDBRANCH  22  28
ENDBRANCH   1  18
BRANCH   3  30
HETATM   30  O2  UNL     1      37.257  24.294  55.716  1.00  0.00    -0.355 OA
HETATM   31  C8  UNL     1      36.497  23.278  56.373  1.00  0.00     0.210 C 
ENDBRANCH   3  30
BRANCH  13  32
HETATM   32  O4  UNL     1      42.096  24.673  52.468  1.00  0.00    -0.360 OA
ATOM     33  H4  UNL     1      42.117  24.727  51.519  1.00  0.00     0.217 HD
ENDBRANCH  13  32
TORSDOF 6
ENDMDL
MODEL 5
REMARK VINA RESULT: -8.823163156      1.432      3.789
REMARK  6 active torsions:
REMARK  status: ('A' for Active; 'I' for Inactive)
REMARK    1  A    between atoms: O1_2  and  C2_3 
REMARK    2  A    between atoms: C4_5  and  C5_6 
REMARK    3  A    between atoms: C7_8  and  O2_9 
REMARK    4  A    between atoms: C17_20  and  O4_21 
REMARK    5  A    between atoms: C23_28  and  O5_29 
REMARK    6  A    between atoms: C25_31  and  O6_32 
ROOT
HETATM    1  C5  UNL     1      33.217  26.403  54.218  1.00  0.00    -0.022 A 
HETATM    2  C6  UNL     1      34.438  26.535  53.543  1.00  0.00     0.050 A 
HETATM    3  C7  UNL     1      35.536  25.727  53.828  1.00  0.00     0.081 A 
HETATM    4  C9  UNL     1      35.356  24.805  54.806  1.00  0.00     0.019 A 
HETATM    5  C10 UNL     1      34.147  24.640  55.495  1.00  0.00    -0.015 A 
HETATM    6  C11 UNL     1      33.098  25.441  55.194  1.00  0.00     0.025 A 
HETATM    7  C12 UNL     1      33.818  23.620  56.389  1.00  0.00    -0.047 C 
HETATM    8  C13 UNL     1      32.791  23.968  57.358  1.00  0.00     0.049 C 
HETATM    9  C14 UNL     1      34.388  22.344  56.344  1.00  0.00     0.063 C 
HETATM   10  C15 UNL     1      35.548  21.900  55.746  1.00  0.00     0.186 C 
HETATM   11  O3  UNL     1      35.727  20.716  55.476  1.00  0.00    -0.287 OA
HETATM   12  C16 UNL     1      36.607  22.730  55.402  1.00  0.00     0.058 A 
HETATM   13  C17 UNL     1      37.833  22.163  55.539  1.00  0.00     0.080 A 
HETATM   14  C18 UNL     1      38.968  22.925  55.367  1.00  0.00     0.037 A 
HETATM   15  C19 UNL     1      38.847  24.271  55.055  1.00  0.00     0.004 A 
HETATM   16  C20 UNL     1      37.617  24.885  54.905  1.00  0.00     0.013 A 
HETATM   17  C21 UNL     1      36.521  24.104  55.074  1.00  0.00    -0.005 A 
ENDROOT
BRANCH   1  18
HETATM   18  C4  UNL     1      32.081  27.264  53.903  1.00  0.00    -0.020 A 
HETATM   19  C3  UNL     1      31.452  27.976  54.895  1.00  0.00     0.052 A 
HETATM   20  C2  UNL     1      30.371  28.808  54.658  1.00  0.00     0.105 A 
HETATM   21  C25 UNL     1      29.930  28.903  53.352  1.00  0.00     0.135 A 
HETATM   22  C23 UNL     1      30.535  28.200  52.311  1.00  0.00     0.105 A 
HETATM   23  C22 UNL     1      31.591  27.404  52.620  1.00  0.00     0.052 A 
BRANCH  20  24
HETATM   24  O1  UNL     1      29.747  29.521  55.674  1.00  0.00    -0.353 OA
HETATM   25  C1  UNL     1      29.009  28.806  56.648  1.00  0.00     0.210 C 
ENDBRANCH  20  24
BRANCH  21  26
HETATM   26  O6  UNL     1      28.841  29.739  53.103  1.00  0.00    -0.351 OA
HETATM   27  C26 UNL     1      29.034  31.108  52.761  1.00  0.00     0.210 C 
ENDBRANCH  21  26
BRANCH  22  28
HETATM   28  O5  UNL     1      30.006  28.377  51.057  1.00  0.00    -0.353 OA
HETATM   29  C24 UNL     1      28.963  27.645  50.492  1.00  0.00     0.210 C 
ENDBRANCH  22  28
ENDBRANCH   1  18
BRANCH   3  30
HETATM   30  O2  UNL     1      36.712  25.854  53.149  1.00  0.00    -0.355 OA
HETATM   31  C8  UNL     1      36.832  26.346  51.812  1.00  0.00     0.210 C 
ENDBRANCH   3  30
BRANCH  13  32
HETATM   32  O4  UNL     1      37.847  20.805  55.856  1.00  0.00    -0.360 OA
ATOM     33  H4  UNL     1      38.703  20.420  56.004  1.00  0.00     0.217 HD
ENDBRANCH  13  32
TORSDOF 6
ENDMDL
