MODEL 1
REMARK VINA RESULT: -6.582726931      0.000      0.000
REMARK  6 active torsions:
REMARK  status: ('A' for Active; 'I' for Inactive)
REMARK    1  A    between atoms: N1_2  and  C2_5 
REMARK    2  A    between atoms: C2_5  and  C3_6 
REMARK    3  A    between atoms: C3_6  and  C4_12 
REMARK    4  A    between atoms: N2_7  and  N3_9 
REMARK    5  A    between atoms: C6_19  and  C7_20 
REMARK    6  A    between atoms: C10_28  and  O3_29 
ROOT
HETATM    1  C4  UNL     1       3.531  21.968   5.319  1.00  0.00     0.438 C 
HETATM    2  N4  UNL     1       4.507  21.226   4.568  1.00  0.00    -0.018 N 
ATOM      3  H41 UNL     1       4.684  20.293   4.941  1.00  0.00     0.282 HD
ATOM      4  H42 UNL     1       5.457  21.583   4.671  1.00  0.00     0.282 HD
HETATM    5  C5  UNL     1       4.032  21.220   3.177  1.00  0.00     0.312 C 
HETATM    6  N5  UNL     1       4.508  20.106   2.435  1.00  0.00    -0.374 N 
ATOM      7  H5  UNL     1       3.891  19.364   2.104  1.00  0.00     0.156 HD
HETATM    8  C6  UNL     1       5.912  20.100   2.186  1.00  0.00     0.261 C 
HETATM    9  C8  UNL     1       6.269  21.365   1.487  1.00  0.00     0.249 C 
HETATM   10  O2  UNL     1       7.089  21.393   0.534  1.00  0.00    -0.271 OA
HETATM   11  N7  UNL     1       5.639  22.559   1.945  1.00  0.00    -0.345 N 
ATOM     12  H7  UNL     1       6.117  23.449   1.806  1.00  0.00     0.163 HD
HETATM   13  C9  UNL     1       4.356  22.557   2.596  1.00  0.00     0.213 C 
HETATM   14  C10 UNL     1       4.271  23.590   3.710  1.00  0.00     0.340 C 
HETATM   15  C11 UNL     1       3.879  24.902   3.160  1.00  0.00     0.131 C 
HETATM   16  N8  UNL     1       3.581  25.933   2.721  1.00  0.00    -0.192 NA
HETATM   17  N9  UNL     1       3.195  23.167   4.584  1.00  0.00     0.007 N 
ATOM     18  H91 UNL     1       2.912  23.918   5.213  1.00  0.00     0.285 HD
ATOM     19  H92 UNL     1       2.323  23.052   4.068  1.00  0.00     0.285 HD
ENDROOT
BRANCH  14  20
HETATM   20  O3  UNL     1       5.497  23.638   4.332  1.00  0.00    -0.352 OA
ATOM     21  H3  UNL     1       5.992  24.350   3.943  1.00  0.00     0.213 HD
ENDBRANCH  14  20
BRANCH   1  22
HETATM   22  C3  UNL     1       3.968  22.333   6.674  1.00  0.00     0.086 C 
HETATM   23  N2  UNL     1       5.220  22.336   6.912  1.00  0.00    -0.310 N 
ATOM     24  H2  UNL     1       5.877  22.089   6.172  1.00  0.00     0.185 HD
BRANCH  22  25
HETATM   25  C2  UNL     1       3.056  22.696   7.772  1.00  0.00     0.289 C 
BRANCH  25  26
HETATM   26  N1  UNL     1       1.947  21.784   7.916  1.00  0.00    -0.074 N 
HETATM   27  C1  UNL     1       2.450  20.642   8.689  1.00  0.00     0.267 C 
ATOM     28  H12 UNL     1       1.523  21.517   7.028  1.00  0.00     0.277 HD
ATOM     29  H11 UNL     1       1.118  22.217   8.325  1.00  0.00     0.277 HD
ENDBRANCH  25  26
ENDBRANCH  22  25
BRANCH  23  30
HETATM   30  N3  UNL     1       5.693  22.670   8.164  1.00  0.00    -0.345 N 
ATOM     31  H32 UNL     1       5.485  22.053   8.948  1.00  0.00     0.176 HD
ATOM     32  H31 UNL     1       6.240  23.520   8.299  1.00  0.00     0.176 HD
ENDBRANCH  23  30
ENDBRANCH   1  22
BRANCH   8  33
HETATM   33  C7  UNL     1       6.279  18.910   1.384  1.00  0.00     0.263 C 
HETATM   34  N6  UNL     1       7.543  18.280   1.525  1.00  0.00    -0.060 NA
HETATM   35  O1  UNL     1       5.441  18.458   0.562  1.00  0.00    -0.274 OA
ENDBRANCH   8  33
TORSDOF 6
ENDMDL
MODEL 2
REMARK VINA RESULT: -6.435762848      2.835      6.092
REMARK  6 active torsions:
REMARK  status: ('A' for Active; 'I' for Inactive)
REMARK    1  A    between atoms: N1_2  and  C2_5 
REMARK    2  A    between atoms: C2_5  and  C3_6 
REMARK    3  A    between atoms: C3_6  and  C4_12 
REMARK    4  A    between atoms: N2_7  and  N3_9 
REMARK    5  A    between atoms: C6_19  and  C7_20 
REMARK    6  A    between atoms: C10_28  and  O3_29 
ROOT
HETATM    1  C4  UNL     1       2.553  24.227   4.857  1.00  0.00     0.438 C 
HETATM    2  N4  UNL     1       3.377  23.478   5.768  1.00  0.00    -0.018 N 
ATOM      3  H41 UNL     1       4.115  24.034   6.199  1.00  0.00     0.282 HD
ATOM      4  H42 UNL     1       3.984  22.802   5.305  1.00  0.00     0.282 HD
HETATM    5  C5  UNL     1       2.459  22.869   6.740  1.00  0.00     0.312 C 
HETATM    6  N5  UNL     1       3.077  22.600   7.991  1.00  0.00    -0.374 N 
ATOM      7  H5  UNL     1       2.825  23.099   8.845  1.00  0.00     0.156 HD
HETATM    8  C6  UNL     1       4.075  21.583   7.966  1.00  0.00     0.261 C 
HETATM    9  C8  UNL     1       3.462  20.339   7.426  1.00  0.00     0.249 C 
HETATM   10  O2  UNL     1       3.710  19.206   7.913  1.00  0.00    -0.271 OA
HETATM   11  N7  UNL     1       2.573  20.481   6.321  1.00  0.00    -0.345 N 
ATOM     12  H7  UNL     1       2.458  19.696   5.680  1.00  0.00     0.163 HD
HETATM   13  C9  UNL     1       1.831  21.689   6.074  1.00  0.00     0.213 C 
HETATM   14  C10 UNL     1       1.705  21.996   4.589  1.00  0.00     0.340 C 
HETATM   15  C11 UNL     1       0.544  21.286   4.019  1.00  0.00     0.131 C 
HETATM   16  N8  UNL     1      -0.362  20.718   3.573  1.00  0.00    -0.192 NA
HETATM   17  N9  UNL     1       1.418  23.414   4.484  1.00  0.00     0.007 N 
ATOM     18  H91 UNL     1       1.082  23.654   3.552  1.00  0.00     0.285 HD
ATOM     19  H92 UNL     1       0.590  23.664   5.024  1.00  0.00     0.285 HD
ENDROOT
BRANCH  14  20
HETATM   20  O3  UNL     1       2.883  21.629   3.982  1.00  0.00    -0.352 OA
ATOM     21  H3  UNL     1       3.248  22.401   3.566  1.00  0.00     0.213 HD
ENDBRANCH  14  20
BRANCH   1  22
HETATM   22  C3  UNL     1       3.253  24.674   3.644  1.00  0.00     0.086 C 
HETATM   23  N2  UNL     1       2.554  25.204   2.719  1.00  0.00    -0.310 N 
ATOM     24  H2  UNL     1       1.546  25.304   2.840  1.00  0.00     0.185 HD
BRANCH  22  25
HETATM   25  C2  UNL     1       4.704  24.551   3.428  1.00  0.00     0.289 C 
BRANCH  25  26
HETATM   26  N1  UNL     1       5.161  23.182   3.397  1.00  0.00    -0.074 N 
HETATM   27  C1  UNL     1       5.134  22.772   1.987  1.00  0.00     0.267 C 
ATOM     28  H12 UNL     1       4.630  22.563   4.009  1.00  0.00     0.277 HD
ATOM     29  H11 UNL     1       6.070  23.048   3.841  1.00  0.00     0.277 HD
ENDBRANCH  25  26
ENDBRANCH  22  25
BRANCH  23  30
HETATM   30  N3  UNL     1       3.152  25.644   1.557  1.00  0.00    -0.345 N 
ATOM     31  H32 UNL     1       3.239  24.997   0.774  1.00  0.00     0.176 HD
ATOM     32  H31 UNL     1       3.500  26.600   1.485  1.00  0.00     0.176 HD
ENDBRANCH  23  30
ENDBRANCH   1  22
BRANCH   8  33
HETATM   33  C7  UNL     1       4.621  21.376   9.328  1.00  0.00     0.263 C 
HETATM   34  N6  UNL     1       3.785  21.399  10.475  1.00  0.00    -0.060 NA
HETATM   35  O1  UNL     1       5.856  21.178   9.456  1.00  0.00    -0.274 OA
ENDBRANCH   8  33
TORSDOF 6
ENDMDL
MODEL 3
REMARK VINA RESULT: -6.274532563      2.995      6.372
REMARK  6 active torsions:
REMARK  status: ('A' for Active; 'I' for Inactive)
REMARK    1  A    between atoms: N1_2  and  C2_5 
REMARK    2  A    between atoms: C2_5  and  C3_6 
REMARK    3  A    between atoms: C3_6  and  C4_12 
REMARK    4  A    between atoms: N2_7  and  N3_9 
REMARK    5  A    between atoms: C6_19  and  C7_20 
REMARK    6  A    between atoms: C10_28  and  O3_29 
ROOT
HETATM    1  C4  UNL     1       2.675  18.592   2.468  1.00  0.00     0.438 C 
HETATM    2  N4  UNL     1       2.631  20.028   2.398  1.00  0.00    -0.018 N 
ATOM      3  H41 UNL     1       1.684  20.403   2.339  1.00  0.00     0.282 HD
ATOM      4  H42 UNL     1       2.968  20.402   1.511  1.00  0.00     0.282 HD
HETATM    5  C5  UNL     1       3.383  20.516   3.562  1.00  0.00     0.312 C 
HETATM    6  N5  UNL     1       2.976  21.812   3.979  1.00  0.00    -0.374 N 
ATOM      7  H5  UNL     1       2.502  21.978   4.867  1.00  0.00     0.156 HD
HETATM    8  C6  UNL     1       3.280  22.864   3.066  1.00  0.00     0.261 C 
HETATM    9  C8  UNL     1       4.746  22.851   2.807  1.00  0.00     0.249 C 
HETATM   10  O2  UNL     1       5.421  23.910   2.732  1.00  0.00    -0.271 OA
HETATM   11  N7  UNL     1       5.365  21.577   2.645  1.00  0.00    -0.345 N 
ATOM     12  H7  UNL     1       6.217  21.514   2.088  1.00  0.00     0.163 HD
HETATM   13  C9  UNL     1       4.834  20.378   3.238  1.00  0.00     0.213 C 
HETATM   14  C10 UNL     1       5.004  19.164   2.335  1.00  0.00     0.340 C 
HETATM   15  C11 UNL     1       6.334  18.558   2.541  1.00  0.00     0.131 C 
HETATM   16  N8  UNL     1       7.383  18.092   2.698  1.00  0.00    -0.192 NA
HETATM   17  N9  UNL     1       4.028  18.185   2.773  1.00  0.00     0.007 N 
ATOM     18  H91 UNL     1       4.233  17.263   2.388  1.00  0.00     0.285 HD
ATOM     19  H92 UNL     1       4.136  17.974   3.765  1.00  0.00     0.285 HD
ENDROOT
BRANCH  14  20
HETATM   20  O3  UNL     1       4.822  19.578   1.036  1.00  0.00    -0.352 OA
ATOM     21  H3  UNL     1       5.171  18.904   0.466  1.00  0.00     0.213 HD
ENDBRANCH  14  20
BRANCH   1  22
HETATM   22  C3  UNL     1       2.228  17.917   1.241  1.00  0.00     0.086 C 
HETATM   23  N2  UNL     1       1.870  18.648   0.259  1.00  0.00    -0.310 N 
ATOM     24  H2  UNL     1       1.902  19.664   0.347  1.00  0.00     0.185 HD
BRANCH  22  25
HETATM   25  C2  UNL     1       2.166  16.456   1.071  1.00  0.00     0.289 C 
BRANCH  25  26
HETATM   26  N1  UNL     1       1.378  15.797   2.084  1.00  0.00    -0.074 N 
HETATM   27  C1  UNL     1      -0.009  15.816   1.602  1.00  0.00     0.267 C 
ATOM     28  H12 UNL     1       1.490  16.203   3.013  1.00  0.00     0.277 HD
ATOM     29  H11 UNL     1       1.714  14.862   2.314  1.00  0.00     0.277 HD
ENDBRANCH  25  26
ENDBRANCH  22  25
BRANCH  23  30
HETATM   30  N3  UNL     1       1.442  18.075  -0.919  1.00  0.00    -0.345 N 
ATOM     31  H32 UNL     1       0.820  18.609  -1.527  1.00  0.00     0.176 HD
ATOM     32  H31 UNL     1       1.742  17.136  -1.176  1.00  0.00     0.176 HD
ENDBRANCH  23  30
ENDBRANCH   1  22
BRANCH   8  33
HETATM   33  C7  UNL     1       2.835  24.162   3.625  1.00  0.00     0.263 C 
HETATM   34  N6  UNL     1       2.760  24.382   5.025  1.00  0.00    -0.060 NA
HETATM   35  O1  UNL     1       2.519  25.082   2.828  1.00  0.00    -0.274 OA
ENDBRANCH   8  33
TORSDOF 6
ENDMDL
MODEL 4
REMARK VINA RESULT: -6.244797140      3.351      6.208
REMARK  6 active torsions:
REMARK  status: ('A' for Active; 'I' for Inactive)
REMARK    1  A    between atoms: N1_2  and  C2_5 
REMARK    2  A    between atoms: C2_5  and  C3_6 
REMARK    3  A    between atoms: C3_6  and  C4_12 
REMARK    4  A    between atoms: N2_7  and  N3_9 
REMARK    5  A    between atoms: C6_19  and  C7_20 
REMARK    6  A    between atoms: C10_28  and  O3_29 
ROOT
HETATM    1  C4  UNL     1       4.270  21.877   4.583  1.00  0.00     0.438 C 
HETATM    2  N4  UNL     1       2.867  21.700   4.847  1.00  0.00    -0.018 N 
ATOM      3  H41 UNL     1       2.302  21.610   4.002  1.00  0.00     0.282 HD
ATOM      4  H42 UNL     1       2.413  22.538   5.211  1.00  0.00     0.282 HD
HETATM    5  C5  UNL     1       2.764  20.542   5.746  1.00  0.00     0.312 C 
HETATM    6  N5  UNL     1       1.511  19.878   5.651  1.00  0.00    -0.374 N 
ATOM      7  H5  UNL     1       1.418  18.936   5.270  1.00  0.00     0.156 HD
HETATM    8  C6  UNL     1       0.394  20.624   6.128  1.00  0.00     0.261 C 
HETATM    9  C8  UNL     1       0.657  21.011   7.541  1.00  0.00     0.249 C 
HETATM   10  O2  UNL     1      -0.238  20.967   8.424  1.00  0.00    -0.271 OA
HETATM   11  N7  UNL     1       1.979  21.439   7.861  1.00  0.00    -0.345 N 
ATOM     12  H7  UNL     1       2.111  22.073   8.649  1.00  0.00     0.163 HD
HETATM   13  C9  UNL     1       3.133  21.013   7.114  1.00  0.00     0.213 C 
HETATM   14  C10 UNL     1       4.169  22.118   6.971  1.00  0.00     0.340 C 
HETATM   15  C11 UNL     1       5.061  22.136   8.147  1.00  0.00     0.131 C 
HETATM   16  N8  UNL     1       5.751  22.154   9.078  1.00  0.00    -0.192 NA
HETATM   17  N9  UNL     1       4.992  21.766   5.830  1.00  0.00     0.007 N 
ATOM     18  H91 UNL     1       5.850  22.317   5.811  1.00  0.00     0.285 HD
ATOM     19  H92 UNL     1       5.399  20.837   5.941  1.00  0.00     0.285 HD
ENDROOT
BRANCH  14  20
HETATM   20  O3  UNL     1       3.496  23.307   6.816  1.00  0.00    -0.352 OA
ATOM     21  H3  UNL     1       3.927  23.796   6.124  1.00  0.00     0.213 HD
ENDBRANCH  14  20
BRANCH   1  22
HETATM   22  C3  UNL     1       4.603  23.155   3.939  1.00  0.00     0.086 C 
HETATM   23  N2  UNL     1       5.518  23.866   4.471  1.00  0.00    -0.310 N 
ATOM     24  H2  UNL     1       5.987  23.538   5.315  1.00  0.00     0.185 HD
BRANCH  22  25
HETATM   25  C2  UNL     1       3.951  23.667   2.722  1.00  0.00     0.289 C 
BRANCH  25  26
HETATM   26  N1  UNL     1       2.785  24.472   2.995  1.00  0.00    -0.074 N 
HETATM   27  C1  UNL     1       2.879  25.643   2.115  1.00  0.00     0.267 C 
ATOM     28  H12 UNL     1       2.681  24.713   3.981  1.00  0.00     0.277 HD
ATOM     29  H11 UNL     1       1.908  23.960   2.898  1.00  0.00     0.277 HD
ENDBRANCH  25  26
ENDBRANCH  22  25
BRANCH  23  30
HETATM   30  N3  UNL     1       5.876  25.075   3.913  1.00  0.00    -0.345 N 
ATOM     31  H32 UNL     1       5.376  25.402   3.087  1.00  0.00     0.176 HD
ATOM     32  H31 UNL     1       6.628  25.629   4.321  1.00  0.00     0.176 HD
ENDBRANCH  23  30
ENDBRANCH   1  22
BRANCH   8  33
HETATM   33  C7  UNL     1      -0.843  19.818   6.003  1.00  0.00     0.263 C 
HETATM   34  N6  UNL     1      -2.092  20.417   5.693  1.00  0.00    -0.060 NA
HETATM   35  O1  UNL     1      -0.770  18.575   6.179  1.00  0.00    -0.274 OA
ENDBRANCH   8  33
TORSDOF 6
ENDMDL
MODEL 5
REMARK VINA RESULT: -6.205516590      2.467      6.426
REMARK  6 active torsions:
REMARK  status: ('A' for Active; 'I' for Inactive)
REMARK    1  A    between atoms: N1_2  and  C2_5 
REMARK    2  A    between atoms: C2_5  and  C3_6 
REMARK    3  A    between atoms: C3_6  and  C4_12 
REMARK    4  A    between atoms: N2_7  and  N3_9 
REMARK    5  A    between atoms: C6_19  and  C7_20 
REMARK    6  A    between atoms: C10_28  and  O3_29 
ROOT
HETATM    1  C4  UNL     1       5.577  19.464   1.071  1.00  0.00     0.438 C 
HETATM    2  N4  UNL     1       5.715  20.736   1.728  1.00  0.00    -0.018 N 
ATOM      3  H41 UNL     1       6.156  21.448   1.147  1.00  0.00     0.282 HD
ATOM      4  H42 UNL     1       6.411  20.735   2.474  1.00  0.00     0.282 HD
HETATM    5  C5  UNL     1       4.368  21.105   2.186  1.00  0.00     0.312 C 
HETATM    6  N5  UNL     1       4.195  22.510   2.319  1.00  0.00    -0.374 N 
ATOM      7  H5  UNL     1       3.574  23.045   1.713  1.00  0.00     0.156 HD
HETATM    8  C6  UNL     1       4.955  23.116   3.362  1.00  0.00     0.261 C 
HETATM    9  C8  UNL     1       4.615  22.440   4.644  1.00  0.00     0.249 C 
HETATM   10  O2  UNL     1       4.459  23.079   5.716  1.00  0.00    -0.271 OA
HETATM   11  N7  UNL     1       4.470  21.022   4.611  1.00  0.00    -0.345 N 
ATOM     12  H7  UNL     1       4.643  20.491   5.464  1.00  0.00     0.163 HD
HETATM   13  C9  UNL     1       4.089  20.310   3.419  1.00  0.00     0.213 C 
HETATM   14  C10 UNL     1       4.803  18.973   3.291  1.00  0.00     0.340 C 
HETATM   15  C11 UNL     1       4.067  17.929   4.030  1.00  0.00     0.131 C 
HETATM   16  N8  UNL     1       3.491  17.115   4.621  1.00  0.00    -0.192 NA
HETATM   17  N9  UNL     1       4.748  18.608   1.889  1.00  0.00     0.007 N 
ATOM     18  H91 UNL     1       4.985  17.625   1.754  1.00  0.00     0.285 HD
ATOM     19  H92 UNL     1       3.786  18.590   1.550  1.00  0.00     0.285 HD
ENDROOT
BRANCH  14  20
HETATM   20  O3  UNL     1       6.084  19.134   3.766  1.00  0.00    -0.352 OA
ATOM     21  H3  UNL     1       6.424  18.273   3.981  1.00  0.00     0.213 HD
ENDBRANCH  14  20
BRANCH   1  22
HETATM   22  C3  UNL     1       6.854  18.789   0.797  1.00  0.00     0.086 C 
HETATM   23  N2  UNL     1       7.772  19.467   0.229  1.00  0.00    -0.310 N 
ATOM     24  H2  UNL     1       7.602  20.442  -0.018  1.00  0.00     0.185 HD
BRANCH  22  25
HETATM   25  C2  UNL     1       7.141  17.386   1.134  1.00  0.00     0.289 C 
BRANCH  25  26
HETATM   26  N1  UNL     1       7.844  17.232   2.386  1.00  0.00    -0.074 N 
HETATM   27  C1  UNL     1       7.293  16.030   3.023  1.00  0.00     0.267 C 
ATOM     28  H12 UNL     1       7.802  18.061   2.978  1.00  0.00     0.277 HD
ATOM     29  H11 UNL     1       8.859  17.206   2.279  1.00  0.00     0.277 HD
ENDBRANCH  25  26
ENDBRANCH  22  25
BRANCH  23  30
HETATM   30  N3  UNL     1       8.992  18.891  -0.055  1.00  0.00    -0.345 N 
ATOM     31  H32 UNL     1       9.583  19.318  -0.768  1.00  0.00     0.176 HD
ATOM     32  H31 UNL     1       9.296  18.054   0.441  1.00  0.00     0.176 HD
ENDBRANCH  23  30
ENDBRANCH   1  22
BRANCH   8  33
HETATM   33  C7  UNL     1       4.668  24.568   3.418  1.00  0.00     0.263 C 
HETATM   34  N6  UNL     1       3.382  25.084   3.107  1.00  0.00    -0.060 NA
HETATM   35  O1  UNL     1       5.594  25.352   3.750  1.00  0.00    -0.274 OA
ENDBRANCH   8  33
TORSDOF 6
ENDMDL
