MODEL 1
REMARK VINA RESULT: -6.604852922      0.000      0.000
REMARK  5 active torsions:
REMARK  status: ('A' for Active; 'I' for Inactive)
REMARK    1  A    between atoms: C2_2  and  C4_4 
REMARK    2  A    between atoms: C4_4  and  C5_6 
REMARK    3  A    between atoms: C7_9  and  C8_10 
REMARK    4  A    between atoms: C8_10  and  N1_11 
REMARK    5  A    between atoms: N1_11  and  C10_13 
ROOT
HETATM    1  C5  UNL     1      19.042   7.173  -5.701  1.00  0.00     0.059 C 
HETATM    2  C6  UNL     1      18.918   5.901  -4.942  1.00  0.00     0.176 C 
HETATM    3  O1  UNL     1      20.287   6.021  -4.590  1.00  0.00    -0.383 OA
HETATM    4  C7  UNL     1      20.107   7.422  -4.654  1.00  0.00     0.157 C 
ENDROOT
BRANCH   4   5
HETATM    5  C8  UNL     1      21.356   8.034  -5.311  1.00  0.00     0.304 C 
BRANCH   5   6
HETATM    6  N1  UNL     1      22.031   8.838  -4.380  1.00  0.00     0.091 N 
HETATM    7  C9  UNL     1      21.162   9.167  -3.268  1.00  0.00     0.310 C 
BRANCH   6   8
HETATM    8  C10 UNL     1      23.302   8.448  -3.903  1.00  0.00     0.226 C 
HETATM    9  C11 UNL     1      23.436   8.363  -2.394  1.00  0.00     0.062 C 
HETATM   10  C12 UNL     1      24.771   7.646  -2.159  1.00  0.00     0.169 C 
HETATM   11  O2  UNL     1      24.623   6.279  -2.388  1.00  0.00    -0.391 OA
HETATM   12  C13 UNL     1      23.628   6.040  -3.352  1.00  0.00     0.169 C 
HETATM   13  C14 UNL     1      23.766   7.104  -4.420  1.00  0.00     0.062 C 
ENDBRANCH   6   8
ENDBRANCH   5   6
ENDBRANCH   4   5
BRANCH   1  14
HETATM   14  C4  UNL     1      17.922   8.148  -5.676  1.00  0.00     0.094 C 
HETATM   15 CL1  UNL     1      16.562   7.509  -4.726  1.00  0.00    -0.124 Cl
BRANCH  14  16
HETATM   16  C2  UNL     1      17.411   8.515  -7.045  1.00  0.00    -0.004 C 
HETATM   17  C1  UNL     1      18.163   7.748  -8.115  1.00  0.00     0.011 C 
HETATM   18  C3  UNL     1      15.947   8.334  -7.238  1.00  0.00     0.011 C 
ENDBRANCH  14  16
ENDBRANCH   1  14
TORSDOF 5
ENDMDL
MODEL 2
REMARK VINA RESULT: -6.589533492      1.067      1.572
REMARK  5 active torsions:
REMARK  status: ('A' for Active; 'I' for Inactive)
REMARK    1  A    between atoms: C2_2  and  C4_4 
REMARK    2  A    between atoms: C4_4  and  C5_6 
REMARK    3  A    between atoms: C7_9  and  C8_10 
REMARK    4  A    between atoms: C8_10  and  N1_11 
REMARK    5  A    between atoms: N1_11  and  C10_13 
ROOT
HETATM    1  C5  UNL     1      18.559   6.785  -5.669  1.00  0.00     0.059 C 
HETATM    2  C6  UNL     1      18.243   5.643  -4.772  1.00  0.00     0.176 C 
HETATM    3  O1  UNL     1      19.636   5.444  -4.596  1.00  0.00    -0.383 OA
HETATM    4  C7  UNL     1      19.787   6.837  -4.784  1.00  0.00     0.157 C 
ENDROOT
BRANCH   4   5
HETATM    5  C8  UNL     1      21.043   7.069  -5.642  1.00  0.00     0.304 C 
BRANCH   5   6
HETATM    6  N1  UNL     1      21.832   8.072  -5.058  1.00  0.00     0.091 N 
HETATM    7  C9  UNL     1      21.178   9.361  -5.166  1.00  0.00     0.310 C 
BRANCH   6   8
HETATM    8  C10 UNL     1      22.342   7.896  -3.752  1.00  0.00     0.226 C 
HETATM    9  C11 UNL     1      23.819   7.558  -3.668  1.00  0.00     0.062 C 
HETATM   10  C12 UNL     1      24.173   7.720  -2.184  1.00  0.00     0.169 C 
HETATM   11  O2  UNL     1      24.295   9.072  -1.870  1.00  0.00    -0.391 OA
HETATM   12  C13 UNL     1      23.459   9.851  -2.687  1.00  0.00     0.169 C 
HETATM   13  C14 UNL     1      22.157   9.099  -2.854  1.00  0.00     0.062 C 
ENDBRANCH   6   8
ENDBRANCH   5   6
ENDBRANCH   4   5
BRANCH   1  14
HETATM   14  C4  UNL     1      17.717   8.007  -5.618  1.00  0.00     0.094 C 
HETATM   15 CL1  UNL     1      16.228   7.698  -4.696  1.00  0.00    -0.124 Cl
BRANCH  14  16
HETATM   16  C2  UNL     1      17.332   8.532  -6.976  1.00  0.00    -0.004 C 
HETATM   17  C1  UNL     1      18.119   7.824  -8.061  1.00  0.00     0.011 C 
HETATM   18  C3  UNL     1      15.879   8.463  -7.287  1.00  0.00     0.011 C 
ENDBRANCH  14  16
ENDBRANCH   1  14
TORSDOF 5
ENDMDL
MODEL 3
REMARK VINA RESULT: -6.202551895      1.287      1.590
REMARK  5 active torsions:
REMARK  status: ('A' for Active; 'I' for Inactive)
REMARK    1  A    between atoms: C2_2  and  C4_4 
REMARK    2  A    between atoms: C4_4  and  C5_6 
REMARK    3  A    between atoms: C7_9  and  C8_10 
REMARK    4  A    between atoms: C8_10  and  N1_11 
REMARK    5  A    between atoms: N1_11  and  C10_13 
ROOT
HETATM    1  C5  UNL     1      18.461   6.300  -5.320  1.00  0.00     0.059 C 
HETATM    2  C6  UNL     1      18.446   4.897  -4.829  1.00  0.00     0.176 C 
HETATM    3  O1  UNL     1      19.822   5.032  -4.513  1.00  0.00    -0.383 OA
HETATM    4  C7  UNL     1      19.563   6.403  -4.287  1.00  0.00     0.157 C 
ENDROOT
BRANCH   4   5
HETATM    5  C8  UNL     1      20.742   7.212  -4.854  1.00  0.00     0.304 C 
BRANCH   5   6
HETATM    6  N1  UNL     1      20.792   8.468  -4.233  1.00  0.00     0.091 N 
HETATM    7  C9  UNL     1      20.033   8.456  -2.998  1.00  0.00     0.310 C 
BRANCH   6   8
HETATM    8  C10 UNL     1      22.037   9.105  -4.030  1.00  0.00     0.226 C 
HETATM    9  C11 UNL     1      22.139   9.956  -2.778  1.00  0.00     0.062 C 
HETATM   10  C12 UNL     1      23.635  10.270  -2.640  1.00  0.00     0.169 C 
HETATM   11  O2  UNL     1      24.310   9.159  -2.139  1.00  0.00    -0.391 OA
HETATM   12  C13 UNL     1      23.672   7.970  -2.530  1.00  0.00     0.169 C 
HETATM   13  C14 UNL     1      23.210   8.151  -3.960  1.00  0.00     0.062 C 
ENDBRANCH   6   8
ENDBRANCH   5   6
ENDBRANCH   4   5
BRANCH   1  14
HETATM   14  C4  UNL     1      17.293   7.177  -5.057  1.00  0.00     0.094 C 
HETATM   15 CL1  UNL     1      15.814   6.206  -4.877  1.00  0.00    -0.124 Cl
BRANCH  14  16
HETATM   16  C2  UNL     1      17.055   8.204  -6.132  1.00  0.00    -0.004 C 
HETATM   17  C1  UNL     1      18.049   8.028  -7.263  1.00  0.00     0.011 C 
HETATM   18  C3  UNL     1      15.673   8.231  -6.682  1.00  0.00     0.011 C 
ENDBRANCH  14  16
ENDBRANCH   1  14
TORSDOF 5
ENDMDL
MODEL 4
REMARK VINA RESULT: -6.105059751      1.908      2.410
REMARK  5 active torsions:
REMARK  status: ('A' for Active; 'I' for Inactive)
REMARK    1  A    between atoms: C2_2  and  C4_4 
REMARK    2  A    between atoms: C4_4  and  C5_6 
REMARK    3  A    between atoms: C7_9  and  C8_10 
REMARK    4  A    between atoms: C8_10  and  N1_11 
REMARK    5  A    between atoms: N1_11  and  C10_13 
ROOT
HETATM    1  C5  UNL     1      19.187   5.019  -4.420  1.00  0.00     0.059 C 
HETATM    2  C6  UNL     1      19.720   4.019  -3.458  1.00  0.00     0.176 C 
HETATM    3  O1  UNL     1      20.925   4.765  -3.407  1.00  0.00    -0.383 OA
HETATM    4  C7  UNL     1      20.140   5.915  -3.657  1.00  0.00     0.157 C 
ENDROOT
BRANCH   4   5
HETATM    5  C8  UNL     1      20.912   6.815  -4.637  1.00  0.00     0.304 C 
BRANCH   5   6
HETATM    6  N1  UNL     1      20.804   8.153  -4.229  1.00  0.00     0.091 N 
HETATM    7  C9  UNL     1      19.930   8.266  -3.078  1.00  0.00     0.310 C 
BRANCH   6   8
HETATM    8  C10 UNL     1      21.970   8.926  -4.030  1.00  0.00     0.226 C 
HETATM    9  C11 UNL     1      21.967   9.806  -2.794  1.00  0.00     0.062 C 
HETATM   10  C12 UNL     1      23.418  10.284  -2.652  1.00  0.00     0.169 C 
HETATM   11  O2  UNL     1      24.206   9.263  -2.125  1.00  0.00    -0.391 OA
HETATM   12  C13 UNL     1      23.705   8.004  -2.497  1.00  0.00     0.169 C 
HETATM   13  C14 UNL     1      23.239   8.107  -3.934  1.00  0.00     0.062 C 
ENDBRANCH   6   8
ENDBRANCH   5   6
ENDBRANCH   4   5
BRANCH   1  14
HETATM   14  C4  UNL     1      17.762   5.427  -4.331  1.00  0.00     0.094 C 
HETATM   15 CL1  UNL     1      16.709   3.998  -4.240  1.00  0.00    -0.124 Cl
BRANCH  14  16
HETATM   16  C2  UNL     1      17.306   6.278  -5.487  1.00  0.00    -0.004 C 
HETATM   17  C1  UNL     1      16.040   5.708  -6.097  1.00  0.00     0.011 C 
HETATM   18  C3  UNL     1      17.100   7.716  -5.166  1.00  0.00     0.011 C 
ENDBRANCH  14  16
ENDBRANCH   1  14
TORSDOF 5
ENDMDL
MODEL 5
REMARK VINA RESULT: -6.093984019      1.364      1.869
REMARK  5 active torsions:
REMARK  status: ('A' for Active; 'I' for Inactive)
REMARK    1  A    between atoms: C2_2  and  C4_4 
REMARK    2  A    between atoms: C4_4  and  C5_6 
REMARK    3  A    between atoms: C7_9  and  C8_10 
REMARK    4  A    between atoms: C8_10  and  N1_11 
REMARK    5  A    between atoms: N1_11  and  C10_13 
ROOT
HETATM    1  C5  UNL     1      18.174   6.634  -5.491  1.00  0.00     0.059 C 
HETATM    2  C6  UNL     1      17.550   5.489  -4.778  1.00  0.00     0.176 C 
HETATM    3  O1  UNL     1      18.839   5.122  -4.315  1.00  0.00    -0.383 OA
HETATM    4  C7  UNL     1      19.167   6.497  -4.356  1.00  0.00     0.157 C 
ENDROOT
BRANCH   4   5
HETATM    5  C8  UNL     1      20.602   6.629  -4.894  1.00  0.00     0.304 C 
BRANCH   5   6
HETATM    6  N1  UNL     1      21.484   6.861  -3.828  1.00  0.00     0.091 N 
HETATM    7  C9  UNL     1      22.258   5.670  -3.539  1.00  0.00     0.310 C 
BRANCH   6   8
HETATM    8  C10 UNL     1      22.329   7.994  -3.846  1.00  0.00     0.226 C 
HETATM    9  C11 UNL     1      21.889   9.150  -2.967  1.00  0.00     0.062 C 
HETATM   10  C12 UNL     1      23.098  10.095  -2.932  1.00  0.00     0.169 C 
HETATM   11  O2  UNL     1      24.069   9.592  -2.069  1.00  0.00    -0.391 OA
HETATM   12  C13 UNL     1      24.022   8.188  -2.028  1.00  0.00     0.169 C 
HETATM   13  C14 UNL     1      23.756   7.702  -3.437  1.00  0.00     0.062 C 
ENDBRANCH   6   8
ENDBRANCH   5   6
ENDBRANCH   4   5
BRANCH   1  14
HETATM   14  C4  UNL     1      17.469   7.940  -5.530  1.00  0.00     0.094 C 
HETATM   15 CL1  UNL     1      15.843   7.791  -4.827  1.00  0.00    -0.124 Cl
BRANCH  14  16
HETATM   16  C2  UNL     1      17.334   8.511  -6.917  1.00  0.00    -0.004 C 
HETATM   17  C1  UNL     1      18.225   7.763  -7.888  1.00  0.00     0.011 C 
HETATM   18  C3  UNL     1      15.944   8.553  -7.447  1.00  0.00     0.011 C 
ENDBRANCH  14  16
ENDBRANCH   1  14
TORSDOF 5
ENDMDL
