MODEL 1
REMARK VINA RESULT: -5.779497358      0.000      0.000
REMARK  5 active torsions:
REMARK  status: ('A' for Active; 'I' for Inactive)
REMARK    1  A    between atoms: C4_5  and  C5_7 
REMARK    2  A    between atoms: C8_11  and  C9_12 
REMARK    3  A    between atoms: C12_15  and  C13_16 
REMARK    4  A    between atoms: C13_16  and  C14_17 
REMARK    5  A    between atoms: C14_17  and  N1_18 
ROOT
HETATM    1  C1  UNL     1      20.337   4.333  -2.713  1.00  0.00     0.023 C 
HETATM    2  C2  UNL     1      20.320   5.105  -3.762  1.00  0.00    -0.014 C 
HETATM    3  C3  UNL     1      21.443   6.009  -4.013  1.00  0.00     0.182 C 
HETATM    4  O1  UNL     1      22.586   5.656  -3.625  1.00  0.00    -0.290 OA
HETATM    5  C4  UNL     1      21.247   7.316  -4.707  1.00  0.00     0.143 C 
HETATM    6 BR1  UNL     1      20.952   8.686  -3.388  1.00  0.00    -0.068 Br
HETATM    7  C7  UNL     1      20.028   7.177  -5.541  1.00  0.00     0.162 C 
HETATM    8  O2  UNL     1      20.013   7.567  -6.687  1.00  0.00    -0.295 OA
HETATM    9  C8  UNL     1      18.815   6.523  -4.887  1.00  0.00     0.088 C 
HETATM   10  C12 UNL     1      19.156   5.096  -4.758  1.00  0.00     0.038 C 
ENDROOT
BRANCH  10  11
HETATM   11  C13 UNL     1      18.166   4.119  -4.269  1.00  0.00     0.030 C 
BRANCH  11  12
HETATM   12  C14 UNL     1      17.789   2.981  -5.134  1.00  0.00     0.116 C 
BRANCH  12  13
HETATM   13  N1  UNL     1      18.413   1.730  -4.741  1.00  0.00    -0.421 N 
HETATM   14  C15 UNL     1      19.718   1.520  -5.267  1.00  0.00     0.142 C 
HETATM   15  C16 UNL     1      18.239   1.378  -3.379  1.00  0.00     0.142 C 
ENDBRANCH  12  13
ENDBRANCH  11  12
ENDBRANCH  10  11
BRANCH   9  16
HETATM   16  C9  UNL     1      17.667   6.964  -5.643  1.00  0.00    -0.018 C 
HETATM   17  C10 UNL     1      16.848   7.883  -5.138  1.00  0.00    -0.034 C 
HETATM   18  C11 UNL     1      15.645   8.403  -5.835  1.00  0.00     0.036 C 
ENDBRANCH   9  16
BRANCH   5  19
HETATM   19  C5  UNL     1      22.445   7.620  -5.572  1.00  0.00     0.033 C 
HETATM   20  C6  UNL     1      23.140   8.890  -5.155  1.00  0.00     0.007 C 
ENDBRANCH   5  19
TORSDOF 5
ENDMDL
MODEL 2
REMARK VINA RESULT: -5.561656950      6.517      9.017
REMARK  5 active torsions:
REMARK  status: ('A' for Active; 'I' for Inactive)
REMARK    1  A    between atoms: C4_5  and  C5_7 
REMARK    2  A    between atoms: C8_11  and  C9_12 
REMARK    3  A    between atoms: C12_15  and  C13_16 
REMARK    4  A    between atoms: C13_16  and  C14_17 
REMARK    5  A    between atoms: C14_17  and  N1_18 
ROOT
HETATM    1  C1  UNL     1      23.326  -1.412   0.146  1.00  0.00     0.023 C 
HETATM    2  C2  UNL     1      22.615  -0.536   0.797  1.00  0.00    -0.014 C 
HETATM    3  C3  UNL     1      21.992  -0.911   2.067  1.00  0.00     0.182 C 
HETATM    4  O1  UNL     1      22.572  -1.769   2.780  1.00  0.00    -0.290 OA
HETATM    5  C4  UNL     1      20.706  -0.298   2.512  1.00  0.00     0.143 C 
HETATM    6 BR1  UNL     1      19.248  -1.409   1.923  1.00  0.00    -0.068 Br
HETATM    7  C7  UNL     1      20.608   1.022   1.841  1.00  0.00     0.162 C 
HETATM    8  O2  UNL     1      20.274   2.007   2.459  1.00  0.00    -0.295 OA
HETATM    9  C8  UNL     1      20.950   1.068   0.355  1.00  0.00     0.088 C 
HETATM   10  C12 UNL     1      22.410   0.891   0.279  1.00  0.00     0.038 C 
ENDROOT
BRANCH  10  11
HETATM   11  C13 UNL     1      23.123   0.998  -1.008  1.00  0.00     0.030 C 
BRANCH  11  12
HETATM   12  C14 UNL     1      23.606   2.322  -1.454  1.00  0.00     0.116 C 
BRANCH  12  13
HETATM   13  N1  UNL     1      24.903   2.270  -2.106  1.00  0.00    -0.421 N 
HETATM   14  C15 UNL     1      25.544   3.530  -2.265  1.00  0.00     0.142 C 
HETATM   15  C16 UNL     1      25.740   1.207  -1.686  1.00  0.00     0.142 C 
ENDBRANCH  12  13
ENDBRANCH  11  12
ENDBRANCH  10  11
BRANCH   9  16
HETATM   16  C9  UNL     1      20.300   2.246  -0.168  1.00  0.00    -0.018 C 
HETATM   17  C10 UNL     1      19.602   2.176  -1.298  1.00  0.00    -0.034 C 
HETATM   18  C11 UNL     1      18.897   3.328  -1.916  1.00  0.00     0.036 C 
ENDBRANCH   9  16
BRANCH   5  19
HETATM   19  C5  UNL     1      20.710  -0.129   4.010  1.00  0.00     0.033 C 
HETATM   20  C6  UNL     1      19.477  -0.708   4.652  1.00  0.00     0.007 C 
ENDBRANCH   5  19
TORSDOF 5
ENDMDL
MODEL 3
REMARK VINA RESULT: -5.516904885      8.480     10.285
REMARK  5 active torsions:
REMARK  status: ('A' for Active; 'I' for Inactive)
REMARK    1  A    between atoms: C4_5  and  C5_7 
REMARK    2  A    between atoms: C8_11  and  C9_12 
REMARK    3  A    between atoms: C12_15  and  C13_16 
REMARK    4  A    between atoms: C13_16  and  C14_17 
REMARK    5  A    between atoms: C14_17  and  N1_18 
ROOT
HETATM    1  C1  UNL     1      28.731  -1.064  -1.693  1.00  0.00     0.023 C 
HETATM    2  C2  UNL     1      28.456  -0.024  -2.427  1.00  0.00    -0.014 C 
HETATM    3  C3  UNL     1      27.891   1.173  -1.802  1.00  0.00     0.182 C 
HETATM    4  O1  UNL     1      28.209   1.424  -0.611  1.00  0.00    -0.290 OA
HETATM    5  C4  UNL     1      26.964   2.075  -2.547  1.00  0.00     0.143 C 
HETATM    6 BR1  UNL     1      25.151   1.525  -2.209  1.00  0.00    -0.068 Br
HETATM    7  C7  UNL     1      27.263   1.894  -3.990  1.00  0.00     0.162 C 
HETATM    8  O2  UNL     1      27.372   2.850  -4.724  1.00  0.00    -0.295 OA
HETATM    9  C8  UNL     1      27.425   0.461  -4.487  1.00  0.00     0.088 C 
HETATM   10  C12 UNL     1      28.709  -0.005  -3.937  1.00  0.00     0.038 C 
ENDROOT
BRANCH  10  11
HETATM   11  C13 UNL     1      29.261  -1.322  -4.307  1.00  0.00     0.030 C 
BRANCH  11  12
HETATM   12  C14 UNL     1      29.948  -1.476  -5.607  1.00  0.00     0.116 C 
BRANCH  12  13
HETATM   13  N1  UNL     1      29.354  -2.497  -6.453  1.00  0.00    -0.421 N 
HETATM   14  C15 UNL     1      28.256  -3.191  -5.873  1.00  0.00     0.142 C 
HETATM   15  C16 UNL     1      29.196  -2.128  -7.812  1.00  0.00     0.142 C 
ENDBRANCH  12  13
ENDBRANCH  11  12
ENDBRANCH  10  11
BRANCH   9  16
HETATM   16  C9  UNL     1      27.177   0.502  -5.909  1.00  0.00    -0.018 C 
HETATM   17  C10 UNL     1      26.153  -0.172  -6.426  1.00  0.00    -0.034 C 
HETATM   18  C11 UNL     1      25.814  -0.193  -7.872  1.00  0.00     0.036 C 
ENDBRANCH   9  16
BRANCH   5  19
HETATM   19  C5  UNL     1      27.201   3.506  -2.136  1.00  0.00     0.033 C 
HETATM   20  C6  UNL     1      25.919   4.290  -2.036  1.00  0.00     0.007 C 
ENDBRANCH   5  19
TORSDOF 5
ENDMDL
MODEL 4
REMARK VINA RESULT: -5.314588885      5.559      7.734
REMARK  5 active torsions:
REMARK  status: ('A' for Active; 'I' for Inactive)
REMARK    1  A    between atoms: C4_5  and  C5_7 
REMARK    2  A    between atoms: C8_11  and  C9_12 
REMARK    3  A    between atoms: C12_15  and  C13_16 
REMARK    4  A    between atoms: C13_16  and  C14_17 
REMARK    5  A    between atoms: C14_17  and  N1_18 
ROOT
HETATM    1  C1  UNL     1      25.328   4.920  -2.980  1.00  0.00     0.023 C 
HETATM    2  C2  UNL     1      25.326   3.646  -2.712  1.00  0.00    -0.014 C 
HETATM    3  C3  UNL     1      26.526   3.024  -2.150  1.00  0.00     0.182 C 
HETATM    4  O1  UNL     1      27.269   3.725  -1.418  1.00  0.00    -0.290 OA
HETATM    5  C4  UNL     1      26.867   1.598  -2.433  1.00  0.00     0.143 C 
HETATM    6 BR1  UNL     1      28.028   1.526  -3.967  1.00  0.00    -0.068 Br
HETATM    7  C7  UNL     1      25.592   0.912  -2.760  1.00  0.00     0.162 C 
HETATM    8  O2  UNL     1      25.327  -0.165  -2.277  1.00  0.00    -0.295 OA
HETATM    9  C8  UNL     1      24.648   1.630  -3.720  1.00  0.00     0.088 C 
HETATM   10  C12 UNL     1      24.099   2.765  -2.960  1.00  0.00     0.038 C 
ENDROOT
BRANCH  10  11
HETATM   11  C13 UNL     1      23.048   3.626  -3.534  1.00  0.00     0.030 C 
BRANCH  11  12
HETATM   12  C14 UNL     1      21.649   3.446  -3.093  1.00  0.00     0.116 C 
BRANCH  12  13
HETATM   13  N1  UNL     1      20.739   4.430  -3.653  1.00  0.00    -0.421 N 
HETATM   14  C15 UNL     1      19.487   4.537  -2.986  1.00  0.00     0.142 C 
HETATM   15  C16 UNL     1      21.341   5.658  -4.023  1.00  0.00     0.142 C 
ENDBRANCH  12  13
ENDBRANCH  11  12
ENDBRANCH  10  11
BRANCH   9  16
HETATM   16  C9  UNL     1      23.798   0.607  -4.282  1.00  0.00    -0.018 C 
HETATM   17  C10 UNL     1      23.739   0.439  -5.600  1.00  0.00    -0.034 C 
HETATM   18  C11 UNL     1      22.898  -0.582  -6.274  1.00  0.00     0.036 C 
ENDBRANCH   9  16
BRANCH   5  19
HETATM   19  C5  UNL     1      27.505   0.973  -1.219  1.00  0.00     0.033 C 
HETATM   20  C6  UNL     1      28.805   0.288  -1.548  1.00  0.00     0.007 C 
ENDBRANCH   5  19
TORSDOF 5
ENDMDL
MODEL 5
REMARK VINA RESULT: -5.196465965      6.073      8.371
REMARK  5 active torsions:
REMARK  status: ('A' for Active; 'I' for Inactive)
REMARK    1  A    between atoms: C4_5  and  C5_7 
REMARK    2  A    between atoms: C8_11  and  C9_12 
REMARK    3  A    between atoms: C12_15  and  C13_16 
REMARK    4  A    between atoms: C13_16  and  C14_17 
REMARK    5  A    between atoms: C14_17  and  N1_18 
ROOT
HETATM    1  C1  UNL     1      23.095   3.154  -3.268  1.00  0.00     0.023 C 
HETATM    2  C2  UNL     1      24.172   2.842  -2.608  1.00  0.00    -0.014 C 
HETATM    3  C3  UNL     1      25.425   3.542  -2.896  1.00  0.00     0.182 C 
HETATM    4  O1  UNL     1      25.360   4.736  -3.283  1.00  0.00    -0.290 OA
HETATM    5  C4  UNL     1      26.747   2.865  -2.738  1.00  0.00     0.143 C 
HETATM    6 BR1  UNL     1      27.255   2.086  -4.424  1.00  0.00    -0.068 Br
HETATM    7  C7  UNL     1      26.554   1.781  -1.743  1.00  0.00     0.162 C 
HETATM    8  O2  UNL     1      27.351   1.613  -0.849  1.00  0.00    -0.295 OA
HETATM    9  C8  UNL     1      25.315   0.907  -1.906  1.00  0.00     0.088 C 
HETATM   10  C12 UNL     1      24.177   1.759  -1.524  1.00  0.00     0.038 C 
ENDROOT
BRANCH  10  11
HETATM   11  C13 UNL     1      22.809   1.211  -1.445  1.00  0.00     0.030 C 
BRANCH  11  12
HETATM   12  C14 UNL     1      22.189   1.015  -0.118  1.00  0.00     0.116 C 
BRANCH  12  13
HETATM   13  N1  UNL     1      21.118   1.957   0.160  1.00  0.00    -0.421 N 
HETATM   14  C15 UNL     1      20.282   2.258  -0.951  1.00  0.00     0.142 C 
HETATM   15  C16 UNL     1      20.449   1.753   1.392  1.00  0.00     0.142 C 
ENDBRANCH  12  13
ENDBRANCH  11  12
ENDBRANCH  10  11
BRANCH   9  16
HETATM   16  C9  UNL     1      25.604  -0.328  -1.216  1.00  0.00    -0.018 C 
HETATM   17  C10 UNL     1      25.892  -1.427  -1.909  1.00  0.00    -0.034 C 
HETATM   18  C11 UNL     1      26.204  -2.742  -1.295  1.00  0.00     0.036 C 
ENDBRANCH   9  16
BRANCH   5  19
HETATM   19  C5  UNL     1      27.773   3.855  -2.247  1.00  0.00     0.033 C 
HETATM   20  C6  UNL     1      29.172   3.473  -2.653  1.00  0.00     0.007 C 
ENDBRANCH   5  19
TORSDOF 5
ENDMDL
