MODEL 1
REMARK VINA RESULT: -8.077539742      0.000      0.000
REMARK  17 active torsions:
REMARK  status: ('A' for Active; 'I' for Inactive)
REMARK    1  A    between atoms: C3_6  and  O2_7 
REMARK    2  A    between atoms: C3_6  and  C4_9 
REMARK    3  A    between atoms: C4_9  and  O3_10 
REMARK    4  A    between atoms: C4_9  and  C5_12 
REMARK    5  A    between atoms: C5_12  and  O4_13 
REMARK    6  A    between atoms: C5_12  and  O5_15 
REMARK    7  A    between atoms: C9_22  and  O8_23 
REMARK    8  A    between atoms: C10_25  and  O9_26 
REMARK    9  A    between atoms: C11_28  and  O10_29 
REMARK   10  A    between atoms: C12_31  and  C13_32 
REMARK   11  A    between atoms: C13_32  and  C14_33 
REMARK   12  A    between atoms: C13_32  and  N2_42 
REMARK   13  A    between atoms: C14_33  and  O11_34 
REMARK   14  A    between atoms: C14_33  and  C15_36 
REMARK   15  A    between atoms: C15_36  and  O12_37 
REMARK   16  A    between atoms: C15_36  and  C16_39 
REMARK   17  A    between atoms: C16_39  and  O13_40 
ROOT
HETATM    1  O1  UNL     1      14.475  15.940  35.205  1.00  0.00    -0.273 OA
HETATM    2  C1  UNL     1      14.942  14.807  35.628  1.00  0.00     0.228 C 
HETATM    3  N1  UNL     1      14.180  13.706  35.300  1.00  0.00    -0.355 N 
ATOM      4  H1  UNL     1      13.966  13.645  34.305  1.00  0.00     0.162 HD
HETATM    5  C2  UNL     1      13.627  12.630  36.066  1.00  0.00     0.194 C 
HETATM    6  C3  UNL     1      14.042  11.259  35.542  1.00  0.00     0.211 C 
HETATM    7  O6  UNL     1      15.025  10.797  36.349  1.00  0.00    -0.318 OA
HETATM    8  C6  UNL     1      16.331  10.925  35.925  1.00  0.00     0.294 C 
HETATM    9  O7  UNL     1      16.561  11.795  34.937  1.00  0.00    -0.358 OA
HETATM   10  C7  UNL     1      17.000  13.041  35.132  1.00  0.00     0.179 C 
HETATM   11  C8  UNL     1      16.784  13.604  36.546  1.00  0.00     0.060 C 
HETATM   12  C9  UNL     1      18.075  13.408  37.227  1.00  0.00     0.157 C 
HETATM   13  C10 UNL     1      18.380  11.899  37.043  1.00  0.00     0.180 C 
HETATM   14  C11 UNL     1      17.194  11.028  37.153  1.00  0.00     0.204 C 
HETATM   15  C12 UNL     1      16.209  14.963  36.372  1.00  0.00     0.137 C 
ENDROOT
BRANCH  15  16
HETATM   16  C13 UNL     1      16.137  15.894  37.483  1.00  0.00     0.058 C 
BRANCH  16  17
HETATM   17  C14 UNL     1      16.936  17.126  37.570  1.00  0.00     0.197 C 
BRANCH  17  18
HETATM   18  O11 UNL     1      16.540  17.836  38.779  1.00  0.00    -0.387 OA
ATOM     19  H11 UNL     1      16.913  18.709  38.743  1.00  0.00     0.210 HD
ENDBRANCH  17  18
BRANCH  17  20
HETATM   20  C15 UNL     1      18.418  17.020  37.774  1.00  0.00     0.176 C 
BRANCH  20  21
HETATM   21  O12 UNL     1      18.878  17.657  38.928  1.00  0.00    -0.390 OA
ATOM     22  H12 UNL     1      19.535  18.325  38.766  1.00  0.00     0.210 HD
ENDBRANCH  20  21
BRANCH  20  23
HETATM   23  C16 UNL     1      19.180  17.688  36.626  1.00  0.00     0.198 C 
BRANCH  23  24
HETATM   24  O13 UNL     1      19.097  16.920  35.468  1.00  0.00    -0.398 OA
ATOM     25  H13 UNL     1      19.763  16.243  35.465  1.00  0.00     0.209 HD
ENDBRANCH  23  24
ENDBRANCH  20  23
ENDBRANCH  17  20
ENDBRANCH  16  17
BRANCH  16  26
HETATM   26  N2  UNL     1      14.840  16.074  38.116  1.00  0.00    -0.256 N 
HETATM   27  C17 UNL     1      14.251  15.349  39.059  1.00  0.00     0.207 A 
HETATM   28  N3  UNL     1      13.053  15.896  39.360  1.00  0.00    -0.346 N 
HETATM   29  C18 UNL     1      12.916  16.979  38.579  1.00  0.00     0.198 A 
ATOM     30  H3  UNL     1      12.383  15.553  40.047  1.00  0.00     0.167 HD
HETATM   31  N4  UNL     1      14.015  17.059  37.838  1.00  0.00    -0.289 N 
ATOM     32  H4  UNL     1      14.196  17.788  37.147  1.00  0.00     0.188 HD
ENDBRANCH  16  26
ENDBRANCH  15  16
BRANCH  12  33
HETATM   33  O8  UNL     1      19.179  14.001  36.588  1.00  0.00    -0.392 OA
ATOM     34  H8  UNL     1      19.275  14.934  36.736  1.00  0.00     0.210 HD
ENDBRANCH  12  33
BRANCH  13  35
HETATM   35  O9  UNL     1      19.265  11.580  38.076  1.00  0.00    -0.390 OA
ATOM     36  H9  UNL     1      18.795  11.785  38.876  1.00  0.00     0.210 HD
ENDBRANCH  13  35
BRANCH   6  37
HETATM   37  O2  UNL     1      14.367  11.374  34.188  1.00  0.00    -0.362 OA
ATOM     38  H2  UNL     1      15.289  11.588  34.110  1.00  0.00     0.213 HD
ENDBRANCH   6  37
BRANCH   6  39
HETATM   39  C4  UNL     1      12.852  10.329  35.646  1.00  0.00     0.236 C 
BRANCH  39  40
HETATM   40  O3  UNL     1      13.201   9.120  34.969  1.00  0.00    -0.385 OA
ATOM     41  H3  UNL     1      13.189   9.307  34.037  1.00  0.00     0.210 HD
ENDBRANCH  39  40
BRANCH  39  42
HETATM   42  C5  UNL     1      12.462   9.983  37.056  1.00  0.00     0.287 C 
BRANCH  42  43
HETATM   43  O4  UNL     1      11.097   9.943  37.275  1.00  0.00    -0.369 OA
ATOM     44  H4  UNL     1      10.846   9.994  38.190  1.00  0.00     0.212 HD
ENDBRANCH  42  43
BRANCH  42  45
HETATM   45  O5  UNL     1      12.964   8.728  37.403  1.00  0.00    -0.369 OA
ATOM     46  H5  UNL     1      12.445   8.347  38.101  1.00  0.00     0.212 HD
ENDBRANCH  42  45
ENDBRANCH  39  42
ENDBRANCH   6  39
BRANCH  14  47
HETATM   47  O10 UNL     1      17.692   9.748  37.528  1.00  0.00    -0.388 OA
ATOM     48  H10 UNL     1      18.641   9.756  37.571  1.00  0.00     0.210 HD
ENDBRANCH  14  47
TORSDOF 17
ENDMDL
MODEL 2
REMARK VINA RESULT: -8.044352119      1.489      2.673
REMARK  17 active torsions:
REMARK  status: ('A' for Active; 'I' for Inactive)
REMARK    1  A    between atoms: C3_6  and  O2_7 
REMARK    2  A    between atoms: C3_6  and  C4_9 
REMARK    3  A    between atoms: C4_9  and  O3_10 
REMARK    4  A    between atoms: C4_9  and  C5_12 
REMARK    5  A    between atoms: C5_12  and  O4_13 
REMARK    6  A    between atoms: C5_12  and  O5_15 
REMARK    7  A    between atoms: C9_22  and  O8_23 
REMARK    8  A    between atoms: C10_25  and  O9_26 
REMARK    9  A    between atoms: C11_28  and  O10_29 
REMARK   10  A    between atoms: C12_31  and  C13_32 
REMARK   11  A    between atoms: C13_32  and  C14_33 
REMARK   12  A    between atoms: C13_32  and  N2_42 
REMARK   13  A    between atoms: C14_33  and  O11_34 
REMARK   14  A    between atoms: C14_33  and  C15_36 
REMARK   15  A    between atoms: C15_36  and  O12_37 
REMARK   16  A    between atoms: C15_36  and  C16_39 
REMARK   17  A    between atoms: C16_39  and  O13_40 
ROOT
HETATM    1  O1  UNL     1      14.537  15.878  35.283  1.00  0.00    -0.273 OA
HETATM    2  C1  UNL     1      14.987  14.730  35.681  1.00  0.00     0.228 C 
HETATM    3  N1  UNL     1      14.221  13.646  35.310  1.00  0.00    -0.355 N 
ATOM      4  H1  UNL     1      14.022  13.614  34.311  1.00  0.00     0.162 HD
HETATM    5  C2  UNL     1      13.647  12.553  36.038  1.00  0.00     0.194 C 
HETATM    6  C3  UNL     1      14.058  11.193  35.482  1.00  0.00     0.211 C 
HETATM    7  O6  UNL     1      15.024  10.701  36.291  1.00  0.00    -0.318 OA
HETATM    8  C6  UNL     1      16.338  10.828  35.891  1.00  0.00     0.294 C 
HETATM    9  O7  UNL     1      16.591  11.723  34.931  1.00  0.00    -0.358 OA
HETATM   10  C7  UNL     1      17.037  12.959  35.168  1.00  0.00     0.179 C 
HETATM   11  C8  UNL     1      16.804  13.485  36.594  1.00  0.00     0.060 C 
HETATM   12  C9  UNL     1      18.082  13.258  37.289  1.00  0.00     0.157 C 
HETATM   13  C10 UNL     1      18.377  11.752  37.068  1.00  0.00     0.180 C 
HETATM   14  C11 UNL     1      17.182  10.889  37.134  1.00  0.00     0.204 C 
HETATM   15  C12 UNL     1      16.244  14.853  36.449  1.00  0.00     0.137 C 
ENDROOT
BRANCH  15  16
HETATM   16  C13 UNL     1      16.162  15.753  37.585  1.00  0.00     0.058 C 
BRANCH  16  17
HETATM   17  C14 UNL     1      16.022  15.299  38.977  1.00  0.00     0.197 C 
BRANCH  17  18
HETATM   18  O11 UNL     1      17.121  15.867  39.748  1.00  0.00    -0.387 OA
ATOM     19  H11 UNL     1      16.771  16.566  40.287  1.00  0.00     0.210 HD
ENDBRANCH  17  18
BRANCH  17  20
HETATM   20  C15 UNL     1      14.842  15.761  39.779  1.00  0.00     0.176 C 
BRANCH  20  21
HETATM   21  O12 UNL     1      13.965  16.587  39.073  1.00  0.00    -0.390 OA
ATOM     22  H12 UNL     1      13.057  16.307  39.109  1.00  0.00     0.210 HD
ENDBRANCH  20  21
BRANCH  20  23
HETATM   23  C16 UNL     1      15.289  16.598  40.980  1.00  0.00     0.198 C 
BRANCH  23  24
HETATM   24  O13 UNL     1      15.654  15.777  42.044  1.00  0.00    -0.398 OA
ATOM     25  H13 UNL     1      15.951  16.297  42.782  1.00  0.00     0.209 HD
ENDBRANCH  23  24
ENDBRANCH  20  23
ENDBRANCH  17  20
ENDBRANCH  16  17
BRANCH  16  26
HETATM   26  N2  UNL     1      16.937  16.981  37.517  1.00  0.00    -0.256 N 
HETATM   27  C17 UNL     1      18.131  17.200  36.980  1.00  0.00     0.207 A 
HETATM   28  N3  UNL     1      18.458  18.502  37.133  1.00  0.00    -0.346 N 
HETATM   29  C18 UNL     1      17.434  19.084  37.778  1.00  0.00     0.198 A 
ATOM     30  H3  UNL     1      19.316  18.955  36.820  1.00  0.00     0.167 HD
HETATM   31  N4  UNL     1      16.529  18.137  37.995  1.00  0.00    -0.289 N 
ATOM     32  H4  UNL     1      15.638  18.285  38.469  1.00  0.00     0.188 HD
ENDBRANCH  16  26
ENDBRANCH  15  16
BRANCH  12  33
HETATM   33  O8  UNL     1      19.202  13.858  36.685  1.00  0.00    -0.392 OA
ATOM     34  H8  UNL     1      19.810  14.269  37.287  1.00  0.00     0.210 HD
ENDBRANCH  12  33
BRANCH  13  35
HETATM   35  O9  UNL     1      19.243  11.396  38.105  1.00  0.00    -0.390 OA
ATOM     36  H9  UNL     1      18.889  10.587  38.455  1.00  0.00     0.210 HD
ENDBRANCH  13  35
BRANCH   6  37
HETATM   37  O2  UNL     1      14.405  11.343  34.136  1.00  0.00    -0.362 OA
ATOM     38  H2  UNL     1      14.972  10.624  33.884  1.00  0.00     0.213 HD
ENDBRANCH   6  37
BRANCH   6  39
HETATM   39  C4  UNL     1      12.858  10.272  35.541  1.00  0.00     0.236 C 
BRANCH  39  40
HETATM   40  O3  UNL     1      13.249   9.033  34.947  1.00  0.00    -0.385 OA
ATOM     41  H3  UNL     1      12.716   8.914  34.170  1.00  0.00     0.210 HD
ENDBRANCH  39  40
BRANCH  39  42
HETATM   42  C5  UNL     1      12.364   9.993  36.933  1.00  0.00     0.287 C 
BRANCH  42  43
HETATM   43  O4  UNL     1      11.102   9.429  36.987  1.00  0.00    -0.369 OA
ATOM     44  H4  UNL     1      10.421  10.025  37.275  1.00  0.00     0.212 HD
ENDBRANCH  42  43
BRANCH  42  45
HETATM   45  O5  UNL     1      13.228   9.111  37.585  1.00  0.00    -0.369 OA
ATOM     46  H5  UNL     1      13.665   9.550  38.304  1.00  0.00     0.212 HD
ENDBRANCH  42  45
ENDBRANCH  39  42
ENDBRANCH   6  39
BRANCH  14  47
HETATM   47  O10 UNL     1      17.663   9.594  37.481  1.00  0.00    -0.388 OA
ATOM     48  H10 UNL     1      18.581   9.630  37.721  1.00  0.00     0.210 HD
ENDBRANCH  14  47
TORSDOF 17
ENDMDL
MODEL 3
REMARK VINA RESULT: -7.940804963      1.552      2.757
REMARK  17 active torsions:
REMARK  status: ('A' for Active; 'I' for Inactive)
REMARK    1  A    between atoms: C3_6  and  O2_7 
REMARK    2  A    between atoms: C3_6  and  C4_9 
REMARK    3  A    between atoms: C4_9  and  O3_10 
REMARK    4  A    between atoms: C4_9  and  C5_12 
REMARK    5  A    between atoms: C5_12  and  O4_13 
REMARK    6  A    between atoms: C5_12  and  O5_15 
REMARK    7  A    between atoms: C9_22  and  O8_23 
REMARK    8  A    between atoms: C10_25  and  O9_26 
REMARK    9  A    between atoms: C11_28  and  O10_29 
REMARK   10  A    between atoms: C12_31  and  C13_32 
REMARK   11  A    between atoms: C13_32  and  C14_33 
REMARK   12  A    between atoms: C13_32  and  N2_42 
REMARK   13  A    between atoms: C14_33  and  O11_34 
REMARK   14  A    between atoms: C14_33  and  C15_36 
REMARK   15  A    between atoms: C15_36  and  O12_37 
REMARK   16  A    between atoms: C15_36  and  C16_39 
REMARK   17  A    between atoms: C16_39  and  O13_40 
ROOT
HETATM    1  O1  UNL     1      14.536  15.944  35.390  1.00  0.00    -0.273 OA
HETATM    2  C1  UNL     1      14.989  14.791  35.770  1.00  0.00     0.228 C 
HETATM    3  N1  UNL     1      14.225  13.711  35.381  1.00  0.00    -0.355 N 
ATOM      4  H1  UNL     1      14.028  13.696  34.381  1.00  0.00     0.162 HD
HETATM    5  C2  UNL     1      13.651  12.606  36.090  1.00  0.00     0.194 C 
HETATM    6  C3  UNL     1      14.066  11.256  35.512  1.00  0.00     0.211 C 
HETATM    7  O6  UNL     1      15.031  10.752  36.315  1.00  0.00    -0.318 OA
HETATM    8  C6  UNL     1      16.345  10.888  35.919  1.00  0.00     0.294 C 
HETATM    9  O7  UNL     1      16.599  11.799  34.974  1.00  0.00    -0.358 OA
HETATM   10  C7  UNL     1      17.042  13.032  35.231  1.00  0.00     0.179 C 
HETATM   11  C8  UNL     1      16.806  13.534  36.665  1.00  0.00     0.060 C 
HETATM   12  C9  UNL     1      18.083  13.298  37.358  1.00  0.00     0.157 C 
HETATM   13  C10 UNL     1      18.381  11.797  37.113  1.00  0.00     0.180 C 
HETATM   14  C11 UNL     1      17.188  10.930  37.164  1.00  0.00     0.204 C 
HETATM   15  C12 UNL     1      16.244  14.904  36.542  1.00  0.00     0.137 C 
ENDROOT
BRANCH  15  16
HETATM   16  C13 UNL     1      16.158  15.785  37.692  1.00  0.00     0.058 C 
BRANCH  16  17
HETATM   17  C14 UNL     1      15.920  15.314  39.065  1.00  0.00     0.197 C 
BRANCH  17  18
HETATM   18  O11 UNL     1      17.118  15.587  39.849  1.00  0.00    -0.387 OA
ATOM     19  H11 UNL     1      16.856  15.698  40.756  1.00  0.00     0.210 HD
ENDBRANCH  17  18
BRANCH  17  20
HETATM   20  C15 UNL     1      14.873  15.992  39.897  1.00  0.00     0.176 C 
BRANCH  20  21
HETATM   21  O12 UNL     1      14.431  15.233  40.983  1.00  0.00    -0.390 OA
ATOM     22  H12 UNL     1      13.530  15.401  41.231  1.00  0.00     0.210 HD
ENDBRANCH  20  21
BRANCH  20  23
HETATM   23  C16 UNL     1      13.613  16.272  39.074  1.00  0.00     0.198 C 
BRANCH  23  24
HETATM   24  O13 UNL     1      12.915  15.093  38.828  1.00  0.00    -0.398 OA
ATOM     25  H13 UNL     1      12.012  15.279  38.596  1.00  0.00     0.209 HD
ENDBRANCH  23  24
ENDBRANCH  20  23
ENDBRANCH  17  20
ENDBRANCH  16  17
BRANCH  16  26
HETATM   26  N2  UNL     1      17.009  16.964  37.690  1.00  0.00    -0.256 N 
HETATM   27  C17 UNL     1      16.683  18.243  37.828  1.00  0.00     0.207 A 
HETATM   28  N3  UNL     1      17.803  18.997  37.782  1.00  0.00    -0.346 N 
HETATM   29  C18 UNL     1      18.831  18.151  37.611  1.00  0.00     0.198 A 
ATOM     30  H3  UNL     1      17.856  20.012  37.860  1.00  0.00     0.167 HD
HETATM   31  N4  UNL     1      18.317  16.928  37.561  1.00  0.00    -0.289 N 
ATOM     32  H4  UNL     1      18.864  16.075  37.438  1.00  0.00     0.188 HD
ENDBRANCH  16  26
ENDBRANCH  15  16
BRANCH  12  33
HETATM   33  O8  UNL     1      19.203  13.910  36.765  1.00  0.00    -0.392 OA
ATOM     34  H8  UNL     1      19.736  13.336  36.228  1.00  0.00     0.210 HD
ENDBRANCH  12  33
BRANCH  13  35
HETATM   35  O9  UNL     1      19.246  11.425  38.146  1.00  0.00    -0.390 OA
ATOM     36  H9  UNL     1      18.909  10.596  38.463  1.00  0.00     0.210 HD
ENDBRANCH  13  35
BRANCH   6  37
HETATM   37  O2  UNL     1      14.414  11.428  34.170  1.00  0.00    -0.362 OA
ATOM     38  H2  UNL     1      14.914  10.673  33.883  1.00  0.00     0.213 HD
ENDBRANCH   6  37
BRANCH   6  39
HETATM   39  C4  UNL     1      12.868  10.332  35.554  1.00  0.00     0.236 C 
BRANCH  39  40
HETATM   40  O3  UNL     1      13.257   9.108  34.929  1.00  0.00    -0.385 OA
ATOM     41  H3  UNL     1      12.851   8.402  35.418  1.00  0.00     0.210 HD
ENDBRANCH  39  40
BRANCH  39  42
HETATM   42  C5  UNL     1      12.381  10.018  36.942  1.00  0.00     0.287 C 
BRANCH  42  43
HETATM   43  O4  UNL     1      11.120   9.449  36.988  1.00  0.00    -0.369 OA
ATOM     44  H4  UNL     1      10.944   8.955  37.779  1.00  0.00     0.212 HD
ENDBRANCH  42  43
BRANCH  42  45
HETATM   45  O5  UNL     1      13.250   9.125  37.569  1.00  0.00    -0.369 OA
ATOM     46  H5  UNL     1      12.888   8.842  38.400  1.00  0.00     0.212 HD
ENDBRANCH  42  45
ENDBRANCH  39  42
ENDBRANCH   6  39
BRANCH  14  47
HETATM   47  O10 UNL     1      17.670   9.631  37.491  1.00  0.00    -0.388 OA
ATOM     48  H10 UNL     1      18.606   9.572  37.337  1.00  0.00     0.210 HD
ENDBRANCH  14  47
TORSDOF 17
ENDMDL
MODEL 4
REMARK VINA RESULT: -7.824768265      3.444      6.744
REMARK  17 active torsions:
REMARK  status: ('A' for Active; 'I' for Inactive)
REMARK    1  A    between atoms: C3_6  and  O2_7 
REMARK    2  A    between atoms: C3_6  and  C4_9 
REMARK    3  A    between atoms: C4_9  and  O3_10 
REMARK    4  A    between atoms: C4_9  and  C5_12 
REMARK    5  A    between atoms: C5_12  and  O4_13 
REMARK    6  A    between atoms: C5_12  and  O5_15 
REMARK    7  A    between atoms: C9_22  and  O8_23 
REMARK    8  A    between atoms: C10_25  and  O9_26 
REMARK    9  A    between atoms: C11_28  and  O10_29 
REMARK   10  A    between atoms: C12_31  and  C13_32 
REMARK   11  A    between atoms: C13_32  and  C14_33 
REMARK   12  A    between atoms: C13_32  and  N2_42 
REMARK   13  A    between atoms: C14_33  and  O11_34 
REMARK   14  A    between atoms: C14_33  and  C15_36 
REMARK   15  A    between atoms: C15_36  and  O12_37 
REMARK   16  A    between atoms: C15_36  and  C16_39 
REMARK   17  A    between atoms: C16_39  and  O13_40 
ROOT
HETATM    1  O1  UNL     1      10.806   9.790  36.721  1.00  0.00    -0.273 OA
HETATM    2  C1  UNL     1      11.627  10.779  36.558  1.00  0.00     0.228 C 
HETATM    3  N1  UNL     1      12.903  10.418  36.181  1.00  0.00    -0.355 N 
ATOM      4  H1  UNL     1      12.926   9.808  35.364  1.00  0.00     0.162 HD
HETATM    5  C2  UNL     1      14.204  10.722  36.699  1.00  0.00     0.194 C 
HETATM    6  C3  UNL     1      15.132  11.319  35.646  1.00  0.00     0.211 C 
HETATM    7  O6  UNL     1      15.177  12.654  35.856  1.00  0.00    -0.318 OA
HETATM    8  C6  UNL     1      14.391  13.466  35.063  1.00  0.00     0.294 C 
HETATM    9  O7  UNL     1      13.394  12.875  34.398  1.00  0.00    -0.358 OA
HETATM   10  C7  UNL     1      12.127  12.860  34.819  1.00  0.00     0.179 C 
HETATM   11  C8  UNL     1      11.925  13.132  36.319  1.00  0.00     0.060 C 
HETATM   12  C9  UNL     1      11.576  14.561  36.396  1.00  0.00     0.157 C 
HETATM   13  C10 UNL     1      12.722  15.277  35.636  1.00  0.00     0.180 C 
HETATM   14  C11 UNL     1      14.056  14.691  35.868  1.00  0.00     0.204 C 
HETATM   15  C12 UNL     1      10.990  12.088  36.812  1.00  0.00     0.137 C 
ENDROOT
BRANCH  15  16
HETATM   16  C13 UNL     1      10.361  12.201  38.115  1.00  0.00     0.058 C 
BRANCH  16  17
HETATM   17  C14 UNL     1      10.950  12.938  39.244  1.00  0.00     0.197 C 
BRANCH  17  18
HETATM   18  O11 UNL     1      10.066  14.052  39.564  1.00  0.00    -0.387 OA
ATOM     19  H11 UNL     1       9.169  13.743  39.500  1.00  0.00     0.210 HD
ENDBRANCH  17  18
BRANCH  17  20
HETATM   20  C15 UNL     1      11.053  12.263  40.580  1.00  0.00     0.176 C 
BRANCH  20  21
HETATM   21  O12 UNL     1      10.703  10.911  40.561  1.00  0.00    -0.390 OA
ATOM     22  H12 UNL     1       9.766  10.756  40.527  1.00  0.00     0.210 HD
ENDBRANCH  20  21
BRANCH  20  23
HETATM   23  C16 UNL     1      10.101  12.903  41.594  1.00  0.00     0.198 C 
BRANCH  23  24
HETATM   24  O13 UNL     1       8.939  12.147  41.721  1.00  0.00    -0.398 OA
ATOM     25  H13 UNL     1       8.309  12.591  42.278  1.00  0.00     0.209 HD
ENDBRANCH  23  24
ENDBRANCH  20  23
ENDBRANCH  17  20
ENDBRANCH  16  17
BRANCH  16  26
HETATM   26  N2  UNL     1       8.910  12.277  38.148  1.00  0.00    -0.256 N 
HETATM   27  C17 UNL     1       8.087  13.056  37.457  1.00  0.00     0.207 A 
HETATM   28  N3  UNL     1       6.811  12.773  37.798  1.00  0.00    -0.346 N 
HETATM   29  C18 UNL     1       6.865  11.797  38.719  1.00  0.00     0.198 A 
ATOM     30  H3  UNL     1       5.970  13.215  37.428  1.00  0.00     0.167 HD
HETATM   31  N4  UNL     1       8.150  11.519  38.908  1.00  0.00    -0.289 N 
ATOM     32  H4  UNL     1       8.499  10.812  39.555  1.00  0.00     0.188 HD
ENDBRANCH  16  26
ENDBRANCH  15  16
BRANCH  12  33
HETATM   33  O8  UNL     1      10.453  14.939  35.638  1.00  0.00    -0.392 OA
ATOM     34  H8  UNL     1      10.389  15.868  35.451  1.00  0.00     0.210 HD
ENDBRANCH  12  33
BRANCH  13  35
HETATM   35  O9  UNL     1      12.718  16.586  36.125  1.00  0.00    -0.390 OA
ATOM     36  H9  UNL     1      13.341  16.583  36.841  1.00  0.00     0.210 HD
ENDBRANCH  13  35
BRANCH   6  37
HETATM   37  O2  UNL     1      14.700  10.912  34.381  1.00  0.00    -0.362 OA
ATOM     38  H2  UNL     1      15.231  11.343  33.721  1.00  0.00     0.213 HD
ENDBRANCH   6  37
BRANCH   6  39
HETATM   39  C4  UNL     1      16.519  10.748  35.855  1.00  0.00     0.236 C 
BRANCH  39  40
HETATM   40  O3  UNL     1      17.412  11.497  35.029  1.00  0.00    -0.385 OA
ATOM     41  H3  UNL     1      17.210  12.416  35.159  1.00  0.00     0.210 HD
ENDBRANCH  39  40
BRANCH  39  42
HETATM   42  C5  UNL     1      17.010  10.829  37.274  1.00  0.00     0.287 C 
BRANCH  42  43
HETATM   43  O4  UNL     1      18.110  10.034  37.542  1.00  0.00    -0.369 OA
ATOM     44  H4  UNL     1      18.147   9.705  38.431  1.00  0.00     0.212 HD
ENDBRANCH  42  43
BRANCH  42  45
HETATM   45  O5  UNL     1      17.374  12.140  37.586  1.00  0.00    -0.369 OA
ATOM     46  H5  UNL     1      17.497  12.233  38.523  1.00  0.00     0.212 HD
ENDBRANCH  42  45
ENDBRANCH  39  42
ENDBRANCH   6  39
BRANCH  14  47
HETATM   47  O10 UNL     1      14.985  15.738  35.605  1.00  0.00    -0.388 OA
ATOM     48  H10 UNL     1      14.537  16.512  35.285  1.00  0.00     0.210 HD
ENDBRANCH  14  47
TORSDOF 17
ENDMDL
MODEL 5
REMARK VINA RESULT: -7.409424041      3.011      7.155
REMARK  17 active torsions:
REMARK  status: ('A' for Active; 'I' for Inactive)
REMARK    1  A    between atoms: C3_6  and  O2_7 
REMARK    2  A    between atoms: C3_6  and  C4_9 
REMARK    3  A    between atoms: C4_9  and  O3_10 
REMARK    4  A    between atoms: C4_9  and  C5_12 
REMARK    5  A    between atoms: C5_12  and  O4_13 
REMARK    6  A    between atoms: C5_12  and  O5_15 
REMARK    7  A    between atoms: C9_22  and  O8_23 
REMARK    8  A    between atoms: C10_25  and  O9_26 
REMARK    9  A    between atoms: C11_28  and  O10_29 
REMARK   10  A    between atoms: C12_31  and  C13_32 
REMARK   11  A    between atoms: C13_32  and  C14_33 
REMARK   12  A    between atoms: C13_32  and  N2_42 
REMARK   13  A    between atoms: C14_33  and  O11_34 
REMARK   14  A    between atoms: C14_33  and  C15_36 
REMARK   15  A    between atoms: C15_36  and  O12_37 
REMARK   16  A    between atoms: C15_36  and  C16_39 
REMARK   17  A    between atoms: C16_39  and  O13_40 
ROOT
HETATM    1  O1  UNL     1      10.709   9.977  35.416  1.00  0.00    -0.273 OA
HETATM    2  C1  UNL     1      11.566  10.912  35.683  1.00  0.00     0.228 C 
HETATM    3  N1  UNL     1      12.885  10.512  35.670  1.00  0.00    -0.355 N 
ATOM      4  H1  UNL     1      13.152  10.029  34.813  1.00  0.00     0.162 HD
HETATM    5  C2  UNL     1      13.958  10.634  36.612  1.00  0.00     0.194 C 
HETATM    6  C3  UNL     1      15.192  11.305  36.015  1.00  0.00     0.211 C 
HETATM    7  O6  UNL     1      15.202  12.588  36.446  1.00  0.00    -0.318 OA
HETATM    8  C6  UNL     1      14.735  13.566  35.592  1.00  0.00     0.294 C 
HETATM    9  O7  UNL     1      13.988  13.159  34.561  1.00  0.00    -0.358 OA
HETATM   10  C7  UNL     1      12.653  13.182  34.556  1.00  0.00     0.179 C 
HETATM   11  C8  UNL     1      11.988  13.244  35.941  1.00  0.00     0.060 C 
HETATM   12  C9  UNL     1      11.671  14.669  36.139  1.00  0.00     0.157 C 
HETATM   13  C10 UNL     1      13.019  15.398  35.905  1.00  0.00     0.180 C 
HETATM   14  C11 UNL     1      14.192  14.682  36.443  1.00  0.00     0.204 C 
HETATM   15  C12 UNL     1      10.916  12.215  35.938  1.00  0.00     0.137 C 
ENDROOT
BRANCH  15  16
HETATM   16  C13 UNL     1       9.905  12.183  36.979  1.00  0.00     0.058 C 
BRANCH  16  17
HETATM   17  C14 UNL     1       8.745  11.278  36.962  1.00  0.00     0.197 C 
BRANCH  17  18
HETATM   18  O11 UNL     1       9.132  10.038  37.623  1.00  0.00    -0.387 OA
ATOM     19  H11 UNL     1       9.023   9.328  37.001  1.00  0.00     0.210 HD
ENDBRANCH  17  18
BRANCH  17  20
HETATM   20  C15 UNL     1       7.521  11.649  37.744  1.00  0.00     0.176 C 
BRANCH  20  21
HETATM   21  O12 UNL     1       7.659  11.487  39.125  1.00  0.00    -0.390 OA
ATOM     22  H12 UNL     1       7.159  10.761  39.480  1.00  0.00     0.210 HD
ENDBRANCH  20  21
BRANCH  20  23
HETATM   23  C16 UNL     1       6.334  10.761  37.361  1.00  0.00     0.198 C 
BRANCH  23  24
HETATM   24  O13 UNL     1       6.398   9.540  38.027  1.00  0.00    -0.398 OA
ATOM     25  H13 UNL     1       5.546   9.120  38.039  1.00  0.00     0.209 HD
ENDBRANCH  23  24
ENDBRANCH  20  23
ENDBRANCH  17  20
ENDBRANCH  16  17
BRANCH  16  26
HETATM   26  N2  UNL     1      10.346  12.433  38.341  1.00  0.00    -0.256 N 
HETATM   27  C17 UNL     1      10.358  13.565  39.033  1.00  0.00     0.207 A 
HETATM   28  N3  UNL     1      10.837  13.327  40.273  1.00  0.00    -0.346 N 
HETATM   29  C18 UNL     1      11.121  12.016  40.332  1.00  0.00     0.198 A 
ATOM     30  H3  UNL     1      10.960  14.010  41.020  1.00  0.00     0.167 HD
HETATM   31  N4  UNL     1      10.812  11.503  39.147  1.00  0.00    -0.289 N 
ATOM     32  H4  UNL     1      10.921  10.520  38.895  1.00  0.00     0.188 HD
ENDBRANCH  16  26
ENDBRANCH  15  16
BRANCH  12  33
HETATM   33  O8  UNL     1      10.861  15.241  35.141  1.00  0.00    -0.392 OA
ATOM     34  H8  UNL     1      11.313  15.826  34.546  1.00  0.00     0.210 HD
ENDBRANCH  12  33
BRANCH  13  35
HETATM   35  O9  UNL     1      12.894  16.616  36.576  1.00  0.00    -0.390 OA
ATOM     36  H9  UNL     1      13.415  17.230  36.073  1.00  0.00     0.210 HD
ENDBRANCH  13  35
BRANCH   6  37
HETATM   37  O2  UNL     1      15.177  11.125  34.630  1.00  0.00    -0.362 OA
ATOM     38  H2  UNL     1      14.335  11.409  34.292  1.00  0.00     0.213 HD
ENDBRANCH   6  37
BRANCH   6  39
HETATM   39  C4  UNL     1      16.422  10.604  36.551  1.00  0.00     0.236 C 
BRANCH  39  40
HETATM   40  O3  UNL     1      17.180  10.162  35.424  1.00  0.00    -0.385 OA
ATOM     41  H3  UNL     1      17.889   9.625  35.756  1.00  0.00     0.210 HD
ENDBRANCH  39  40
BRANCH  39  42
HETATM   42  C5  UNL     1      17.305  11.473  37.402  1.00  0.00     0.287 C 
BRANCH  42  43
HETATM   43  O4  UNL     1      18.120  10.776  38.275  1.00  0.00    -0.369 OA
ATOM     44  H4  UNL     1      18.937  11.213  38.480  1.00  0.00     0.212 HD
ENDBRANCH  42  43
BRANCH  42  45
HETATM   45  O5  UNL     1      18.144  12.246  36.596  1.00  0.00    -0.369 OA
ATOM     46  H5  UNL     1      19.048  12.136  36.863  1.00  0.00     0.212 HD
ENDBRANCH  42  45
ENDBRANCH  39  42
ENDBRANCH   6  39
BRANCH  14  47
HETATM   47  O10 UNL     1      15.184  15.680  36.659  1.00  0.00    -0.388 OA
ATOM     48  H10 UNL     1      15.142  16.008  37.549  1.00  0.00     0.210 HD
ENDBRANCH  14  47
TORSDOF 17
ENDMDL
