MODEL 1
REMARK VINA RESULT: -8.189375183      0.000      0.000
REMARK  6 active torsions:
REMARK  status: ('A' for Active; 'I' for Inactive)
REMARK    1  A    between atoms: C4_4  and  C5_5 
REMARK    2  A    between atoms: N3_10  and  C6_11 
REMARK    3  A    between atoms: C6_11  and  C7_12 
REMARK       I    between atoms: C7_12  and  N4_14 
REMARK    4  A    between atoms: N4_14  and  N5_16 
REMARK    5  A    between atoms: N5_16  and  C8_18 
REMARK    6  A    between atoms: C9_25  and  N9_26 
ROOT
HETATM    1  C7  UNL     1       6.307  20.874   1.085  1.00  0.00     0.256 C 
HETATM    2  O1  UNL     1       5.354  20.094   0.834  1.00  0.00    -0.270 OA
HETATM    3  N4  UNL     1       6.062  21.963   1.962  1.00  0.00    -0.254 N 
ATOM      4  H4  UNL     1       6.824  22.606   2.179  1.00  0.00     0.190 HD
ENDROOT
BRANCH   3   5
HETATM    5  N5  UNL     1       4.809  22.180   2.538  1.00  0.00    -0.128 N 
ATOM      6  H5  UNL     1       4.101  21.448   2.492  1.00  0.00     0.205 HD
BRANCH   5   7
HETATM    7  C8  UNL     1       4.529  23.310   3.136  1.00  0.00     0.727 A 
HETATM    8  N6  UNL     1       4.970  23.602   4.355  1.00  0.00    -0.115 N 
HETATM    9  N7  UNL     1       4.661  24.756   4.920  1.00  0.00    -0.214 N 
ATOM     10  H6  UNL     1       5.551  22.931   4.858  1.00  0.00     0.207 HD
HETATM   11  N8  UNL     1       3.913  25.662   4.316  1.00  0.00    -0.117 N 
ATOM     12  H7  UNL     1       5.013  24.955   5.857  1.00  0.00     0.209 HD
HETATM   13  C9  UNL     1       3.458  25.376   3.075  1.00  0.00     0.706 A 
ATOM     14  H8  UNL     1       3.686  26.546   4.770  1.00  0.00     0.207 HD
HETATM   15  N10 UNL     1       3.765  24.198   2.480  1.00  0.00    -0.019 N 
ATOM     16  H10 UNL     1       3.419  23.987   1.543  1.00  0.00     0.203 HD
BRANCH  13  17
HETATM   17  N9  UNL     1       2.729  26.205   2.427  1.00  0.00    -0.233 N 
ATOM     18  H92 UNL     1       1.912  25.841   1.935  1.00  0.00     0.174 HD
ATOM     19  H91 UNL     1       2.953  27.199   2.399  1.00  0.00     0.174 HD
ENDBRANCH  13  17
ENDBRANCH   5   7
ENDBRANCH   3   5
BRANCH   1  20
HETATM   20  C6  UNL     1       7.652  20.671   0.488  1.00  0.00     0.253 C 
BRANCH  20  21
HETATM   21  N3  UNL     1       8.056  19.292   0.538  1.00  0.00    -0.287 N 
HETATM   22  C2  UNL     1       8.970  18.715  -0.263  1.00  0.00     0.027 A 
HETATM   23  C1  UNL     1       9.742  19.376  -1.355  1.00  0.00     0.070 C 
HETATM   24  C3  UNL     1       9.040  17.396   0.135  1.00  0.00     0.060 A 
HETATM   25  C4  UNL     1       8.150  17.196   1.191  1.00  0.00     0.085 A 
HETATM   26  N2  UNL     1       7.577  18.389   1.394  1.00  0.00    -0.295 N 
ATOM     27  H2  UNL     1       6.872  18.581   2.106  1.00  0.00     0.187 HD
BRANCH  25  28
HETATM   28  C5  UNL     1       7.912  15.940   1.906  1.00  0.00     0.141 C 
HETATM   29  N1  UNL     1       7.907  15.924   3.326  1.00  0.00    -0.087 NA
HETATM   30  S1  UNL     1       7.649  14.547   1.098  1.00  0.00    -0.061 SA
ENDBRANCH  25  28
ENDBRANCH  20  21
ENDBRANCH   1  20
TORSDOF 6
ENDMDL
MODEL 2
REMARK VINA RESULT: -8.058678779      0.747      1.333
REMARK  6 active torsions:
REMARK  status: ('A' for Active; 'I' for Inactive)
REMARK    1  A    between atoms: C4_4  and  C5_5 
REMARK    2  A    between atoms: N3_10  and  C6_11 
REMARK    3  A    between atoms: C6_11  and  C7_12 
REMARK       I    between atoms: C7_12  and  N4_14 
REMARK    4  A    between atoms: N4_14  and  N5_16 
REMARK    5  A    between atoms: N5_16  and  C8_18 
REMARK    6  A    between atoms: C9_25  and  N9_26 
ROOT
HETATM    1  C7  UNL     1       6.101  21.084   1.260  1.00  0.00     0.256 C 
HETATM    2  O1  UNL     1       5.198  20.241   1.030  1.00  0.00    -0.270 OA
HETATM    3  N4  UNL     1       5.777  22.200   2.076  1.00  0.00    -0.254 N 
ATOM      4  H4  UNL     1       6.497  22.894   2.275  1.00  0.00     0.190 HD
ENDROOT
BRANCH   3   5
HETATM    5  N5  UNL     1       4.500  22.376   2.613  1.00  0.00    -0.128 N 
ATOM      6  H5  UNL     1       3.952  21.559   2.883  1.00  0.00     0.205 HD
BRANCH   5   7
HETATM    7  C8  UNL     1       3.996  23.573   2.776  1.00  0.00     0.727 A 
HETATM    8  N6  UNL     1       3.858  24.432   1.772  1.00  0.00    -0.115 N 
HETATM    9  N7  UNL     1       3.343  25.631   1.984  1.00  0.00    -0.214 N 
ATOM     10  H6  UNL     1       4.150  24.165   0.832  1.00  0.00     0.207 HD
HETATM   11  N8  UNL     1       2.949  26.031   3.180  1.00  0.00    -0.117 N 
ATOM     12  H7  UNL     1       3.248  26.271   1.195  1.00  0.00     0.209 HD
HETATM   13  C9  UNL     1       3.085  25.165   4.209  1.00  0.00     0.706 A 
ATOM     14  H8  UNL     1       2.555  26.960   3.321  1.00  0.00     0.207 HD
HETATM   15  N10 UNL     1       3.610  23.931   4.011  1.00  0.00    -0.019 N 
ATOM     16  H10 UNL     1       3.711  23.282   4.791  1.00  0.00     0.203 HD
BRANCH  13  17
HETATM   17  N9  UNL     1       2.725  25.481   5.396  1.00  0.00    -0.233 N 
ATOM     18  H92 UNL     1       1.740  25.692   5.557  1.00  0.00     0.174 HD
ATOM     19  H91 UNL     1       3.398  25.523   6.161  1.00  0.00     0.174 HD
ENDBRANCH  13  17
ENDBRANCH   5   7
ENDBRANCH   3   5
BRANCH   1  20
HETATM   20  C6  UNL     1       7.469  20.926   0.703  1.00  0.00     0.253 C 
BRANCH  20  21
HETATM   21  N3  UNL     1       7.879  19.548   0.672  1.00  0.00    -0.287 N 
HETATM   22  C2  UNL     1       8.735  19.006  -0.212  1.00  0.00     0.027 A 
HETATM   23  C1  UNL     1       9.428  19.713  -1.328  1.00  0.00     0.070 C 
HETATM   24  C3  UNL     1       8.835  17.673   0.129  1.00  0.00     0.060 A 
HETATM   25  C4  UNL     1       8.021  17.429   1.235  1.00  0.00     0.085 A 
HETATM   26  N2  UNL     1       7.461  18.612   1.524  1.00  0.00    -0.295 N 
ATOM     27  H2  UNL     1       6.807  18.773   2.289  1.00  0.00     0.187 HD
BRANCH  25  28
HETATM   28  C5  UNL     1       7.835  16.147   1.917  1.00  0.00     0.141 C 
HETATM   29  N1  UNL     1       7.898  16.081   3.333  1.00  0.00    -0.087 NA
HETATM   30  S1  UNL     1       7.554  14.778   1.073  1.00  0.00    -0.061 SA
ENDBRANCH  25  28
ENDBRANCH  20  21
ENDBRANCH   1  20
TORSDOF 6
ENDMDL
MODEL 3
REMARK VINA RESULT: -7.863367387      2.329      3.279
REMARK  6 active torsions:
REMARK  status: ('A' for Active; 'I' for Inactive)
REMARK    1  A    between atoms: C4_4  and  C5_5 
REMARK    2  A    between atoms: N3_10  and  C6_11 
REMARK    3  A    between atoms: C6_11  and  C7_12 
REMARK       I    between atoms: C7_12  and  N4_14 
REMARK    4  A    between atoms: N4_14  and  N5_16 
REMARK    5  A    between atoms: N5_16  and  C8_18 
REMARK    6  A    between atoms: C9_25  and  N9_26 
ROOT
HETATM    1  C7  UNL     1       5.313  19.587   2.224  1.00  0.00     0.256 C 
HETATM    2  O1  UNL     1       4.545  19.702   1.236  1.00  0.00    -0.270 OA
HETATM    3  N4  UNL     1       5.104  20.449   3.333  1.00  0.00    -0.254 N 
ATOM      4  H4  UNL     1       5.716  20.369   4.145  1.00  0.00     0.190 HD
ENDROOT
BRANCH   3   5
HETATM    5  N5  UNL     1       4.084  21.402   3.345  1.00  0.00    -0.128 N 
ATOM      6  H5  UNL     1       3.111  21.097   3.334  1.00  0.00     0.205 HD
BRANCH   5   7
HETATM    7  C8  UNL     1       4.358  22.682   3.371  1.00  0.00     0.727 A 
HETATM    8  N6  UNL     1       5.554  23.150   3.712  1.00  0.00    -0.115 N 
HETATM    9  N7  UNL     1       5.785  24.451   3.724  1.00  0.00    -0.214 N 
ATOM     10  H6  UNL     1       6.299  22.500   3.965  1.00  0.00     0.207 HD
HETATM   11  N8  UNL     1       4.858  25.337   3.405  1.00  0.00    -0.117 N 
ATOM     12  H7  UNL     1       6.712  24.783   3.989  1.00  0.00     0.209 HD
HETATM   13  C9  UNL     1       3.637  24.872   3.057  1.00  0.00     0.706 A 
ATOM     14  H8  UNL     1       5.057  26.337   3.421  1.00  0.00     0.207 HD
HETATM   15  N10 UNL     1       3.382  23.541   3.039  1.00  0.00    -0.019 N 
ATOM     16  H10 UNL     1       2.459  23.197   2.775  1.00  0.00     0.203 HD
BRANCH  13  17
HETATM   17  N9  UNL     1       2.689  25.670   2.735  1.00  0.00    -0.233 N 
ATOM     18  H92 UNL     1       1.869  25.709   3.340  1.00  0.00     0.174 HD
ATOM     19  H91 UNL     1       2.747  26.251   1.898  1.00  0.00     0.174 HD
ENDBRANCH  13  17
ENDBRANCH   5   7
ENDBRANCH   3   5
BRANCH   1  20
HETATM   20  C6  UNL     1       6.407  18.583   2.242  1.00  0.00     0.253 C 
BRANCH  20  21
HETATM   21  N3  UNL     1       7.403  18.858   1.241  1.00  0.00    -0.287 N 
HETATM   22  C2  UNL     1       8.174  17.940   0.632  1.00  0.00     0.027 A 
HETATM   23  C1  UNL     1       8.159  16.467   0.866  1.00  0.00     0.070 C 
HETATM   24  C3  UNL     1       8.975  18.644  -0.244  1.00  0.00     0.060 A 
HETATM   25  C4  UNL     1       8.667  20.000  -0.146  1.00  0.00     0.085 A 
HETATM   26  N2  UNL     1       7.698  20.072   0.777  1.00  0.00    -0.295 N 
ATOM     27  H2  UNL     1       7.249  20.936   1.081  1.00  0.00     0.187 HD
BRANCH  25  28
HETATM   28  C5  UNL     1       9.283  21.093  -0.902  1.00  0.00     0.141 C 
HETATM   29  N1  UNL     1      10.153  20.803  -1.985  1.00  0.00    -0.087 NA
HETATM   30  S1  UNL     1       8.988  22.652  -0.520  1.00  0.00    -0.061 SA
ENDBRANCH  25  28
ENDBRANCH  20  21
ENDBRANCH   1  20
TORSDOF 6
ENDMDL
MODEL 4
REMARK VINA RESULT: -7.807983147      1.589      2.034
REMARK  6 active torsions:
REMARK  status: ('A' for Active; 'I' for Inactive)
REMARK    1  A    between atoms: C4_4  and  C5_5 
REMARK    2  A    between atoms: N3_10  and  C6_11 
REMARK    3  A    between atoms: C6_11  and  C7_12 
REMARK       I    between atoms: C7_12  and  N4_14 
REMARK    4  A    between atoms: N4_14  and  N5_16 
REMARK    5  A    between atoms: N5_16  and  C8_18 
REMARK    6  A    between atoms: C9_25  and  N9_26 
ROOT
HETATM    1  C7  UNL     1       6.022  20.017   1.320  1.00  0.00     0.256 C 
HETATM    2  O1  UNL     1       4.957  19.551   0.839  1.00  0.00    -0.270 OA
HETATM    3  N4  UNL     1       5.973  21.300   1.926  1.00  0.00    -0.254 N 
ATOM      4  H4  UNL     1       6.826  21.693   2.323  1.00  0.00     0.190 HD
ENDROOT
BRANCH   3   5
HETATM    5  N5  UNL     1       4.791  22.039   1.995  1.00  0.00    -0.128 N 
ATOM      6  H5  UNL     1       3.937  21.660   1.585  1.00  0.00     0.205 HD
BRANCH   5   7
HETATM    7  C8  UNL     1       4.762  23.211   2.578  1.00  0.00     0.727 A 
HETATM    8  N6  UNL     1       5.670  23.587   3.472  1.00  0.00    -0.115 N 
HETATM    9  N7  UNL     1       5.600  24.780   4.035  1.00  0.00    -0.214 N 
ATOM     10  H6  UNL     1       6.426  22.950   3.725  1.00  0.00     0.207 HD
HETATM   11  N8  UNL     1       4.644  25.644   3.746  1.00  0.00    -0.117 N 
ATOM     12  H7  UNL     1       6.311  25.044   4.718  1.00  0.00     0.209 HD
HETATM   13  C9  UNL     1       3.714  25.273   2.838  1.00  0.00     0.706 A 
ATOM     14  H8  UNL     1       4.608  26.560   4.192  1.00  0.00     0.207 HD
HETATM   15  N10 UNL     1       3.769  24.053   2.249  1.00  0.00    -0.019 N 
ATOM     16  H10 UNL     1       3.064  23.777   1.565  1.00  0.00     0.203 HD
BRANCH  13  17
HETATM   17  N9  UNL     1       2.757  26.056   2.506  1.00  0.00    -0.233 N 
ATOM     18  H92 UNL     1       2.836  27.042   2.759  1.00  0.00     0.174 HD
ATOM     19  H91 UNL     1       1.938  25.711   2.006  1.00  0.00     0.174 HD
ENDBRANCH  13  17
ENDBRANCH   5   7
ENDBRANCH   3   5
BRANCH   1  20
HETATM   20  C6  UNL     1       7.296  19.255   1.262  1.00  0.00     0.253 C 
BRANCH  20  21
HETATM   21  N3  UNL     1       7.153  17.931   1.805  1.00  0.00    -0.287 N 
HETATM   22  C2  UNL     1       7.955  16.885   1.537  1.00  0.00     0.027 A 
HETATM   23  C1  UNL     1       9.142  16.881   0.633  1.00  0.00     0.070 C 
HETATM   24  C3  UNL     1       7.451  15.828   2.267  1.00  0.00     0.060 A 
HETATM   25  C4  UNL     1       6.333  16.264   2.977  1.00  0.00     0.085 A 
HETATM   26  N2  UNL     1       6.198  17.557   2.656  1.00  0.00    -0.295 N 
ATOM     27  H2  UNL     1       5.466  18.171   3.014  1.00  0.00     0.187 HD
BRANCH  25  28
HETATM   28  C5  UNL     1       5.501  15.460   3.874  1.00  0.00     0.141 C 
HETATM   29  N1  UNL     1       4.928  16.052   5.031  1.00  0.00    -0.087 NA
HETATM   30  S1  UNL     1       5.214  13.882   3.570  1.00  0.00    -0.061 SA
ENDBRANCH  25  28
ENDBRANCH  20  21
ENDBRANCH   1  20
TORSDOF 6
ENDMDL
MODEL 5
REMARK VINA RESULT: -7.671412715      1.613      2.260
REMARK  6 active torsions:
REMARK  status: ('A' for Active; 'I' for Inactive)
REMARK    1  A    between atoms: C4_4  and  C5_5 
REMARK    2  A    between atoms: N3_10  and  C6_11 
REMARK    3  A    between atoms: C6_11  and  C7_12 
REMARK       I    between atoms: C7_12  and  N4_14 
REMARK    4  A    between atoms: N4_14  and  N5_16 
REMARK    5  A    between atoms: N5_16  and  C8_18 
REMARK    6  A    between atoms: C9_25  and  N9_26 
ROOT
HETATM    1  C7  UNL     1       6.126  21.081   1.243  1.00  0.00     0.256 C 
HETATM    2  O1  UNL     1       5.243  20.244   0.926  1.00  0.00    -0.270 OA
HETATM    3  N4  UNL     1       5.734  22.193   2.035  1.00  0.00    -0.254 N 
ATOM      4  H4  UNL     1       6.437  22.881   2.304  1.00  0.00     0.190 HD
ENDROOT
BRANCH   3   5
HETATM    5  N5  UNL     1       4.415  22.371   2.456  1.00  0.00    -0.128 N 
ATOM      6  H5  UNL     1       3.658  22.317   1.775  1.00  0.00     0.205 HD
BRANCH   5   7
HETATM    7  C8  UNL     1       4.135  22.606   3.713  1.00  0.00     0.727 A 
HETATM    8  N6  UNL     1       2.969  23.110   4.103  1.00  0.00    -0.115 N 
HETATM    9  N7  UNL     1       2.731  23.332   5.384  1.00  0.00    -0.214 N 
ATOM     10  H6  UNL     1       2.254  23.328   3.410  1.00  0.00     0.207 HD
HETATM   11  N8  UNL     1       3.621  23.069   6.325  1.00  0.00    -0.117 N 
ATOM     12  H7  UNL     1       1.828  23.719   5.656  1.00  0.00     0.209 HD
HETATM   13  C9  UNL     1       4.811  22.556   5.940  1.00  0.00     0.706 A 
ATOM     14  H8  UNL     1       3.417  23.248   7.308  1.00  0.00     0.207 HD
HETATM   15  N10 UNL     1       5.073  22.322   4.631  1.00  0.00    -0.019 N 
ATOM     16  H10 UNL     1       5.973  21.935   4.346  1.00  0.00     0.203 HD
BRANCH  13  17
HETATM   17  N9  UNL     1       5.722  22.276   6.795  1.00  0.00    -0.233 N 
ATOM     18  H92 UNL     1       5.779  22.847   7.638  1.00  0.00     0.174 HD
ATOM     19  H91 UNL     1       6.374  21.507   6.641  1.00  0.00     0.174 HD
ENDBRANCH  13  17
ENDBRANCH   5   7
ENDBRANCH   3   5
BRANCH   1  20
HETATM   20  C6  UNL     1       7.537  20.920   0.811  1.00  0.00     0.253 C 
BRANCH  20  21
HETATM   21  N3  UNL     1       7.904  19.535   0.687  1.00  0.00    -0.287 N 
HETATM   22  C2  UNL     1       8.765  19.032  -0.216  1.00  0.00     0.027 A 
HETATM   23  C1  UNL     1       9.505  19.794  -1.263  1.00  0.00     0.070 C 
HETATM   24  C3  UNL     1       8.815  17.675   0.028  1.00  0.00     0.060 A 
HETATM   25  C4  UNL     1       7.968  17.377   1.095  1.00  0.00     0.085 A 
HETATM   26  N2  UNL     1       7.438  18.553   1.458  1.00  0.00    -0.295 N 
ATOM     27  H2  UNL     1       6.771  18.679   2.219  1.00  0.00     0.187 HD
BRANCH  25  28
HETATM   28  C5  UNL     1       7.726  16.055   1.676  1.00  0.00     0.141 C 
HETATM   29  N1  UNL     1       8.319  14.905   1.092  1.00  0.00    -0.087 NA
HETATM   30  S1  UNL     1       6.780  15.874   2.994  1.00  0.00    -0.061 SA
ENDBRANCH  25  28
ENDBRANCH  20  21
ENDBRANCH   1  20
TORSDOF 6
ENDMDL
