MODEL 1
REMARK VINA RESULT: -9.043201163      0.000      0.000
REMARK  8 active torsions:
REMARK  status: ('A' for Active; 'I' for Inactive)
REMARK    1  A    between atoms: C2_3  and  O1_4 
REMARK    2  A    between atoms: O1_4  and  N2_5 
REMARK    3  A    between atoms: C3_7  and  C4_8 
REMARK    4  A    between atoms: C3_7  and  N5_18 
REMARK    5  A    between atoms: C4_8  and  C5_9 
REMARK    6  A    between atoms: C7_12  and  N3_13 
REMARK    7  A    between atoms: N5_18  and  O2_20 
REMARK    8  A    between atoms: O2_20  and  C8_21 
ROOT
HETATM    1  N1  UNL     1      37.803  21.176  18.380  1.00  0.00    -0.195 NA
HETATM    2  C1  UNL     1      38.794  21.501  18.908  1.00  0.00     0.087 C 
HETATM    3  C2  UNL     1      40.045  21.908  19.548  1.00  0.00     0.324 C 
ENDROOT
BRANCH   3   4
HETATM    4  O1  UNL     1      41.142  21.452  18.778  1.00  0.00    -0.265 OA
BRANCH   4   5
HETATM    5  N2  UNL     1      42.302  22.137  18.630  1.00  0.00    -0.252 N 
HETATM    6  C3  UNL     1      42.527  22.977  17.676  1.00  0.00     0.127 C 
ATOM      7  H2  UNL     1      43.042  21.979  19.313  1.00  0.00     0.196 HD
BRANCH   6   8
HETATM    8  C4  UNL     1      43.840  23.668  17.616  1.00  0.00     0.137 C 
BRANCH   8   9
HETATM    9  C5  UNL     1      44.799  22.748  16.875  1.00  0.00     0.025 A 
HETATM   10  C6  UNL     1      45.799  22.121  17.562  1.00  0.00     0.078 A 
HETATM   11  S1  UNL     1      46.573  21.231  16.328  1.00  0.00    -0.064 SA
HETATM   12  C7  UNL     1      45.586  21.708  15.022  1.00  0.00     0.142 A 
HETATM   13  N4  UNL     1      44.705  22.529  15.591  1.00  0.00    -0.340 N 
ATOM     14  H4  UNL     1      43.974  22.975  15.037  1.00  0.00     0.168 HD
BRANCH  12  15
HETATM   15  N3  UNL     1      45.653  21.365  13.750  1.00  0.00    -0.380 N 
ATOM     16  H32 UNL     1      46.012  20.492  13.364  1.00  0.00     0.158 HD
ATOM     17  H31 UNL     1      45.368  21.887  12.921  1.00  0.00     0.158 HD
ENDBRANCH  12  15
ENDBRANCH   8   9
ENDBRANCH   6   8
BRANCH   6  18
HETATM   18  N5  UNL     1      41.572  23.282  16.664  1.00  0.00    -0.249 N 
ATOM     19  H5  UNL     1      40.714  23.761  16.938  1.00  0.00     0.196 HD
BRANCH  18  20
HETATM   20  O2  UNL     1      41.743  22.971  15.362  1.00  0.00    -0.244 OA
BRANCH  20  21
HETATM   21  C8  UNL     1      40.518  22.878  14.758  1.00  0.00     0.315 C 
HETATM   22  C9  UNL     1      39.835  24.224  14.886  1.00  0.00     0.198 C 
HETATM   23  N6  UNL     1      38.405  24.086  14.727  1.00  0.00    -0.280 N 
HETATM   24  C10 UNL     1      37.678  25.267  14.416  1.00  0.00     0.390 A 
HETATM   25  C14 UNL     1      37.681  22.873  14.856  1.00  0.00     0.138 A 
HETATM   26  O3  UNL     1      38.223  26.391  14.280  1.00  0.00    -0.236 OA
HETATM   27  O4  UNL     1      36.291  25.157  14.258  1.00  0.00    -0.179 OA
HETATM   28  N7  UNL     1      35.644  23.955  14.394  1.00  0.00    -0.237 N 
HETATM   29  C11 UNL     1      36.212  22.842  14.672  1.00  0.00     0.172 A 
ATOM     30  H7  UNL     1      34.632  23.948  14.264  1.00  0.00     0.197 HD
HETATM   31  N8  UNL     1      35.511  21.617  14.807  1.00  0.00    -0.173 N 
HETATM   32  C12 UNL     1      36.215  20.429  15.116  1.00  0.00     0.679 A 
ATOM     33  H8  UNL     1      34.500  21.592  14.681  1.00  0.00     0.186 HD
HETATM   34  N9  UNL     1      35.643  19.274  15.254  1.00  0.00    -0.234 N 
HETATM   35  N10 UNL     1      37.627  20.534  15.279  1.00  0.00    -0.168 N 
ATOM     36  H92 UNL     1      34.633  19.199  15.137  1.00  0.00     0.174 HD
ATOM     37  H91 UNL     1      36.150  18.418  15.477  1.00  0.00     0.174 HD
HETATM   38  C13 UNL     1      38.340  21.769  15.144  1.00  0.00     0.191 A 
ATOM     39  H10 UNL     1      38.154  19.690  15.502  1.00  0.00     0.186 HD
HETATM   40  O5  UNL     1      39.712  21.843  15.307  1.00  0.00    -0.298 OA
ENDBRANCH  20  21
ENDBRANCH  18  20
ENDBRANCH   6  18
ENDBRANCH   4   5
ENDBRANCH   3   4
TORSDOF 8
ENDMDL
MODEL 2
REMARK VINA RESULT: -8.987983619      2.974      7.680
REMARK  8 active torsions:
REMARK  status: ('A' for Active; 'I' for Inactive)
REMARK    1  A    between atoms: C2_3  and  O1_4 
REMARK    2  A    between atoms: O1_4  and  N2_5 
REMARK    3  A    between atoms: C3_7  and  C4_8 
REMARK    4  A    between atoms: C3_7  and  N5_18 
REMARK    5  A    between atoms: C4_8  and  C5_9 
REMARK    6  A    between atoms: C7_12  and  N3_13 
REMARK    7  A    between atoms: N5_18  and  O2_20 
REMARK    8  A    between atoms: O2_20  and  C8_21 
ROOT
HETATM    1  N1  UNL     1      39.312  21.778  14.828  1.00  0.00    -0.195 NA
HETATM    2  C1  UNL     1      39.781  22.676  14.243  1.00  0.00     0.087 C 
HETATM    3  C2  UNL     1      40.379  23.805  13.531  1.00  0.00     0.324 C 
ENDROOT
BRANCH   3   4
HETATM    4  O1  UNL     1      40.687  24.836  14.451  1.00  0.00    -0.265 OA
BRANCH   4   5
HETATM    5  N2  UNL     1      39.957  25.106  15.560  1.00  0.00    -0.252 N 
HETATM    6  C3  UNL     1      40.396  24.963  16.765  1.00  0.00     0.127 C 
ATOM      7  H2  UNL     1      39.002  25.443  15.435  1.00  0.00     0.196 HD
BRANCH   6   8
HETATM    8  C4  UNL     1      39.501  25.292  17.904  1.00  0.00     0.137 C 
BRANCH   8   9
HETATM    9  C5  UNL     1      38.959  23.976  18.443  1.00  0.00     0.025 A 
HETATM   10  C6  UNL     1      38.630  23.872  19.765  1.00  0.00     0.078 A 
HETATM   11  S1  UNL     1      38.087  22.258  19.870  1.00  0.00    -0.064 SA
HETATM   12  C7  UNL     1      38.310  21.814  18.239  1.00  0.00     0.142 A 
HETATM   13  N4  UNL     1      38.791  22.925  17.685  1.00  0.00    -0.340 N 
ATOM     14  H4  UNL     1      39.023  22.956  16.692  1.00  0.00     0.168 HD
BRANCH  12  15
HETATM   15  N3  UNL     1      38.074  20.662  17.643  1.00  0.00    -0.380 N 
ATOM     16  H32 UNL     1      38.370  19.736  17.949  1.00  0.00     0.158 HD
ATOM     17  H31 UNL     1      37.564  20.469  16.780  1.00  0.00     0.158 HD
ENDBRANCH  12  15
ENDBRANCH   8   9
ENDBRANCH   6   8
BRANCH   6  18
HETATM   18  N5  UNL     1      41.709  24.502  17.067  1.00  0.00    -0.249 N 
ATOM     19  H5  UNL     1      42.487  24.860  16.511  1.00  0.00     0.196 HD
BRANCH  18  20
HETATM   20  O2  UNL     1      41.980  23.617  18.049  1.00  0.00    -0.244 OA
BRANCH  20  21
HETATM   21  C8  UNL     1      42.868  22.686  17.582  1.00  0.00     0.315 C 
HETATM   22  C9  UNL     1      44.095  22.729  18.470  1.00  0.00     0.198 C 
HETATM   23  N6  UNL     1      45.236  22.161  17.790  1.00  0.00    -0.280 N 
HETATM   24  C10 UNL     1      46.331  21.758  18.601  1.00  0.00     0.390 A 
HETATM   25  C14 UNL     1      45.342  21.976  16.387  1.00  0.00     0.138 A 
HETATM   26  O3  UNL     1      46.338  21.879  19.852  1.00  0.00    -0.236 OA
HETATM   27  O4  UNL     1      47.448  21.205  17.962  1.00  0.00    -0.179 OA
HETATM   28  N7  UNL     1      47.494  21.050  16.600  1.00  0.00    -0.237 N 
HETATM   29  C11 UNL     1      46.560  21.381  15.790  1.00  0.00     0.172 A 
ATOM     30  H7  UNL     1      48.338  20.638  16.203  1.00  0.00     0.197 HD
HETATM   31  N8  UNL     1      46.643  21.206  14.386  1.00  0.00    -0.173 N 
HETATM   32  C12 UNL     1      45.564  21.599  13.559  1.00  0.00     0.679 A 
ATOM     33  H8  UNL     1      47.480  20.797  13.971  1.00  0.00     0.186 HD
HETATM   34  N9  UNL     1      45.567  21.471  12.269  1.00  0.00    -0.234 N 
HETATM   35  N10 UNL     1      44.425  22.164  14.202  1.00  0.00    -0.168 N 
ATOM     36  H92 UNL     1      46.382  21.066  11.809  1.00  0.00     0.174 HD
ATOM     37  H91 UNL     1      44.790  21.754  11.673  1.00  0.00     0.174 HD
HETATM   38  C13 UNL     1      44.335  22.343  15.621  1.00  0.00     0.191 A 
ATOM     39  H10 UNL     1      43.635  22.455  13.625  1.00  0.00     0.186 HD
HETATM   40  O5  UNL     1      43.217  22.894  16.220  1.00  0.00    -0.298 OA
ENDBRANCH  20  21
ENDBRANCH  18  20
ENDBRANCH   6  18
ENDBRANCH   4   5
ENDBRANCH   3   4
TORSDOF 8
ENDMDL
MODEL 3
REMARK VINA RESULT: -8.934234396      2.278      4.336
REMARK  8 active torsions:
REMARK  status: ('A' for Active; 'I' for Inactive)
REMARK    1  A    between atoms: C2_3  and  O1_4 
REMARK    2  A    between atoms: O1_4  and  N2_5 
REMARK    3  A    between atoms: C3_7  and  C4_8 
REMARK    4  A    between atoms: C3_7  and  N5_18 
REMARK    5  A    between atoms: C4_8  and  C5_9 
REMARK    6  A    between atoms: C7_12  and  N3_13 
REMARK    7  A    between atoms: N5_18  and  O2_20 
REMARK    8  A    between atoms: O2_20  and  C8_21 
ROOT
HETATM    1  N1  UNL     1      46.432  21.900  19.531  1.00  0.00    -0.195 NA
HETATM    2  C1  UNL     1      46.071  21.911  18.419  1.00  0.00     0.087 C 
HETATM    3  C2  UNL     1      45.602  21.939  17.033  1.00  0.00     0.324 C 
ENDROOT
BRANCH   3   4
HETATM    4  O1  UNL     1      44.200  22.128  17.012  1.00  0.00    -0.265 OA
BRANCH   4   5
HETATM    5  N2  UNL     1      43.513  22.819  17.954  1.00  0.00    -0.252 N 
HETATM    6  C3  UNL     1      42.391  23.419  17.734  1.00  0.00     0.127 C 
ATOM      7  H2  UNL     1      43.905  22.868  18.894  1.00  0.00     0.196 HD
BRANCH   6   8
HETATM    8  C4  UNL     1      41.730  24.146  18.847  1.00  0.00     0.137 C 
BRANCH   8   9
HETATM    9  C5  UNL     1      40.354  23.525  19.035  1.00  0.00     0.025 A 
HETATM   10  C6  UNL     1      40.246  22.271  19.567  1.00  0.00     0.078 A 
HETATM   11  S1  UNL     1      38.557  22.033  19.575  1.00  0.00    -0.064 SA
HETATM   12  C7  UNL     1      38.091  23.530  18.905  1.00  0.00     0.142 A 
HETATM   13  N4  UNL     1      39.254  24.147  18.705  1.00  0.00    -0.340 N 
ATOM     14  H4  UNL     1      39.285  25.085  18.304  1.00  0.00     0.168 HD
BRANCH  12  15
HETATM   15  N3  UNL     1      36.885  23.992  18.638  1.00  0.00    -0.380 N 
ATOM     16  H32 UNL     1      36.004  23.480  18.682  1.00  0.00     0.158 HD
ATOM     17  H31 UNL     1      36.597  24.925  18.342  1.00  0.00     0.158 HD
ENDBRANCH  12  15
ENDBRANCH   8   9
ENDBRANCH   6   8
BRANCH   6  18
HETATM   18  N5  UNL     1      41.743  23.421  16.465  1.00  0.00    -0.249 N 
ATOM     19  H5  UNL     1      41.728  22.553  15.929  1.00  0.00     0.196 HD
BRANCH  18  20
HETATM   20  O2  UNL     1      41.149  24.511  15.935  1.00  0.00    -0.244 OA
BRANCH  20  21
HETATM   21  C8  UNL     1      40.072  24.116  15.189  1.00  0.00     0.315 C 
HETATM   22  C9  UNL     1      39.145  25.306  15.049  1.00  0.00     0.198 C 
HETATM   23  N6  UNL     1      37.807  24.873  14.717  1.00  0.00    -0.280 N 
HETATM   24  C10 UNL     1      36.936  25.849  14.162  1.00  0.00     0.390 A 
HETATM   25  C14 UNL     1      37.304  23.560  14.903  1.00  0.00     0.138 A 
HETATM   26  O3  UNL     1      37.283  27.039  13.958  1.00  0.00    -0.236 OA
HETATM   27  O4  UNL     1      35.634  25.451  13.833  1.00  0.00    -0.179 OA
HETATM   28  N7  UNL     1      35.203  24.164  14.035  1.00  0.00    -0.237 N 
HETATM   29  C11 UNL     1      35.911  23.220  14.527  1.00  0.00     0.172 A 
ATOM     30  H7  UNL     1      34.242  23.944  13.771  1.00  0.00     0.197 HD
HETATM   31  N8  UNL     1      35.432  21.900  14.722  1.00  0.00    -0.173 N 
HETATM   32  C12 UNL     1      36.282  20.912  15.273  1.00  0.00     0.679 A 
ATOM     33  H8  UNL     1      34.475  21.662  14.465  1.00  0.00     0.186 HD
HETATM   34  N9  UNL     1      35.914  19.686  15.481  1.00  0.00    -0.234 N 
HETATM   35  N10 UNL     1      37.608  21.311  15.611  1.00  0.00    -0.168 N 
ATOM     36  H92 UNL     1      34.966  19.401  15.239  1.00  0.00     0.174 HD
ATOM     37  H91 UNL     1      36.527  18.974  15.877  1.00  0.00     0.174 HD
HETATM   38  C13 UNL     1      38.098  22.642  15.416  1.00  0.00     0.191 A 
ATOM     39  H10 UNL     1      38.238  20.615  16.010  1.00  0.00     0.186 HD
HETATM   40  O5  UNL     1      39.391  23.003  15.753  1.00  0.00    -0.298 OA
ENDBRANCH  20  21
ENDBRANCH  18  20
ENDBRANCH   6  18
ENDBRANCH   4   5
ENDBRANCH   3   4
TORSDOF 8
ENDMDL
MODEL 4
REMARK VINA RESULT: -8.922359184      2.474      4.595
REMARK  8 active torsions:
REMARK  status: ('A' for Active; 'I' for Inactive)
REMARK    1  A    between atoms: C2_3  and  O1_4 
REMARK    2  A    between atoms: O1_4  and  N2_5 
REMARK    3  A    between atoms: C3_7  and  C4_8 
REMARK    4  A    between atoms: C3_7  and  N5_18 
REMARK    5  A    between atoms: C4_8  and  C5_9 
REMARK    6  A    between atoms: C7_12  and  N3_13 
REMARK    7  A    between atoms: N5_18  and  O2_20 
REMARK    8  A    between atoms: O2_20  and  C8_21 
ROOT
HETATM    1  N1  UNL     1      46.444  21.832  19.505  1.00  0.00    -0.195 NA
HETATM    2  C1  UNL     1      45.661  22.107  18.682  1.00  0.00     0.087 C 
HETATM    3  C2  UNL     1      44.676  22.470  17.663  1.00  0.00     0.324 C 
ENDROOT
BRANCH   3   4
HETATM    4  O1  UNL     1      43.614  23.187  18.265  1.00  0.00    -0.265 OA
BRANCH   4   5
HETATM    5  N2  UNL     1      42.483  22.611  18.741  1.00  0.00    -0.252 N 
HETATM    6  C3  UNL     1      41.334  22.691  18.159  1.00  0.00     0.127 C 
ATOM      7  H2  UNL     1      42.544  22.082  19.611  1.00  0.00     0.196 HD
BRANCH   6   8
HETATM    8  C4  UNL     1      40.163  22.016  18.777  1.00  0.00     0.137 C 
BRANCH   8   9
HETATM    9  C5  UNL     1      39.086  23.074  18.969  1.00  0.00     0.025 A 
HETATM   10  C6  UNL     1      39.253  24.044  19.917  1.00  0.00     0.078 A 
HETATM   11  S1  UNL     1      37.822  24.957  19.747  1.00  0.00    -0.064 SA
HETATM   12  C7  UNL     1      37.101  24.058  18.491  1.00  0.00     0.142 A 
HETATM   13  N4  UNL     1      37.991  23.095  18.257  1.00  0.00    -0.340 N 
ATOM     14  H4  UNL     1      37.823  22.391  17.538  1.00  0.00     0.168 HD
BRANCH  12  15
HETATM   15  N3  UNL     1      35.947  24.243  17.880  1.00  0.00    -0.380 N 
ATOM     16  H32 UNL     1      35.783  24.751  17.011  1.00  0.00     0.158 HD
ATOM     17  H31 UNL     1      35.013  23.928  18.145  1.00  0.00     0.158 HD
ENDBRANCH  12  15
ENDBRANCH   8   9
ENDBRANCH   6   8
BRANCH   6  18
HETATM   18  N5  UNL     1      41.123  23.398  16.941  1.00  0.00    -0.249 N 
ATOM     19  H5  UNL     1      40.754  24.348  16.992  1.00  0.00     0.196 HD
BRANCH  18  20
HETATM   20  O2  UNL     1      41.383  22.878  15.724  1.00  0.00    -0.244 OA
BRANCH  20  21
HETATM   21  C8  UNL     1      40.218  22.796  15.011  1.00  0.00     0.315 C 
HETATM   22  C9  UNL     1      39.535  24.146  15.084  1.00  0.00     0.198 C 
HETATM   23  N6  UNL     1      38.124  24.020  14.796  1.00  0.00    -0.280 N 
HETATM   24  C10 UNL     1      37.436  25.208  14.427  1.00  0.00     0.390 A 
HETATM   25  C14 UNL     1      37.384  22.812  14.852  1.00  0.00     0.138 A 
HETATM   26  O3  UNL     1      37.999  26.329  14.348  1.00  0.00    -0.236 OA
HETATM   27  O4  UNL     1      36.069  25.108  14.143  1.00  0.00    -0.179 OA
HETATM   28  N7  UNL     1      35.404  23.910  14.214  1.00  0.00    -0.237 N 
HETATM   29  C11 UNL     1      35.937  22.792  14.536  1.00  0.00     0.172 A 
ATOM     30  H7  UNL     1      34.408  23.911  13.992  1.00  0.00     0.197 HD
HETATM   31  N8  UNL     1      35.219  21.572  14.599  1.00  0.00    -0.173 N 
HETATM   32  C12 UNL     1      35.883  20.377  14.963  1.00  0.00     0.679 A 
ATOM     33  H8  UNL     1      34.223  21.554  14.382  1.00  0.00     0.186 HD
HETATM   34  N9  UNL     1      35.294  19.225  15.043  1.00  0.00    -0.234 N 
HETATM   35  N10 UNL     1      37.275  20.471  15.254  1.00  0.00    -0.168 N 
ATOM     36  H92 UNL     1      34.298  19.158  14.834  1.00  0.00     0.174 HD
ATOM     37  H91 UNL     1      35.773  18.364  15.305  1.00  0.00     0.174 HD
HETATM   38  C13 UNL     1      38.007  21.701  15.192  1.00  0.00     0.191 A 
ATOM     39  H10 UNL     1      37.774  19.622  15.520  1.00  0.00     0.186 HD
HETATM   40  O5  UNL     1      39.358  21.764  15.479  1.00  0.00    -0.298 OA
ENDBRANCH  20  21
ENDBRANCH  18  20
ENDBRANCH   6  18
ENDBRANCH   4   5
ENDBRANCH   3   4
TORSDOF 8
ENDMDL
MODEL 5
REMARK VINA RESULT: -8.896250459      2.435      4.444
REMARK  8 active torsions:
REMARK  status: ('A' for Active; 'I' for Inactive)
REMARK    1  A    between atoms: C2_3  and  O1_4 
REMARK    2  A    between atoms: O1_4  and  N2_5 
REMARK    3  A    between atoms: C3_7  and  C4_8 
REMARK    4  A    between atoms: C3_7  and  N5_18 
REMARK    5  A    between atoms: C4_8  and  C5_9 
REMARK    6  A    between atoms: C7_12  and  N3_13 
REMARK    7  A    between atoms: N5_18  and  O2_20 
REMARK    8  A    between atoms: O2_20  and  C8_21 
ROOT
HETATM    1  N1  UNL     1      46.435  21.826  19.518  1.00  0.00    -0.195 NA
HETATM    2  C1  UNL     1      45.977  22.180  18.502  1.00  0.00     0.087 C 
HETATM    3  C2  UNL     1      45.392  22.640  17.242  1.00  0.00     0.324 C 
ENDROOT
BRANCH   3   4
HETATM    4  O1  UNL     1      44.097  23.159  17.482  1.00  0.00    -0.265 OA
BRANCH   4   5
HETATM    5  N2  UNL     1      43.192  22.585  18.312  1.00  0.00    -0.252 N 
HETATM    6  C3  UNL     1      41.915  22.636  18.132  1.00  0.00     0.127 C 
ATOM      7  H2  UNL     1      43.541  22.083  19.128  1.00  0.00     0.196 HD
BRANCH   6   8
HETATM    8  C4  UNL     1      41.020  21.968  19.111  1.00  0.00     0.137 C 
BRANCH   8   9
HETATM    9  C5  UNL     1      40.433  23.057  19.998  1.00  0.00     0.025 A 
HETATM   10  C6  UNL     1      39.077  23.199  20.085  1.00  0.00     0.078 A 
HETATM   11  S1  UNL     1      38.926  24.509  21.167  1.00  0.00    -0.064 SA
HETATM   12  C7  UNL     1      40.584  24.797  21.442  1.00  0.00     0.142 A 
HETATM   13  N4  UNL     1      41.181  23.873  20.691  1.00  0.00    -0.340 N 
ATOM     14  H4  UNL     1      42.199  23.805  20.657  1.00  0.00     0.168 HD
BRANCH  12  15
HETATM   15  N3  UNL     1      41.164  25.702  22.205  1.00  0.00    -0.380 N 
ATOM     16  H32 UNL     1      42.155  25.943  22.233  1.00  0.00     0.158 HD
ATOM     17  H31 UNL     1      40.754  26.326  22.900  1.00  0.00     0.158 HD
ENDBRANCH  12  15
ENDBRANCH   8   9
ENDBRANCH   6   8
BRANCH   6  18
HETATM   18  N5  UNL     1      41.308  23.305  17.030  1.00  0.00    -0.249 N 
ATOM     19  H5  UNL     1      40.624  24.036  17.226  1.00  0.00     0.196 HD
BRANCH  18  20
HETATM   20  O2  UNL     1      41.590  23.022  15.741  1.00  0.00    -0.244 OA
BRANCH  20  21
HETATM   21  C8  UNL     1      40.421  22.918  15.038  1.00  0.00     0.315 C 
HETATM   22  C9  UNL     1      39.716  24.258  15.111  1.00  0.00     0.198 C 
HETATM   23  N6  UNL     1      38.306  24.107  14.834  1.00  0.00    -0.280 N 
HETATM   24  C10 UNL     1      37.595  25.282  14.467  1.00  0.00     0.390 A 
HETATM   25  C14 UNL     1      37.586  22.887  14.901  1.00  0.00     0.138 A 
HETATM   26  O3  UNL     1      38.139  26.411  14.379  1.00  0.00    -0.236 OA
HETATM   27  O4  UNL     1      36.228  25.159  14.194  1.00  0.00    -0.179 OA
HETATM   28  N7  UNL     1      35.583  23.950  14.274  1.00  0.00    -0.237 N 
HETATM   29  C11 UNL     1      36.137  22.842  14.596  1.00  0.00     0.172 A 
ATOM     30  H7  UNL     1      34.586  23.934  14.060  1.00  0.00     0.197 HD
HETATM   31  N8  UNL     1      35.439  21.610  14.669  1.00  0.00    -0.173 N 
HETATM   32  C12 UNL     1      36.126  20.428  15.033  1.00  0.00     0.679 A 
ATOM     33  H8  UNL     1      34.442  21.576  14.460  1.00  0.00     0.186 HD
HETATM   34  N9  UNL     1      35.556  19.267  15.121  1.00  0.00    -0.234 N 
HETATM   35  N10 UNL     1      37.519  20.546  15.312  1.00  0.00    -0.168 N 
ATOM     36  H92 UNL     1      34.560  19.183  14.921  1.00  0.00     0.174 HD
ATOM     37  H91 UNL     1      36.052  18.415  15.383  1.00  0.00     0.174 HD
HETATM   38  C13 UNL     1      38.229  21.788  15.240  1.00  0.00     0.191 A 
ATOM     39  H10 UNL     1      38.034  19.707  15.577  1.00  0.00     0.186 HD
HETATM   40  O5  UNL     1      39.582  21.874  15.517  1.00  0.00    -0.298 OA
ENDBRANCH  20  21
ENDBRANCH  18  20
ENDBRANCH   6  18
ENDBRANCH   4   5
ENDBRANCH   3   4
TORSDOF 8
ENDMDL
