MODEL 1
REMARK VINA RESULT: -9.826659403      0.000      0.000
REMARK  9 active torsions:
REMARK  status: ('A' for Active; 'I' for Inactive)
REMARK       I    between atoms: C1_2  and  N1_3 
REMARK    1  A    between atoms: C1_2  and  C9_17 
REMARK    2  A    between atoms: N1_3  and  N2_5 
REMARK    3  A    between atoms: C2_7  and  C3_8 
REMARK    4  A    between atoms: C6_11  and  N3_12 
REMARK       I    between atoms: C9_17  and  N4_19 
REMARK    5  A    between atoms: N4_19  and  N5_21 
REMARK    6  A    between atoms: C10_23  and  C11_24 
REMARK    7  A    between atoms: C12_25  and  C13_26 
REMARK    8  A    between atoms: C15_32  and  O9_33 
REMARK    9  A    between atoms: C16_35  and  O10_36 
ROOT
HETATM    1  C9  UNL     1      42.178  24.373  16.337  1.00  0.00     0.329 C 
HETATM    2  O4  UNL     1      42.965  25.140  16.927  1.00  0.00    -0.261 OA
HETATM    3  N4  UNL     1      42.472  23.022  16.041  1.00  0.00    -0.262 N 
ATOM      4  H4  UNL     1      41.728  22.520  15.556  1.00  0.00     0.190 HD
ENDROOT
BRANCH   3   5
HETATM    5  N5  UNL     1      43.587  22.279  16.299  1.00  0.00    -0.308 N 
HETATM    6  C10 UNL     1      44.763  22.293  15.977  1.00  0.00     0.124 C 
ATOM      7  H5  UNL     1      43.381  21.504  16.930  1.00  0.00     0.186 HD
BRANCH   6   8
HETATM    8  C11 UNL     1      45.935  21.485  16.282  1.00  0.00     0.058 A 
HETATM    9  C12 UNL     1      46.380  21.318  17.574  1.00  0.00     0.170 A 
HETATM   10  O7  UNL     1      47.424  20.512  17.808  1.00  0.00    -0.265 OA
HETATM   11  C14 UNL     1      48.050  19.872  16.876  1.00  0.00     0.325 A 
HETATM   12  O8  UNL     1      49.038  19.112  17.128  1.00  0.00    -0.257 OA
HETATM   13  C15 UNL     1      47.682  19.976  15.558  1.00  0.00     0.176 A 
HETATM   14  C16 UNL     1      46.591  20.811  15.279  1.00  0.00     0.119 A 
BRANCH   9  15
HETATM   15  C13 UNL     1      45.869  21.918  18.767  1.00  0.00     0.235 C 
HETATM   16  O5  UNL     1      46.622  21.877  19.818  1.00  0.00    -0.642 OA
HETATM   17  O6  UNL     1      44.704  22.542  18.991  1.00  0.00    -0.642 OA
ENDBRANCH   9  15
BRANCH  13  18
HETATM   18  O9  UNL     1      48.298  19.329  14.526  1.00  0.00    -0.353 OA
ATOM     19  H9  UNL     1      47.963  18.548  14.100  1.00  0.00     0.218 HD
ENDBRANCH  13  18
BRANCH  14  20
HETATM   20  O10 UNL     1      46.230  20.907  13.970  1.00  0.00    -0.357 OA
ATOM     21  H10 UNL     1      46.825  20.708  13.257  1.00  0.00     0.218 HD
ENDBRANCH  14  20
ENDBRANCH   6   8
ENDBRANCH   3   5
BRANCH   1  22
HETATM   22  C1  UNL     1      40.877  24.861  15.913  1.00  0.00     0.329 C 
HETATM   23  O1  UNL     1      40.645  26.127  15.932  1.00  0.00    -0.261 OA
HETATM   24  N1  UNL     1      39.830  24.021  15.477  1.00  0.00    -0.262 N 
ATOM     25  H1  UNL     1      39.976  23.012  15.435  1.00  0.00     0.190 HD
BRANCH  24  26
HETATM   26  N2  UNL     1      38.588  24.559  15.099  1.00  0.00    -0.308 N 
HETATM   27  C2  UNL     1      37.476  23.973  15.311  1.00  0.00     0.118 C 
ATOM     28  H2  UNL     1      38.576  25.465  14.630  1.00  0.00     0.186 HD
BRANCH  27  29
HETATM   29  C3  UNL     1      36.274  24.640  14.864  1.00  0.00    -0.019 A 
HETATM   30  C4  UNL     1      36.321  25.631  13.922  1.00  0.00     0.015 A 
HETATM   31  C5  UNL     1      35.153  26.217  13.493  1.00  0.00     0.037 A 
HETATM   32  C6  UNL     1      33.929  25.853  13.971  1.00  0.00     0.102 A 
HETATM   33  C7  UNL     1      33.875  24.850  14.927  1.00  0.00     0.037 A 
HETATM   34  C8  UNL     1      35.040  24.256  15.363  1.00  0.00     0.015 A 
BRANCH  32  35
HETATM   35  N3  UNL     1      32.722  26.457  13.505  1.00  0.00    -0.116 N 
HETATM   36  O2  UNL     1      32.755  27.434  12.758  1.00  0.00    -0.532 OA
HETATM   37  O3  UNL     1      31.536  25.907  13.916  1.00  0.00    -0.532 OA
ENDBRANCH  32  35
ENDBRANCH  27  29
ENDBRANCH  24  26
ENDBRANCH   1  22
TORSDOF 9
ENDMDL
MODEL 2
REMARK VINA RESULT: -9.797855898      0.409      1.089
REMARK  9 active torsions:
REMARK  status: ('A' for Active; 'I' for Inactive)
REMARK       I    between atoms: C1_2  and  N1_3 
REMARK    1  A    between atoms: C1_2  and  C9_17 
REMARK    2  A    between atoms: N1_3  and  N2_5 
REMARK    3  A    between atoms: C2_7  and  C3_8 
REMARK    4  A    between atoms: C6_11  and  N3_12 
REMARK       I    between atoms: C9_17  and  N4_19 
REMARK    5  A    between atoms: N4_19  and  N5_21 
REMARK    6  A    between atoms: C10_23  and  C11_24 
REMARK    7  A    between atoms: C12_25  and  C13_26 
REMARK    8  A    between atoms: C15_32  and  O9_33 
REMARK    9  A    between atoms: C16_35  and  O10_36 
ROOT
HETATM    1  C9  UNL     1      42.229  24.236  15.607  1.00  0.00     0.329 C 
HETATM    2  O4  UNL     1      42.974  24.987  16.268  1.00  0.00    -0.261 OA
HETATM    3  N4  UNL     1      42.593  22.933  15.194  1.00  0.00    -0.262 N 
ATOM      4  H4  UNL     1      41.877  22.439  14.661  1.00  0.00     0.190 HD
ENDROOT
BRANCH   3   5
HETATM    5  N5  UNL     1      43.744  22.229  15.391  1.00  0.00    -0.308 N 
HETATM    6  C10 UNL     1      44.687  22.256  16.165  1.00  0.00     0.124 C 
ATOM      7  H5  UNL     1      43.843  21.477  14.709  1.00  0.00     0.186 HD
BRANCH   6   8
HETATM    8  C11 UNL     1      45.902  21.476  16.352  1.00  0.00     0.058 A 
HETATM    9  C12 UNL     1      46.468  21.311  17.597  1.00  0.00     0.170 A 
HETATM   10  O7  UNL     1      47.550  20.531  17.726  1.00  0.00    -0.265 OA
HETATM   11  C14 UNL     1      48.102  19.914  16.734  1.00  0.00     0.325 A 
HETATM   12  O8  UNL     1      49.128  19.179  16.887  1.00  0.00    -0.257 OA
HETATM   13  C15 UNL     1      47.612  20.019  15.457  1.00  0.00     0.176 A 
HETATM   14  C16 UNL     1      46.479  20.828  15.287  1.00  0.00     0.119 A 
BRANCH   9  15
HETATM   15  C13 UNL     1      46.054  21.890  18.838  1.00  0.00     0.235 C 
HETATM   16  O5  UNL     1      44.945  22.557  18.837  1.00  0.00    -0.642 OA
HETATM   17  O6  UNL     1      46.636  21.857  20.045  1.00  0.00    -0.642 OA
ENDBRANCH   9  15
BRANCH  13  18
HETATM   18  O9  UNL     1      48.146  19.396  14.366  1.00  0.00    -0.353 OA
ATOM     19  H9  UNL     1      49.045  19.096  14.300  1.00  0.00     0.218 HD
ENDBRANCH  13  18
BRANCH  14  20
HETATM   20  O10 UNL     1      45.997  20.923  14.018  1.00  0.00    -0.357 OA
ATOM     21  H10 UNL     1      46.254  20.328  13.324  1.00  0.00     0.218 HD
ENDBRANCH  14  20
ENDBRANCH   6   8
ENDBRANCH   3   5
BRANCH   1  22
HETATM   22  C1  UNL     1      40.906  24.693  15.220  1.00  0.00     0.329 C 
HETATM   23  O1  UNL     1      40.718  25.944  14.984  1.00  0.00    -0.261 OA
HETATM   24  N1  UNL     1      39.790  23.837  15.086  1.00  0.00    -0.262 N 
ATOM     25  H1  UNL     1      39.899  22.836  15.252  1.00  0.00     0.190 HD
BRANCH  24  26
HETATM   26  N2  UNL     1      38.532  24.349  14.726  1.00  0.00    -0.308 N 
HETATM   27  C2  UNL     1      37.433  23.898  15.189  1.00  0.00     0.118 C 
ATOM     28  H2  UNL     1      38.496  25.121  14.061  1.00  0.00     0.186 HD
BRANCH  27  29
HETATM   29  C3  UNL     1      36.210  24.517  14.728  1.00  0.00    -0.019 A 
HETATM   30  C4  UNL     1      34.987  24.057  15.131  1.00  0.00     0.015 A 
HETATM   31  C5  UNL     1      33.846  24.696  14.702  1.00  0.00     0.037 A 
HETATM   32  C6  UNL     1      33.877  25.781  13.877  1.00  0.00     0.102 A 
HETATM   33  C7  UNL     1      35.115  26.250  13.463  1.00  0.00     0.037 A 
HETATM   34  C8  UNL     1      36.264  25.618  13.889  1.00  0.00     0.015 A 
BRANCH  32  35
HETATM   35  N3  UNL     1      32.686  26.444  13.452  1.00  0.00    -0.116 N 
HETATM   36  O2  UNL     1      32.744  27.454  12.752  1.00  0.00    -0.532 OA
HETATM   37  O3  UNL     1      31.486  25.913  13.848  1.00  0.00    -0.532 OA
ENDBRANCH  32  35
ENDBRANCH  27  29
ENDBRANCH  24  26
ENDBRANCH   1  22
TORSDOF 9
ENDMDL
MODEL 3
REMARK VINA RESULT: -9.690978276      2.243     12.383
REMARK  9 active torsions:
REMARK  status: ('A' for Active; 'I' for Inactive)
REMARK       I    between atoms: C1_2  and  N1_3 
REMARK    1  A    between atoms: C1_2  and  C9_17 
REMARK    2  A    between atoms: N1_3  and  N2_5 
REMARK    3  A    between atoms: C2_7  and  C3_8 
REMARK    4  A    between atoms: C6_11  and  N3_12 
REMARK       I    between atoms: C9_17  and  N4_19 
REMARK    5  A    between atoms: N4_19  and  N5_21 
REMARK    6  A    between atoms: C10_23  and  C11_24 
REMARK    7  A    between atoms: C12_25  and  C13_26 
REMARK    8  A    between atoms: C15_32  and  O9_33 
REMARK    9  A    between atoms: C16_35  and  O10_36 
ROOT
HETATM    1  C9  UNL     1      39.482  24.331  14.516  1.00  0.00     0.329 C 
HETATM    2  O4  UNL     1      39.592  25.551  14.289  1.00  0.00    -0.261 OA
HETATM    3  N4  UNL     1      38.246  23.644  14.545  1.00  0.00    -0.262 N 
ATOM      4  H4  UNL     1      38.317  22.646  14.743  1.00  0.00     0.190 HD
ENDROOT
BRANCH   3   5
HETATM    5  N5  UNL     1      36.974  24.099  14.352  1.00  0.00    -0.308 N 
HETATM    6  C10 UNL     1      36.370  25.149  14.492  1.00  0.00     0.124 C 
ATOM      7  H5  UNL     1      36.366  23.363  13.994  1.00  0.00     0.186 HD
BRANCH   6   8
HETATM    8  C11 UNL     1      35.006  25.603  14.264  1.00  0.00     0.058 A 
HETATM    9  C12 UNL     1      34.726  26.655  13.420  1.00  0.00     0.170 A 
HETATM   10  O7  UNL     1      33.450  26.992  13.194  1.00  0.00    -0.265 OA
HETATM   11  C14 UNL     1      32.448  26.378  13.731  1.00  0.00     0.325 A 
HETATM   12  O8  UNL     1      31.246  26.720  13.497  1.00  0.00    -0.257 OA
HETATM   13  C15 UNL     1      32.625  25.320  14.586  1.00  0.00     0.176 A 
HETATM   14  C16 UNL     1      33.950  24.941  14.843  1.00  0.00     0.119 A 
BRANCH   9  15
HETATM   15  C13 UNL     1      35.651  27.492  12.719  1.00  0.00     0.235 C 
HETATM   16  O5  UNL     1      36.414  28.256  13.432  1.00  0.00    -0.642 OA
HETATM   17  O6  UNL     1      35.872  27.624  11.404  1.00  0.00    -0.642 OA
ENDBRANCH   9  15
BRANCH  13  18
HETATM   18  O9  UNL     1      31.613  24.629  15.187  1.00  0.00    -0.353 OA
ATOM     19  H9  UNL     1      31.475  23.693  15.106  1.00  0.00     0.218 HD
ENDBRANCH  13  18
BRANCH  14  20
HETATM   20  O10 UNL     1      34.118  23.888  15.690  1.00  0.00    -0.357 OA
ATOM     21  H10 UNL     1      33.628  23.796  16.499  1.00  0.00     0.218 HD
ENDBRANCH  14  20
ENDBRANCH   6   8
ENDBRANCH   3   5
BRANCH   1  22
HETATM   22  C1  UNL     1      40.671  23.535  14.772  1.00  0.00     0.329 C 
HETATM   23  O1  UNL     1      40.541  22.285  15.052  1.00  0.00    -0.261 OA
HETATM   24  N1  UNL     1      41.983  24.055  14.737  1.00  0.00    -0.262 N 
ATOM     25  H1  UNL     1      42.131  25.038  14.508  1.00  0.00     0.190 HD
BRANCH  24  26
HETATM   26  N2  UNL     1      43.088  23.233  15.015  1.00  0.00    -0.308 N 
HETATM   27  C2  UNL     1      43.648  23.172  16.159  1.00  0.00     0.118 C 
ATOM     28  H2  UNL     1      43.462  22.654  14.263  1.00  0.00     0.186 HD
BRANCH  27  29
HETATM   29  C3  UNL     1      44.781  22.286  16.302  1.00  0.00    -0.019 A 
HETATM   30  C4  UNL     1      45.337  21.665  15.217  1.00  0.00     0.015 A 
HETATM   31  C5  UNL     1      46.439  20.858  15.387  1.00  0.00     0.037 A 
HETATM   32  C6  UNL     1      47.011  20.642  16.606  1.00  0.00     0.102 A 
HETATM   33  C7  UNL     1      46.450  21.268  17.710  1.00  0.00     0.037 A 
HETATM   34  C8  UNL     1      45.347  22.079  17.549  1.00  0.00     0.015 A 
BRANCH  32  35
HETATM   35  N3  UNL     1      48.164  19.816  16.766  1.00  0.00    -0.116 N 
HETATM   36  O2  UNL     1      49.287  20.243  16.501  1.00  0.00    -0.532 OA
HETATM   37  O3  UNL     1      47.973  18.540  17.228  1.00  0.00    -0.532 OA
ENDBRANCH  32  35
ENDBRANCH  27  29
ENDBRANCH  24  26
ENDBRANCH   1  22
TORSDOF 9
ENDMDL
MODEL 4
REMARK VINA RESULT: -9.540550277      1.987     12.350
REMARK  9 active torsions:
REMARK  status: ('A' for Active; 'I' for Inactive)
REMARK       I    between atoms: C1_2  and  N1_3 
REMARK    1  A    between atoms: C1_2  and  C9_17 
REMARK    2  A    between atoms: N1_3  and  N2_5 
REMARK    3  A    between atoms: C2_7  and  C3_8 
REMARK    4  A    between atoms: C6_11  and  N3_12 
REMARK       I    between atoms: C9_17  and  N4_19 
REMARK    5  A    between atoms: N4_19  and  N5_21 
REMARK    6  A    between atoms: C10_23  and  C11_24 
REMARK    7  A    between atoms: C12_25  and  C13_26 
REMARK    8  A    between atoms: C15_32  and  O9_33 
REMARK    9  A    between atoms: C16_35  and  O10_36 
ROOT
HETATM    1  C9  UNL     1      39.668  25.045  14.616  1.00  0.00     0.329 C 
HETATM    2  O4  UNL     1      39.644  26.242  14.964  1.00  0.00    -0.261 OA
HETATM    3  N4  UNL     1      38.543  24.348  14.117  1.00  0.00    -0.262 N 
ATOM      4  H4  UNL     1      38.719  23.374  13.873  1.00  0.00     0.190 HD
ENDROOT
BRANCH   3   5
HETATM    5  N5  UNL     1      37.261  24.766  13.910  1.00  0.00    -0.308 N 
HETATM    6  C10 UNL     1      36.362  25.256  14.574  1.00  0.00     0.124 C 
ATOM      7  H5  UNL     1      36.978  24.633  12.939  1.00  0.00     0.186 HD
BRANCH   6   8
HETATM    8  C11 UNL     1      35.001  25.701  14.314  1.00  0.00     0.058 A 
HETATM    9  C12 UNL     1      34.734  26.741  13.452  1.00  0.00     0.170 A 
HETATM   10  O7  UNL     1      33.461  27.070  13.198  1.00  0.00    -0.265 OA
HETATM   11  C14 UNL     1      32.451  26.459  13.724  1.00  0.00     0.325 A 
HETATM   12  O8  UNL     1      31.252  26.793  13.463  1.00  0.00    -0.257 OA
HETATM   13  C15 UNL     1      32.616  25.414  14.596  1.00  0.00     0.176 A 
HETATM   14  C16 UNL     1      33.937  25.043  14.883  1.00  0.00     0.119 A 
BRANCH   9  15
HETATM   15  C13 UNL     1      35.668  27.572  12.757  1.00  0.00     0.235 C 
HETATM   16  O5  UNL     1      36.728  27.936  13.402  1.00  0.00    -0.642 OA
HETATM   17  O6  UNL     1      35.635  28.053  11.506  1.00  0.00    -0.642 OA
ENDBRANCH   9  15
BRANCH  13  18
HETATM   18  O9  UNL     1      31.595  24.726  15.187  1.00  0.00    -0.353 OA
ATOM     19  H9  UNL     1      31.690  23.889  15.626  1.00  0.00     0.218 HD
ENDBRANCH  13  18
BRANCH  14  20
HETATM   20  O10 UNL     1      34.092  24.002  15.747  1.00  0.00    -0.357 OA
ATOM     21  H10 UNL     1      34.531  23.194  15.505  1.00  0.00     0.218 HD
ENDBRANCH  14  20
ENDBRANCH   6   8
ENDBRANCH   3   5
BRANCH   1  22
HETATM   22  C1  UNL     1      40.905  24.290  14.716  1.00  0.00     0.329 C 
HETATM   23  O1  UNL     1      41.644  24.155  13.671  1.00  0.00    -0.261 OA
HETATM   24  N1  UNL     1      41.357  23.682  15.908  1.00  0.00    -0.262 N 
ATOM     25  H1  UNL     1      40.807  23.775  16.762  1.00  0.00     0.190 HD
BRANCH  24  26
HETATM   26  N2  UNL     1      42.555  22.949  15.929  1.00  0.00    -0.308 N 
HETATM   27  C2  UNL     1      43.538  23.233  16.691  1.00  0.00     0.118 C 
ATOM     28  H2  UNL     1      42.644  22.148  15.304  1.00  0.00     0.186 HD
BRANCH  27  29
HETATM   29  C3  UNL     1      44.713  22.395  16.605  1.00  0.00    -0.019 A 
HETATM   30  C4  UNL     1      45.434  22.069  17.721  1.00  0.00     0.015 A 
HETATM   31  C5  UNL     1      46.525  21.238  17.606  1.00  0.00     0.037 A 
HETATM   32  C6  UNL     1      46.930  20.718  16.412  1.00  0.00     0.102 A 
HETATM   33  C7  UNL     1      46.203  21.047  15.277  1.00  0.00     0.037 A 
HETATM   34  C8  UNL     1      45.108  21.878  15.382  1.00  0.00     0.015 A 
BRANCH  32  35
HETATM   35  N3  UNL     1      48.054  19.843  16.309  1.00  0.00    -0.116 N 
HETATM   36  O2  UNL     1      48.719  19.553  17.302  1.00  0.00    -0.532 OA
HETATM   37  O3  UNL     1      48.356  19.340  15.070  1.00  0.00    -0.532 OA
ENDBRANCH  32  35
ENDBRANCH  27  29
ENDBRANCH  24  26
ENDBRANCH   1  22
TORSDOF 9
ENDMDL
MODEL 5
REMARK VINA RESULT: -9.367079091      1.347      1.432
REMARK  9 active torsions:
REMARK  status: ('A' for Active; 'I' for Inactive)
REMARK       I    between atoms: C1_2  and  N1_3 
REMARK    1  A    between atoms: C1_2  and  C9_17 
REMARK    2  A    between atoms: N1_3  and  N2_5 
REMARK    3  A    between atoms: C2_7  and  C3_8 
REMARK    4  A    between atoms: C6_11  and  N3_12 
REMARK       I    between atoms: C9_17  and  N4_19 
REMARK    5  A    between atoms: N4_19  and  N5_21 
REMARK    6  A    between atoms: C10_23  and  C11_24 
REMARK    7  A    between atoms: C12_25  and  C13_26 
REMARK    8  A    between atoms: C15_32  and  O9_33 
REMARK    9  A    between atoms: C16_35  and  O10_36 
ROOT
HETATM    1  C9  UNL     1      42.005  23.994  14.982  1.00  0.00     0.329 C 
HETATM    2  O4  UNL     1      42.678  24.035  13.934  1.00  0.00    -0.261 OA
HETATM    3  N4  UNL     1      42.378  23.253  16.127  1.00  0.00    -0.262 N 
ATOM      4  H4  UNL     1      41.727  23.318  16.909  1.00  0.00     0.190 HD
ENDROOT
BRANCH   3   5
HETATM    5  N5  UNL     1      43.468  22.465  16.358  1.00  0.00    -0.308 N 
HETATM    6  C10 UNL     1      44.642  22.444  16.027  1.00  0.00     0.124 C 
ATOM      7  H5  UNL     1      43.240  21.683  16.972  1.00  0.00     0.186 HD
BRANCH   6   8
HETATM    8  C11 UNL     1      45.786  21.587  16.303  1.00  0.00     0.058 A 
HETATM    9  C12 UNL     1      46.227  21.364  17.588  1.00  0.00     0.170 A 
HETATM   10  O7  UNL     1      47.244  20.517  17.794  1.00  0.00    -0.265 OA
HETATM   11  C14 UNL     1      47.846  19.885  16.840  1.00  0.00     0.325 A 
HETATM   12  O8  UNL     1      48.807  19.085  17.066  1.00  0.00    -0.257 OA
HETATM   13  C15 UNL     1      47.479  20.044  15.528  1.00  0.00     0.176 A 
HETATM   14  C16 UNL     1      46.417  20.924  15.278  1.00  0.00     0.119 A 
BRANCH   9  15
HETATM   15  C13 UNL     1      45.738  21.944  18.801  1.00  0.00     0.235 C 
HETATM   16  O5  UNL     1      46.518  21.900  19.832  1.00  0.00    -0.642 OA
HETATM   17  O6  UNL     1      44.571  22.549  19.062  1.00  0.00    -0.642 OA
ENDBRANCH   9  15
BRANCH  13  18
HETATM   18  O9  UNL     1      48.071  19.410  14.474  1.00  0.00    -0.353 OA
ATOM     19  H9  UNL     1      47.907  19.610  13.560  1.00  0.00     0.218 HD
ENDBRANCH  13  18
BRANCH  14  20
HETATM   20  O10 UNL     1      46.058  21.073  13.973  1.00  0.00    -0.357 OA
ATOM     21  H10 UNL     1      45.671  21.872  13.634  1.00  0.00     0.218 HD
ENDBRANCH  14  20
ENDBRANCH   6   8
ENDBRANCH   3   5
BRANCH   1  22
HETATM   22  C1  UNL     1      40.759  24.735  15.068  1.00  0.00     0.329 C 
HETATM   23  O1  UNL     1      40.797  26.017  15.178  1.00  0.00    -0.261 OA
HETATM   24  N1  UNL     1      39.484  24.128  15.043  1.00  0.00    -0.262 N 
ATOM     25  H1  UNL     1      39.408  23.116  14.946  1.00  0.00     0.190 HD
BRANCH  24  26
HETATM   26  N2  UNL     1      38.317  24.905  15.151  1.00  0.00    -0.308 N 
HETATM   27  C2  UNL     1      37.482  25.051  14.199  1.00  0.00     0.118 C 
ATOM     28  H2  UNL     1      38.130  25.376  16.035  1.00  0.00     0.186 HD
BRANCH  27  29
HETATM   29  C3  UNL     1      36.326  25.884  14.447  1.00  0.00    -0.019 A 
HETATM   30  C4  UNL     1      35.345  26.033  13.506  1.00  0.00     0.015 A 
HETATM   31  C5  UNL     1      34.241  26.803  13.792  1.00  0.00     0.037 A 
HETATM   32  C6  UNL     1      34.077  27.437  14.988  1.00  0.00     0.102 A 
HETATM   33  C7  UNL     1      35.070  27.290  15.946  1.00  0.00     0.037 A 
HETATM   34  C8  UNL     1      36.179  26.520  15.669  1.00  0.00     0.015 A 
BRANCH  32  35
HETATM   35  N3  UNL     1      32.918  28.219  15.279  1.00  0.00    -0.116 N 
HETATM   36  O2  UNL     1      33.018  29.306  15.847  1.00  0.00    -0.532 OA
HETATM   37  O3  UNL     1      31.700  27.717  14.900  1.00  0.00    -0.532 OA
ENDBRANCH  32  35
ENDBRANCH  27  29
ENDBRANCH  24  26
ENDBRANCH   1  22
TORSDOF 9
ENDMDL
