MODEL 1
REMARK VINA RESULT: -6.947588218      0.000      0.000
REMARK  8 active torsions:
REMARK  status: ('A' for Active; 'I' for Inactive)
REMARK    1  A    between atoms: C2_2  and  N1_3 
REMARK    2  A    between atoms: C2_2  and  C12_24 
REMARK       I    between atoms: N1_3  and  C3_5 
REMARK       I    between atoms: C3_5  and  N2_7 
REMARK    3  A    between atoms: N2_7  and  C4_9 
REMARK    4  A    between atoms: C4_9  and  C5_10 
REMARK    5  A    between atoms: C4_9  and  C7_14 
REMARK    6  A    between atoms: C5_10  and  C6_11 
REMARK       I    between atoms: C7_14  and  N4_16 
REMARK    7  A    between atoms: N4_16  and  C8_18 
REMARK    8  A    between atoms: C8_18  and  C9_19 
ROOT
HETATM    1  C4  UNL     1     -15.941   7.877  32.940  1.00  0.00     0.186 C 
ENDROOT
BRANCH   1   2
HETATM    2  N2  UNL     1     -15.817   6.655  33.700  1.00  0.00    -0.329 N 
HETATM    3  C3  UNL     1     -15.559   6.579  35.071  1.00  0.00     0.317 C 
HETATM    4  N1  UNL     1     -15.442   5.400  35.821  1.00  0.00    -0.335 N 
HETATM    5  O1  UNL     1     -15.413   7.672  35.713  1.00  0.00    -0.247 OA
ATOM      6  H1  UNL     1     -15.555   4.516  35.324  1.00  0.00     0.164 HD
ATOM      7  H2  UNL     1     -15.928   5.777  33.195  1.00  0.00     0.165 HD
BRANCH   4   8
HETATM    8  C2  UNL     1     -15.176   5.334  37.232  1.00  0.00     0.136 C 
HETATM    9  C1  UNL     1     -16.167   4.501  37.994  1.00  0.00     0.036 C 
BRANCH   8  10
HETATM   10  C12 UNL     1     -13.744   4.890  37.502  1.00  0.00     0.208 C 
HETATM   11 CL1  UNL     1     -12.706   5.149  36.089  1.00  0.00    -0.082 Cl
HETATM   12 CL2  UNL     1     -13.737   3.164  37.881  1.00  0.00    -0.082 Cl
HETATM   13 CL3  UNL     1     -13.094   5.823  38.858  1.00  0.00    -0.082 Cl
ENDBRANCH   8  10
ENDBRANCH   4   8
ENDBRANCH   1   2
BRANCH   1  14
HETATM   14  C5  UNL     1     -16.607   7.656  31.603  1.00  0.00     0.134 C 
BRANCH  14  15
HETATM   15  C6  UNL     1     -16.835   6.257  31.251  1.00  0.00     0.233 C 
HETATM   16  N3  UNL     1     -15.815   5.499  30.645  1.00  0.00    -0.062 NA
HETATM   17  O2  UNL     1     -17.934   5.714  31.482  1.00  0.00    -0.277 OA
ENDBRANCH  14  15
ENDBRANCH   1  14
BRANCH   1  18
HETATM   18  C7  UNL     1     -14.639   8.511  32.675  1.00  0.00     0.242 C 
HETATM   19  O3  UNL     1     -14.126   8.404  31.555  1.00  0.00    -0.271 OA
HETATM   20  N4  UNL     1     -13.988   9.228  33.679  1.00  0.00    -0.342 N 
ATOM     21  H4  UNL     1     -14.444   9.291  34.589  1.00  0.00     0.163 HD
BRANCH  20  22
HETATM   22  C8  UNL     1     -12.705   9.888  33.519  1.00  0.00     0.111 A 
HETATM   23  C10 UNL     1     -11.731   9.606  34.682  1.00  0.00     0.043 A 
HETATM   24  C11 UNL     1     -11.533   8.993  33.351  1.00  0.00     0.043 A 
BRANCH  22  25
HETATM   25  C9  UNL     1     -12.739  11.244  32.971  1.00  0.00     0.259 C 
HETATM   26  N5  UNL     1     -13.293  12.369  33.607  1.00  0.00    -0.060 NA
HETATM   27  O4  UNL     1     -12.229  11.428  31.830  1.00  0.00    -0.274 OA
ENDBRANCH  22  25
ENDBRANCH  20  22
ENDBRANCH   1  18
TORSDOF 8
ENDMDL
MODEL 2
REMARK VINA RESULT: -6.938870754      0.052      1.016
REMARK  8 active torsions:
REMARK  status: ('A' for Active; 'I' for Inactive)
REMARK    1  A    between atoms: C2_2  and  N1_3 
REMARK    2  A    between atoms: C2_2  and  C12_24 
REMARK       I    between atoms: N1_3  and  C3_5 
REMARK       I    between atoms: C3_5  and  N2_7 
REMARK    3  A    between atoms: N2_7  and  C4_9 
REMARK    4  A    between atoms: C4_9  and  C5_10 
REMARK    5  A    between atoms: C4_9  and  C7_14 
REMARK    6  A    between atoms: C5_10  and  C6_11 
REMARK       I    between atoms: C7_14  and  N4_16 
REMARK    7  A    between atoms: N4_16  and  C8_18 
REMARK    8  A    between atoms: C8_18  and  C9_19 
ROOT
HETATM    1  C4  UNL     1     -15.937   7.866  32.981  1.00  0.00     0.186 C 
ENDROOT
BRANCH   1   2
HETATM    2  N2  UNL     1     -15.800   6.638  33.730  1.00  0.00    -0.329 N 
HETATM    3  C3  UNL     1     -15.564   6.552  35.104  1.00  0.00     0.317 C 
HETATM    4  N1  UNL     1     -15.433   5.368  35.844  1.00  0.00    -0.335 N 
HETATM    5  O1  UNL     1     -15.454   7.641  35.760  1.00  0.00    -0.247 OA
ATOM      6  H1  UNL     1     -15.518   4.488  35.336  1.00  0.00     0.164 HD
ATOM      7  H2  UNL     1     -15.882   5.763  33.214  1.00  0.00     0.165 HD
BRANCH   4   8
HETATM    8  C2  UNL     1     -15.191   5.293  37.258  1.00  0.00     0.136 C 
HETATM    9  C1  UNL     1     -16.171   4.424  37.993  1.00  0.00     0.036 C 
BRANCH   8  10
HETATM   10  C12 UNL     1     -13.751   4.885  37.549  1.00  0.00     0.208 C 
HETATM   11 CL1  UNL     1     -13.067   5.827  38.885  1.00  0.00    -0.082 Cl
HETATM   12 CL2  UNL     1     -12.768   5.178  36.110  1.00  0.00    -0.082 Cl
HETATM   13 CL3  UNL     1     -13.712   3.172  37.987  1.00  0.00    -0.082 Cl
ENDBRANCH   8  10
ENDBRANCH   4   8
ENDBRANCH   1   2
BRANCH   1  14
HETATM   14  C5  UNL     1     -16.620   7.652  31.651  1.00  0.00     0.134 C 
BRANCH  14  15
HETATM   15  C6  UNL     1     -16.841   6.254  31.288  1.00  0.00     0.233 C 
HETATM   16  N3  UNL     1     -15.820   5.510  30.668  1.00  0.00    -0.062 NA
HETATM   17  O2  UNL     1     -17.935   5.702  31.522  1.00  0.00    -0.277 OA
ENDBRANCH  14  15
ENDBRANCH   1  14
BRANCH   1  18
HETATM   18  C7  UNL     1     -14.641   8.506  32.704  1.00  0.00     0.242 C 
HETATM   19  O3  UNL     1     -14.152   8.427  31.571  1.00  0.00    -0.271 OA
HETATM   20  N4  UNL     1     -13.968   9.197  33.712  1.00  0.00    -0.342 N 
ATOM     21  H4  UNL     1     -14.405   9.238  34.633  1.00  0.00     0.163 HD
BRANCH  20  22
HETATM   22  C8  UNL     1     -12.688   9.861  33.540  1.00  0.00     0.111 A 
HETATM   23  C10 UNL     1     -11.708   9.591  34.699  1.00  0.00     0.043 A 
HETATM   24  C11 UNL     1     -11.515   8.969  33.372  1.00  0.00     0.043 A 
BRANCH  22  25
HETATM   25  C9  UNL     1     -12.731  11.213  32.983  1.00  0.00     0.259 C 
HETATM   26  N5  UNL     1     -13.241  12.350  33.634  1.00  0.00    -0.060 NA
HETATM   27  O4  UNL     1     -12.272  11.382  31.819  1.00  0.00    -0.274 OA
ENDBRANCH  22  25
ENDBRANCH  20  22
ENDBRANCH   1  18
TORSDOF 8
ENDMDL
MODEL 3
REMARK VINA RESULT: -6.792970185      1.512      1.817
REMARK  8 active torsions:
REMARK  status: ('A' for Active; 'I' for Inactive)
REMARK    1  A    between atoms: C2_2  and  N1_3 
REMARK    2  A    between atoms: C2_2  and  C12_24 
REMARK       I    between atoms: N1_3  and  C3_5 
REMARK       I    between atoms: C3_5  and  N2_7 
REMARK    3  A    between atoms: N2_7  and  C4_9 
REMARK    4  A    between atoms: C4_9  and  C5_10 
REMARK    5  A    between atoms: C4_9  and  C7_14 
REMARK    6  A    between atoms: C5_10  and  C6_11 
REMARK       I    between atoms: C7_14  and  N4_16 
REMARK    7  A    between atoms: N4_16  and  C8_18 
REMARK    8  A    between atoms: C8_18  and  C9_19 
ROOT
HETATM    1  C4  UNL     1     -16.426   8.228  33.986  1.00  0.00     0.186 C 
ENDROOT
BRANCH   1   2
HETATM    2  N2  UNL     1     -16.213   6.907  34.530  1.00  0.00    -0.329 N 
HETATM    3  C3  UNL     1     -15.844   6.625  35.848  1.00  0.00     0.317 C 
HETATM    4  N1  UNL     1     -15.640   5.348  36.389  1.00  0.00    -0.335 N 
HETATM    5  O1  UNL     1     -15.674   7.608  36.643  1.00  0.00    -0.247 OA
ATOM      6  H1  UNL     1     -15.771   4.550  35.768  1.00  0.00     0.164 HD
ATOM      7  H2  UNL     1     -16.342   6.115  33.901  1.00  0.00     0.165 HD
BRANCH   4   8
HETATM    8  C2  UNL     1     -15.261   5.071  37.748  1.00  0.00     0.136 C 
HETATM    9  C1  UNL     1     -16.111   4.025  38.409  1.00  0.00     0.036 C 
BRANCH   8  10
HETATM   10  C12 UNL     1     -13.777   4.735  37.848  1.00  0.00     0.208 C 
HETATM   11 CL1  UNL     1     -12.951   4.976  36.299  1.00  0.00    -0.082 Cl
HETATM   12 CL2  UNL     1     -13.601   3.037  38.307  1.00  0.00    -0.082 Cl
HETATM   13 CL3  UNL     1     -13.026   5.784  39.058  1.00  0.00    -0.082 Cl
ENDBRANCH   8  10
ENDBRANCH   4   8
ENDBRANCH   1   2
BRANCH   1  14
HETATM   14  C5  UNL     1     -17.456   8.234  32.881  1.00  0.00     0.134 C 
BRANCH  14  15
HETATM   15  C6  UNL     1     -18.842   8.138  33.330  1.00  0.00     0.233 C 
HETATM   16  N3  UNL     1     -19.202   8.551  34.626  1.00  0.00    -0.062 NA
HETATM   17  O2  UNL     1     -19.726   7.689  32.572  1.00  0.00    -0.277 OA
ENDBRANCH  14  15
ENDBRANCH   1  14
BRANCH   1  18
HETATM   18  C7  UNL     1     -15.195   8.816  33.434  1.00  0.00     0.242 C 
HETATM   19  O3  UNL     1     -15.054   8.895  32.207  1.00  0.00    -0.271 OA
HETATM   20  N4  UNL     1     -14.193   9.281  34.286  1.00  0.00    -0.342 N 
ATOM     21  H4  UNL     1     -14.348   9.196  35.291  1.00  0.00     0.163 HD
BRANCH  20  22
HETATM   22  C8  UNL     1     -12.946   9.876  33.841  1.00  0.00     0.111 A 
HETATM   23  C10 UNL     1     -11.739   9.471  34.713  1.00  0.00     0.043 A 
HETATM   24  C11 UNL     1     -11.916   8.927  33.351  1.00  0.00     0.043 A 
BRANCH  22  25
HETATM   25  C9  UNL     1     -13.019  11.261  33.378  1.00  0.00     0.259 C 
HETATM   26  N5  UNL     1     -12.329  11.791  32.272  1.00  0.00    -0.060 NA
HETATM   27  O4  UNL     1     -13.763  12.055  34.018  1.00  0.00    -0.274 OA
ENDBRANCH  22  25
ENDBRANCH  20  22
ENDBRANCH   1  18
TORSDOF 8
ENDMDL
MODEL 4
REMARK VINA RESULT: -6.763541708      1.528      2.108
REMARK  8 active torsions:
REMARK  status: ('A' for Active; 'I' for Inactive)
REMARK    1  A    between atoms: C2_2  and  N1_3 
REMARK    2  A    between atoms: C2_2  and  C12_24 
REMARK       I    between atoms: N1_3  and  C3_5 
REMARK       I    between atoms: C3_5  and  N2_7 
REMARK    3  A    between atoms: N2_7  and  C4_9 
REMARK    4  A    between atoms: C4_9  and  C5_10 
REMARK    5  A    between atoms: C4_9  and  C7_14 
REMARK    6  A    between atoms: C5_10  and  C6_11 
REMARK       I    between atoms: C7_14  and  N4_16 
REMARK    7  A    between atoms: N4_16  and  C8_18 
REMARK    8  A    between atoms: C8_18  and  C9_19 
ROOT
HETATM    1  C4  UNL     1     -16.394   8.184  34.030  1.00  0.00     0.186 C 
ENDROOT
BRANCH   1   2
HETATM    2  N2  UNL     1     -16.176   6.865  34.577  1.00  0.00    -0.329 N 
HETATM    3  C3  UNL     1     -15.824   6.587  35.900  1.00  0.00     0.317 C 
HETATM    4  N1  UNL     1     -15.615   5.312  36.445  1.00  0.00    -0.335 N 
HETATM    5  O1  UNL     1     -15.674   7.572  36.697  1.00  0.00    -0.247 OA
ATOM      6  H1  UNL     1     -15.729   4.513  35.822  1.00  0.00     0.164 HD
ATOM      7  H2  UNL     1     -16.289   6.072  33.946  1.00  0.00     0.165 HD
BRANCH   4   8
HETATM    8  C2  UNL     1     -15.252   5.039  37.808  1.00  0.00     0.136 C 
HETATM    9  C1  UNL     1     -16.107   3.991  38.461  1.00  0.00     0.036 C 
BRANCH   8  10
HETATM   10  C12 UNL     1     -13.769   4.709  37.928  1.00  0.00     0.208 C 
HETATM   11 CL1  UNL     1     -13.517   3.047  38.489  1.00  0.00    -0.082 Cl
HETATM   12 CL2  UNL     1     -13.028   5.804  39.102  1.00  0.00    -0.082 Cl
HETATM   13 CL3  UNL     1     -13.005   4.893  36.343  1.00  0.00    -0.082 Cl
ENDBRANCH   8  10
ENDBRANCH   4   8
ENDBRANCH   1   2
BRANCH   1  14
HETATM   14  C5  UNL     1     -17.423   8.184  32.923  1.00  0.00     0.134 C 
BRANCH  14  15
HETATM   15  C6  UNL     1     -18.811   8.130  33.373  1.00  0.00     0.233 C 
HETATM   16  N3  UNL     1     -19.157   8.550  34.671  1.00  0.00    -0.062 NA
HETATM   17  O2  UNL     1     -19.709   7.710  32.615  1.00  0.00    -0.277 OA
ENDBRANCH  14  15
ENDBRANCH   1  14
BRANCH   1  18
HETATM   18  C7  UNL     1     -15.165   8.776  33.477  1.00  0.00     0.242 C 
HETATM   19  O3  UNL     1     -15.023   8.851  32.251  1.00  0.00    -0.271 OA
HETATM   20  N4  UNL     1     -14.166   9.249  34.329  1.00  0.00    -0.342 N 
ATOM     21  H4  UNL     1     -14.322   9.167  35.334  1.00  0.00     0.163 HD
BRANCH  20  22
HETATM   22  C8  UNL     1     -12.921   9.848  33.884  1.00  0.00     0.111 A 
HETATM   23  C10 UNL     1     -11.719   9.475  34.777  1.00  0.00     0.043 A 
HETATM   24  C11 UNL     1     -11.876   8.900  33.424  1.00  0.00     0.043 A 
BRANCH  22  25
HETATM   25  C9  UNL     1     -13.004  11.222  33.390  1.00  0.00     0.259 C 
HETATM   26  N5  UNL     1     -12.330  11.729  32.265  1.00  0.00    -0.060 NA
HETATM   27  O4  UNL     1     -13.743  12.028  34.022  1.00  0.00    -0.274 OA
ENDBRANCH  22  25
ENDBRANCH  20  22
ENDBRANCH   1  18
TORSDOF 8
ENDMDL
MODEL 5
REMARK VINA RESULT: -6.695461362      4.073      7.375
REMARK  8 active torsions:
REMARK  status: ('A' for Active; 'I' for Inactive)
REMARK    1  A    between atoms: C2_2  and  N1_3 
REMARK    2  A    between atoms: C2_2  and  C12_24 
REMARK       I    between atoms: N1_3  and  C3_5 
REMARK       I    between atoms: C3_5  and  N2_7 
REMARK    3  A    between atoms: N2_7  and  C4_9 
REMARK    4  A    between atoms: C4_9  and  C5_10 
REMARK    5  A    between atoms: C4_9  and  C7_14 
REMARK    6  A    between atoms: C5_10  and  C6_11 
REMARK       I    between atoms: C7_14  and  N4_16 
REMARK    7  A    between atoms: N4_16  and  C8_18 
REMARK    8  A    between atoms: C8_18  and  C9_19 
ROOT
HETATM    1  C4  UNL     1     -15.727   6.873  35.655  1.00  0.00     0.186 C 
ENDROOT
BRANCH   1   2
HETATM    2  N2  UNL     1     -15.643   6.236  34.362  1.00  0.00    -0.329 N 
HETATM    3  C3  UNL     1     -16.071   6.795  33.155  1.00  0.00     0.317 C 
HETATM    4  N1  UNL     1     -15.991   6.189  31.894  1.00  0.00    -0.335 N 
HETATM    5  O1  UNL     1     -16.584   7.963  33.188  1.00  0.00    -0.247 OA
ATOM      6  H1  UNL     1     -15.584   5.254  31.848  1.00  0.00     0.164 HD
ATOM      7  H2  UNL     1     -15.239   5.300  34.327  1.00  0.00     0.165 HD
BRANCH   4   8
HETATM    8  C2  UNL     1     -16.434   6.776  30.659  1.00  0.00     0.136 C 
HETATM    9  C1  UNL     1     -15.441   7.725  30.052  1.00  0.00     0.036 C 
BRANCH   8  10
HETATM   10  C12 UNL     1     -16.868   5.705  29.665  1.00  0.00     0.208 C 
HETATM   11 CL1  UNL     1     -15.601   4.489  29.427  1.00  0.00    -0.082 Cl
HETATM   12 CL2  UNL     1     -17.199   6.467  28.105  1.00  0.00    -0.082 Cl
HETATM   13 CL3  UNL     1     -18.318   4.898  30.279  1.00  0.00    -0.082 Cl
ENDBRANCH   8  10
ENDBRANCH   4   8
ENDBRANCH   1   2
BRANCH   1  14
HETATM   14  C5  UNL     1     -14.478   7.654  35.992  1.00  0.00     0.134 C 
BRANCH  14  15
HETATM   15  C6  UNL     1     -13.280   7.244  35.264  1.00  0.00     0.233 C 
HETATM   16  N3  UNL     1     -12.623   6.044  35.593  1.00  0.00    -0.062 NA
HETATM   17  O2  UNL     1     -12.823   7.951  34.344  1.00  0.00    -0.277 OA
ENDBRANCH  14  15
ENDBRANCH   1  14
BRANCH   1  18
HETATM   18  C7  UNL     1     -15.942   5.910  36.747  1.00  0.00     0.242 C 
HETATM   19  O3  UNL     1     -16.716   6.195  37.668  1.00  0.00    -0.271 OA
HETATM   20  N4  UNL     1     -15.278   4.683  36.744  1.00  0.00    -0.342 N 
ATOM     21  H4  UNL     1     -14.648   4.486  35.966  1.00  0.00     0.163 HD
BRANCH  20  22
HETATM   22  C8  UNL     1     -15.422   3.667  37.771  1.00  0.00     0.111 A 
HETATM   23  C10 UNL     1     -14.103   2.930  38.080  1.00  0.00     0.043 A 
HETATM   24  C11 UNL     1     -14.674   3.909  39.029  1.00  0.00     0.043 A 
BRANCH  22  25
HETATM   25  C9  UNL     1     -16.652   2.877  37.732  1.00  0.00     0.259 C 
HETATM   26  N5  UNL     1     -17.765   3.053  38.574  1.00  0.00    -0.060 NA
HETATM   27  O4  UNL     1     -16.730   1.956  36.871  1.00  0.00    -0.274 OA
ENDBRANCH  22  25
ENDBRANCH  20  22
ENDBRANCH   1  18
TORSDOF 8
ENDMDL
