MODEL 1
REMARK VINA RESULT: -8.388454223      0.000      0.000
REMARK  14 active torsions:
REMARK  status: ('A' for Active; 'I' for Inactive)
REMARK    1  A    between atoms: C2_2  and  C3_3 
REMARK    2  A    between atoms: C3_3  and  C4_4 
REMARK    3  A    between atoms: C4_4  and  S1_8 
REMARK    4  A    between atoms: S1_8  and  C5_11 
REMARK    5  A    between atoms: C5_11  and  C6_12 
REMARK    6  A    between atoms: C6_12  and  C7_13 
REMARK    7  A    between atoms: C7_13  and  C8_14 
REMARK    8  A    between atoms: C8_14  and  C9_15 
REMARK    9  A    between atoms: C9_15  and  C10_16 
REMARK   10  A    between atoms: C12_21  and  C13_22 
REMARK   11  A    between atoms: C13_22  and  C14_23 
REMARK   12  A    between atoms: C14_23  and  C15_24 
REMARK   13  A    between atoms: C17_26  and  N3_27 
REMARK   14  A    between atoms: C18_32  and  N5_33 
ROOT
HETATM    1  C10 UNL     1      12.746  40.014  -9.222  1.00  0.00     0.176 C 
HETATM    2  N2  UNL     1      13.195  38.933  -8.374  1.00  0.00    -0.346 N 
ATOM      3  H2  UNL     1      12.918  38.930  -7.392  1.00  0.00     0.163 HD
HETATM    4  C11 UNL     1      14.011  37.873  -8.858  1.00  0.00     0.241 C 
HETATM    5  O3  UNL     1      14.344  36.926  -8.102  1.00  0.00    -0.271 OA
HETATM    6  C12 UNL     1      14.439  37.935 -10.266  1.00  0.00     0.177 C 
HETATM    7  N7  UNL     1      14.698  39.318 -10.616  1.00  0.00    -0.346 N 
ATOM      8  H7  UNL     1      15.581  39.597 -11.047  1.00  0.00     0.163 HD
HETATM    9  C19 UNL     1      13.681  40.273 -10.340  1.00  0.00     0.241 C 
HETATM   10  O4  UNL     1      13.574  41.325 -11.032  1.00  0.00    -0.271 OA
ENDROOT
BRANCH   6  11
HETATM   11  C13 UNL     1      13.314  37.461 -11.196  1.00  0.00     0.041 C 
BRANCH  11  12
HETATM   12  C14 UNL     1      13.669  36.124 -11.832  1.00  0.00     0.060 C 
BRANCH  12  13
HETATM   13  C15 UNL     1      13.788  36.375 -13.290  1.00  0.00     0.030 A 
HETATM   14  C16 UNL     1      14.169  37.609 -13.800  1.00  0.00     0.074 A 
HETATM   15  C17 UNL     1      14.278  37.839 -15.151  1.00  0.00     0.116 A 
HETATM   16  N4  UNL     1      14.010  36.846 -16.007  1.00  0.00    -0.177 N 
HETATM   17  C18 UNL     1      13.639  35.644 -15.520  1.00  0.00     0.677 A 
ATOM     18  H4  UNL     1      14.084  36.996 -17.013  1.00  0.00     0.185 HD
HETATM   19  N6  UNL     1      13.528  35.405 -14.184  1.00  0.00    -0.196 N 
ATOM     20  H6  UNL     1      13.244  34.481 -13.858  1.00  0.00     0.184 HD
BRANCH  15  21
HETATM   21  N3  UNL     1      14.630  38.977 -15.629  1.00  0.00    -0.385 N 
ATOM     22  H32 UNL     1      14.683  39.082 -16.642  1.00  0.00     0.157 HD
ATOM     23  H31 UNL     1      14.854  39.774 -15.033  1.00  0.00     0.157 HD
ENDBRANCH  15  21
BRANCH  17  24
HETATM   24  N5  UNL     1      13.374  34.670 -16.315  1.00  0.00    -0.234 N 
ATOM     25  H52 UNL     1      12.677  34.836 -17.040  1.00  0.00     0.174 HD
ATOM     26  H51 UNL     1      13.850  33.773 -16.214  1.00  0.00     0.174 HD
ENDBRANCH  17  24
ENDBRANCH  12  13
ENDBRANCH  11  12
ENDBRANCH   6  11
BRANCH   1  27
HETATM   27  C9  UNL     1      12.769  41.295  -8.364  1.00  0.00     0.035 C 
BRANCH  27  28
HETATM   28  C8  UNL     1      11.335  41.731  -8.269  1.00  0.00     0.002 C 
BRANCH  28  29
HETATM   29  C7  UNL     1      10.975  41.849  -6.781  1.00  0.00     0.001 C 
BRANCH  29  30
HETATM   30  C6  UNL     1      10.981  40.527  -6.096  1.00  0.00     0.015 C 
BRANCH  30  31
HETATM   31  C5  UNL     1       9.904  40.375  -5.072  1.00  0.00     0.147 C 
BRANCH  31  32
HETATM   32  S1  UNL     1       9.809  38.756  -4.389  1.00  0.00     0.186 S 
HETATM   33  O1  UNL     1       8.513  38.081  -4.594  1.00  0.00    -0.222 OA
HETATM   34  O2  UNL     1      10.879  37.928  -5.110  1.00  0.00    -0.222 OA
BRANCH  32  35
HETATM   35  C4  UNL     1      10.300  38.735  -2.708  1.00  0.00     0.099 C 
HETATM   36  N1  UNL     1      11.568  39.002  -2.471  1.00  0.00    -0.393 N 
ATOM     37  H12 UNL     1      11.854  38.990  -1.492  1.00  0.00     0.156 HD
ATOM     38  H11 UNL     1      12.151  39.193  -3.285  1.00  0.00     0.156 HD
BRANCH  35  39
HETATM   39  C3  UNL     1       9.469  38.463  -1.549  1.00  0.00     0.069 C 
BRANCH  39  40
HETATM   40  C2  UNL     1       9.632  37.214  -0.770  1.00  0.00     0.002 C 
HETATM   41  C1  UNL     1       8.984  35.982  -1.274  1.00  0.00     0.005 C 
ENDBRANCH  39  40
ENDBRANCH  35  39
ENDBRANCH  32  35
ENDBRANCH  31  32
ENDBRANCH  30  31
ENDBRANCH  29  30
ENDBRANCH  28  29
ENDBRANCH  27  28
ENDBRANCH   1  27
TORSDOF 14
ENDMDL
MODEL 2
REMARK VINA RESULT: -8.317092419      2.127      3.010
REMARK  14 active torsions:
REMARK  status: ('A' for Active; 'I' for Inactive)
REMARK    1  A    between atoms: C2_2  and  C3_3 
REMARK    2  A    between atoms: C3_3  and  C4_4 
REMARK    3  A    between atoms: C4_4  and  S1_8 
REMARK    4  A    between atoms: S1_8  and  C5_11 
REMARK    5  A    between atoms: C5_11  and  C6_12 
REMARK    6  A    between atoms: C6_12  and  C7_13 
REMARK    7  A    between atoms: C7_13  and  C8_14 
REMARK    8  A    between atoms: C8_14  and  C9_15 
REMARK    9  A    between atoms: C9_15  and  C10_16 
REMARK   10  A    between atoms: C12_21  and  C13_22 
REMARK   11  A    between atoms: C13_22  and  C14_23 
REMARK   12  A    between atoms: C14_23  and  C15_24 
REMARK   13  A    between atoms: C17_26  and  N3_27 
REMARK   14  A    between atoms: C18_32  and  N5_33 
ROOT
HETATM    1  C10 UNL     1      13.674  38.306 -11.109  1.00  0.00     0.176 C 
HETATM    2  N2  UNL     1      13.162  36.955 -11.137  1.00  0.00    -0.346 N 
ATOM      3  H2  UNL     1      12.489  36.670 -10.424  1.00  0.00     0.163 HD
HETATM    4  C11 UNL     1      13.560  36.009 -12.121  1.00  0.00     0.241 C 
HETATM    5  O3  UNL     1      13.057  34.857 -12.141  1.00  0.00    -0.271 OA
HETATM    6  C12 UNL     1      14.572  36.436 -13.102  1.00  0.00     0.177 C 
HETATM    7  N7  UNL     1      15.532  37.298 -12.441  1.00  0.00    -0.346 N 
ATOM      8  H7  UNL     1      16.534  37.118 -12.505  1.00  0.00     0.163 HD
HETATM    9  C19 UNL     1      15.029  38.402 -11.699  1.00  0.00     0.241 C 
HETATM   10  O4  UNL     1      15.722  39.448 -11.542  1.00  0.00    -0.271 OA
ENDROOT
BRANCH   6  11
HETATM   11  C13 UNL     1      13.929  37.281 -14.210  1.00  0.00     0.041 C 
BRANCH  11  12
HETATM   12  C14 UNL     1      14.953  37.634 -15.280  1.00  0.00     0.060 C 
BRANCH  12  13
HETATM   13  C15 UNL     1      15.273  36.367 -15.985  1.00  0.00     0.030 A 
HETATM   14  C16 UNL     1      16.562  35.852 -16.030  1.00  0.00     0.074 A 
HETATM   15  C17 UNL     1      16.857  34.678 -16.683  1.00  0.00     0.116 A 
HETATM   16  N4  UNL     1      15.875  34.008 -17.298  1.00  0.00    -0.177 N 
HETATM   17  C18 UNL     1      14.621  34.502 -17.259  1.00  0.00     0.677 A 
ATOM     18  H4  UNL     1      16.072  33.136 -17.789  1.00  0.00     0.185 HD
HETATM   19  N6  UNL     1      14.317  35.663 -16.614  1.00  0.00    -0.196 N 
ATOM     20  H6  UNL     1      13.355  36.001 -16.609  1.00  0.00     0.184 HD
BRANCH  15  21
HETATM   21  N3  UNL     1      18.045  34.196 -16.729  1.00  0.00    -0.385 N 
ATOM     22  H32 UNL     1      18.832  34.838 -16.638  1.00  0.00     0.157 HD
ATOM     23  H31 UNL     1      18.226  33.200 -16.852  1.00  0.00     0.157 HD
ENDBRANCH  15  21
BRANCH  17  24
HETATM   24  N5  UNL     1      13.655  33.882 -17.839  1.00  0.00    -0.234 N 
ATOM     25  H52 UNL     1      12.816  34.421 -18.050  1.00  0.00     0.174 HD
ATOM     26  H51 UNL     1      13.740  32.893 -18.072  1.00  0.00     0.174 HD
ENDBRANCH  17  24
ENDBRANCH  12  13
ENDBRANCH  11  12
ENDBRANCH   6  11
BRANCH   1  27
HETATM   27  C9  UNL     1      13.847  38.689  -9.625  1.00  0.00     0.035 C 
BRANCH  27  28
HETATM   28  C8  UNL     1      12.553  38.304  -8.966  1.00  0.00     0.002 C 
BRANCH  28  29
HETATM   29  C7  UNL     1      12.752  38.395  -7.446  1.00  0.00     0.001 C 
BRANCH  29  30
HETATM   30  C6  UNL     1      11.521  38.856  -6.746  1.00  0.00     0.015 C 
BRANCH  30  31
HETATM   31  C5  UNL     1      11.291  38.187  -5.431  1.00  0.00     0.147 C 
BRANCH  31  32
HETATM   32  S1  UNL     1       9.976  38.900  -4.502  1.00  0.00     0.186 S 
HETATM   33  O1  UNL     1       9.595  40.261  -4.925  1.00  0.00    -0.222 OA
HETATM   34  O2  UNL     1       8.761  37.991  -4.723  1.00  0.00    -0.222 OA
BRANCH  32  35
HETATM   35  C4  UNL     1      10.281  38.810  -2.779  1.00  0.00     0.099 C 
HETATM   36  N1  UNL     1      11.521  39.032  -2.398  1.00  0.00    -0.393 N 
ATOM     37  H12 UNL     1      11.699  38.980  -1.395  1.00  0.00     0.156 HD
ATOM     38  H11 UNL     1      12.195  39.230  -3.137  1.00  0.00     0.156 HD
BRANCH  35  39
HETATM   39  C3  UNL     1       9.322  38.527  -1.728  1.00  0.00     0.069 C 
BRANCH  39  40
HETATM   40  C2  UNL     1       9.528  37.398  -0.790  1.00  0.00     0.002 C 
HETATM   41  C1  UNL     1       9.132  36.041  -1.227  1.00  0.00     0.005 C 
ENDBRANCH  39  40
ENDBRANCH  35  39
ENDBRANCH  32  35
ENDBRANCH  31  32
ENDBRANCH  30  31
ENDBRANCH  29  30
ENDBRANCH  28  29
ENDBRANCH  27  28
ENDBRANCH   1  27
TORSDOF 14
ENDMDL
MODEL 3
REMARK VINA RESULT: -8.233606637      1.497      1.931
REMARK  14 active torsions:
REMARK  status: ('A' for Active; 'I' for Inactive)
REMARK    1  A    between atoms: C2_2  and  C3_3 
REMARK    2  A    between atoms: C3_3  and  C4_4 
REMARK    3  A    between atoms: C4_4  and  S1_8 
REMARK    4  A    between atoms: S1_8  and  C5_11 
REMARK    5  A    between atoms: C5_11  and  C6_12 
REMARK    6  A    between atoms: C6_12  and  C7_13 
REMARK    7  A    between atoms: C7_13  and  C8_14 
REMARK    8  A    between atoms: C8_14  and  C9_15 
REMARK    9  A    between atoms: C9_15  and  C10_16 
REMARK   10  A    between atoms: C12_21  and  C13_22 
REMARK   11  A    between atoms: C13_22  and  C14_23 
REMARK   12  A    between atoms: C14_23  and  C15_24 
REMARK   13  A    between atoms: C17_26  and  N3_27 
REMARK   14  A    between atoms: C18_32  and  N5_33 
ROOT
HETATM    1  C10 UNL     1      13.437  38.116  -9.866  1.00  0.00     0.176 C 
HETATM    2  N2  UNL     1      13.989  36.784  -9.962  1.00  0.00    -0.346 N 
ATOM      3  H2  UNL     1      13.840  36.133  -9.191  1.00  0.00     0.163 HD
HETATM    4  C11 UNL     1      14.732  36.347 -11.093  1.00  0.00     0.241 C 
HETATM    5  O3  UNL     1      15.157  35.166 -11.162  1.00  0.00    -0.271 OA
HETATM    6  C12 UNL     1      14.976  37.327 -12.165  1.00  0.00     0.177 C 
HETATM    7  N7  UNL     1      15.192  38.631 -11.568  1.00  0.00    -0.346 N 
ATOM      8  H7  UNL     1      16.012  39.190 -11.804  1.00  0.00     0.163 HD
HETATM    9  C19 UNL     1      14.222  39.103 -10.641  1.00  0.00     0.241 C 
HETATM   10  O4  UNL     1      14.030  40.342 -10.479  1.00  0.00    -0.271 OA
ENDROOT
BRANCH   6  11
HETATM   11  C13 UNL     1      13.739  37.467 -13.063  1.00  0.00     0.041 C 
BRANCH  11  12
HETATM   12  C14 UNL     1      13.331  36.115 -13.632  1.00  0.00     0.060 C 
BRANCH  12  13
HETATM   13  C15 UNL     1      13.702  36.138 -15.069  1.00  0.00     0.030 A 
HETATM   14  C16 UNL     1      14.301  37.243 -15.660  1.00  0.00     0.074 A 
HETATM   15  C17 UNL     1      14.644  37.262 -16.992  1.00  0.00     0.116 A 
HETATM   16  N4  UNL     1      14.393  36.186 -17.747  1.00  0.00    -0.177 N 
HETATM   17  C18 UNL     1      13.812  35.109 -17.180  1.00  0.00     0.677 A 
ATOM     18  H4  UNL     1      14.639  36.180 -18.737  1.00  0.00     0.185 HD
HETATM   19  N6  UNL     1      13.469  35.079 -15.862  1.00  0.00    -0.196 N 
ATOM     20  H6  UNL     1      13.030  34.244 -15.474  1.00  0.00     0.184 HD
BRANCH  15  21
HETATM   21  N3  UNL     1      15.197  38.279 -17.545  1.00  0.00    -0.385 N 
ATOM     22  H32 UNL     1      15.847  38.838 -16.992  1.00  0.00     0.157 HD
ATOM     23  H31 UNL     1      15.011  38.544 -18.512  1.00  0.00     0.157 HD
ENDBRANCH  15  21
BRANCH  17  24
HETATM   24  N5  UNL     1      13.559  34.060 -17.877  1.00  0.00    -0.234 N 
ATOM     25  H52 UNL     1      14.300  33.715 -18.487  1.00  0.00     0.174 HD
ATOM     26  H51 UNL     1      12.650  33.601 -17.814  1.00  0.00     0.174 HD
ENDBRANCH  17  24
ENDBRANCH  12  13
ENDBRANCH  11  12
ENDBRANCH   6  11
BRANCH   1  27
HETATM   27  C9  UNL     1      13.575  38.552  -8.393  1.00  0.00     0.035 C 
BRANCH  27  28
HETATM   28  C8  UNL     1      12.166  38.684  -7.888  1.00  0.00     0.002 C 
BRANCH  28  29
HETATM   29  C7  UNL     1      11.931  40.156  -7.521  1.00  0.00     0.001 C 
BRANCH  29  30
HETATM   30  C6  UNL     1      11.215  40.304  -6.224  1.00  0.00     0.015 C 
BRANCH  30  31
HETATM   31  C5  UNL     1      10.956  39.008  -5.529  1.00  0.00     0.147 C 
BRANCH  31  32
HETATM   32  S1  UNL     1       9.684  39.104  -4.316  1.00  0.00     0.186 S 
HETATM   33  O1  UNL     1       8.928  40.371  -4.321  1.00  0.00    -0.222 OA
HETATM   34  O2  UNL     1       8.698  37.977  -4.646  1.00  0.00    -0.222 OA
BRANCH  32  35
HETATM   35  C4  UNL     1      10.284  38.705  -2.719  1.00  0.00     0.099 C 
HETATM   36  N1  UNL     1      11.467  39.192  -2.407  1.00  0.00    -0.393 N 
ATOM     37  H12 UNL     1      11.817  38.960  -1.477  1.00  0.00     0.156 HD
ATOM     38  H11 UNL     1      11.931  39.752  -3.121  1.00  0.00     0.156 HD
BRANCH  35  39
HETATM   39  C3  UNL     1       9.624  37.908  -1.703  1.00  0.00     0.069 C 
BRANCH  39  40
HETATM   40  C2  UNL     1       9.872  36.451  -1.595  1.00  0.00     0.002 C 
HETATM   41  C1  UNL     1       8.880  35.621  -0.876  1.00  0.00     0.005 C 
ENDBRANCH  39  40
ENDBRANCH  35  39
ENDBRANCH  32  35
ENDBRANCH  31  32
ENDBRANCH  30  31
ENDBRANCH  29  30
ENDBRANCH  28  29
ENDBRANCH  27  28
ENDBRANCH   1  27
TORSDOF 14
ENDMDL
MODEL 4
REMARK VINA RESULT: -8.191685747      1.864      2.349
REMARK  14 active torsions:
REMARK  status: ('A' for Active; 'I' for Inactive)
REMARK    1  A    between atoms: C2_2  and  C3_3 
REMARK    2  A    between atoms: C3_3  and  C4_4 
REMARK    3  A    between atoms: C4_4  and  S1_8 
REMARK    4  A    between atoms: S1_8  and  C5_11 
REMARK    5  A    between atoms: C5_11  and  C6_12 
REMARK    6  A    between atoms: C6_12  and  C7_13 
REMARK    7  A    between atoms: C7_13  and  C8_14 
REMARK    8  A    between atoms: C8_14  and  C9_15 
REMARK    9  A    between atoms: C9_15  and  C10_16 
REMARK   10  A    between atoms: C12_21  and  C13_22 
REMARK   11  A    between atoms: C13_22  and  C14_23 
REMARK   12  A    between atoms: C14_23  and  C15_24 
REMARK   13  A    between atoms: C17_26  and  N3_27 
REMARK   14  A    between atoms: C18_32  and  N5_33 
ROOT
HETATM    1  C10 UNL     1      13.553  40.163 -10.957  1.00  0.00     0.176 C 
HETATM    2  N2  UNL     1      12.812  39.576  -9.863  1.00  0.00    -0.346 N 
ATOM      3  H2  UNL     1      12.220  40.179  -9.291  1.00  0.00     0.163 HD
HETATM    4  C11 UNL     1      12.879  38.189  -9.555  1.00  0.00     0.241 C 
HETATM    5  O3  UNL     1      12.185  37.707  -8.624  1.00  0.00    -0.271 OA
HETATM    6  C12 UNL     1      13.784  37.357 -10.365  1.00  0.00     0.177 C 
HETATM    7  N7  UNL     1      14.973  38.126 -10.679  1.00  0.00    -0.346 N 
ATOM      8  H7  UNL     1      15.905  37.757 -10.492  1.00  0.00     0.163 HD
HETATM    9  C19 UNL     1      14.794  39.414 -11.256  1.00  0.00     0.241 C 
HETATM   10  O4  UNL     1      15.677  39.914 -12.011  1.00  0.00    -0.271 OA
ENDROOT
BRANCH   6  11
HETATM   11  C13 UNL     1      13.136  37.002 -11.709  1.00  0.00     0.041 C 
BRANCH  11  12
HETATM   12  C14 UNL     1      13.893  35.870 -12.390  1.00  0.00     0.060 C 
BRANCH  12  13
HETATM   13  C15 UNL     1      13.936  36.207 -13.835  1.00  0.00     0.030 A 
HETATM   14  C16 UNL     1      14.339  37.455 -14.292  1.00  0.00     0.074 A 
HETATM   15  C17 UNL     1      14.378  37.765 -15.631  1.00  0.00     0.116 A 
HETATM   16  N4  UNL     1      14.018  36.838 -16.527  1.00  0.00    -0.177 N 
HETATM   17  C18 UNL     1      13.625  35.624 -16.091  1.00  0.00     0.677 A 
ATOM     18  H4  UNL     1      14.039  37.048 -17.525  1.00  0.00     0.185 HD
HETATM   19  N6  UNL     1      13.583  35.306 -14.768  1.00  0.00    -0.196 N 
ATOM     20  H6  UNL     1      13.279  34.375 -14.481  1.00  0.00     0.184 HD
BRANCH  15  21
HETATM   21  N3  UNL     1      14.749  38.916 -16.060  1.00  0.00    -0.385 N 
ATOM     22  H32 UNL     1      15.254  39.531 -15.422  1.00  0.00     0.157 HD
ATOM     23  H31 UNL     1      14.558  39.232 -17.011  1.00  0.00     0.157 HD
ENDBRANCH  15  21
BRANCH  17  24
HETATM   24  N5  UNL     1      13.273  34.712 -16.926  1.00  0.00    -0.234 N 
ATOM     25  H52 UNL     1      12.860  35.020 -17.806  1.00  0.00     0.174 HD
ATOM     26  H51 UNL     1      13.407  33.725 -16.705  1.00  0.00     0.174 HD
ENDBRANCH  17  24
ENDBRANCH  12  13
ENDBRANCH  11  12
ENDBRANCH   6  11
BRANCH   1  27
HETATM   27  C9  UNL     1      14.020  41.555 -10.485  1.00  0.00     0.035 C 
BRANCH  27  28
HETATM   28  C8  UNL     1      14.332  41.391  -9.024  1.00  0.00     0.002 C 
BRANCH  28  29
HETATM   29  C7  UNL     1      14.094  42.742  -8.335  1.00  0.00     0.001 C 
BRANCH  29  30
HETATM   30  C6  UNL     1      12.910  42.711  -7.432  1.00  0.00     0.015 C 
BRANCH  30  31
HETATM   31  C5  UNL     1      12.830  41.481  -6.589  1.00  0.00     0.147 C 
BRANCH  31  32
HETATM   32  S1  UNL     1      11.209  40.802  -6.491  1.00  0.00     0.186 S 
HETATM   33  O1  UNL     1      10.194  41.719  -5.938  1.00  0.00    -0.222 OA
HETATM   34  O2  UNL     1      10.799  40.475  -7.931  1.00  0.00    -0.222 OA
BRANCH  32  35
HETATM   35  C4  UNL     1      11.207  39.252  -5.674  1.00  0.00     0.099 C 
HETATM   36  N1  UNL     1      12.291  38.519  -5.819  1.00  0.00    -0.393 N 
ATOM     37  H12 UNL     1      12.290  37.617  -5.343  1.00  0.00     0.156 HD
ATOM     38  H11 UNL     1      13.033  38.914  -6.397  1.00  0.00     0.156 HD
BRANCH  35  39
HETATM   39  C3  UNL     1      10.152  38.690  -4.851  1.00  0.00     0.069 C 
BRANCH  39  40
HETATM   40  C2  UNL     1      10.257  38.686  -3.373  1.00  0.00     0.002 C 
HETATM   41  C1  UNL     1       9.579  37.604  -2.624  1.00  0.00     0.005 C 
ENDBRANCH  39  40
ENDBRANCH  35  39
ENDBRANCH  32  35
ENDBRANCH  31  32
ENDBRANCH  30  31
ENDBRANCH  29  30
ENDBRANCH  28  29
ENDBRANCH  27  28
ENDBRANCH   1  27
TORSDOF 14
ENDMDL
MODEL 5
REMARK VINA RESULT: -8.033605231      1.688      2.284
REMARK  14 active torsions:
REMARK  status: ('A' for Active; 'I' for Inactive)
REMARK    1  A    between atoms: C2_2  and  C3_3 
REMARK    2  A    between atoms: C3_3  and  C4_4 
REMARK    3  A    between atoms: C4_4  and  S1_8 
REMARK    4  A    between atoms: S1_8  and  C5_11 
REMARK    5  A    between atoms: C5_11  and  C6_12 
REMARK    6  A    between atoms: C6_12  and  C7_13 
REMARK    7  A    between atoms: C7_13  and  C8_14 
REMARK    8  A    between atoms: C8_14  and  C9_15 
REMARK    9  A    between atoms: C9_15  and  C10_16 
REMARK   10  A    between atoms: C12_21  and  C13_22 
REMARK   11  A    between atoms: C13_22  and  C14_23 
REMARK   12  A    between atoms: C14_23  and  C15_24 
REMARK   13  A    between atoms: C17_26  and  N3_27 
REMARK   14  A    between atoms: C18_32  and  N5_33 
ROOT
HETATM    1  C10 UNL     1      13.236  39.813  -9.881  1.00  0.00     0.176 C 
HETATM    2  N2  UNL     1      12.871  38.420 -10.011  1.00  0.00    -0.346 N 
ATOM      3  H2  UNL     1      12.149  38.042  -9.397  1.00  0.00     0.163 HD
HETATM    4  C11 UNL     1      13.483  37.557 -10.961  1.00  0.00     0.241 C 
HETATM    5  O3  UNL     1      13.107  36.363 -11.076  1.00  0.00    -0.271 OA
HETATM    6  C12 UNL     1      14.559  38.119 -11.794  1.00  0.00     0.177 C 
HETATM    7  N7  UNL     1      15.337  39.044 -10.992  1.00  0.00    -0.346 N 
ATOM      8  H7  UNL     1      16.353  38.966 -10.934  1.00  0.00     0.163 HD
HETATM    9  C19 UNL     1      14.636  40.063 -10.291  1.00  0.00     0.241 C 
HETATM   10  O4  UNL     1      15.194  41.165 -10.019  1.00  0.00    -0.271 OA
ENDROOT
BRANCH   6  11
HETATM   11  C13 UNL     1      13.976  38.941 -12.951  1.00  0.00     0.041 C 
BRANCH  11  12
HETATM   12  C14 UNL     1      14.992  39.083 -14.076  1.00  0.00     0.060 C 
BRANCH  12  13
HETATM   13  C15 UNL     1      15.128  37.738 -14.688  1.00  0.00     0.030 A 
HETATM   14  C16 UNL     1      14.026  36.987 -15.077  1.00  0.00     0.074 A 
HETATM   15  C17 UNL     1      14.154  35.741 -15.644  1.00  0.00     0.116 A 
HETATM   16  N4  UNL     1      15.377  35.230 -15.829  1.00  0.00    -0.177 N 
HETATM   17  C18 UNL     1      16.452  35.953 -15.454  1.00  0.00     0.677 A 
ATOM     18  H4  UNL     1      15.494  34.307 -16.247  1.00  0.00     0.185 HD
HETATM   19  N6  UNL     1      16.337  37.188 -14.892  1.00  0.00    -0.196 N 
ATOM     20  H6  UNL     1      17.177  37.700 -14.623  1.00  0.00     0.184 HD
BRANCH  15  21
HETATM   21  N3  UNL     1      13.140  35.042 -16.005  1.00  0.00    -0.385 N 
ATOM     22  H32 UNL     1      12.532  35.412 -16.735  1.00  0.00     0.157 HD
ATOM     23  H31 UNL     1      12.925  34.136 -15.590  1.00  0.00     0.157 HD
ENDBRANCH  15  21
BRANCH  17  24
HETATM   24  N5  UNL     1      17.640  35.490 -15.618  1.00  0.00    -0.234 N 
ATOM     25  H52 UNL     1      18.215  35.375 -14.784  1.00  0.00     0.174 HD
ATOM     26  H51 UNL     1      17.980  35.252 -16.550  1.00  0.00     0.174 HD
ENDBRANCH  17  24
ENDBRANCH  12  13
ENDBRANCH  11  12
ENDBRANCH   6  11
BRANCH   1  27
HETATM   27  C9  UNL     1      13.184  40.151  -8.377  1.00  0.00     0.035 C 
BRANCH  27  28
HETATM   28  C8  UNL     1      11.959  39.451  -7.859  1.00  0.00     0.002 C 
BRANCH  28  29
HETATM   29  C7  UNL     1      12.369  38.634  -6.625  1.00  0.00     0.001 C 
BRANCH  29  30
HETATM   30  C6  UNL     1      11.214  38.359  -5.726  1.00  0.00     0.015 C 
BRANCH  30  31
HETATM   31  C5  UNL     1      10.559  39.591  -5.194  1.00  0.00     0.147 C 
BRANCH  31  32
HETATM   32  S1  UNL     1       9.399  39.269  -3.909  1.00  0.00     0.186 S 
HETATM   33  O1  UNL     1       8.450  40.369  -3.652  1.00  0.00    -0.222 OA
HETATM   34  O2  UNL     1       8.584  38.055  -4.368  1.00  0.00    -0.222 OA
BRANCH  32  35
HETATM   35  C4  UNL     1      10.194  38.733  -2.443  1.00  0.00     0.099 C 
HETATM   36  N1  UNL     1      11.433  39.143  -2.272  1.00  0.00    -0.393 N 
ATOM     37  H12 UNL     1      11.896  38.832  -1.419  1.00  0.00     0.156 HD
ATOM     38  H11 UNL     1      11.823  39.731  -3.009  1.00  0.00     0.156 HD
BRANCH  35  39
HETATM   39  C3  UNL     1       9.640  37.897  -1.395  1.00  0.00     0.069 C 
BRANCH  39  40
HETATM   40  C2  UNL     1       9.914  36.441  -1.355  1.00  0.00     0.002 C 
HETATM   41  C1  UNL     1       8.812  35.529  -0.975  1.00  0.00     0.005 C 
ENDBRANCH  39  40
ENDBRANCH  35  39
ENDBRANCH  32  35
ENDBRANCH  31  32
ENDBRANCH  30  31
ENDBRANCH  29  30
ENDBRANCH  28  29
ENDBRANCH  27  28
ENDBRANCH   1  27
TORSDOF 14
ENDMDL
