MODEL 1
REMARK VINA RESULT: -7.500631285      0.000      0.000
REMARK  13 active torsions:
REMARK  status: ('A' for Active; 'I' for Inactive)
REMARK    1  A    between atoms: C2_2  and  C3_3 
REMARK    2  A    between atoms: C3_3  and  C4_4 
REMARK    3  A    between atoms: C4_4  and  C5_5 
REMARK    4  A    between atoms: C5_5  and  C6_6 
REMARK    5  A    between atoms: C6_6  and  C7_7 
REMARK    6  A    between atoms: C7_7  and  C8_8 
REMARK    7  A    between atoms: C8_8  and  C9_9 
REMARK    8  A    between atoms: C9_9  and  C10_10 
REMARK       I    between atoms: C10_10  and  N1_12 
REMARK    9  A    between atoms: C12_14  and  O2_15 
REMARK   10  A    between atoms: C13_17  and  N2_18 
REMARK       I    between atoms: N2_18  and  C14_20 
REMARK   11  A    between atoms: C14_20  and  C15_22 
REMARK   12  A    between atoms: C15_22  and  C16_23 
REMARK   13  A    between atoms: C16_23  and  N3_24 
REMARK       I    between atoms: N3_24  and  C17_26 
ROOT
HETATM    1  N2  UNL     1      10.658  39.406  -4.690  1.00  0.00    -0.348 N 
ATOM      2  H2  UNL     1      11.369  39.898  -4.148  1.00  0.00     0.163 HD
HETATM    3  C14 UNL     1       9.559  38.821  -4.026  1.00  0.00     0.273 C 
HETATM    4  O3  UNL     1       8.681  38.215  -4.668  1.00  0.00    -0.268 OA
ENDROOT
BRANCH   1   5
HETATM    5  C13 UNL     1      10.792  39.318  -6.133  1.00  0.00     0.133 C 
HETATM    6  C12 UNL     1      11.234  40.642  -6.664  1.00  0.00     0.160 C 
HETATM    7  C11 UNL     1      12.696  40.470  -7.049  1.00  0.00     0.159 C 
HETATM    8  N1  UNL     1      12.813  39.057  -7.345  1.00  0.00    -0.348 N 
HETATM    9  C10 UNL     1      13.621  38.443  -8.333  1.00  0.00     0.219 C 
HETATM   10  C20 UNL     1      11.933  38.363  -6.431  1.00  0.00     0.153 C 
HETATM   11  O1  UNL     1      13.599  37.193  -8.460  1.00  0.00    -0.273 OA
BRANCH   6  12
HETATM   12  O2  UNL     1      10.466  40.997  -7.775  1.00  0.00    -0.392 OA
ATOM     13  H2  UNL     1       9.562  40.725  -7.664  1.00  0.00     0.210 HD
ENDBRANCH   6  12
BRANCH   9  14
HETATM   14  C9  UNL     1      14.490  39.246  -9.220  1.00  0.00     0.103 C 
BRANCH  14  15
HETATM   15  C8  UNL     1      13.879  39.654 -10.518  1.00  0.00     0.009 C 
BRANCH  15  16
HETATM   16  C7  UNL     1      14.738  39.430 -11.728  1.00  0.00     0.000 C 
BRANCH  16  17
HETATM   17  C6  UNL     1      13.949  39.686 -12.987  1.00  0.00     0.000 C 
BRANCH  17  18
HETATM   18  C5  UNL     1      14.300  38.705 -14.042  1.00  0.00     0.000 C 
BRANCH  18  19
HETATM   19  C4  UNL     1      14.632  37.333 -13.485  1.00  0.00     0.000 C 
BRANCH  19  20
HETATM   20  C3  UNL     1      13.499  36.367 -13.584  1.00  0.00    -0.000 C 
BRANCH  20  21
HETATM   21  C2  UNL     1      13.269  35.824 -12.169  1.00  0.00    -0.005 C 
HETATM   22  C1  UNL     1      14.619  35.769 -11.491  1.00  0.00     0.005 C 
ENDBRANCH  20  21
ENDBRANCH  19  20
ENDBRANCH  18  19
ENDBRANCH  17  18
ENDBRANCH  16  17
ENDBRANCH  15  16
ENDBRANCH  14  15
ENDBRANCH   9  14
ENDBRANCH   1   5
BRANCH   3  23
HETATM   23  C15 UNL     1       9.454  38.930  -2.559  1.00  0.00     0.247 C 
HETATM   24  N6  UNL     1      10.734  38.651  -1.956  1.00  0.00    -0.094 NA
HETATM   25  N7  UNL     1      11.027  37.310  -1.867  1.00  0.00    -0.334 N 
HETATM   26  C18 UNL     1       9.976  36.484  -1.360  1.00  0.00     0.161 C 
ATOM     27  H7  UNL     1      11.933  36.930  -2.143  1.00  0.00     0.175 HD
HETATM   28  C19 UNL     1       8.715  36.790  -2.105  1.00  0.00     0.192 C 
HETATM   29  O4  UNL     1       8.433  38.148  -2.037  1.00  0.00    -0.351 OA
BRANCH  23  30
HETATM   30  C16 UNL     1       9.108  40.374  -2.232  1.00  0.00     0.191 C 
BRANCH  30  31
HETATM   31  N3  UNL     1       8.119  40.902  -3.143  1.00  0.00    -0.360 N 
HETATM   32  C17 UNL     1       8.320  42.178  -3.722  1.00  0.00     0.181 C 
HETATM   33  N4  UNL     1       8.415  42.264  -4.998  1.00  0.00    -0.374 N 
HETATM   34  N5  UNL     1       8.423  43.368  -2.961  1.00  0.00    -0.064 NA
ATOM     35  H42 UNL     1       8.341  41.407  -5.546  1.00  0.00     0.158 HD
ATOM     36  H41 UNL     1       8.560  43.183  -5.415  1.00  0.00     0.158 HD
ATOM     37  H3  UNL     1       7.284  40.361  -3.366  1.00  0.00     0.162 HD
ENDBRANCH  30  31
ENDBRANCH  23  30
ENDBRANCH   3  23
TORSDOF 13
ENDMDL
MODEL 2
REMARK VINA RESULT: -7.398514169      4.314      9.239
REMARK  13 active torsions:
REMARK  status: ('A' for Active; 'I' for Inactive)
REMARK    1  A    between atoms: C2_2  and  C3_3 
REMARK    2  A    between atoms: C3_3  and  C4_4 
REMARK    3  A    between atoms: C4_4  and  C5_5 
REMARK    4  A    between atoms: C5_5  and  C6_6 
REMARK    5  A    between atoms: C6_6  and  C7_7 
REMARK    6  A    between atoms: C7_7  and  C8_8 
REMARK    7  A    between atoms: C8_8  and  C9_9 
REMARK    8  A    between atoms: C9_9  and  C10_10 
REMARK       I    between atoms: C10_10  and  N1_12 
REMARK    9  A    between atoms: C12_14  and  O2_15 
REMARK   10  A    between atoms: C13_17  and  N2_18 
REMARK       I    between atoms: N2_18  and  C14_20 
REMARK   11  A    between atoms: C14_20  and  C15_22 
REMARK   12  A    between atoms: C15_22  and  C16_23 
REMARK   13  A    between atoms: C16_23  and  N3_24 
REMARK       I    between atoms: N3_24  and  C17_26 
ROOT
HETATM    1  N2  UNL     1       8.992  41.219  -2.832  1.00  0.00    -0.348 N 
ATOM      2  H2  UNL     1       9.957  41.542  -2.897  1.00  0.00     0.163 HD
HETATM    3  C14 UNL     1       8.710  39.842  -2.957  1.00  0.00     0.273 C 
HETATM    4  O3  UNL     1       7.538  39.427  -2.884  1.00  0.00    -0.268 OA
ENDROOT
BRANCH   1   5
HETATM    5  C13 UNL     1       7.928  42.183  -2.613  1.00  0.00     0.133 C 
HETATM    6  C12 UNL     1       8.271  43.028  -1.430  1.00  0.00     0.160 C 
HETATM    7  C11 UNL     1       8.666  44.386  -1.990  1.00  0.00     0.159 C 
HETATM    8  N1  UNL     1       7.947  44.468  -3.245  1.00  0.00    -0.348 N 
HETATM    9  C10 UNL     1       7.373  45.617  -3.841  1.00  0.00     0.219 C 
HETATM   10  C20 UNL     1       7.917  43.132  -3.797  1.00  0.00     0.153 C 
HETATM   11  O1  UNL     1       6.775  45.509  -4.941  1.00  0.00    -0.273 OA
BRANCH   6  12
HETATM   12  O2  UNL     1       7.167  43.141  -0.582  1.00  0.00    -0.392 OA
ATOM     13  H2  UNL     1       7.391  42.878   0.303  1.00  0.00     0.210 HD
ENDBRANCH   6  12
BRANCH   9  14
HETATM   14  C9  UNL     1       7.461  46.943  -3.191  1.00  0.00     0.103 C 
BRANCH  14  15
HETATM   15  C8  UNL     1       8.625  47.780  -3.599  1.00  0.00     0.009 C 
BRANCH  15  16
HETATM   16  C7  UNL     1       9.641  48.031  -2.524  1.00  0.00     0.000 C 
BRANCH  16  17
HETATM   17  C6  UNL     1      10.831  47.121  -2.703  1.00  0.00     0.000 C 
BRANCH  17  18
HETATM   18  C5  UNL     1      11.701  47.593  -3.806  1.00  0.00     0.000 C 
BRANCH  18  19
HETATM   19  C4  UNL     1      13.167  47.649  -3.419  1.00  0.00     0.000 C 
BRANCH  19  20
HETATM   20  C3  UNL     1      13.391  47.562  -1.947  1.00  0.00    -0.000 C 
BRANCH  20  21
HETATM   21  C2  UNL     1      13.847  48.954  -1.496  1.00  0.00    -0.005 C 
HETATM   22  C1  UNL     1      12.771  49.498  -0.583  1.00  0.00     0.005 C 
ENDBRANCH  20  21
ENDBRANCH  19  20
ENDBRANCH  18  19
ENDBRANCH  17  18
ENDBRANCH  16  17
ENDBRANCH  15  16
ENDBRANCH  14  15
ENDBRANCH   9  14
ENDBRANCH   1   5
BRANCH   3  23
HETATM   23  C15 UNL     1       9.814  38.890  -3.178  1.00  0.00     0.247 C 
HETATM   24  N6  UNL     1       9.284  37.562  -3.360  1.00  0.00    -0.094 NA
HETATM   25  N7  UNL     1       8.937  36.934  -2.185  1.00  0.00    -0.334 N 
HETATM   26  C18 UNL     1       9.907  37.014  -1.138  1.00  0.00     0.161 C 
ATOM     27  H7  UNL     1       8.048  36.447  -2.070  1.00  0.00     0.175 HD
HETATM   28  C19 UNL     1      10.329  38.439  -0.973  1.00  0.00     0.192 C 
HETATM   29  O4  UNL     1      10.779  38.951  -2.183  1.00  0.00    -0.351 OA
BRANCH  23  30
HETATM   30  C16 UNL     1      10.501  39.282  -4.476  1.00  0.00     0.191 C 
BRANCH  30  31
HETATM   31  N3  UNL     1      11.274  38.189  -5.019  1.00  0.00    -0.360 N 
HETATM   32  C17 UNL     1      11.765  38.277  -6.344  1.00  0.00     0.181 C 
HETATM   33  N4  UNL     1      13.033  38.248  -6.531  1.00  0.00    -0.374 N 
HETATM   34  N5  UNL     1      10.923  38.396  -7.477  1.00  0.00    -0.064 NA
ATOM     35  H42 UNL     1      13.639  38.162  -5.715  1.00  0.00     0.158 HD
ATOM     36  H41 UNL     1      13.386  38.311  -7.485  1.00  0.00     0.158 HD
ATOM     37  H3  UNL     1      11.464  37.362  -4.453  1.00  0.00     0.162 HD
ENDBRANCH  30  31
ENDBRANCH  23  30
ENDBRANCH   3  23
TORSDOF 13
ENDMDL
MODEL 3
REMARK VINA RESULT: -7.388836081      4.198      9.065
REMARK  13 active torsions:
REMARK  status: ('A' for Active; 'I' for Inactive)
REMARK    1  A    between atoms: C2_2  and  C3_3 
REMARK    2  A    between atoms: C3_3  and  C4_4 
REMARK    3  A    between atoms: C4_4  and  C5_5 
REMARK    4  A    between atoms: C5_5  and  C6_6 
REMARK    5  A    between atoms: C6_6  and  C7_7 
REMARK    6  A    between atoms: C7_7  and  C8_8 
REMARK    7  A    between atoms: C8_8  and  C9_9 
REMARK    8  A    between atoms: C9_9  and  C10_10 
REMARK       I    between atoms: C10_10  and  N1_12 
REMARK    9  A    between atoms: C12_14  and  O2_15 
REMARK   10  A    between atoms: C13_17  and  N2_18 
REMARK       I    between atoms: N2_18  and  C14_20 
REMARK   11  A    between atoms: C14_20  and  C15_22 
REMARK   12  A    between atoms: C15_22  and  C16_23 
REMARK   13  A    between atoms: C16_23  and  N3_24 
REMARK       I    between atoms: N3_24  and  C17_26 
ROOT
HETATM    1  N2  UNL     1       8.857  41.157  -3.147  1.00  0.00    -0.348 N 
ATOM      2  H2  UNL     1       9.783  41.572  -3.251  1.00  0.00     0.163 HD
HETATM    3  C14 UNL     1       8.731  39.755  -3.046  1.00  0.00     0.273 C 
HETATM    4  O3  UNL     1       7.609  39.228  -2.920  1.00  0.00    -0.268 OA
ENDROOT
BRANCH   1   5
HETATM    5  C13 UNL     1       7.688  42.017  -3.104  1.00  0.00     0.133 C 
HETATM    6  C12 UNL     1       8.113  43.400  -2.734  1.00  0.00     0.160 C 
HETATM    7  C11 UNL     1       8.017  44.222  -4.010  1.00  0.00     0.159 C 
HETATM    8  N1  UNL     1       7.001  43.540  -4.786  1.00  0.00    -0.348 N 
HETATM    9  C10 UNL     1       6.036  44.118  -5.647  1.00  0.00     0.219 C 
HETATM   10  C20 UNL     1       7.147  42.127  -4.518  1.00  0.00     0.153 C 
HETATM   11  O1  UNL     1       5.219  43.374  -6.246  1.00  0.00    -0.273 OA
BRANCH   6  12
HETATM   12  O2  UNL     1       7.271  43.915  -1.745  1.00  0.00    -0.392 OA
ATOM     13  H2  UNL     1       6.410  43.514  -1.791  1.00  0.00     0.210 HD
ENDBRANCH   6  12
BRANCH   9  14
HETATM   14  C9  UNL     1       5.971  45.580  -5.855  1.00  0.00     0.103 C 
BRANCH  14  15
HETATM   15  C8  UNL     1       5.155  46.027  -7.019  1.00  0.00     0.009 C 
BRANCH  15  16
HETATM   16  C7  UNL     1       3.776  46.514  -6.685  1.00  0.00     0.000 C 
BRANCH  16  17
HETATM   17  C6  UNL     1       2.737  45.563  -7.226  1.00  0.00     0.000 C 
BRANCH  17  18
HETATM   18  C5  UNL     1       1.666  45.324  -6.230  1.00  0.00     0.000 C 
BRANCH  18  19
HETATM   19  C4  UNL     1       2.062  44.313  -5.169  1.00  0.00     0.000 C 
BRANCH  19  20
HETATM   20  C3  UNL     1       1.775  42.903  -5.562  1.00  0.00    -0.000 C 
BRANCH  20  21
HETATM   21  C2  UNL     1       1.701  42.098  -4.259  1.00  0.00    -0.005 C 
HETATM   22  C1  UNL     1       3.120  41.741  -3.879  1.00  0.00     0.005 C 
ENDBRANCH  20  21
ENDBRANCH  19  20
ENDBRANCH  18  19
ENDBRANCH  17  18
ENDBRANCH  16  17
ENDBRANCH  15  16
ENDBRANCH  14  15
ENDBRANCH   9  14
ENDBRANCH   1   5
BRANCH   3  23
HETATM   23  C15 UNL     1       9.938  38.910  -3.091  1.00  0.00     0.247 C 
HETATM   24  N6  UNL     1       9.564  37.534  -3.304  1.00  0.00    -0.094 NA
HETATM   25  N7  UNL     1       9.121  36.895  -2.167  1.00  0.00    -0.334 N 
HETATM   26  C18 UNL     1       9.930  37.083  -1.004  1.00  0.00     0.161 C 
ATOM     27  H7  UNL     1       8.275  36.326  -2.157  1.00  0.00     0.175 HD
HETATM   28  C19 UNL     1      10.192  38.546  -0.826  1.00  0.00     0.192 C 
HETATM   29  O4  UNL     1      10.751  39.079  -1.979  1.00  0.00    -0.351 OA
BRANCH  23  30
HETATM   30  C16 UNL     1      10.754  39.345  -4.298  1.00  0.00     0.191 C 
BRANCH  30  31
HETATM   31  N3  UNL     1      11.322  38.212  -4.991  1.00  0.00    -0.360 N 
HETATM   32  C17 UNL     1      11.735  38.358  -6.337  1.00  0.00     0.181 C 
HETATM   33  N4  UNL     1      12.971  38.170  -6.623  1.00  0.00    -0.374 N 
HETATM   34  N5  UNL     1      10.849  38.704  -7.387  1.00  0.00    -0.064 NA
ATOM     35  H42 UNL     1      13.608  37.922  -5.867  1.00  0.00     0.158 HD
ATOM     36  H41 UNL     1      13.268  38.275  -7.593  1.00  0.00     0.158 HD
ATOM     37  H3  UNL     1      11.424  37.316  -4.515  1.00  0.00     0.162 HD
ENDBRANCH  30  31
ENDBRANCH  23  30
ENDBRANCH   3  23
TORSDOF 13
ENDMDL
MODEL 4
REMARK VINA RESULT: -7.325674473      4.184      9.310
REMARK  13 active torsions:
REMARK  status: ('A' for Active; 'I' for Inactive)
REMARK    1  A    between atoms: C2_2  and  C3_3 
REMARK    2  A    between atoms: C3_3  and  C4_4 
REMARK    3  A    between atoms: C4_4  and  C5_5 
REMARK    4  A    between atoms: C5_5  and  C6_6 
REMARK    5  A    between atoms: C6_6  and  C7_7 
REMARK    6  A    between atoms: C7_7  and  C8_8 
REMARK    7  A    between atoms: C8_8  and  C9_9 
REMARK    8  A    between atoms: C9_9  and  C10_10 
REMARK       I    between atoms: C10_10  and  N1_12 
REMARK    9  A    between atoms: C12_14  and  O2_15 
REMARK   10  A    between atoms: C13_17  and  N2_18 
REMARK       I    between atoms: N2_18  and  C14_20 
REMARK   11  A    between atoms: C14_20  and  C15_22 
REMARK   12  A    between atoms: C15_22  and  C16_23 
REMARK   13  A    between atoms: C16_23  and  N3_24 
REMARK       I    between atoms: N3_24  and  C17_26 
ROOT
HETATM    1  N2  UNL     1       8.860  41.099  -3.129  1.00  0.00    -0.348 N 
ATOM      2  H2  UNL     1       9.782  41.529  -3.209  1.00  0.00     0.163 HD
HETATM    3  C14 UNL     1       8.754  39.693  -3.052  1.00  0.00     0.273 C 
HETATM    4  O3  UNL     1       7.639  39.148  -2.957  1.00  0.00    -0.268 OA
ENDROOT
BRANCH   1   5
HETATM    5  C13 UNL     1       7.677  41.940  -3.097  1.00  0.00     0.133 C 
HETATM    6  C12 UNL     1       8.046  43.281  -2.552  1.00  0.00     0.160 C 
HETATM    7  C11 UNL     1       8.043  44.230  -3.740  1.00  0.00     0.159 C 
HETATM    8  N1  UNL     1       7.107  43.624  -4.666  1.00  0.00    -0.348 N 
HETATM    9  C10 UNL     1       6.208  44.281  -5.541  1.00  0.00     0.219 C 
HETATM   10  C20 UNL     1       7.255  42.193  -4.533  1.00  0.00     0.153 C 
HETATM   11  O1  UNL     1       5.456  43.597  -6.281  1.00  0.00    -0.273 OA
BRANCH   6  12
HETATM   12  O2  UNL     1       7.116  43.682  -1.590  1.00  0.00    -0.392 OA
ATOM     13  H2  UNL     1       6.470  43.002  -1.439  1.00  0.00     0.210 HD
ENDBRANCH   6  12
BRANCH   9  14
HETATM   14  C9  UNL     1       6.135  45.757  -5.601  1.00  0.00     0.103 C 
BRANCH  14  15
HETATM   15  C8  UNL     1       4.924  46.364  -4.981  1.00  0.00     0.009 C 
BRANCH  15  16
HETATM   16  C7  UNL     1       4.568  45.839  -3.621  1.00  0.00     0.000 C 
BRANCH  16  17
HETATM   17  C6  UNL     1       3.083  45.596  -3.523  1.00  0.00     0.000 C 
BRANCH  17  18
HETATM   18  C5  UNL     1       2.718  44.290  -4.122  1.00  0.00     0.000 C 
BRANCH  18  19
HETATM   19  C4  UNL     1       2.677  43.165  -3.104  1.00  0.00     0.000 C 
BRANCH  19  20
HETATM   20  C3  UNL     1       3.815  42.209  -3.237  1.00  0.00    -0.000 C 
BRANCH  20  21
HETATM   21  C2  UNL     1       4.158  41.745  -1.816  1.00  0.00    -0.005 C 
HETATM   22  C1  UNL     1       3.662  42.815  -0.870  1.00  0.00     0.005 C 
ENDBRANCH  20  21
ENDBRANCH  19  20
ENDBRANCH  18  19
ENDBRANCH  17  18
ENDBRANCH  16  17
ENDBRANCH  15  16
ENDBRANCH  14  15
ENDBRANCH   9  14
ENDBRANCH   1   5
BRANCH   3  23
HETATM   23  C15 UNL     1       9.976  38.869  -3.086  1.00  0.00     0.247 C 
HETATM   24  N6  UNL     1       9.624  37.485  -3.289  1.00  0.00    -0.094 NA
HETATM   25  N7  UNL     1       9.188  36.847  -2.150  1.00  0.00    -0.334 N 
HETATM   26  C18 UNL     1       9.988  37.058  -0.985  1.00  0.00     0.161 C 
ATOM     27  H7  UNL     1       8.350  36.265  -2.138  1.00  0.00     0.175 HD
HETATM   28  C19 UNL     1      10.225  38.526  -0.816  1.00  0.00     0.192 C 
HETATM   29  O4  UNL     1      10.780  39.059  -1.972  1.00  0.00    -0.351 OA
BRANCH  23  30
HETATM   30  C16 UNL     1      10.789  39.308  -4.292  1.00  0.00     0.191 C 
BRANCH  30  31
HETATM   31  N3  UNL     1      11.328  38.176  -5.010  1.00  0.00    -0.360 N 
HETATM   32  C17 UNL     1      11.744  38.340  -6.353  1.00  0.00     0.181 C 
HETATM   33  N4  UNL     1      12.974  38.126  -6.645  1.00  0.00    -0.374 N 
HETATM   34  N5  UNL     1      10.867  38.730  -7.395  1.00  0.00    -0.064 NA
ATOM     35  H42 UNL     1      13.605  37.845  -5.895  1.00  0.00     0.158 HD
ATOM     36  H41 UNL     1      13.274  38.244  -7.612  1.00  0.00     0.158 HD
ATOM     37  H3  UNL     1      11.407  37.267  -4.554  1.00  0.00     0.162 HD
ENDBRANCH  30  31
ENDBRANCH  23  30
ENDBRANCH   3  23
TORSDOF 13
ENDMDL
MODEL 5
REMARK VINA RESULT: -7.312608304      4.183      9.937
REMARK  13 active torsions:
REMARK  status: ('A' for Active; 'I' for Inactive)
REMARK    1  A    between atoms: C2_2  and  C3_3 
REMARK    2  A    between atoms: C3_3  and  C4_4 
REMARK    3  A    between atoms: C4_4  and  C5_5 
REMARK    4  A    between atoms: C5_5  and  C6_6 
REMARK    5  A    between atoms: C6_6  and  C7_7 
REMARK    6  A    between atoms: C7_7  and  C8_8 
REMARK    7  A    between atoms: C8_8  and  C9_9 
REMARK    8  A    between atoms: C9_9  and  C10_10 
REMARK       I    between atoms: C10_10  and  N1_12 
REMARK    9  A    between atoms: C12_14  and  O2_15 
REMARK   10  A    between atoms: C13_17  and  N2_18 
REMARK       I    between atoms: N2_18  and  C14_20 
REMARK   11  A    between atoms: C14_20  and  C15_22 
REMARK   12  A    between atoms: C15_22  and  C16_23 
REMARK   13  A    between atoms: C16_23  and  N3_24 
REMARK       I    between atoms: N3_24  and  C17_26 
ROOT
HETATM    1  N2  UNL     1       9.001  41.190  -2.805  1.00  0.00    -0.348 N 
ATOM      2  H2  UNL     1       9.965  41.517  -2.871  1.00  0.00     0.163 HD
HETATM    3  C14 UNL     1       8.725  39.812  -2.937  1.00  0.00     0.273 C 
HETATM    4  O3  UNL     1       7.555  39.392  -2.862  1.00  0.00    -0.268 OA
ENDROOT
BRANCH   1   5
HETATM    5  C13 UNL     1       7.934  42.148  -2.578  1.00  0.00     0.133 C 
HETATM    6  C12 UNL     1       8.295  43.015  -1.417  1.00  0.00     0.160 C 
HETATM    7  C11 UNL     1       8.666  44.367  -2.006  1.00  0.00     0.159 C 
HETATM    8  N1  UNL     1       7.919  44.422  -3.247  1.00  0.00    -0.348 N 
HETATM    9  C10 UNL     1       7.322  45.557  -3.848  1.00  0.00     0.219 C 
HETATM   10  C20 UNL     1       7.889  43.078  -3.776  1.00  0.00     0.153 C 
HETATM   11  O1  UNL     1       6.702  45.426  -4.933  1.00  0.00    -0.273 OA
BRANCH   6  12
HETATM   12  O2  UNL     1       7.208  43.132  -0.547  1.00  0.00    -0.392 OA
ATOM     13  H2  UNL     1       7.469  42.948   0.348  1.00  0.00     0.210 HD
ENDBRANCH   6  12
BRANCH   9  14
HETATM   14  C9  UNL     1       7.413  46.894  -3.222  1.00  0.00     0.103 C 
BRANCH  14  15
HETATM   15  C8  UNL     1       6.198  47.338  -2.480  1.00  0.00     0.009 C 
BRANCH  15  16
HETATM   16  C7  UNL     1       6.033  46.747  -1.110  1.00  0.00     0.000 C 
BRANCH  16  17
HETATM   17  C6  UNL     1       4.842  45.823  -1.077  1.00  0.00     0.000 C 
BRANCH  17  18
HETATM   18  C5  UNL     1       4.571  45.356   0.304  1.00  0.00     0.000 C 
BRANCH  18  19
HETATM   19  C4  UNL     1       3.825  44.035   0.344  1.00  0.00     0.000 C 
BRANCH  19  20
HETATM   20  C3  UNL     1       3.311  43.608  -0.990  1.00  0.00    -0.000 C 
BRANCH  20  21
HETATM   21  C2  UNL     1       3.886  42.211  -1.248  1.00  0.00    -0.005 C 
HETATM   22  C1  UNL     1       4.273  42.154  -2.708  1.00  0.00     0.005 C 
ENDBRANCH  20  21
ENDBRANCH  19  20
ENDBRANCH  18  19
ENDBRANCH  17  18
ENDBRANCH  16  17
ENDBRANCH  15  16
ENDBRANCH  14  15
ENDBRANCH   9  14
ENDBRANCH   1   5
BRANCH   3  23
HETATM   23  C15 UNL     1       9.832  38.866  -3.166  1.00  0.00     0.247 C 
HETATM   24  N6  UNL     1       9.307  37.537  -3.360  1.00  0.00    -0.094 NA
HETATM   25  N7  UNL     1       8.961  36.898  -2.191  1.00  0.00    -0.334 N 
HETATM   26  C18 UNL     1       9.929  36.971  -1.143  1.00  0.00     0.161 C 
ATOM     27  H7  UNL     1       8.074  36.406  -2.081  1.00  0.00     0.175 HD
HETATM   28  C19 UNL     1      10.347  38.396  -0.964  1.00  0.00     0.192 C 
HETATM   29  O4  UNL     1      10.796  38.921  -2.169  1.00  0.00    -0.351 OA
BRANCH  23  30
HETATM   30  C16 UNL     1      10.519  39.272  -4.459  1.00  0.00     0.191 C 
BRANCH  30  31
HETATM   31  N3  UNL     1      11.281  38.181  -5.021  1.00  0.00    -0.360 N 
HETATM   32  C17 UNL     1      11.773  38.287  -6.343  1.00  0.00     0.181 C 
HETATM   33  N4  UNL     1      13.041  38.249  -6.531  1.00  0.00    -0.374 N 
HETATM   34  N5  UNL     1      10.933  38.435  -7.475  1.00  0.00    -0.064 NA
ATOM     35  H42 UNL     1      13.646  38.143  -5.717  1.00  0.00     0.158 HD
ATOM     36  H41 UNL     1      13.396  38.325  -7.484  1.00  0.00     0.158 HD
ATOM     37  H3  UNL     1      11.463  37.343  -4.469  1.00  0.00     0.162 HD
ENDBRANCH  30  31
ENDBRANCH  23  30
ENDBRANCH   3  23
TORSDOF 13
ENDMDL
