MODEL 1
REMARK VINA RESULT: -7.909382756      0.000      0.000
REMARK  6 active torsions:
REMARK  status: ('A' for Active; 'I' for Inactive)
REMARK    1  A    between atoms: C2_2  and  C5_5 
REMARK    2  A    between atoms: C5_5  and  C8_8 
REMARK    3  A    between atoms: C11_13  and  N2_14 
REMARK    4  A    between atoms: C16_19  and  C17_20 
REMARK       I    between atoms: C17_20  and  N3_22 
REMARK    5  A    between atoms: N3_22  and  C18_24 
REMARK    6  A    between atoms: C18_24  and  C19_25 
ROOT
HETATM    1  N2  UNL     1      21.108  71.727  16.809  1.00  0.00    -0.365 N 
HETATM    2  C12 UNL     1      22.083  72.722  17.229  1.00  0.00     0.127 C 
HETATM    3  C13 UNL     1      21.424  73.823  18.038  1.00  0.00     0.051 C 
HETATM    4  C14 UNL     1      20.588  74.717  17.156  1.00  0.00     0.124 C 
HETATM    5  C15 UNL     1      19.154  74.779  17.580  1.00  0.00     0.048 C 
HETATM    6  C16 UNL     1      18.503  73.794  16.660  1.00  0.00     0.111 C 
HETATM    7  C23 UNL     1      19.570  73.341  15.734  1.00  0.00     0.153 C 
HETATM    8  C24 UNL     1      19.974  71.899  15.963  1.00  0.00     0.157 C 
HETATM    9  O3  UNL     1      20.583  74.245  15.844  1.00  0.00    -0.378 OA
ENDROOT
BRANCH   1  10
HETATM   10  C11 UNL     1      21.384  70.441  17.349  1.00  0.00     0.105 A 
HETATM   11  C10 UNL     1      22.340  69.643  16.764  1.00  0.00     0.065 A 
HETATM   12  C9  UNL     1      22.592  68.408  17.304  1.00  0.00     0.093 A 
HETATM   13  N1  UNL     1      21.911  68.011  18.372  1.00  0.00    -0.355 N 
HETATM   14  C8  UNL     1      20.969  68.756  18.976  1.00  0.00     0.091 A 
ATOM     15  H1  UNL     1      22.114  67.089  18.757  1.00  0.00     0.166 HD
HETATM   16  N4  UNL     1      20.738  69.964  18.431  1.00  0.00    -0.332 N 
ATOM     17  H4  UNL     1      20.029  70.556  18.863  1.00  0.00     0.168 HD
BRANCH  14  18
HETATM   18  C5  UNL     1      20.208  68.343  20.156  1.00  0.00     0.018 C 
HETATM   19  C6  UNL     1      18.769  68.773  19.989  1.00  0.00     0.024 C 
HETATM   20  C7  UNL     1      20.231  66.819  20.178  1.00  0.00     0.024 C 
BRANCH  18  21
HETATM   21  C2  UNL     1      20.705  68.925  21.446  1.00  0.00    -0.037 C 
HETATM   22  C1  UNL     1      20.165  68.065  22.570  1.00  0.00     0.015 C 
HETATM   23  C3  UNL     1      22.188  68.990  21.568  1.00  0.00     0.015 C 
HETATM   24  C4  UNL     1      20.172  70.328  21.677  1.00  0.00     0.015 C 
ENDBRANCH  18  21
ENDBRANCH  14  18
ENDBRANCH   1  10
BRANCH   6  25
HETATM   25  C17 UNL     1      17.466  74.573  15.852  1.00  0.00     0.228 C 
HETATM   26  O1  UNL     1      17.494  75.790  16.020  1.00  0.00    -0.273 OA
HETATM   27  N3  UNL     1      16.593  73.899  15.021  1.00  0.00    -0.338 N 
ATOM     28  H3  UNL     1      16.705  72.885  15.013  1.00  0.00     0.167 HD
BRANCH  27  29
HETATM   29  C18 UNL     1      15.577  74.388  14.183  1.00  0.00     0.095 C 
BRANCH  29  30
HETATM   30  C19 UNL     1      15.235  73.736  12.906  1.00  0.00     0.159 C 
HETATM   31  C20 UNL     1      15.553  72.323  12.657  1.00  0.00     0.039 C 
HETATM   32  C21 UNL     1      14.146  71.732  12.414  1.00  0.00     0.029 C 
HETATM   33  C22 UNL     1      13.516  72.940  11.734  1.00  0.00     0.168 C 
HETATM   34  O2  UNL     1      13.924  74.010  12.479  1.00  0.00    -0.381 OA
ENDBRANCH  29  30
ENDBRANCH  27  29
ENDBRANCH   6  25
TORSDOF 6
ENDMDL
MODEL 2
REMARK VINA RESULT: -7.754845463      1.627      2.741
REMARK  6 active torsions:
REMARK  status: ('A' for Active; 'I' for Inactive)
REMARK    1  A    between atoms: C2_2  and  C5_5 
REMARK    2  A    between atoms: C5_5  and  C8_8 
REMARK    3  A    between atoms: C11_13  and  N2_14 
REMARK    4  A    between atoms: C16_19  and  C17_20 
REMARK       I    between atoms: C17_20  and  N3_22 
REMARK    5  A    between atoms: N3_22  and  C18_24 
REMARK    6  A    between atoms: C18_24  and  C19_25 
ROOT
HETATM    1  N2  UNL     1      19.428  70.537  18.450  1.00  0.00    -0.365 N 
HETATM    2  C12 UNL     1      20.445  70.130  17.491  1.00  0.00     0.127 C 
HETATM    3  C13 UNL     1      21.122  71.337  16.870  1.00  0.00     0.051 C 
HETATM    4  C14 UNL     1      20.200  72.038  15.904  1.00  0.00     0.124 C 
HETATM    5  C15 UNL     1      19.967  73.475  16.257  1.00  0.00     0.048 C 
HETATM    6  C16 UNL     1      18.657  73.420  16.978  1.00  0.00     0.111 C 
HETATM    7  C23 UNL     1      18.202  72.011  16.885  1.00  0.00     0.153 C 
HETATM    8  C24 UNL     1      18.243  71.291  18.218  1.00  0.00     0.157 C 
HETATM    9  O3  UNL     1      18.944  71.433  15.898  1.00  0.00    -0.378 OA
ENDROOT
BRANCH   1  10
HETATM   10  C11 UNL     1      19.721  70.089  19.768  1.00  0.00     0.105 A 
HETATM   11  C10 UNL     1      20.237  70.970  20.691  1.00  0.00     0.065 A 
HETATM   12  C9  UNL     1      20.509  70.516  21.957  1.00  0.00     0.093 A 
HETATM   13  N1  UNL     1      20.271  69.246  22.260  1.00  0.00    -0.355 N 
HETATM   14  C8  UNL     1      19.769  68.352  21.391  1.00  0.00     0.091 A 
ATOM     15  H1  UNL     1      20.480  68.930  23.207  1.00  0.00     0.166 HD
HETATM   16  N4  UNL     1      19.509  68.817  20.156  1.00  0.00    -0.332 N 
ATOM     17  H4  UNL     1      19.128  68.165  19.470  1.00  0.00     0.168 HD
BRANCH  14  18
HETATM   18  C5  UNL     1      19.494  66.948  21.703  1.00  0.00     0.018 C 
HETATM   19  C6  UNL     1      19.150  66.827  23.169  1.00  0.00     0.024 C 
HETATM   20  C7  UNL     1      18.253  66.561  20.906  1.00  0.00     0.024 C 
BRANCH  18  21
HETATM   21  C2  UNL     1      20.641  66.020  21.430  1.00  0.00    -0.037 C 
HETATM   22  C1  UNL     1      20.074  64.619  21.318  1.00  0.00     0.015 C 
HETATM   23  C3  UNL     1      21.406  66.324  20.189  1.00  0.00     0.015 C 
HETATM   24  C4  UNL     1      21.635  65.996  22.578  1.00  0.00     0.015 C 
ENDBRANCH  18  21
ENDBRANCH  14  18
ENDBRANCH   1  10
BRANCH   6  25
HETATM   25  C17 UNL     1      17.686  74.290  16.180  1.00  0.00     0.228 C 
HETATM   26  O1  UNL     1      17.872  75.500  16.290  1.00  0.00    -0.273 OA
HETATM   27  N3  UNL     1      16.697  73.698  15.419  1.00  0.00    -0.338 N 
ATOM     28  H3  UNL     1      16.681  72.679  15.455  1.00  0.00     0.167 HD
BRANCH  27  29
HETATM   29  C18 UNL     1      15.708  74.276  14.605  1.00  0.00     0.095 C 
BRANCH  29  30
HETATM   30  C19 UNL     1      15.413  73.767  13.253  1.00  0.00     0.159 C 
HETATM   31  C20 UNL     1      15.751  72.392  12.861  1.00  0.00     0.039 C 
HETATM   32  C21 UNL     1      14.358  71.824  12.509  1.00  0.00     0.029 C 
HETATM   33  C22 UNL     1      13.739  73.097  11.945  1.00  0.00     0.168 C 
HETATM   34  O2  UNL     1      14.114  74.080  12.817  1.00  0.00    -0.381 OA
ENDBRANCH  29  30
ENDBRANCH  27  29
ENDBRANCH   6  25
TORSDOF 6
ENDMDL
MODEL 3
REMARK VINA RESULT: -7.738435801      2.567      4.903
REMARK  6 active torsions:
REMARK  status: ('A' for Active; 'I' for Inactive)
REMARK    1  A    between atoms: C2_2  and  C5_5 
REMARK    2  A    between atoms: C5_5  and  C8_8 
REMARK    3  A    between atoms: C11_13  and  N2_14 
REMARK    4  A    between atoms: C16_19  and  C17_20 
REMARK       I    between atoms: C17_20  and  N3_22 
REMARK    5  A    between atoms: N3_22  and  C18_24 
REMARK    6  A    between atoms: C18_24  and  C19_25 
ROOT
HETATM    1  N2  UNL     1      17.789  75.160  16.282  1.00  0.00    -0.365 N 
HETATM    2  C12 UNL     1      17.432  76.570  16.217  1.00  0.00     0.127 C 
HETATM    3  C13 UNL     1      15.926  76.752  16.237  1.00  0.00     0.051 C 
HETATM    4  C14 UNL     1      15.311  76.325  14.926  1.00  0.00     0.124 C 
HETATM    5  C15 UNL     1      14.282  75.250  15.086  1.00  0.00     0.048 C 
HETATM    6  C16 UNL     1      15.059  74.012  14.764  1.00  0.00     0.111 C 
HETATM    7  C23 UNL     1      16.405  74.475  14.348  1.00  0.00     0.153 C 
HETATM    8  C24 UNL     1      17.484  74.125  15.352  1.00  0.00     0.157 C 
HETATM    9  O3  UNL     1      16.285  75.805  14.075  1.00  0.00    -0.378 OA
ENDROOT
BRANCH   1  10
HETATM   10  C11 UNL     1      18.536  74.848  17.451  1.00  0.00     0.105 A 
HETATM   11  C10 UNL     1      19.031  75.863  18.239  1.00  0.00     0.065 A 
HETATM   12  C9  UNL     1      19.747  75.538  19.362  1.00  0.00     0.093 A 
HETATM   13  N1  UNL     1      19.947  74.260  19.662  1.00  0.00    -0.355 N 
HETATM   14  C8  UNL     1      19.484  73.238  18.923  1.00  0.00     0.091 A 
ATOM     15  H1  UNL     1      20.482  74.041  20.503  1.00  0.00     0.166 HD
HETATM   16  N4  UNL     1      18.784  73.578  17.825  1.00  0.00    -0.332 N 
ATOM     17  H4  UNL     1      18.418  72.827  17.240  1.00  0.00     0.168 HD
BRANCH  14  18
HETATM   18  C5  UNL     1      19.688  71.822  19.234  1.00  0.00     0.018 C 
HETATM   19  C6  UNL     1      20.001  71.682  20.705  1.00  0.00     0.024 C 
HETATM   20  C7  UNL     1      18.355  71.125  18.980  1.00  0.00     0.024 C 
BRANCH  18  21
HETATM   21  C2  UNL     1      20.806  71.177  18.471  1.00  0.00    -0.037 C 
HETATM   22  C1  UNL     1      21.410  70.113  19.363  1.00  0.00     0.015 C 
HETATM   23  C3  UNL     1      20.398  70.545  17.185  1.00  0.00     0.015 C 
HETATM   24  C4  UNL     1      21.917  72.163  18.155  1.00  0.00     0.015 C 
ENDBRANCH  18  21
ENDBRANCH  14  18
ENDBRANCH   1  10
BRANCH   6  25
HETATM   25  C17 UNL     1      14.376  73.374  13.554  1.00  0.00     0.228 C 
HETATM   26  O1  UNL     1      13.767  74.163  12.834  1.00  0.00    -0.273 OA
HETATM   27  N3  UNL     1      14.473  72.012  13.347  1.00  0.00    -0.338 N 
ATOM     28  H3  UNL     1      15.009  71.509  14.054  1.00  0.00     0.167 HD
BRANCH  27  29
HETATM   29  C18 UNL     1      13.950  71.210  12.319  1.00  0.00     0.095 C 
BRANCH  29  30
HETATM   30  C19 UNL     1      13.478  69.835  12.563  1.00  0.00     0.159 C 
HETATM   31  C20 UNL     1      14.420  68.728  12.774  1.00  0.00     0.039 C 
HETATM   32  C21 UNL     1      14.028  68.259  14.193  1.00  0.00     0.029 C 
HETATM   33  C22 UNL     1      12.533  68.542  14.111  1.00  0.00     0.168 C 
HETATM   34  O2  UNL     1      12.444  69.767  13.513  1.00  0.00    -0.381 OA
ENDBRANCH  29  30
ENDBRANCH  27  29
ENDBRANCH   6  25
TORSDOF 6
ENDMDL
MODEL 4
REMARK VINA RESULT: -7.737375851      1.841      2.711
REMARK  6 active torsions:
REMARK  status: ('A' for Active; 'I' for Inactive)
REMARK    1  A    between atoms: C2_2  and  C5_5 
REMARK    2  A    between atoms: C5_5  and  C8_8 
REMARK    3  A    between atoms: C11_13  and  N2_14 
REMARK    4  A    between atoms: C16_19  and  C17_20 
REMARK       I    between atoms: C17_20  and  N3_22 
REMARK    5  A    between atoms: N3_22  and  C18_24 
REMARK    6  A    between atoms: C18_24  and  C19_25 
ROOT
HETATM    1  N2  UNL     1      18.922  71.204  17.377  1.00  0.00    -0.365 N 
HETATM    2  C12 UNL     1      20.092  71.962  16.960  1.00  0.00     0.127 C 
HETATM    3  C13 UNL     1      19.831  73.454  17.039  1.00  0.00     0.051 C 
HETATM    4  C14 UNL     1      18.898  73.900  15.940  1.00  0.00     0.124 C 
HETATM    5  C15 UNL     1      17.661  74.566  16.459  1.00  0.00     0.048 C 
HETATM    6  C16 UNL     1      16.660  73.453  16.427  1.00  0.00     0.111 C 
HETATM    7  C23 UNL     1      17.356  72.301  15.804  1.00  0.00     0.153 C 
HETATM    8  C24 UNL     1      17.626  71.178  16.785  1.00  0.00     0.157 C 
HETATM    9  O3  UNL     1      18.463  72.806  15.193  1.00  0.00    -0.378 OA
ENDROOT
BRANCH   1  10
HETATM   10  C11 UNL     1      19.177  70.410  18.529  1.00  0.00     0.105 A 
HETATM   11  C10 UNL     1      18.365  69.335  18.812  1.00  0.00     0.065 A 
HETATM   12  C9  UNL     1      18.631  68.582  19.927  1.00  0.00     0.093 A 
HETATM   13  N1  UNL     1      19.660  68.905  20.703  1.00  0.00    -0.355 N 
HETATM   14  C8  UNL     1      20.477  69.945  20.465  1.00  0.00     0.091 A 
ATOM     15  H1  UNL     1      19.839  68.331  21.527  1.00  0.00     0.166 HD
HETATM   16  N4  UNL     1      20.198  70.671  19.367  1.00  0.00    -0.332 N 
ATOM     17  H4  UNL     1      20.798  71.468  19.156  1.00  0.00     0.168 HD
BRANCH  14  18
HETATM   18  C5  UNL     1      21.618  70.319  21.303  1.00  0.00     0.018 C 
HETATM   19  C6  UNL     1      21.660  71.824  21.432  1.00  0.00     0.024 C 
HETATM   20  C7  UNL     1      21.346  69.747  22.689  1.00  0.00     0.024 C 
BRANCH  18  21
HETATM   21  C2  UNL     1      22.947  69.874  20.770  1.00  0.00    -0.037 C 
HETATM   22  C1  UNL     1      23.879  69.709  21.952  1.00  0.00     0.015 C 
HETATM   23  C3  UNL     1      22.915  68.596  20.006  1.00  0.00     0.015 C 
HETATM   24  C4  UNL     1      23.573  70.923  19.866  1.00  0.00     0.015 C 
ENDBRANCH  18  21
ENDBRANCH  14  18
ENDBRANCH   1  10
BRANCH   6  25
HETATM   25  C17 UNL     1      15.542  73.902  15.486  1.00  0.00     0.228 C 
HETATM   26  O1  UNL     1      14.820  74.790  15.935  1.00  0.00    -0.273 OA
HETATM   27  N3  UNL     1      15.408  73.311  14.245  1.00  0.00    -0.338 N 
ATOM     28  H3  UNL     1      16.089  72.580  14.043  1.00  0.00     0.167 HD
BRANCH  27  29
HETATM   29  C18 UNL     1      14.481  73.557  13.218  1.00  0.00     0.095 C 
BRANCH  29  30
HETATM   30  C19 UNL     1      14.284  72.614  12.102  1.00  0.00     0.159 C 
HETATM   31  C20 UNL     1      14.569  71.181  12.249  1.00  0.00     0.039 C 
HETATM   32  C21 UNL     1      13.182  70.562  11.962  1.00  0.00     0.029 C 
HETATM   33  C22 UNL     1      12.702  71.573  10.928  1.00  0.00     0.168 C 
HETATM   34  O2  UNL     1      13.055  72.789  11.442  1.00  0.00    -0.381 OA
ENDBRANCH  29  30
ENDBRANCH  27  29
ENDBRANCH   6  25
TORSDOF 6
ENDMDL
MODEL 5
REMARK VINA RESULT: -7.729368609      1.607      2.370
REMARK  6 active torsions:
REMARK  status: ('A' for Active; 'I' for Inactive)
REMARK    1  A    between atoms: C2_2  and  C5_5 
REMARK    2  A    between atoms: C5_5  and  C8_8 
REMARK    3  A    between atoms: C11_13  and  N2_14 
REMARK    4  A    between atoms: C16_19  and  C17_20 
REMARK       I    between atoms: C17_20  and  N3_22 
REMARK    5  A    between atoms: N3_22  and  C18_24 
REMARK    6  A    between atoms: C18_24  and  C19_25 
ROOT
HETATM    1  N2  UNL     1      20.387  71.064  17.604  1.00  0.00    -0.365 N 
HETATM    2  C12 UNL     1      20.480  72.137  18.583  1.00  0.00     0.127 C 
HETATM    3  C13 UNL     1      19.103  72.649  18.962  1.00  0.00     0.051 C 
HETATM    4  C14 UNL     1      18.494  73.451  17.838  1.00  0.00     0.124 C 
HETATM    5  C15 UNL     1      17.179  72.905  17.377  1.00  0.00     0.048 C 
HETATM    6  C16 UNL     1      17.567  72.103  16.174  1.00  0.00     0.111 C 
HETATM    7  C23 UNL     1      19.019  72.339  15.982  1.00  0.00     0.153 C 
HETATM    8  C24 UNL     1      19.858  71.113  16.282  1.00  0.00     0.157 C 
HETATM    9  O3  UNL     1      19.329  73.441  16.721  1.00  0.00    -0.378 OA
ENDROOT
BRANCH   1  10
HETATM   10  C11 UNL     1      20.909  69.837  18.099  1.00  0.00     0.105 A 
HETATM   11  C10 UNL     1      21.665  69.034  17.275  1.00  0.00     0.065 A 
HETATM   12  C9  UNL     1      22.162  67.857  17.774  1.00  0.00     0.093 A 
HETATM   13  N1  UNL     1      21.903  67.521  19.033  1.00  0.00    -0.355 N 
HETATM   14  C8  UNL     1      21.171  68.274  19.871  1.00  0.00     0.091 A 
ATOM     15  H1  UNL     1      22.282  66.641  19.383  1.00  0.00     0.166 HD
HETATM   16  N4  UNL     1      20.694  69.424  19.362  1.00  0.00    -0.332 N 
ATOM     17  H4  UNL     1      20.133  70.020  19.971  1.00  0.00     0.168 HD
BRANCH  14  18
HETATM   18  C5  UNL     1      20.875  67.927  21.263  1.00  0.00     0.018 C 
HETATM   19  C6  UNL     1      22.124  67.375  21.908  1.00  0.00     0.024 C 
HETATM   20  C7  UNL     1      20.530  69.232  21.972  1.00  0.00     0.024 C 
BRANCH  18  21
HETATM   21  C2  UNL     1      19.791  66.903  21.427  1.00  0.00    -0.037 C 
HETATM   22  C1  UNL     1      19.370  66.917  22.882  1.00  0.00     0.015 C 
HETATM   23  C3  UNL     1      18.587  67.131  20.581  1.00  0.00     0.015 C 
HETATM   24  C4  UNL     1      20.290  65.500  21.131  1.00  0.00     0.015 C 
ENDBRANCH  18  21
ENDBRANCH  14  18
ENDBRANCH   1  10
BRANCH   6  25
HETATM   25  C17 UNL     1      16.822  72.714  14.987  1.00  0.00     0.228 C 
HETATM   26  O1  UNL     1      16.646  73.928  15.062  1.00  0.00    -0.273 OA
HETATM   27  N3  UNL     1      16.404  71.906  13.948  1.00  0.00    -0.338 N 
ATOM     28  H3  UNL     1      16.625  70.917  14.058  1.00  0.00     0.167 HD
BRANCH  27  29
HETATM   29  C18 UNL     1      15.722  72.231  12.763  1.00  0.00     0.095 C 
BRANCH  29  30
HETATM   30  C19 UNL     1      14.304  71.885  12.557  1.00  0.00     0.159 C 
HETATM   31  C20 UNL     1      13.486  72.569  11.547  1.00  0.00     0.039 C 
HETATM   32  C21 UNL     1      13.077  71.391  10.635  1.00  0.00     0.029 C 
HETATM   33  C22 UNL     1      12.977  70.311  11.705  1.00  0.00     0.168 C 
HETATM   34  O2  UNL     1      14.079  70.499  12.491  1.00  0.00    -0.381 OA
ENDBRANCH  29  30
ENDBRANCH  27  29
ENDBRANCH   6  25
TORSDOF 6
ENDMDL
