MODEL 1
REMARK VINA RESULT: -5.674119779      0.000      0.000
REMARK  4 active torsions:
REMARK  status: ('A' for Active; 'I' for Inactive)
REMARK    1  A    between atoms: C2_2  and  C3_3 
REMARK    2  A    between atoms: C2_2  and  N2_7 
REMARK    3  A    between atoms: C3_3  and  C4_4 
REMARK    4  A    between atoms: C10_13  and  N3_14 
ROOT
HETATM    1  C4  UNL     1     -23.719 -10.344   1.193  1.00  0.00     0.126 C 
HETATM    2  C5  UNL     1     -22.784 -10.787   0.184  1.00  0.00     0.059 C 
HETATM    3  N1  UNL     1     -22.001 -11.149  -0.620  1.00  0.00    -0.197 NA
ENDROOT
BRANCH   1   4
HETATM    4  C3  UNL     1     -25.072 -10.887   0.953  1.00  0.00     0.039 C 
BRANCH   4   5
HETATM    5  C2  UNL     1     -26.138  -9.889   0.586  1.00  0.00     0.078 C 
HETATM    6  C1  UNL     1     -25.696  -8.576   1.238  1.00  0.00     0.032 C 
BRANCH   5   7
HETATM    7  N2  UNL     1     -27.409 -10.293   0.941  1.00  0.00    -0.390 N 
HETATM    8  C6  UNL     1     -28.464 -10.414   0.268  1.00  0.00     0.013 C 
HETATM    9  C7  UNL     1     -29.753 -10.874   0.859  1.00  0.00     0.054 C 
HETATM   10  C10 UNL     1     -28.771 -10.176  -1.164  1.00  0.00     0.228 C 
HETATM   11  C8  UNL     1     -30.321 -11.782  -0.211  1.00  0.00     0.008 C 
HETATM   12  C9  UNL     1     -29.905 -11.125  -1.488  1.00  0.00     0.039 C 
ATOM     13  H2  UNL     1     -27.511 -10.537   1.927  1.00  0.00     0.159 HD
BRANCH  10  14
HETATM   14  N3  UNL     1     -29.275  -8.830  -1.403  1.00  0.00    -0.070 N 
ATOM     15  H33 UNL     1     -30.295  -8.807  -1.370  1.00  0.00     0.275 HD
ATOM     16  H32 UNL     1     -29.073  -8.216  -0.615  1.00  0.00     0.275 HD
ATOM     17  H31 UNL     1     -28.925  -8.437  -2.277  1.00  0.00     0.275 HD
ENDBRANCH  10  14
ENDBRANCH   5   7
ENDBRANCH   4   5
ENDBRANCH   1   4
TORSDOF 4
ENDMDL
MODEL 2
REMARK VINA RESULT: -5.556441103      3.290      4.847
REMARK  4 active torsions:
REMARK  status: ('A' for Active; 'I' for Inactive)
REMARK    1  A    between atoms: C2_2  and  C3_3 
REMARK    2  A    between atoms: C2_2  and  N2_7 
REMARK    3  A    between atoms: C3_3  and  C4_4 
REMARK    4  A    between atoms: C10_13  and  N3_14 
ROOT
HETATM    1  C4  UNL     1     -24.495 -12.444  -3.829  1.00  0.00     0.126 C 
HETATM    2  C5  UNL     1     -23.539 -11.494  -4.352  1.00  0.00     0.059 C 
HETATM    3  N1  UNL     1     -22.780 -10.707  -4.793  1.00  0.00    -0.197 NA
ENDROOT
BRANCH   1   4
HETATM    4  C3  UNL     1     -24.129 -12.884  -2.466  1.00  0.00     0.039 C 
BRANCH   4   5
HETATM    5  C2  UNL     1     -23.624 -11.816  -1.532  1.00  0.00     0.078 C 
HETATM    6  C1  UNL     1     -22.231 -12.285  -1.105  1.00  0.00     0.032 C 
BRANCH   5   7
HETATM    7  N2  UNL     1     -24.480 -11.563  -0.479  1.00  0.00    -0.390 N 
HETATM    8  C6  UNL     1     -24.692 -10.521   0.191  1.00  0.00     0.013 C 
HETATM    9  C7  UNL     1     -25.678 -10.464   1.308  1.00  0.00     0.054 C 
HETATM   10  C10 UNL     1     -24.120  -9.154   0.126  1.00  0.00     0.228 C 
HETATM   11  C8  UNL     1     -26.329  -9.109   1.127  1.00  0.00     0.008 C 
HETATM   12  C9  UNL     1     -25.211  -8.243   0.643  1.00  0.00     0.039 C 
ATOM     13  H2  UNL     1     -25.041 -12.366  -0.193  1.00  0.00     0.159 HD
BRANCH  10  14
HETATM   14  N3  UNL     1     -22.982  -8.990   1.022  1.00  0.00    -0.070 N 
ATOM     15  H33 UNL     1     -22.157  -8.669   0.515  1.00  0.00     0.275 HD
ATOM     16  H32 UNL     1     -23.113  -8.191   1.641  1.00  0.00     0.275 HD
ATOM     17  H31 UNL     1     -22.784  -9.839   1.551  1.00  0.00     0.275 HD
ENDBRANCH  10  14
ENDBRANCH   5   7
ENDBRANCH   4   5
ENDBRANCH   1   4
TORSDOF 4
ENDMDL
MODEL 3
REMARK VINA RESULT: -5.549059023      2.370      3.392
REMARK  4 active torsions:
REMARK  status: ('A' for Active; 'I' for Inactive)
REMARK    1  A    between atoms: C2_2  and  C3_3 
REMARK    2  A    between atoms: C2_2  and  N2_7 
REMARK    3  A    between atoms: C3_3  and  C4_4 
REMARK    4  A    between atoms: C10_13  and  N3_14 
ROOT
HETATM    1  C4  UNL     1     -24.351 -12.578  -1.755  1.00  0.00     0.126 C 
HETATM    2  C5  UNL     1     -24.303 -12.281  -3.169  1.00  0.00     0.059 C 
HETATM    3  N1  UNL     1     -24.292 -12.044  -4.323  1.00  0.00    -0.197 NA
ENDROOT
BRANCH   1   4
HETATM    4  C3  UNL     1     -23.416 -11.725  -0.991  1.00  0.00     0.039 C 
BRANCH   4   5
HETATM    5  C2  UNL     1     -24.009 -10.507  -0.333  1.00  0.00     0.078 C 
HETATM    6  C1  UNL     1     -23.024 -10.133   0.777  1.00  0.00     0.032 C 
BRANCH   5   7
HETATM    7  N2  UNL     1     -25.304 -10.701   0.107  1.00  0.00    -0.390 N 
HETATM    8  C6  UNL     1     -26.206  -9.886   0.424  1.00  0.00     0.013 C 
HETATM    9  C7  UNL     1     -27.560 -10.315   0.882  1.00  0.00     0.054 C 
HETATM   10  C10 UNL     1     -26.252  -8.404   0.457  1.00  0.00     0.228 C 
HETATM   11  C8  UNL     1     -28.484  -9.323   0.209  1.00  0.00     0.008 C 
HETATM   12  C9  UNL     1     -27.705  -8.047   0.226  1.00  0.00     0.039 C 
ATOM     13  H2  UNL     1     -25.576 -11.681   0.188  1.00  0.00     0.159 HD
BRANCH  10  14
HETATM   14  N3  UNL     1     -25.897  -7.870   1.765  1.00  0.00    -0.070 N 
ATOM     15  H33 UNL     1     -26.597  -7.205   2.096  1.00  0.00     0.275 HD
ATOM     16  H32 UNL     1     -25.992  -8.580   2.491  1.00  0.00     0.275 HD
ATOM     17  H31 UNL     1     -24.964  -7.457   1.773  1.00  0.00     0.275 HD
ENDBRANCH  10  14
ENDBRANCH   5   7
ENDBRANCH   4   5
ENDBRANCH   1   4
TORSDOF 4
ENDMDL
MODEL 4
REMARK VINA RESULT: -5.469471658      1.548      5.550
REMARK  4 active torsions:
REMARK  status: ('A' for Active; 'I' for Inactive)
REMARK    1  A    between atoms: C2_2  and  C3_3 
REMARK    2  A    between atoms: C2_2  and  N2_7 
REMARK    3  A    between atoms: C3_3  and  C4_4 
REMARK    4  A    between atoms: C10_13  and  N3_14 
ROOT
HETATM    1  C4  UNL     1     -28.211  -9.498  -0.217  1.00  0.00     0.126 C 
HETATM    2  C5  UNL     1     -28.767 -10.311  -1.275  1.00  0.00     0.059 C 
HETATM    3  N1  UNL     1     -29.213 -10.953  -2.157  1.00  0.00    -0.197 NA
ENDROOT
BRANCH   1   4
HETATM    4  C3  UNL     1     -27.622 -10.332   0.852  1.00  0.00     0.039 C 
BRANCH   4   5
HETATM    5  C2  UNL     1     -26.122 -10.287   0.984  1.00  0.00     0.078 C 
HETATM    6  C1  UNL     1     -25.794  -8.829   1.316  1.00  0.00     0.032 C 
BRANCH   5   7
HETATM    7  N2  UNL     1     -25.462 -10.773  -0.127  1.00  0.00    -0.390 N 
HETATM    8  C6  UNL     1     -24.238 -10.931  -0.366  1.00  0.00     0.013 C 
HETATM    9  C7  UNL     1     -23.730 -11.481  -1.656  1.00  0.00     0.054 C 
HETATM   10  C10 UNL     1     -23.018 -10.666   0.435  1.00  0.00     0.228 C 
HETATM   11  C8  UNL     1     -22.594 -12.385  -1.223  1.00  0.00     0.008 C 
HETATM   12  C9  UNL     1     -21.995 -11.666  -0.059  1.00  0.00     0.039 C 
ATOM     13  H2  UNL     1     -26.077 -11.054  -0.891  1.00  0.00     0.159 HD
BRANCH  10  14
HETATM   14  N3  UNL     1     -22.465  -9.343   0.175  1.00  0.00    -0.070 N 
ATOM     15  H33 UNL     1     -21.503  -9.273   0.507  1.00  0.00     0.275 HD
ATOM     16  H32 UNL     1     -22.304  -9.201  -0.822  1.00  0.00     0.275 HD
ATOM     17  H31 UNL     1     -23.045  -8.599   0.564  1.00  0.00     0.275 HD
ENDBRANCH  10  14
ENDBRANCH   5   7
ENDBRANCH   4   5
ENDBRANCH   1   4
TORSDOF 4
ENDMDL
MODEL 5
REMARK VINA RESULT: -5.358945451      2.155      2.979
REMARK  4 active torsions:
REMARK  status: ('A' for Active; 'I' for Inactive)
REMARK    1  A    between atoms: C2_2  and  C3_3 
REMARK    2  A    between atoms: C2_2  and  N2_7 
REMARK    3  A    between atoms: C3_3  and  C4_4 
REMARK    4  A    between atoms: C10_13  and  N3_14 
ROOT
HETATM    1  C4  UNL     1     -22.379 -12.105  -0.856  1.00  0.00     0.126 C 
HETATM    2  C5  UNL     1     -21.644 -11.661  -2.019  1.00  0.00     0.059 C 
HETATM    3  N1  UNL     1     -21.027 -11.321  -2.965  1.00  0.00    -0.197 NA
ENDROOT
BRANCH   1   4
HETATM    4  C3  UNL     1     -23.816 -11.782  -0.970  1.00  0.00     0.039 C 
BRANCH   4   5
HETATM    5  C2  UNL     1     -24.296 -10.588  -0.186  1.00  0.00     0.078 C 
HETATM    6  C1  UNL     1     -23.308 -10.450   0.975  1.00  0.00     0.032 C 
BRANCH   5   7
HETATM    7  N2  UNL     1     -25.616 -10.689   0.208  1.00  0.00    -0.390 N 
HETATM    8  C6  UNL     1     -26.474  -9.812   0.478  1.00  0.00     0.013 C 
HETATM    9  C7  UNL     1     -27.868 -10.143   0.891  1.00  0.00     0.054 C 
HETATM   10  C10 UNL     1     -26.424  -8.329   0.484  1.00  0.00     0.228 C 
HETATM   11  C8  UNL     1     -28.700  -9.106   0.167  1.00  0.00     0.008 C 
HETATM   12  C9  UNL     1     -27.841  -7.884   0.193  1.00  0.00     0.039 C 
ATOM     13  H2  UNL     1     -25.955 -11.648   0.295  1.00  0.00     0.159 HD
BRANCH  10  14
HETATM   14  N3  UNL     1     -26.082  -7.795   1.796  1.00  0.00    -0.070 N 
ATOM     15  H33 UNL     1     -26.456  -8.382   2.542  1.00  0.00     0.275 HD
ATOM     16  H32 UNL     1     -25.087  -7.902   1.990  1.00  0.00     0.275 HD
ATOM     17  H31 UNL     1     -26.378  -6.825   1.906  1.00  0.00     0.275 HD
ENDBRANCH  10  14
ENDBRANCH   5   7
ENDBRANCH   4   5
ENDBRANCH   1   4
TORSDOF 4
ENDMDL
