MODEL 1
REMARK VINA RESULT: -5.284266176      0.000      0.000
REMARK  4 active torsions:
REMARK  status: ('A' for Active; 'I' for Inactive)
REMARK    1  A    between atoms: C1_2  and  C2_3 
REMARK    2  A    between atoms: C3_4  and  C4_5 
REMARK    3  A    between atoms: C4_5  and  O1_6 
REMARK    4  A    between atoms: O1_6  and  C5_7 
ROOT
HETATM    1  C5  UNL     1      33.164 -37.597  29.057  1.00  0.00     0.158 A 
HETATM    2  C6  UNL     1      31.812 -37.344  29.110  1.00  0.00     0.143 A 
HETATM    3  N1  UNL     1      31.353 -36.060  29.203  1.00  0.00    -0.370 N 
ATOM      4  H1  UNL     1      30.349 -35.884  29.242  1.00  0.00     0.164 HD
HETATM    5  C7  UNL     1      32.200 -35.040  29.244  1.00  0.00     0.104 A 
HETATM    6  C8  UNL     1      33.570 -35.279  29.190  1.00  0.00     0.107 A 
HETATM    7  N2  UNL     1      34.018 -36.562  29.098  1.00  0.00    -0.344 N 
ATOM      8  H2  UNL     1      35.021 -36.740  29.059  1.00  0.00     0.167 HD
ENDROOT
BRANCH   1   9
HETATM    9  O1  UNL     1      33.683 -38.872  28.963  1.00  0.00    -0.323 OA
BRANCH   9  10
HETATM   10  C4  UNL     1      33.342 -39.735  27.896  1.00  0.00     0.271 C 
BRANCH  10  11
HETATM   11  C3  UNL     1      34.376 -40.771  27.742  1.00  0.00    -0.079 C 
HETATM   12  C2  UNL     1      35.228 -41.626  27.624  1.00  0.00    -0.094 C 
BRANCH  12  13
HETATM   13  C1  UNL     1      36.266 -42.661  27.494  1.00  0.00     0.178 C 
HETATM   14 BR1  UNL     1      35.363 -44.360  27.373  1.00  0.00    -0.083 Br
ENDBRANCH  12  13
ENDBRANCH  10  11
ENDBRANCH   9  10
ENDBRANCH   1   9
TORSDOF 4
ENDMDL
MODEL 2
REMARK VINA RESULT: -5.250554930      2.180      2.186
REMARK  4 active torsions:
REMARK  status: ('A' for Active; 'I' for Inactive)
REMARK    1  A    between atoms: C1_2  and  C2_3 
REMARK    2  A    between atoms: C3_4  and  C4_5 
REMARK    3  A    between atoms: C4_5  and  O1_6 
REMARK    4  A    between atoms: O1_6  and  C5_7 
ROOT
HETATM    1  C5  UNL     1      33.105 -38.371  28.872  1.00  0.00     0.158 A 
HETATM    2  C6  UNL     1      31.831 -37.990  28.516  1.00  0.00     0.143 A 
HETATM    3  N1  UNL     1      31.481 -36.669  28.515  1.00  0.00    -0.370 N 
ATOM      4  H1  UNL     1      30.534 -36.398  28.250  1.00  0.00     0.164 HD
HETATM    5  C7  UNL     1      32.360 -35.736  28.857  1.00  0.00     0.104 A 
HETATM    6  C8  UNL     1      33.651 -36.105  29.218  1.00  0.00     0.107 A 
HETATM    7  N2  UNL     1      33.991 -37.424  29.216  1.00  0.00    -0.344 N 
ATOM      8  H2  UNL     1      34.937 -37.697  29.482  1.00  0.00     0.167 HD
ENDROOT
BRANCH   1   9
HETATM    9  O1  UNL     1      33.514 -39.690  28.891  1.00  0.00    -0.323 OA
BRANCH   9  10
HETATM   10  C4  UNL     1      33.881 -40.369  27.706  1.00  0.00     0.271 C 
BRANCH  10  11
HETATM   11  C3  UNL     1      35.348 -40.455  27.616  1.00  0.00    -0.079 C 
HETATM   12  C2  UNL     1      36.556 -40.533  27.547  1.00  0.00    -0.094 C 
BRANCH  12  13
HETATM   13  C1  UNL     1      38.023 -40.635  27.473  1.00  0.00     0.178 C 
HETATM   14 BR1  UNL     1      38.672 -38.979  26.728  1.00  0.00    -0.083 Br
ENDBRANCH  12  13
ENDBRANCH  10  11
ENDBRANCH   9  10
ENDBRANCH   1   9
TORSDOF 4
ENDMDL
MODEL 3
REMARK VINA RESULT: -5.234443956      2.250      3.329
REMARK  4 active torsions:
REMARK  status: ('A' for Active; 'I' for Inactive)
REMARK    1  A    between atoms: C1_2  and  C2_3 
REMARK    2  A    between atoms: C3_4  and  C4_5 
REMARK    3  A    between atoms: C4_5  and  O1_6 
REMARK    4  A    between atoms: O1_6  and  C5_7 
ROOT
HETATM    1  C5  UNL     1      33.054 -35.241  28.569  1.00  0.00     0.158 A 
HETATM    2  C6  UNL     1      34.298 -34.864  29.024  1.00  0.00     0.143 A 
HETATM    3  N1  UNL     1      35.130 -34.130  28.227  1.00  0.00    -0.370 N 
ATOM      4  H1  UNL     1      36.049 -33.856  28.574  1.00  0.00     0.164 HD
HETATM    5  C7  UNL     1      34.755 -33.769  27.007  1.00  0.00     0.104 A 
HETATM    6  C8  UNL     1      33.500 -34.142  26.534  1.00  0.00     0.107 A 
HETATM    7  N2  UNL     1      32.678 -34.874  27.334  1.00  0.00    -0.344 N 
ATOM      8  H2  UNL     1      31.759 -35.149  26.989  1.00  0.00     0.167 HD
ENDROOT
BRANCH   1   9
HETATM    9  O1  UNL     1      32.173 -35.983  29.330  1.00  0.00    -0.323 OA
BRANCH   9  10
HETATM   10  C4  UNL     1      31.628 -37.199  28.858  1.00  0.00     0.271 C 
BRANCH  10  11
HETATM   11  C3  UNL     1      32.685 -38.220  28.775  1.00  0.00    -0.079 C 
HETATM   12  C2  UNL     1      33.557 -39.059  28.698  1.00  0.00    -0.094 C 
BRANCH  12  13
HETATM   13  C1  UNL     1      34.613 -40.078  28.592  1.00  0.00     0.178 C 
HETATM   14 BR1  UNL     1      34.574 -40.752  26.786  1.00  0.00    -0.083 Br
ENDBRANCH  12  13
ENDBRANCH  10  11
ENDBRANCH   9  10
ENDBRANCH   1   9
TORSDOF 4
ENDMDL
MODEL 4
REMARK VINA RESULT: -5.231755360      2.986      2.991
REMARK  4 active torsions:
REMARK  status: ('A' for Active; 'I' for Inactive)
REMARK    1  A    between atoms: C1_2  and  C2_3 
REMARK    2  A    between atoms: C3_4  and  C4_5 
REMARK    3  A    between atoms: C4_5  and  O1_6 
REMARK    4  A    between atoms: O1_6  and  C5_7 
ROOT
HETATM    1  C5  UNL     1      33.524 -37.582  29.355  1.00  0.00     0.158 A 
HETATM    2  C6  UNL     1      32.195 -37.722  29.026  1.00  0.00     0.143 A 
HETATM    3  N1  UNL     1      31.467 -36.639  28.621  1.00  0.00    -0.370 N 
ATOM      4  H1  UNL     1      30.482 -36.754  28.380  1.00  0.00     0.164 HD
HETATM    5  C7  UNL     1      32.027 -35.440  28.537  1.00  0.00     0.104 A 
HETATM    6  C8  UNL     1      33.370 -35.283  28.865  1.00  0.00     0.107 A 
HETATM    7  N2  UNL     1      34.088 -36.367  29.268  1.00  0.00    -0.344 N 
ATOM      8  H2  UNL     1      35.072 -36.254  29.510  1.00  0.00     0.167 HD
ENDROOT
BRANCH   1   9
HETATM    9  O1  UNL     1      34.308 -38.641  29.771  1.00  0.00    -0.323 OA
BRANCH   9  10
HETATM   10  C4  UNL     1      34.971 -39.480  28.846  1.00  0.00     0.271 C 
BRANCH  10  11
HETATM   11  C3  UNL     1      36.357 -39.709  29.287  1.00  0.00    -0.079 C 
HETATM   12  C2  UNL     1      37.499 -39.890  29.653  1.00  0.00    -0.094 C 
BRANCH  12  13
HETATM   13  C1  UNL     1      38.887 -40.096  30.096  1.00  0.00     0.178 C 
HETATM   14 BR1  UNL     1      39.842 -38.456  29.757  1.00  0.00    -0.083 Br
ENDBRANCH  12  13
ENDBRANCH  10  11
ENDBRANCH   9  10
ENDBRANCH   1   9
TORSDOF 4
ENDMDL
MODEL 5
REMARK VINA RESULT: -5.158896307      1.130      1.153
REMARK  4 active torsions:
REMARK  status: ('A' for Active; 'I' for Inactive)
REMARK    1  A    between atoms: C1_2  and  C2_3 
REMARK    2  A    between atoms: C3_4  and  C4_5 
REMARK    3  A    between atoms: C4_5  and  O1_6 
REMARK    4  A    between atoms: O1_6  and  C5_7 
ROOT
HETATM    1  C5  UNL     1      33.542 -37.676  29.332  1.00  0.00     0.158 A 
HETATM    2  C6  UNL     1      32.216 -37.791  28.983  1.00  0.00     0.143 A 
HETATM    3  N1  UNL     1      31.508 -36.690  28.592  1.00  0.00    -0.370 N 
ATOM      4  H1  UNL     1      30.526 -36.786  28.335  1.00  0.00     0.164 HD
HETATM    5  C7  UNL     1      32.085 -35.496  28.542  1.00  0.00     0.104 A 
HETATM    6  C8  UNL     1      33.426 -35.364  28.891  1.00  0.00     0.107 A 
HETATM    7  N2  UNL     1      34.123 -36.467  29.280  1.00  0.00    -0.344 N 
ATOM      8  H2  UNL     1      35.105 -36.373  29.537  1.00  0.00     0.167 HD
ENDROOT
BRANCH   1   9
HETATM    9  O1  UNL     1      34.306 -38.754  29.734  1.00  0.00    -0.323 OA
BRANCH   9  10
HETATM   10  C4  UNL     1      35.511 -39.096  29.077  1.00  0.00     0.271 C 
BRANCH  10  11
HETATM   11  C3  UNL     1      35.384 -40.429  28.467  1.00  0.00    -0.079 C 
HETATM   12  C2  UNL     1      35.286 -41.531  27.969  1.00  0.00    -0.094 C 
BRANCH  12  13
HETATM   13  C1  UNL     1      35.179 -42.871  27.371  1.00  0.00     0.178 C 
HETATM   14 BR1  UNL     1      36.961 -43.600  27.285  1.00  0.00    -0.083 Br
ENDBRANCH  12  13
ENDBRANCH  10  11
ENDBRANCH   9  10
ENDBRANCH   1   9
TORSDOF 4
ENDMDL
