MODEL 1
REMARK VINA RESULT: -6.892853208      0.000      0.000
REMARK  2 active torsions:
REMARK  status: ('A' for Active; 'I' for Inactive)
REMARK    1  A    between atoms: C5_6  and  C6_7 
REMARK    2  A    between atoms: C6_7  and  N2_8 
ROOT
HETATM    1  N1  UNL     1      31.131 -37.210  28.606  1.00  0.00    -0.191 NA
HETATM    2  C1  UNL     1      32.068 -37.887  28.567  1.00  0.00     0.099 C 
HETATM    3  C2  UNL     1      33.243 -38.716  28.532  1.00  0.00     0.047 A 
HETATM    4  C3  UNL     1      34.291 -38.517  29.416  1.00  0.00     0.023 A 
HETATM    5  C4  UNL     1      35.423 -39.291  29.402  1.00  0.00     0.013 A 
HETATM    6  C5  UNL     1      35.581 -40.340  28.476  1.00  0.00     0.000 A 
HETATM    7  C10 UNL     1      34.545 -40.533  27.604  1.00  0.00     0.125 A 
HETATM    8  F1  UNL     1      34.613 -41.512  26.661  1.00  0.00    -0.205 F 
HETATM    9  C11 UNL     1      33.386 -39.737  27.623  1.00  0.00     0.065 A 
ENDROOT
BRANCH   6  10
HETATM   10  C6  UNL     1      36.815 -41.156  28.514  1.00  0.00     0.191 C 
BRANCH  10  11
HETATM   11  N2  UNL     1      37.902 -40.724  27.718  1.00  0.00    -0.284 N 
HETATM   12  C7  UNL     1      39.006 -41.440  27.565  1.00  0.00     0.200 A 
HETATM   13  N3  UNL     1      40.041 -40.979  26.797  1.00  0.00    -0.360 N 
HETATM   14  C8  UNL     1      39.964 -39.794  26.178  1.00  0.00     0.107 A 
ATOM     15  H3  UNL     1      40.883 -41.547  26.693  1.00  0.00     0.166 HD
HETATM   16  C9  UNL     1      38.809 -39.059  26.344  1.00  0.00     0.124 A 
HETATM   17  N4  UNL     1      37.834 -39.545  27.098  1.00  0.00    -0.307 N 
ATOM     18  H4  UNL     1      36.987 -38.987  27.210  1.00  0.00     0.186 HD
ENDBRANCH  10  11
ENDBRANCH   6  10
TORSDOF 2
ENDMDL
MODEL 2
REMARK VINA RESULT: -6.888533107      2.027      6.238
REMARK  2 active torsions:
REMARK  status: ('A' for Active; 'I' for Inactive)
REMARK    1  A    between atoms: C5_6  and  C6_7 
REMARK    2  A    between atoms: C6_7  and  N2_8 
ROOT
HETATM    1  N1  UNL     1      38.567 -42.022  27.757  1.00  0.00    -0.191 NA
HETATM    2  C1  UNL     1      37.549 -41.485  27.865  1.00  0.00     0.099 C 
HETATM    3  C2  UNL     1      36.277 -40.823  27.978  1.00  0.00     0.047 A 
HETATM    4  C3  UNL     1      35.287 -40.999  27.025  1.00  0.00     0.023 A 
HETATM    5  C4  UNL     1      34.067 -40.377  27.109  1.00  0.00     0.013 A 
HETATM    6  C5  UNL     1      33.754 -39.519  28.179  1.00  0.00     0.000 A 
HETATM    7  C10 UNL     1      34.734 -39.347  29.118  1.00  0.00     0.125 A 
HETATM    8  F1  UNL     1      34.532 -38.522  30.182  1.00  0.00    -0.205 F 
HETATM    9  C11 UNL     1      35.983 -39.987  29.029  1.00  0.00     0.065 A 
ENDROOT
BRANCH   6  10
HETATM   10  C6  UNL     1      32.417 -38.886  28.231  1.00  0.00     0.191 C 
BRANCH  10  11
HETATM   11  N2  UNL     1      32.363 -37.513  28.568  1.00  0.00    -0.284 N 
HETATM   12  C7  UNL     1      31.497 -37.025  29.444  1.00  0.00     0.200 A 
HETATM   13  N3  UNL     1      31.468 -35.687  29.732  1.00  0.00    -0.360 N 
HETATM   14  C8  UNL     1      32.315 -34.837  29.138  1.00  0.00     0.107 A 
ATOM     15  H3  UNL     1      30.792 -35.333  30.410  1.00  0.00     0.166 HD
HETATM   16  C9  UNL     1      33.212 -35.358  28.230  1.00  0.00     0.124 A 
HETATM   17  N4  UNL     1      33.203 -36.659  27.982  1.00  0.00    -0.307 N 
ATOM     18  H4  UNL     1      33.873 -37.026  27.306  1.00  0.00     0.186 HD
ENDBRANCH  10  11
ENDBRANCH   6  10
TORSDOF 2
ENDMDL
MODEL 3
REMARK VINA RESULT: -6.829187441      1.667      5.938
REMARK  2 active torsions:
REMARK  status: ('A' for Active; 'I' for Inactive)
REMARK    1  A    between atoms: C5_6  and  C6_7 
REMARK    2  A    between atoms: C6_7  and  N2_8 
ROOT
HETATM    1  N1  UNL     1      39.140 -41.444  27.117  1.00  0.00    -0.191 NA
HETATM    2  C1  UNL     1      38.121 -41.034  27.477  1.00  0.00     0.099 C 
HETATM    3  C2  UNL     1      36.862 -40.520  27.945  1.00  0.00     0.047 A 
HETATM    4  C3  UNL     1      36.770 -39.815  29.135  1.00  0.00     0.023 A 
HETATM    5  C4  UNL     1      35.581 -39.317  29.604  1.00  0.00     0.013 A 
HETATM    6  C5  UNL     1      34.379 -39.498  28.895  1.00  0.00     0.000 A 
HETATM    7  C10 UNL     1      34.474 -40.195  27.722  1.00  0.00     0.125 A 
HETATM    8  F1  UNL     1      33.363 -40.437  26.972  1.00  0.00    -0.205 F 
HETATM    9  C11 UNL     1      35.695 -40.704  27.243  1.00  0.00     0.065 A 
ENDROOT
BRANCH   6  10
HETATM   10  C6  UNL     1      33.127 -38.926  29.437  1.00  0.00     0.191 C 
BRANCH  10  11
HETATM   11  N2  UNL     1      32.871 -37.561  29.171  1.00  0.00    -0.284 N 
HETATM   12  C7  UNL     1      31.669 -37.107  28.846  1.00  0.00     0.200 A 
HETATM   13  N3  UNL     1      31.466 -35.780  28.583  1.00  0.00    -0.360 N 
HETATM   14  C8  UNL     1      32.477 -34.903  28.649  1.00  0.00     0.107 A 
ATOM     15  H3  UNL     1      30.532 -35.453  28.334  1.00  0.00     0.166 HD
HETATM   16  C9  UNL     1      33.722 -35.386  28.989  1.00  0.00     0.124 A 
HETATM   17  N4  UNL     1      33.871 -36.680  29.234  1.00  0.00    -0.307 N 
ATOM     18  H4  UNL     1      34.800 -37.020  29.484  1.00  0.00     0.186 HD
ENDBRANCH  10  11
ENDBRANCH   6  10
TORSDOF 2
ENDMDL
MODEL 4
REMARK VINA RESULT: -6.790968741      0.679      1.154
REMARK  2 active torsions:
REMARK  status: ('A' for Active; 'I' for Inactive)
REMARK    1  A    between atoms: C5_6  and  C6_7 
REMARK    2  A    between atoms: C6_7  and  N2_8 
ROOT
HETATM    1  N1  UNL     1      31.187 -37.189  28.628  1.00  0.00    -0.191 NA
HETATM    2  C1  UNL     1      32.120 -37.871  28.578  1.00  0.00     0.099 C 
HETATM    3  C2  UNL     1      33.290 -38.706  28.530  1.00  0.00     0.047 A 
HETATM    4  C3  UNL     1      34.348 -38.513  29.404  1.00  0.00     0.023 A 
HETATM    5  C4  UNL     1      35.476 -39.293  29.377  1.00  0.00     0.013 A 
HETATM    6  C5  UNL     1      35.620 -40.341  28.449  1.00  0.00     0.000 A 
HETATM    7  C10 UNL     1      34.574 -40.528  27.588  1.00  0.00     0.125 A 
HETATM    8  F1  UNL     1      34.627 -41.507  26.642  1.00  0.00    -0.205 F 
HETATM    9  C11 UNL     1      33.419 -39.727  27.619  1.00  0.00     0.065 A 
ENDROOT
BRANCH   6  10
HETATM   10  C6  UNL     1      36.850 -41.164  28.473  1.00  0.00     0.191 C 
BRANCH  10  11
HETATM   11  N2  UNL     1      37.939 -40.723  27.686  1.00  0.00    -0.284 N 
HETATM   12  C7  UNL     1      37.931 -39.570  27.035  1.00  0.00     0.200 A 
HETATM   13  N3  UNL     1      39.000 -39.185  26.272  1.00  0.00    -0.360 N 
HETATM   14  C8  UNL     1      40.084 -39.964  26.165  1.00  0.00     0.107 A 
ATOM     15  H3  UNL     1      38.971 -38.293  25.778  1.00  0.00     0.166 HD
HETATM   16  C9  UNL     1      40.082 -41.161  26.850  1.00  0.00     0.124 A 
HETATM   17  N4  UNL     1      39.023 -41.492  27.574  1.00  0.00    -0.307 N 
ATOM     18  H4  UNL     1      39.039 -42.382  28.073  1.00  0.00     0.186 HD
ENDBRANCH  10  11
ENDBRANCH   6  10
TORSDOF 2
ENDMDL
MODEL 5
REMARK VINA RESULT: -6.705081190      1.164      1.652
REMARK  2 active torsions:
REMARK  status: ('A' for Active; 'I' for Inactive)
REMARK    1  A    between atoms: C5_6  and  C6_7 
REMARK    2  A    between atoms: C6_7  and  N2_8 
ROOT
HETATM    1  N1  UNL     1      31.170 -37.221  28.698  1.00  0.00    -0.191 NA
HETATM    2  C1  UNL     1      32.090 -37.914  28.595  1.00  0.00     0.099 C 
HETATM    3  C2  UNL     1      33.222 -38.789  28.453  1.00  0.00     0.047 A 
HETATM    4  C3  UNL     1      33.262 -39.759  27.464  1.00  0.00     0.023 A 
HETATM    5  C4  UNL     1      34.330 -40.608  27.309  1.00  0.00     0.013 A 
HETATM    6  C5  UNL     1      35.451 -40.536  28.156  1.00  0.00     0.000 A 
HETATM    7  C10 UNL     1      35.407 -39.578  29.131  1.00  0.00     0.125 A 
HETATM    8  F1  UNL     1      36.438 -39.443  30.011  1.00  0.00    -0.205 F 
HETATM    9  C11 UNL     1      34.312 -38.710  29.287  1.00  0.00     0.065 A 
ENDROOT
BRANCH   6  10
HETATM   10  C6  UNL     1      36.583 -41.464  27.936  1.00  0.00     0.191 C 
BRANCH  10  11
HETATM   11  N2  UNL     1      37.828 -40.893  27.584  1.00  0.00    -0.284 N 
HETATM   12  C7  UNL     1      38.985 -41.384  28.004  1.00  0.00     0.200 A 
HETATM   13  N3  UNL     1      40.169 -40.794  27.653  1.00  0.00    -0.360 N 
HETATM   14  C8  UNL     1      40.189 -39.705  26.873  1.00  0.00     0.107 A 
ATOM     15  H3  UNL     1      41.047 -41.189  27.989  1.00  0.00     0.166 HD
HETATM   16  C9  UNL     1      38.980 -39.205  26.441  1.00  0.00     0.124 A 
HETATM   17  N4  UNL     1      37.859 -39.809  26.808  1.00  0.00    -0.307 N 
ATOM     18  H4  UNL     1      36.973 -39.424  26.480  1.00  0.00     0.186 HD
ENDBRANCH  10  11
ENDBRANCH   6  10
TORSDOF 2
ENDMDL
