MODEL 1
REMARK VINA RESULT: -6.954252194      0.000      0.000
REMARK  5 active torsions:
REMARK  status: ('A' for Active; 'I' for Inactive)
REMARK    1  A    between atoms: C4_4  and  C5_5 
REMARK    2  A    between atoms: C5_5  and  N1_6 
REMARK    3  A    between atoms: C5_5  and  C13_20 
REMARK       I    between atoms: N1_6  and  C7_8 
REMARK    4  A    between atoms: C7_8  and  C8_10 
REMARK    5  A    between atoms: C9_11  and  C10_12 
ROOT
HETATM    1  N1  UNL     1      -3.905   3.615  14.560  1.00  0.00    -0.341 N 
HETATM    2  C6  UNL     1      -2.949   3.327  15.606  1.00  0.00     0.154 C 
HETATM    3  C7  UNL     1      -5.179   2.965  14.687  1.00  0.00     0.258 C 
HETATM    4  O1  UNL     1      -6.042   3.187  13.810  1.00  0.00    -0.267 OA
ENDROOT
BRANCH   1   5
HETATM    5  C5  UNL     1      -3.579   4.498  13.471  1.00  0.00     0.153 C 
BRANCH   5   6
HETATM    6  C4  UNL     1      -2.461   4.011  12.620  1.00  0.00     0.102 A 
HETATM    7  C3  UNL     1      -2.437   3.819  11.255  1.00  0.00     0.063 A 
HETATM    8  C2  UNL     1      -1.185   3.359  10.935  1.00  0.00     0.031 A 
HETATM    9  C1  UNL     1      -0.693   3.015   9.594  1.00  0.00     0.070 C 
HETATM   10  N4  UNL     1      -0.497   3.282  12.062  1.00  0.00    -0.266 N 
HETATM   11  O2  UNL     1      -1.242   3.660  13.026  1.00  0.00    -0.240 OA
ATOM     12  H4  UNL     1       0.470   2.972  12.147  1.00  0.00     0.194 HD
ENDBRANCH   5   6
BRANCH   5  13
HETATM   13  C13 UNL     1      -3.500   5.944  13.794  1.00  0.00    -0.025 C 
HETATM   14  C14 UNL     1      -4.394   6.209  14.998  1.00  0.00     0.017 C 
HETATM   15  C15 UNL     1      -2.172   6.548  14.014  1.00  0.00     0.017 C 
HETATM   16  C16 UNL     1      -4.171   6.719  12.645  1.00  0.00     0.017 C 
ENDBRANCH   5  13
ENDBRANCH   1   5
BRANCH   3  17
HETATM   17  C8  UNL     1      -5.517   2.068  15.772  1.00  0.00     0.082 A 
HETATM   18  C9  UNL     1      -5.114   0.758  15.930  1.00  0.00     0.071 A 
HETATM   19  N2  UNL     1      -5.688   0.351  17.090  1.00  0.00    -0.301 N 
HETATM   20  N3  UNL     1      -6.395   1.331  17.617  1.00  0.00    -0.304 N 
ATOM     21  H2  UNL     1      -5.587  -0.579  17.497  1.00  0.00     0.186 HD
HETATM   22  C11 UNL     1      -6.336   2.428  16.853  1.00  0.00     0.039 A 
ATOM     23  H3  UNL     1      -6.918   1.262  18.490  1.00  0.00     0.186 HD
HETATM   24  C12 UNL     1      -6.979   3.752  17.069  1.00  0.00     0.071 C 
BRANCH  18  25
HETATM   25  C10 UNL     1      -4.239  -0.056  15.036  1.00  0.00     0.281 C 
HETATM   26  F1  UNL     1      -4.603   0.221  13.716  1.00  0.00    -0.249 F 
ENDBRANCH  18  25
ENDBRANCH   3  17
TORSDOF 5
ENDMDL
MODEL 2
REMARK VINA RESULT: -6.711825202      3.229      6.098
REMARK  5 active torsions:
REMARK  status: ('A' for Active; 'I' for Inactive)
REMARK    1  A    between atoms: C4_4  and  C5_5 
REMARK    2  A    between atoms: C5_5  and  N1_6 
REMARK    3  A    between atoms: C5_5  and  C13_20 
REMARK       I    between atoms: N1_6  and  C7_8 
REMARK    4  A    between atoms: C7_8  and  C8_10 
REMARK    5  A    between atoms: C9_11  and  C10_12 
ROOT
HETATM    1  N1  UNL     1      -3.314   4.526  13.296  1.00  0.00    -0.341 N 
HETATM    2  C6  UNL     1      -3.872   5.318  12.222  1.00  0.00     0.154 C 
HETATM    3  C7  UNL     1      -2.058   4.987  13.820  1.00  0.00     0.258 C 
HETATM    4  O1  UNL     1      -1.539   4.339  14.753  1.00  0.00    -0.267 OA
ENDROOT
BRANCH   1   5
HETATM    5  C5  UNL     1      -3.989   3.356  13.791  1.00  0.00     0.153 C 
BRANCH   5   6
HETATM    6  C4  UNL     1      -4.396   2.403  12.723  1.00  0.00     0.102 A 
HETATM    7  C3  UNL     1      -3.996   1.098  12.536  1.00  0.00     0.063 A 
HETATM    8  C2  UNL     1      -4.643   0.635  11.417  1.00  0.00     0.031 A 
HETATM    9  C1  UNL     1      -4.529  -0.706  10.830  1.00  0.00     0.070 C 
HETATM   10  N4  UNL     1      -5.393   1.625  10.963  1.00  0.00    -0.266 N 
HETATM   11  O2  UNL     1      -5.243   2.638  11.723  1.00  0.00    -0.240 OA
ATOM     12  H4  UNL     1      -5.993   1.586  10.141  1.00  0.00     0.194 HD
ENDBRANCH   5   6
BRANCH   5  13
HETATM   13  C13 UNL     1      -5.033   3.582  14.821  1.00  0.00    -0.025 C 
HETATM   14  C14 UNL     1      -4.958   5.037  15.259  1.00  0.00     0.017 C 
HETATM   15  C15 UNL     1      -6.429   3.226  14.504  1.00  0.00     0.017 C 
HETATM   16  C16 UNL     1      -4.631   2.785  16.077  1.00  0.00     0.017 C 
ENDBRANCH   5  13
ENDBRANCH   1   5
BRANCH   3  17
HETATM   17  C8  UNL     1      -1.364   6.158  13.326  1.00  0.00     0.082 A 
HETATM   18  C9  UNL     1      -1.452   7.447  13.807  1.00  0.00     0.071 A 
HETATM   19  N2  UNL     1      -0.621   8.175  13.019  1.00  0.00    -0.301 N 
HETATM   20  N3  UNL     1      -0.057   7.400  12.115  1.00  0.00    -0.304 N 
ATOM     21  H2  UNL     1      -0.456   9.177  13.113  1.00  0.00     0.186 HD
HETATM   22  C11 UNL     1      -0.471   6.133  12.244  1.00  0.00     0.039 A 
ATOM     23  H3  UNL     1       0.607   7.722  11.410  1.00  0.00     0.186 HD
HETATM   24  C12 UNL     1      -0.091   4.940  11.441  1.00  0.00     0.071 C 
BRANCH  18  25
HETATM   25  C10 UNL     1      -2.273   7.957  14.945  1.00  0.00     0.281 C 
HETATM   26  F1  UNL     1      -1.406   8.562  15.859  1.00  0.00    -0.249 F 
ENDBRANCH  18  25
ENDBRANCH   3  17
TORSDOF 5
ENDMDL
MODEL 3
REMARK VINA RESULT: -6.682459357      1.548      2.320
REMARK  5 active torsions:
REMARK  status: ('A' for Active; 'I' for Inactive)
REMARK    1  A    between atoms: C4_4  and  C5_5 
REMARK    2  A    between atoms: C5_5  and  N1_6 
REMARK    3  A    between atoms: C5_5  and  C13_20 
REMARK       I    between atoms: N1_6  and  C7_8 
REMARK    4  A    between atoms: C7_8  and  C8_10 
REMARK    5  A    between atoms: C9_11  and  C10_12 
ROOT
HETATM    1  N1  UNL     1      -4.097   3.658  13.923  1.00  0.00    -0.341 N 
HETATM    2  C6  UNL     1      -3.328   3.974  15.106  1.00  0.00     0.154 C 
HETATM    3  C7  UNL     1      -5.153   2.702  14.105  1.00  0.00     0.258 C 
HETATM    4  O1  UNL     1      -5.850   2.400  13.113  1.00  0.00    -0.267 OA
ENDROOT
BRANCH   1   5
HETATM    5  C5  UNL     1      -3.805   4.273  12.655  1.00  0.00     0.153 C 
BRANCH   5   6
HETATM    6  C4  UNL     1      -2.440   3.975  12.145  1.00  0.00     0.102 A 
HETATM    7  C3  UNL     1      -2.022   3.818  10.841  1.00  0.00     0.063 A 
HETATM    8  C2  UNL     1      -0.676   3.554  10.879  1.00  0.00     0.031 A 
HETATM    9  C1  UNL     1       0.204   3.316   9.727  1.00  0.00     0.070 C 
HETATM   10  N4  UNL     1      -0.314   3.555  12.151  1.00  0.00    -0.266 N 
HETATM   11  O2  UNL     1      -1.338   3.798  12.870  1.00  0.00    -0.240 OA
ATOM     12  H4  UNL     1       0.630   3.389  12.499  1.00  0.00     0.194 HD
ENDBRANCH   5   6
BRANCH   5  13
HETATM   13  C13 UNL     1      -4.204   5.694  12.502  1.00  0.00    -0.025 C 
HETATM   14  C14 UNL     1      -5.467   5.921  13.321  1.00  0.00     0.017 C 
HETATM   15  C15 UNL     1      -3.214   6.743  12.807  1.00  0.00     0.017 C 
HETATM   16  C16 UNL     1      -4.656   5.899  11.044  1.00  0.00     0.017 C 
ENDBRANCH   5  13
ENDBRANCH   1   5
BRANCH   3  17
HETATM   17  C8  UNL     1      -5.452   2.069  15.373  1.00  0.00     0.082 A 
HETATM   18  C9  UNL     1      -6.188   2.593  16.415  1.00  0.00     0.071 A 
HETATM   19  N2  UNL     1      -6.183   1.628  17.369  1.00  0.00    -0.301 N 
HETATM   20  N3  UNL     1      -5.497   0.582  16.955  1.00  0.00    -0.304 N 
ATOM     21  H2  UNL     1      -6.644   1.701  18.277  1.00  0.00     0.186 HD
HETATM   22  C11 UNL     1      -5.012   0.784  15.724  1.00  0.00     0.039 A 
ATOM     23  H3  UNL     1      -5.354  -0.269  17.500  1.00  0.00     0.186 HD
HETATM   24  C12 UNL     1      -4.191  -0.127  14.883  1.00  0.00     0.071 C 
BRANCH  18  25
HETATM   25  C10 UNL     1      -6.855   3.925  16.501  1.00  0.00     0.281 C 
HETATM   26  F1  UNL     1      -7.205   4.143  17.836  1.00  0.00    -0.249 F 
ENDBRANCH  18  25
ENDBRANCH   3  17
TORSDOF 5
ENDMDL
MODEL 4
REMARK VINA RESULT: -6.679444887      2.932      5.730
REMARK  5 active torsions:
REMARK  status: ('A' for Active; 'I' for Inactive)
REMARK    1  A    between atoms: C4_4  and  C5_5 
REMARK    2  A    between atoms: C5_5  and  N1_6 
REMARK    3  A    between atoms: C5_5  and  C13_20 
REMARK       I    between atoms: N1_6  and  C7_8 
REMARK    4  A    between atoms: C7_8  and  C8_10 
REMARK    5  A    between atoms: C9_11  and  C10_12 
ROOT
HETATM    1  N1  UNL     1      -3.272   4.508  13.257  1.00  0.00    -0.341 N 
HETATM    2  C6  UNL     1      -3.816   5.280  12.162  1.00  0.00     0.154 C 
HETATM    3  C7  UNL     1      -2.006   4.958  13.765  1.00  0.00     0.258 C 
HETATM    4  O1  UNL     1      -1.497   4.326  14.716  1.00  0.00    -0.267 OA
ENDROOT
BRANCH   1   5
HETATM    5  C5  UNL     1      -3.970   3.367  13.787  1.00  0.00     0.153 C 
BRANCH   5   6
HETATM    6  C4  UNL     1      -4.379   2.382  12.751  1.00  0.00     0.102 A 
HETATM    7  C3  UNL     1      -3.977   1.072  12.601  1.00  0.00     0.063 A 
HETATM    8  C2  UNL     1      -4.628   0.575  11.499  1.00  0.00     0.031 A 
HETATM    9  C1  UNL     1      -4.514  -0.784  10.952  1.00  0.00     0.070 C 
HETATM   10  N4  UNL     1      -5.382   1.549  11.019  1.00  0.00    -0.266 N 
HETATM   11  O2  UNL     1      -5.230   2.585  11.748  1.00  0.00    -0.240 OA
ATOM     12  H4  UNL     1      -5.986   1.483  10.200  1.00  0.00     0.194 HD
ENDBRANCH   5   6
BRANCH   5  13
HETATM   13  C13 UNL     1      -5.021   3.646  14.796  1.00  0.00    -0.025 C 
HETATM   14  C14 UNL     1      -4.875   5.093  15.244  1.00  0.00     0.017 C 
HETATM   15  C15 UNL     1      -6.428   3.369  14.447  1.00  0.00     0.017 C 
HETATM   16  C16 UNL     1      -4.691   2.823  16.056  1.00  0.00     0.017 C 
ENDBRANCH   5  13
ENDBRANCH   1   5
BRANCH   3  17
HETATM   17  C8  UNL     1      -1.289   6.099  13.237  1.00  0.00     0.082 A 
HETATM   18  C9  UNL     1      -0.380   6.108  12.198  1.00  0.00     0.071 A 
HETATM   19  N2  UNL     1       0.010   7.402  12.083  1.00  0.00    -0.301 N 
HETATM   20  N3  UNL     1      -0.606   8.145  12.981  1.00  0.00    -0.304 N 
ATOM     21  H2  UNL     1       0.684   7.750  11.401  1.00  0.00     0.186 HD
HETATM   22  C11 UNL     1      -1.428   7.404  13.733  1.00  0.00     0.039 A 
ATOM     23  H3  UNL     1      -0.474   9.151  13.087  1.00  0.00     0.186 HD
HETATM   24  C12 UNL     1      -2.310   7.832  14.851  1.00  0.00     0.071 C 
BRANCH  18  25
HETATM   25  C10 UNL     1       0.087   4.960  11.367  1.00  0.00     0.281 C 
HETATM   26  F1  UNL     1      -0.977   4.562  10.552  1.00  0.00    -0.249 F 
ENDBRANCH  18  25
ENDBRANCH   3  17
TORSDOF 5
ENDMDL
MODEL 5
REMARK VINA RESULT: -6.404752789      2.853      6.453
REMARK  5 active torsions:
REMARK  status: ('A' for Active; 'I' for Inactive)
REMARK    1  A    between atoms: C4_4  and  C5_5 
REMARK    2  A    between atoms: C5_5  and  N1_6 
REMARK    3  A    between atoms: C5_5  and  C13_20 
REMARK       I    between atoms: N1_6  and  C7_8 
REMARK    4  A    between atoms: C7_8  and  C8_10 
REMARK    5  A    between atoms: C9_11  and  C10_12 
ROOT
HETATM    1  N1  UNL     1      -3.819   3.589  12.221  1.00  0.00    -0.341 N 
HETATM    2  C6  UNL     1      -2.705   4.133  12.967  1.00  0.00     0.154 C 
HETATM    3  C7  UNL     1      -4.186   4.313  11.037  1.00  0.00     0.258 C 
HETATM    4  O1  UNL     1      -5.140   3.879  10.355  1.00  0.00    -0.267 OA
ENDROOT
BRANCH   1   5
HETATM    5  C5  UNL     1      -4.500   2.398  12.656  1.00  0.00     0.153 C 
BRANCH   5   6
HETATM    6  C4  UNL     1      -4.732   2.344  14.124  1.00  0.00     0.102 A 
HETATM    7  C3  UNL     1      -5.881   2.642  14.825  1.00  0.00     0.063 A 
HETATM    8  C2  UNL     1      -5.604   2.442  16.155  1.00  0.00     0.031 A 
HETATM    9  C1  UNL     1      -6.527   2.632  17.281  1.00  0.00     0.070 C 
HETATM   10  N4  UNL     1      -4.345   2.043  16.235  1.00  0.00    -0.266 N 
HETATM   11  O2  UNL     1      -3.854   1.991  15.060  1.00  0.00    -0.240 OA
ATOM     12  H4  UNL     1      -3.849   1.816  17.096  1.00  0.00     0.194 HD
ENDBRANCH   5   6
BRANCH   5  13
HETATM   13  C13 UNL     1      -4.024   1.116  12.078  1.00  0.00    -0.025 C 
HETATM   14  C14 UNL     1      -4.998   0.700  10.985  1.00  0.00     0.017 C 
HETATM   15  C15 UNL     1      -2.641   1.039  11.571  1.00  0.00     0.017 C 
HETATM   16  C16 UNL     1      -4.178   0.030  13.158  1.00  0.00     0.017 C 
ENDBRANCH   5  13
ENDBRANCH   1   5
BRANCH   3  17
HETATM   17  C8  UNL     1      -3.516   5.517  10.592  1.00  0.00     0.082 A 
HETATM   18  C9  UNL     1      -2.387   5.603   9.804  1.00  0.00     0.071 A 
HETATM   19  N2  UNL     1      -2.153   6.932   9.668  1.00  0.00    -0.301 N 
HETATM   20  N3  UNL     1      -3.065   7.624  10.320  1.00  0.00    -0.304 N 
ATOM     21  H2  UNL     1      -1.382   7.338   9.137  1.00  0.00     0.186 HD
HETATM   22  C11 UNL     1      -3.944   6.812  10.919  1.00  0.00     0.039 A 
ATOM     23  H3  UNL     1      -3.097   8.643  10.363  1.00  0.00     0.186 HD
HETATM   24  C12 UNL     1      -5.125   7.166  11.752  1.00  0.00     0.071 C 
BRANCH  18  25
HETATM   25  C10 UNL     1      -1.581   4.492   9.216  1.00  0.00     0.281 C 
HETATM   26  F1  UNL     1      -0.911   3.852  10.263  1.00  0.00    -0.249 F 
ENDBRANCH  18  25
ENDBRANCH   3  17
TORSDOF 5
ENDMDL
