MODEL 1
REMARK VINA RESULT: -5.497864570      0.000      0.000
REMARK  10 active torsions:
REMARK  status: ('A' for Active; 'I' for Inactive)
REMARK    1  A    between atoms: C4_5  and  C5_6 
REMARK    2  A    between atoms: C6_9  and  C7_10 
REMARK    3  A    between atoms: C7_10  and  N2_11 
REMARK    4  A    between atoms: N2_11  and  C8_12 
REMARK    5  A    between atoms: N2_11  and  C10_16 
REMARK    6  A    between atoms: C8_12  and  C9_13 
REMARK    7  A    between atoms: C9_13  and  O1_14 
REMARK    8  A    between atoms: C10_16  and  O2_18 
REMARK    9  A    between atoms: O2_18  and  C11_19 
REMARK   10  A    between atoms: C11_19  and  C12_20 
ROOT
HETATM    1  C5  UNL     1      10.847 -13.237   3.427  1.00  0.00     0.108 A 
HETATM    2  N1  UNL     1      11.103 -13.630   4.642  1.00  0.00    -0.350 N 
ATOM      3  H1  UNL     1      11.527 -12.979   5.303  1.00  0.00     0.166 HD
HETATM    4  C6  UNL     1      10.827 -14.841   5.019  1.00  0.00     0.034 A 
HETATM    5  C15 UNL     1      10.251 -15.670   4.064  1.00  0.00     0.078 A 
HETATM    6  S3  UNL     1      10.163 -14.635   2.719  1.00  0.00    -0.079 SA
ENDROOT
BRANCH   4   7
HETATM    7  C7  UNL     1      11.082 -15.348   6.421  1.00  0.00     0.183 C 
BRANCH   7   8
HETATM    8  N2  UNL     1      10.289 -14.694   7.398  1.00  0.00    -0.345 N 
BRANCH   8   9
HETATM    9  C8  UNL     1      10.769 -13.574   8.158  1.00  0.00     0.152 C 
BRANCH   9  10
HETATM   10  C9  UNL     1      12.233 -13.341   8.181  1.00  0.00     0.184 C 
BRANCH  10  11
HETATM   11  O1  UNL     1      12.508 -12.377   7.183  1.00  0.00    -0.399 OA
ATOM     12  H1  UNL     1      11.789 -11.756   7.197  1.00  0.00     0.209 HD
ENDBRANCH  10  11
ENDBRANCH   9  10
ENDBRANCH   8   9
BRANCH   8  13
HETATM   13  C10 UNL     1       8.966 -15.143   7.665  1.00  0.00     0.212 C 
HETATM   14  S2  UNL     1       8.584 -16.699   7.451  1.00  0.00    -0.033 SA
BRANCH  13  15
HETATM   15  O2  UNL     1       8.029 -14.237   8.103  1.00  0.00    -0.327 OA
BRANCH  15  16
HETATM   16  C11 UNL     1       7.236 -14.465   9.268  1.00  0.00     0.182 C 
BRANCH  16  17
HETATM   17  C12 UNL     1       7.343 -13.323  10.236  1.00  0.00     0.002 C 
HETATM   18  C13 UNL     1       8.459 -13.684  11.226  1.00  0.00     0.011 C 
HETATM   19  C14 UNL     1       6.019 -13.234  10.984  1.00  0.00     0.011 C 
ENDBRANCH  16  17
ENDBRANCH  15  16
ENDBRANCH  13  15
ENDBRANCH   8  13
ENDBRANCH   7   8
ENDBRANCH   4   7
BRANCH   1  20
HETATM   20  C4  UNL     1      11.087 -11.916   2.785  1.00  0.00     0.108 A 
HETATM   21  S1  UNL     1      10.816 -11.455   1.171  1.00  0.00    -0.080 SA
HETATM   22  C3  UNL     1      11.356  -9.819   1.289  1.00  0.00     0.076 A 
HETATM   23  C2  UNL     1      11.716  -9.756   2.612  1.00  0.00     0.012 A 
HETATM   24  C1  UNL     1      12.267  -8.454   3.171  1.00  0.00     0.068 C 
HETATM   25  N3  UNL     1      11.567 -10.823   3.327  1.00  0.00    -0.352 N 
ATOM     26  H3  UNL     1      11.824 -10.815   4.314  1.00  0.00     0.166 HD
ENDBRANCH   1  20
TORSDOF 10
ENDMDL
MODEL 2
REMARK VINA RESULT: -5.410963883      6.600      9.585
REMARK  10 active torsions:
REMARK  status: ('A' for Active; 'I' for Inactive)
REMARK    1  A    between atoms: C4_5  and  C5_6 
REMARK    2  A    between atoms: C6_9  and  C7_10 
REMARK    3  A    between atoms: C7_10  and  N2_11 
REMARK    4  A    between atoms: N2_11  and  C8_12 
REMARK    5  A    between atoms: N2_11  and  C10_16 
REMARK    6  A    between atoms: C8_12  and  C9_13 
REMARK    7  A    between atoms: C9_13  and  O1_14 
REMARK    8  A    between atoms: C10_16  and  O2_18 
REMARK    9  A    between atoms: O2_18  and  C11_19 
REMARK   10  A    between atoms: C11_19  and  C12_20 
ROOT
HETATM    1  C5  UNL     1       9.904 -16.850   3.115  1.00  0.00     0.108 A 
HETATM    2  N1  UNL     1       9.058 -17.472   2.346  1.00  0.00    -0.350 N 
ATOM      3  H1  UNL     1       8.584 -16.961   1.601  1.00  0.00     0.166 HD
HETATM    4  C6  UNL     1       8.811 -18.735   2.516  1.00  0.00     0.034 A 
HETATM    5  C15 UNL     1       9.494 -19.365   3.549  1.00  0.00     0.078 A 
HETATM    6  S3  UNL     1      10.423 -18.086   4.176  1.00  0.00    -0.079 SA
ENDROOT
BRANCH   4   7
HETATM    7  C7  UNL     1       7.855 -19.515   1.641  1.00  0.00     0.183 C 
BRANCH   7   8
HETATM    8  N2  UNL     1       8.326 -19.672   0.312  1.00  0.00    -0.345 N 
BRANCH   8   9
HETATM    9  C8  UNL     1       7.906 -18.814  -0.761  1.00  0.00     0.152 C 
BRANCH   9  10
HETATM   10  C9  UNL     1       6.806 -19.297  -1.631  1.00  0.00     0.184 C 
BRANCH  10  11
HETATM   11  O1  UNL     1       7.076 -18.814  -2.934  1.00  0.00    -0.399 OA
ATOM     12  H1  UNL     1       6.239 -18.742  -3.377  1.00  0.00     0.209 HD
ENDBRANCH  10  11
ENDBRANCH   9  10
ENDBRANCH   8   9
BRANCH   8  13
HETATM   13  C10 UNL     1       9.243 -20.711  -0.006  1.00  0.00     0.212 C 
HETATM   14  S2  UNL     1       9.222 -22.091   0.835  1.00  0.00    -0.033 SA
BRANCH  13  15
HETATM   15  O2  UNL     1      10.139 -20.519  -1.031  1.00  0.00    -0.327 OA
BRANCH  15  16
HETATM   16  C11 UNL     1      10.271 -21.445  -2.110  1.00  0.00     0.182 C 
BRANCH  16  17
HETATM   17  C12 UNL     1       9.844 -20.834  -3.412  1.00  0.00     0.002 C 
HETATM   18  C13 UNL     1       8.701 -21.702  -3.955  1.00  0.00     0.011 C 
HETATM   19  C14 UNL     1      11.030 -20.915  -4.365  1.00  0.00     0.011 C 
ENDBRANCH  16  17
ENDBRANCH  15  16
ENDBRANCH  13  15
ENDBRANCH   8  13
ENDBRANCH   7   8
ENDBRANCH   4   7
BRANCH   1  20
HETATM   20  C4  UNL     1      10.325 -15.422   3.107  1.00  0.00     0.108 A 
HETATM   21  S1  UNL     1      10.669 -14.408   4.428  1.00  0.00    -0.080 SA
HETATM   22  C3  UNL     1      11.053 -12.975   3.544  1.00  0.00     0.076 A 
HETATM   23  C2  UNL     1      10.879 -13.408   2.254  1.00  0.00     0.012 A 
HETATM   24  C1  UNL     1      11.117 -12.440   1.106  1.00  0.00     0.068 C 
HETATM   25  N3  UNL     1      10.515 -14.636   2.076  1.00  0.00    -0.352 N 
ATOM     26  H3  UNL     1      10.376 -14.995   1.131  1.00  0.00     0.166 HD
ENDBRANCH   1  20
TORSDOF 10
ENDMDL
MODEL 3
REMARK VINA RESULT: -5.394014322      3.626      7.498
REMARK  10 active torsions:
REMARK  status: ('A' for Active; 'I' for Inactive)
REMARK    1  A    between atoms: C4_5  and  C5_6 
REMARK    2  A    between atoms: C6_9  and  C7_10 
REMARK    3  A    between atoms: C7_10  and  N2_11 
REMARK    4  A    between atoms: N2_11  and  C8_12 
REMARK    5  A    between atoms: N2_11  and  C10_16 
REMARK    6  A    between atoms: C8_12  and  C9_13 
REMARK    7  A    between atoms: C9_13  and  O1_14 
REMARK    8  A    between atoms: C10_16  and  O2_18 
REMARK    9  A    between atoms: O2_18  and  C11_19 
REMARK   10  A    between atoms: C11_19  and  C12_20 
ROOT
HETATM    1  C5  UNL     1       8.502 -17.690   3.494  1.00  0.00     0.108 A 
HETATM    2  N1  UNL     1       9.538 -16.937   3.264  1.00  0.00    -0.350 N 
ATOM      3  H1  UNL     1       9.843 -16.778   2.304  1.00  0.00     0.166 HD
HETATM    4  C6  UNL     1      10.188 -16.386   4.244  1.00  0.00     0.034 A 
HETATM    5  C15 UNL     1       9.714 -16.648   5.524  1.00  0.00     0.078 A 
HETATM    6  S3  UNL     1       8.386 -17.656   5.199  1.00  0.00    -0.079 SA
ENDROOT
BRANCH   4   7
HETATM    7  C7  UNL     1      11.386 -15.486   4.039  1.00  0.00     0.183 C 
BRANCH   7   8
HETATM    8  N2  UNL     1      11.032 -14.120   3.892  1.00  0.00    -0.345 N 
BRANCH   8   9
HETATM    9  C8  UNL     1      10.694 -13.286   5.011  1.00  0.00     0.152 C 
BRANCH   9  10
HETATM   10  C9  UNL     1      11.515 -13.423   6.237  1.00  0.00     0.184 C 
BRANCH  10  11
HETATM   11  O1  UNL     1      12.578 -12.496   6.122  1.00  0.00    -0.399 OA
ATOM     12  H1  UNL     1      13.026 -12.694   5.308  1.00  0.00     0.209 HD
ENDBRANCH  10  11
ENDBRANCH   9  10
ENDBRANCH   8   9
BRANCH   8  13
HETATM   13  C10 UNL     1      10.993 -13.525   2.600  1.00  0.00     0.212 C 
HETATM   14  S2  UNL     1      11.337 -14.411   1.293  1.00  0.00    -0.033 SA
BRANCH  13  15
HETATM   15  O2  UNL     1      10.660 -12.196   2.488  1.00  0.00    -0.327 OA
BRANCH  15  16
HETATM   16  C11 UNL     1      10.922 -11.442   1.304  1.00  0.00     0.182 C 
BRANCH  16  17
HETATM   17  C12 UNL     1      10.902  -9.967   1.577  1.00  0.00     0.002 C 
HETATM   18  C13 UNL     1      11.599  -9.287   0.391  1.00  0.00     0.011 C 
HETATM   19  C14 UNL     1      11.715  -9.726   2.842  1.00  0.00     0.011 C 
ENDBRANCH  16  17
ENDBRANCH  15  16
ENDBRANCH  13  15
ENDBRANCH   8  13
ENDBRANCH   7   8
ENDBRANCH   4   7
BRANCH   1  20
HETATM   20  C4  UNL     1       7.625 -18.419   2.536  1.00  0.00     0.108 A 
HETATM   21  S1  UNL     1       6.431 -19.584   2.865  1.00  0.00    -0.080 SA
HETATM   22  C3  UNL     1       5.938 -19.894   1.239  1.00  0.00     0.076 A 
HETATM   23  C2  UNL     1       6.763 -19.044   0.547  1.00  0.00     0.012 A 
HETATM   24  C1  UNL     1       6.669 -18.987  -0.969  1.00  0.00     0.068 C 
HETATM   25  N3  UNL     1       7.592 -18.324   1.230  1.00  0.00    -0.352 N 
ATOM     26  H3  UNL     1       8.222 -17.680   0.750  1.00  0.00     0.166 HD
ENDBRANCH   1  20
TORSDOF 10
ENDMDL
MODEL 4
REMARK VINA RESULT: -5.219042896      5.683      7.446
REMARK  10 active torsions:
REMARK  status: ('A' for Active; 'I' for Inactive)
REMARK    1  A    between atoms: C4_5  and  C5_6 
REMARK    2  A    between atoms: C6_9  and  C7_10 
REMARK    3  A    between atoms: C7_10  and  N2_11 
REMARK    4  A    between atoms: N2_11  and  C8_12 
REMARK    5  A    between atoms: N2_11  and  C10_16 
REMARK    6  A    between atoms: C8_12  and  C9_13 
REMARK    7  A    between atoms: C9_13  and  O1_14 
REMARK    8  A    between atoms: C10_16  and  O2_18 
REMARK    9  A    between atoms: O2_18  and  C11_19 
REMARK   10  A    between atoms: C11_19  and  C12_20 
ROOT
HETATM    1  C5  UNL     1       9.874 -16.696   3.116  1.00  0.00     0.108 A 
HETATM    2  N1  UNL     1       9.608 -17.489   2.118  1.00  0.00    -0.350 N 
ATOM      3  H1  UNL     1       9.713 -17.148   1.162  1.00  0.00     0.166 HD
HETATM    4  C6  UNL     1       9.211 -18.707   2.327  1.00  0.00     0.034 A 
HETATM    5  C15 UNL     1       9.092 -19.100   3.654  1.00  0.00     0.078 A 
HETATM    6  S3  UNL     1       9.559 -17.686   4.473  1.00  0.00    -0.079 SA
ENDROOT
BRANCH   4   7
HETATM    7  C7  UNL     1       8.908 -19.679   1.208  1.00  0.00     0.183 C 
BRANCH   7   8
HETATM    8  N2  UNL     1       7.669 -19.417   0.569  1.00  0.00    -0.345 N 
BRANCH   8   9
HETATM    9  C8  UNL     1       7.570 -18.626  -0.626  1.00  0.00     0.152 C 
BRANCH   9  10
HETATM   10  C9  UNL     1       8.095 -19.215  -1.881  1.00  0.00     0.184 C 
BRANCH  10  11
HETATM   11  O1  UNL     1       7.128 -18.966  -2.884  1.00  0.00    -0.399 OA
ATOM     12  H1  UNL     1       6.763 -18.108  -2.704  1.00  0.00     0.209 HD
ENDBRANCH  10  11
ENDBRANCH   9  10
ENDBRANCH   8   9
BRANCH   8  13
HETATM   13  C10 UNL     1       6.460 -19.935   1.108  1.00  0.00     0.212 C 
HETATM   14  S2  UNL     1       5.711 -21.166   0.376  1.00  0.00    -0.033 SA
BRANCH  13  15
HETATM   15  O2  UNL     1       5.946 -19.374   2.254  1.00  0.00    -0.327 OA
BRANCH  15  16
HETATM   16  C11 UNL     1       5.547 -20.163   3.376  1.00  0.00     0.182 C 
BRANCH  16  17
HETATM   17  C12 UNL     1       5.099 -19.301   4.520  1.00  0.00     0.002 C 
HETATM   18  C13 UNL     1       3.568 -19.391   4.570  1.00  0.00     0.011 C 
HETATM   19  C14 UNL     1       5.506 -17.868   4.199  1.00  0.00     0.011 C 
ENDBRANCH  16  17
ENDBRANCH  15  16
ENDBRANCH  13  15
ENDBRANCH   8  13
ENDBRANCH   7   8
ENDBRANCH   4   7
BRANCH   1  20
HETATM   20  C4  UNL     1      10.327 -15.278   3.109  1.00  0.00     0.108 A 
HETATM   21  S1  UNL     1      10.748 -14.291   4.429  1.00  0.00    -0.080 SA
HETATM   22  C3  UNL     1      11.128 -12.854   3.549  1.00  0.00     0.076 A 
HETATM   23  C2  UNL     1      10.892 -13.265   2.261  1.00  0.00     0.012 A 
HETATM   24  C1  UNL     1      11.105 -12.286   1.118  1.00  0.00     0.068 C 
HETATM   25  N3  UNL     1      10.493 -14.482   2.082  1.00  0.00    -0.352 N 
ATOM     26  H3  UNL     1      10.307 -14.823   1.138  1.00  0.00     0.166 HD
ENDBRANCH   1  20
TORSDOF 10
ENDMDL
MODEL 5
REMARK VINA RESULT: -5.216901918      4.639      7.129
REMARK  10 active torsions:
REMARK  status: ('A' for Active; 'I' for Inactive)
REMARK    1  A    between atoms: C4_5  and  C5_6 
REMARK    2  A    between atoms: C6_9  and  C7_10 
REMARK    3  A    between atoms: C7_10  and  N2_11 
REMARK    4  A    between atoms: N2_11  and  C8_12 
REMARK    5  A    between atoms: N2_11  and  C10_16 
REMARK    6  A    between atoms: C8_12  and  C9_13 
REMARK    7  A    between atoms: C9_13  and  O1_14 
REMARK    8  A    between atoms: C10_16  and  O2_18 
REMARK    9  A    between atoms: O2_18  and  C11_19 
REMARK   10  A    between atoms: C11_19  and  C12_20 
ROOT
HETATM    1  C5  UNL     1      10.675 -15.525   3.943  1.00  0.00     0.108 A 
HETATM    2  N1  UNL     1      10.425 -16.760   3.615  1.00  0.00    -0.350 N 
ATOM      3  H1  UNL     1      10.300 -17.006   2.633  1.00  0.00     0.166 HD
HETATM    4  C6  UNL     1      10.333 -17.682   4.525  1.00  0.00     0.034 A 
HETATM    5  C15 UNL     1      10.516 -17.272   5.840  1.00  0.00     0.078 A 
HETATM    6  S3  UNL     1      10.800 -15.608   5.645  1.00  0.00    -0.079 SA
ENDROOT
BRANCH   4   7
HETATM    7  C7  UNL     1      10.066 -19.136   4.204  1.00  0.00     0.183 C 
BRANCH   7   8
HETATM    8  N2  UNL     1       8.808 -19.342   3.582  1.00  0.00    -0.345 N 
BRANCH   8   9
HETATM    9  C8  UNL     1       7.573 -18.916   4.178  1.00  0.00     0.152 C 
BRANCH   9  10
HETATM   10  C9  UNL     1       6.675 -18.068   3.358  1.00  0.00     0.184 C 
BRANCH  10  11
HETATM   11  O1  UNL     1       7.487 -17.077   2.757  1.00  0.00    -0.399 OA
ATOM     12  H1  UNL     1       7.948 -16.637   3.461  1.00  0.00     0.209 HD
ENDBRANCH  10  11
ENDBRANCH   9  10
ENDBRANCH   8   9
BRANCH   8  13
HETATM   13  C10 UNL     1       8.731 -19.997   2.322  1.00  0.00     0.212 C 
HETATM   14  S2  UNL     1       8.419 -21.581   2.254  1.00  0.00    -0.033 SA
BRANCH  13  15
HETATM   15  O2  UNL     1       8.925 -19.263   1.175  1.00  0.00    -0.327 OA
BRANCH  15  16
HETATM   16  C11 UNL     1       8.626 -19.782  -0.121  1.00  0.00     0.182 C 
BRANCH  16  17
HETATM   17  C12 UNL     1       7.842 -18.797  -0.938  1.00  0.00     0.002 C 
HETATM   18  C13 UNL     1       6.467 -18.661  -0.271  1.00  0.00     0.011 C 
HETATM   19  C14 UNL     1       7.668 -19.394  -2.329  1.00  0.00     0.011 C 
ENDBRANCH  16  17
ENDBRANCH  15  16
ENDBRANCH  13  15
ENDBRANCH   8  13
ENDBRANCH   7   8
ENDBRANCH   4   7
BRANCH   1  20
HETATM   20  C4  UNL     1      10.811 -14.321   3.077  1.00  0.00     0.108 A 
HETATM   21  S1  UNL     1      11.278 -14.234   1.444  1.00  0.00    -0.080 SA
HETATM   22  C3  UNL     1      11.179 -12.520   1.253  1.00  0.00     0.076 A 
HETATM   23  C2  UNL     1      10.780 -12.138   2.509  1.00  0.00     0.012 A 
HETATM   24  C1  UNL     1      10.563 -10.663   2.803  1.00  0.00     0.068 C 
HETATM   25  N3  UNL     1      10.607 -13.066   3.393  1.00  0.00    -0.352 N 
ATOM     26  H3  UNL     1      10.311 -12.821   4.338  1.00  0.00     0.166 HD
ENDBRANCH   1  20
TORSDOF 10
ENDMDL
