MODEL 1
REMARK VINA RESULT: -7.238323644      0.000      0.000
REMARK  17 active torsions:
REMARK  status: ('A' for Active; 'I' for Inactive)
REMARK    1  A    between atoms: C2_2  and  C3_3 
REMARK    2  A    between atoms: C3_3  and  C4_4 
REMARK    3  A    between atoms: C4_4  and  C5_5 
REMARK    4  A    between atoms: C5_5  and  C6_6 
REMARK    5  A    between atoms: C6_6  and  C7_7 
REMARK    6  A    between atoms: C7_7  and  C8_8 
REMARK    7  A    between atoms: C8_8  and  C9_9 
REMARK    8  A    between atoms: C9_9  and  C10_10 
REMARK    9  A    between atoms: C10_10  and  C11_11 
REMARK   10  A    between atoms: C11_11  and  N1_12 
REMARK   11  A    between atoms: C12_16  and  O1_17 
REMARK   12  A    between atoms: C15_24  and  O2_25 
REMARK   13  A    between atoms: C16_27  and  O3_28 
REMARK   14  A    between atoms: O3_28  and  C17_29 
REMARK   15  A    between atoms: C20_35  and  C21_36 
REMARK   16  A    between atoms: C21_36  and  C22_37 
REMARK   17  A    between atoms: C23_40  and  O6_41 
ROOT
HETATM    1  C11 UNL     1      13.932  38.926  -9.682  1.00  0.00     0.179 C 
HETATM    2  C12 UNL     1      14.551  40.114  -9.051  1.00  0.00     0.189 C 
HETATM    3  C13 UNL     1      13.873  41.422  -9.298  1.00  0.00     0.250 A 
HETATM    4  N2  UNL     1      12.510  41.499  -9.722  1.00  0.00    -0.057 N 
ATOM      5  H21 UNL     1      11.694  42.052  -9.461  1.00  0.00     0.278 HD
ATOM      6  H22 UNL     1      11.686  40.904  -9.643  1.00  0.00     0.278 HD
HETATM    7  C14 UNL     1      13.602  41.640 -10.668  1.00  0.00     0.250 A 
HETATM    8  C15 UNL     1      13.814  40.525 -11.636  1.00  0.00     0.182 C 
HETATM    9  C16 UNL     1      13.659  39.150 -11.124  1.00  0.00     0.192 C 
ENDROOT
BRANCH   9  10
HETATM   10  O3  UNL     1      14.340  38.294 -11.980  1.00  0.00    -0.363 OA
BRANCH  10  11
HETATM   11  C17 UNL     1      13.575  37.643 -12.896  1.00  0.00     0.242 C 
HETATM   12  C18 UNL     1      13.627  36.195 -12.579  1.00  0.00     0.249 C 
HETATM   13  O4  UNL     1      12.690  35.504 -12.133  1.00  0.00    -0.271 OA
HETATM   14  N3  UNL     1      14.874  35.560 -12.817  1.00  0.00    -0.358 N 
HETATM   15  C19 UNL     1      15.896  36.377 -13.431  1.00  0.00     0.130 C 
ATOM     16  H3  UNL     1      15.040  34.584 -12.567  1.00  0.00     0.162 HD
HETATM   17  C20 UNL     1      15.279  37.018 -14.666  1.00  0.00     0.044 C 
HETATM   18  C23 UNL     1      14.038  37.789 -14.328  1.00  0.00     0.162 C 
BRANCH  17  19
HETATM   19  C21 UNL     1      15.046  35.907 -15.661  1.00  0.00     0.108 C 
BRANCH  19  20
HETATM   20  C22 UNL     1      13.653  35.847 -16.144  1.00  0.00     0.231 C 
HETATM   21  N4  UNL     1      13.258  36.518 -17.363  1.00  0.00    -0.062 NA
HETATM   22  O5  UNL     1      12.803  35.208 -15.490  1.00  0.00    -0.277 OA
ENDBRANCH  19  20
ENDBRANCH  17  19
BRANCH  18  23
HETATM   23  O6  UNL     1      14.161  39.126 -14.701  1.00  0.00    -0.392 OA
ATOM     24  H6  UNL     1      13.319  39.522 -14.892  1.00  0.00     0.210 HD
ENDBRANCH  18  23
ENDBRANCH  10  11
ENDBRANCH   9  10
BRANCH   1  25
HETATM   25  C10 UNL     1      12.664  38.446  -9.017  1.00  0.00     0.044 C 
BRANCH  25  26
HETATM   26  C9  UNL     1      12.774  38.385  -7.518  1.00  0.00     0.003 C 
BRANCH  26  27
HETATM   27  C8  UNL     1      11.602  39.064  -6.839  1.00  0.00     0.000 C 
BRANCH  27  28
HETATM   28  C7  UNL     1      11.228  38.381  -5.565  1.00  0.00     0.000 C 
BRANCH  28  29
HETATM   29  C6  UNL     1      10.306  39.194  -4.702  1.00  0.00     0.000 C 
BRANCH  29  30
HETATM   30  C5  UNL     1       9.363  38.358  -3.883  1.00  0.00     0.000 C 
BRANCH  30  31
HETATM   31  C4  UNL     1       9.798  38.179  -2.471  1.00  0.00     0.000 C 
BRANCH  31  32
HETATM   32  C3  UNL     1       9.367  36.859  -1.921  1.00  0.00    -0.000 C 
BRANCH  32  33
HETATM   33  C2  UNL     1       8.912  36.988  -0.486  1.00  0.00    -0.005 C 
HETATM   34  C1  UNL     1       9.563  38.279   0.038  1.00  0.00     0.005 C 
ENDBRANCH  32  33
ENDBRANCH  31  32
ENDBRANCH  30  31
ENDBRANCH  29  30
ENDBRANCH  28  29
ENDBRANCH  27  28
ENDBRANCH  26  27
ENDBRANCH  25  26
ENDBRANCH   1  25
BRANCH   1  35
HETATM   35  N1  UNL     1      14.893  37.841  -9.461  1.00  0.00    -0.065 N 
ATOM     36  H13 UNL     1      15.870  38.125  -9.549  1.00  0.00     0.275 HD
ATOM     37  H12 UNL     1      14.953  37.529  -8.492  1.00  0.00     0.275 HD
ATOM     38  H11 UNL     1      14.610  37.113 -10.116  1.00  0.00     0.275 HD
ENDBRANCH   1  35
BRANCH   8  39
HETATM   39  O2  UNL     1      15.048  40.730 -12.246  1.00  0.00    -0.391 OA
ATOM     40  H2  UNL     1      15.660  40.110 -11.867  1.00  0.00     0.210 HD
ENDBRANCH   8  39
BRANCH   2  41
HETATM   41  O1  UNL     1      15.854  40.225  -9.537  1.00  0.00    -0.391 OA
ATOM     42  H1  UNL     1      15.830  40.772 -10.313  1.00  0.00     0.210 HD
ENDBRANCH   2  41
TORSDOF 17
ENDMDL
MODEL 2
REMARK VINA RESULT: -6.776103737      4.510      9.455
REMARK  17 active torsions:
REMARK  status: ('A' for Active; 'I' for Inactive)
REMARK    1  A    between atoms: C2_2  and  C3_3 
REMARK    2  A    between atoms: C3_3  and  C4_4 
REMARK    3  A    between atoms: C4_4  and  C5_5 
REMARK    4  A    between atoms: C5_5  and  C6_6 
REMARK    5  A    between atoms: C6_6  and  C7_7 
REMARK    6  A    between atoms: C7_7  and  C8_8 
REMARK    7  A    between atoms: C8_8  and  C9_9 
REMARK    8  A    between atoms: C9_9  and  C10_10 
REMARK    9  A    between atoms: C10_10  and  C11_11 
REMARK   10  A    between atoms: C11_11  and  N1_12 
REMARK   11  A    between atoms: C12_16  and  O1_17 
REMARK   12  A    between atoms: C15_24  and  O2_25 
REMARK   13  A    between atoms: C16_27  and  O3_28 
REMARK   14  A    between atoms: O3_28  and  C17_29 
REMARK   15  A    between atoms: C20_35  and  C21_36 
REMARK   16  A    between atoms: C21_36  and  C22_37 
REMARK   17  A    between atoms: C23_40  and  O6_41 
ROOT
HETATM    1  C11 UNL     1      15.362  38.015 -12.734  1.00  0.00     0.179 C 
HETATM    2  C12 UNL     1      15.504  36.560 -12.503  1.00  0.00     0.189 C 
HETATM    3  C13 UNL     1      14.270  35.737 -12.684  1.00  0.00     0.250 A 
HETATM    4  N2  UNL     1      13.152  36.209 -13.440  1.00  0.00    -0.057 N 
ATOM      5  H21 UNL     1      12.534  35.818 -14.151  1.00  0.00     0.278 HD
ATOM      6  H22 UNL     1      13.012  36.877 -14.197  1.00  0.00     0.278 HD
HETATM    7  C14 UNL     1      13.160  36.270 -11.990  1.00  0.00     0.250 A 
HETATM    8  C15 UNL     1      13.275  37.620 -11.364  1.00  0.00     0.182 C 
HETATM    9  C16 UNL     1      14.204  38.577 -11.994  1.00  0.00     0.192 C 
ENDROOT
BRANCH   9  10
HETATM   10  O3  UNL     1      14.535  39.539 -11.049  1.00  0.00    -0.363 OA
BRANCH  10  11
HETATM   11  C17 UNL     1      13.747  40.648 -11.033  1.00  0.00     0.242 C 
HETATM   12  C18 UNL     1      14.487  41.736 -11.718  1.00  0.00     0.249 C 
HETATM   13  O4  UNL     1      14.205  42.235 -12.825  1.00  0.00    -0.271 OA
HETATM   14  N3  UNL     1      15.619  42.238 -11.024  1.00  0.00    -0.358 N 
HETATM   15  C19 UNL     1      15.843  41.701  -9.701  1.00  0.00     0.130 C 
ATOM     16  H3  UNL     1      16.238  42.937 -11.436  1.00  0.00     0.162 HD
HETATM   17  C20 UNL     1      14.535  41.831  -8.934  1.00  0.00     0.044 C 
HETATM   18  C23 UNL     1      13.402  41.161  -9.654  1.00  0.00     0.162 C 
BRANCH  17  19
HETATM   19  C21 UNL     1      14.312  43.306  -8.702  1.00  0.00     0.108 C 
BRANCH  19  20
HETATM   20  C22 UNL     1      14.107  43.643  -7.279  1.00  0.00     0.231 C 
HETATM   21  N4  UNL     1      13.795  44.995  -6.873  1.00  0.00    -0.062 NA
HETATM   22  O5  UNL     1      14.207  42.747  -6.416  1.00  0.00    -0.277 OA
ENDBRANCH  19  20
ENDBRANCH  17  19
BRANCH  18  23
HETATM   23  O6  UNL     1      12.819  40.173  -8.861  1.00  0.00    -0.392 OA
ATOM     24  H6  UNL     1      11.907  40.361  -8.673  1.00  0.00     0.210 HD
ENDBRANCH  18  23
ENDBRANCH  10  11
ENDBRANCH   9  10
BRANCH   1  25
HETATM   25  C10 UNL     1      15.252  38.417 -14.186  1.00  0.00     0.044 C 
BRANCH  25  26
HETATM   26  C9  UNL     1      14.060  39.291 -14.463  1.00  0.00     0.003 C 
BRANCH  26  27
HETATM   27  C8  UNL     1      14.091  39.857 -15.869  1.00  0.00     0.000 C 
BRANCH  27  28
HETATM   28  C7  UNL     1      15.264  39.354 -16.642  1.00  0.00     0.000 C 
BRANCH  28  29
HETATM   29  C6  UNL     1      14.914  38.909 -18.033  1.00  0.00     0.000 C 
BRANCH  29  30
HETATM   30  C5  UNL     1      13.544  38.298 -18.137  1.00  0.00     0.000 C 
BRANCH  30  31
HETATM   31  C4  UNL     1      13.564  36.818 -18.304  1.00  0.00     0.000 C 
BRANCH  31  32
HETATM   32  C3  UNL     1      13.411  36.111 -16.998  1.00  0.00    -0.000 C 
BRANCH  32  33
HETATM   33  C2  UNL     1      14.349  34.931 -16.903  1.00  0.00    -0.005 C 
HETATM   34  C1  UNL     1      15.651  35.486 -16.303  1.00  0.00     0.005 C 
ENDBRANCH  32  33
ENDBRANCH  31  32
ENDBRANCH  30  31
ENDBRANCH  29  30
ENDBRANCH  28  29
ENDBRANCH  27  28
ENDBRANCH  26  27
ENDBRANCH  25  26
ENDBRANCH   1  25
BRANCH   1  35
HETATM   35  N1  UNL     1      16.636  38.590 -12.291  1.00  0.00    -0.065 N 
ATOM     36  H13 UNL     1      17.393  38.499 -12.969  1.00  0.00     0.275 HD
ATOM     37  H12 UNL     1      16.641  39.609 -12.252  1.00  0.00     0.275 HD
ATOM     38  H11 UNL     1      16.821  38.139 -11.396  1.00  0.00     0.275 HD
ENDBRANCH   1  35
BRANCH   8  39
HETATM   39  O2  UNL     1      13.540  37.432 -10.011  1.00  0.00    -0.391 OA
ATOM     40  H2  UNL     1      13.315  38.238  -9.562  1.00  0.00     0.210 HD
ENDBRANCH   8  39
BRANCH   2  41
HETATM   41  O1  UNL     1      15.935  36.376 -11.189  1.00  0.00    -0.391 OA
ATOM     42  H1  UNL     1      15.215  36.000 -10.696  1.00  0.00     0.210 HD
ENDBRANCH   2  41
TORSDOF 17
ENDMDL
MODEL 3
REMARK VINA RESULT: -6.772499351      3.232      8.088
REMARK  17 active torsions:
REMARK  status: ('A' for Active; 'I' for Inactive)
REMARK    1  A    between atoms: C2_2  and  C3_3 
REMARK    2  A    between atoms: C3_3  and  C4_4 
REMARK    3  A    between atoms: C4_4  and  C5_5 
REMARK    4  A    between atoms: C5_5  and  C6_6 
REMARK    5  A    between atoms: C6_6  and  C7_7 
REMARK    6  A    between atoms: C7_7  and  C8_8 
REMARK    7  A    between atoms: C8_8  and  C9_9 
REMARK    8  A    between atoms: C9_9  and  C10_10 
REMARK    9  A    between atoms: C10_10  and  C11_11 
REMARK   10  A    between atoms: C11_11  and  N1_12 
REMARK   11  A    between atoms: C12_16  and  O1_17 
REMARK   12  A    between atoms: C15_24  and  O2_25 
REMARK   13  A    between atoms: C16_27  and  O3_28 
REMARK   14  A    between atoms: O3_28  and  C17_29 
REMARK   15  A    between atoms: C20_35  and  C21_36 
REMARK   16  A    between atoms: C21_36  and  C22_37 
REMARK   17  A    between atoms: C23_40  and  O6_41 
ROOT
HETATM    1  C11 UNL     1      16.963  38.331 -13.707  1.00  0.00     0.179 C 
HETATM    2  C12 UNL     1      17.677  37.210 -14.357  1.00  0.00     0.189 C 
HETATM    3  C13 UNL     1      17.075  36.683 -15.618  1.00  0.00     0.250 A 
HETATM    4  N2  UNL     1      16.151  37.451 -16.393  1.00  0.00    -0.057 N 
ATOM      5  H21 UNL     1      16.026  37.662 -17.382  1.00  0.00     0.278 HD
ATOM      6  H22 UNL     1      15.956  38.443 -16.524  1.00  0.00     0.278 HD
HETATM    7  C14 UNL     1      15.693  36.414 -15.486  1.00  0.00     0.250 A 
HETATM    8  C15 UNL     1      14.984  36.854 -14.249  1.00  0.00     0.182 C 
HETATM    9  C16 UNL     1      15.513  38.045 -13.556  1.00  0.00     0.192 C 
ENDROOT
BRANCH   9  10
HETATM   10  O3  UNL     1      15.067  38.010 -12.242  1.00  0.00    -0.363 OA
BRANCH  10  11
HETATM   11  C17 UNL     1      13.835  38.545 -12.022  1.00  0.00     0.242 C 
HETATM   12  C18 UNL     1      14.014  39.994 -11.760  1.00  0.00     0.249 C 
HETATM   13  O4  UNL     1      13.670  40.927 -12.513  1.00  0.00    -0.271 OA
HETATM   14  N3  UNL     1      14.639  40.322 -10.529  1.00  0.00    -0.358 N 
HETATM   15  C19 UNL     1      14.924  39.213  -9.646  1.00  0.00     0.130 C 
ATOM     16  H3  UNL     1      14.873  41.284 -10.281  1.00  0.00     0.162 HD
HETATM   17  C20 UNL     1      13.639  38.412  -9.498  1.00  0.00     0.044 C 
HETATM   18  C23 UNL     1      13.100  37.977 -10.830  1.00  0.00     0.162 C 
BRANCH  17  19
HETATM   19  C21 UNL     1      12.679  39.273  -8.712  1.00  0.00     0.108 C 
BRANCH  19  20
HETATM   20  C22 UNL     1      12.116  38.584  -7.534  1.00  0.00     0.231 C 
HETATM   21  N4  UNL     1      10.752  38.818  -7.117  1.00  0.00    -0.062 NA
HETATM   22  O5  UNL     1      12.830  37.788  -6.889  1.00  0.00    -0.277 OA
ENDBRANCH  19  20
ENDBRANCH  17  19
BRANCH  18  23
HETATM   23  O6  UNL     1      12.991  36.590 -10.897  1.00  0.00    -0.392 OA
ATOM     24  H6  UNL     1      13.769  36.189 -11.267  1.00  0.00     0.210 HD
ENDBRANCH  18  23
ENDBRANCH  10  11
ENDBRANCH   9  10
BRANCH   1  25
HETATM   25  C10 UNL     1      17.123  39.666 -14.395  1.00  0.00     0.044 C 
BRANCH  25  26
HETATM   26  C9  UNL     1      17.275  40.809 -13.429  1.00  0.00     0.003 C 
BRANCH  26  27
HETATM   27  C8  UNL     1      18.481  41.667 -13.756  1.00  0.00     0.000 C 
BRANCH  27  28
HETATM   28  C7  UNL     1      19.513  41.604 -12.679  1.00  0.00     0.000 C 
BRANCH  28  29
HETATM   29  C6  UNL     1      18.938  41.725 -11.297  1.00  0.00     0.000 C 
BRANCH  29  30
HETATM   30  C5  UNL     1      19.346  42.987 -10.589  1.00  0.00     0.000 C 
BRANCH  30  31
HETATM   31  C4  UNL     1      18.213  43.696  -9.932  1.00  0.00     0.000 C 
BRANCH  31  32
HETATM   32  C3  UNL     1      16.987  42.845  -9.875  1.00  0.00    -0.000 C 
BRANCH  32  33
HETATM   33  C2  UNL     1      16.067  43.288  -8.762  1.00  0.00    -0.005 C 
HETATM   34  C1  UNL     1      16.833  44.388  -8.007  1.00  0.00     0.005 C 
ENDBRANCH  32  33
ENDBRANCH  31  32
ENDBRANCH  30  31
ENDBRANCH  29  30
ENDBRANCH  28  29
ENDBRANCH  27  28
ENDBRANCH  26  27
ENDBRANCH  25  26
ENDBRANCH   1  25
BRANCH   1  35
HETATM   35  N1  UNL     1      17.632  38.504 -12.415  1.00  0.00    -0.065 N 
ATOM     36  H13 UNL     1      17.206  37.978 -11.651  1.00  0.00     0.275 HD
ATOM     37  H12 UNL     1      18.549  38.062 -12.359  1.00  0.00     0.275 HD
ATOM     38  H11 UNL     1      17.647  39.513 -12.269  1.00  0.00     0.275 HD
ENDBRANCH   1  35
BRANCH   8  39
HETATM   39  O2  UNL     1      14.884  35.750 -13.409  1.00  0.00    -0.391 OA
ATOM     40  H2  UNL     1      15.750  35.367 -13.337  1.00  0.00     0.210 HD
ENDBRANCH   8  39
BRANCH   2  41
HETATM   41  O1  UNL     1      17.727  36.151 -13.448  1.00  0.00    -0.391 OA
ATOM     42  H1  UNL     1      18.043  35.385 -13.911  1.00  0.00     0.210 HD
ENDBRANCH   2  41
TORSDOF 17
ENDMDL
MODEL 4
REMARK VINA RESULT: -6.734733482      1.331      1.659
REMARK  17 active torsions:
REMARK  status: ('A' for Active; 'I' for Inactive)
REMARK    1  A    between atoms: C2_2  and  C3_3 
REMARK    2  A    between atoms: C3_3  and  C4_4 
REMARK    3  A    between atoms: C4_4  and  C5_5 
REMARK    4  A    between atoms: C5_5  and  C6_6 
REMARK    5  A    between atoms: C6_6  and  C7_7 
REMARK    6  A    between atoms: C7_7  and  C8_8 
REMARK    7  A    between atoms: C8_8  and  C9_9 
REMARK    8  A    between atoms: C9_9  and  C10_10 
REMARK    9  A    between atoms: C10_10  and  C11_11 
REMARK   10  A    between atoms: C11_11  and  N1_12 
REMARK   11  A    between atoms: C12_16  and  O1_17 
REMARK   12  A    between atoms: C15_24  and  O2_25 
REMARK   13  A    between atoms: C16_27  and  O3_28 
REMARK   14  A    between atoms: O3_28  and  C17_29 
REMARK   15  A    between atoms: C20_35  and  C21_36 
REMARK   16  A    between atoms: C21_36  and  C22_37 
REMARK   17  A    between atoms: C23_40  and  O6_41 
ROOT
HETATM    1  C11 UNL     1      14.238  40.040 -10.064  1.00  0.00     0.179 C 
HETATM    2  C12 UNL     1      14.957  41.262  -9.639  1.00  0.00     0.189 C 
HETATM    3  C13 UNL     1      14.417  42.559 -10.149  1.00  0.00     0.250 A 
HETATM    4  N2  UNL     1      13.078  42.681 -10.634  1.00  0.00    -0.057 N 
ATOM      5  H21 UNL     1      12.315  43.346 -10.512  1.00  0.00     0.278 HD
ATOM      6  H22 UNL     1      12.197  42.190 -10.480  1.00  0.00     0.278 HD
HETATM    7  C14 UNL     1      14.199  42.541 -11.546  1.00  0.00     0.250 A 
HETATM    8  C15 UNL     1      14.322  41.249 -12.282  1.00  0.00     0.182 C 
HETATM    9  C16 UNL     1      14.020  40.015 -11.533  1.00  0.00     0.192 C 
ENDROOT
BRANCH   9  10
HETATM   10  O3  UNL     1      14.632  38.954 -12.188  1.00  0.00    -0.363 OA
BRANCH  10  11
HETATM   11  C17 UNL     1      13.801  38.127 -12.878  1.00  0.00     0.242 C 
HETATM   12  C18 UNL     1      13.943  36.766 -12.305  1.00  0.00     0.249 C 
HETATM   13  O4  UNL     1      13.086  36.155 -11.638  1.00  0.00    -0.271 OA
HETATM   14  N3  UNL     1      15.183  36.122 -12.557  1.00  0.00    -0.358 N 
HETATM   15  C19 UNL     1      16.102  36.828 -13.422  1.00  0.00     0.130 C 
ATOM     16  H3  UNL     1      15.412  35.214 -12.151  1.00  0.00     0.162 HD
HETATM   17  C20 UNL     1      15.334  37.212 -14.678  1.00  0.00     0.044 C 
HETATM   18  C23 UNL     1      14.105  38.010 -14.354  1.00  0.00     0.162 C 
BRANCH  17  19
HETATM   19  C21 UNL     1      15.041  35.929 -15.418  1.00  0.00     0.108 C 
BRANCH  19  20
HETATM   20  C22 UNL     1      13.641  35.832 -15.875  1.00  0.00     0.231 C 
HETATM   21  N4  UNL     1      13.248  36.328 -17.176  1.00  0.00    -0.062 NA
HETATM   22  O5  UNL     1      12.785  35.314 -15.128  1.00  0.00    -0.277 OA
ENDBRANCH  19  20
ENDBRANCH  17  19
BRANCH  18  23
HETATM   23  O6  UNL     1      14.136  39.254 -14.980  1.00  0.00    -0.392 OA
ATOM     24  H6  UNL     1      14.474  39.198 -15.867  1.00  0.00     0.210 HD
ENDBRANCH  18  23
ENDBRANCH  10  11
ENDBRANCH   9  10
BRANCH   1  25
HETATM   25  C10 UNL     1      12.914  39.813  -9.374  1.00  0.00     0.044 C 
BRANCH  25  26
HETATM   26  C9  UNL     1      12.792  38.437  -8.778  1.00  0.00     0.003 C 
BRANCH  26  27
HETATM   27  C8  UNL     1      12.534  38.491  -7.285  1.00  0.00     0.000 C 
BRANCH  27  28
HETATM   28  C7  UNL     1      12.160  39.865  -6.837  1.00  0.00     0.000 C 
BRANCH  28  29
HETATM   29  C6  UNL     1      11.044  39.879  -5.832  1.00  0.00     0.000 C 
BRANCH  29  30
HETATM   30  C5  UNL     1      10.811  38.545  -5.178  1.00  0.00     0.000 C 
BRANCH  30  31
HETATM   31  C4  UNL     1      10.294  38.646  -3.786  1.00  0.00     0.000 C 
BRANCH  31  32
HETATM   32  C3  UNL     1       8.854  39.040  -3.757  1.00  0.00    -0.000 C 
BRANCH  32  33
HETATM   33  C2  UNL     1       8.653  40.317  -2.977  1.00  0.00    -0.005 C 
HETATM   34  C1  UNL     1       8.207  41.366  -4.010  1.00  0.00     0.005 C 
ENDBRANCH  32  33
ENDBRANCH  31  32
ENDBRANCH  30  31
ENDBRANCH  29  30
ENDBRANCH  28  29
ENDBRANCH  27  28
ENDBRANCH  26  27
ENDBRANCH  25  26
ENDBRANCH   1  25
BRANCH   1  35
HETATM   35  N1  UNL     1      15.082  38.932  -9.609  1.00  0.00    -0.065 N 
ATOM     36  H13 UNL     1      15.603  38.470 -10.356  1.00  0.00     0.275 HD
ATOM     37  H12 UNL     1      15.896  39.223  -9.068  1.00  0.00     0.275 HD
ATOM     38  H11 UNL     1      14.445  38.317  -9.104  1.00  0.00     0.275 HD
ENDBRANCH   1  35
BRANCH   8  39
HETATM   39  O2  UNL     1      15.582  41.221 -12.870  1.00  0.00    -0.391 OA
ATOM     40  H2  UNL     1      15.762  40.322 -13.117  1.00  0.00     0.210 HD
ENDBRANCH   8  39
BRANCH   2  41
HETATM   41  O1  UNL     1      16.275  41.159 -10.085  1.00  0.00    -0.391 OA
ATOM     42  H1  UNL     1      16.254  40.910 -11.001  1.00  0.00     0.210 HD
ENDBRANCH   2  41
TORSDOF 17
ENDMDL
MODEL 5
REMARK VINA RESULT: -6.606452665      4.264      8.096
REMARK  17 active torsions:
REMARK  status: ('A' for Active; 'I' for Inactive)
REMARK    1  A    between atoms: C2_2  and  C3_3 
REMARK    2  A    between atoms: C3_3  and  C4_4 
REMARK    3  A    between atoms: C4_4  and  C5_5 
REMARK    4  A    between atoms: C5_5  and  C6_6 
REMARK    5  A    between atoms: C6_6  and  C7_7 
REMARK    6  A    between atoms: C7_7  and  C8_8 
REMARK    7  A    between atoms: C8_8  and  C9_9 
REMARK    8  A    between atoms: C9_9  and  C10_10 
REMARK    9  A    between atoms: C10_10  and  C11_11 
REMARK   10  A    between atoms: C11_11  and  N1_12 
REMARK   11  A    between atoms: C12_16  and  O1_17 
REMARK   12  A    between atoms: C15_24  and  O2_25 
REMARK   13  A    between atoms: C16_27  and  O3_28 
REMARK   14  A    between atoms: O3_28  and  C17_29 
REMARK   15  A    between atoms: C20_35  and  C21_36 
REMARK   16  A    between atoms: C21_36  and  C22_37 
REMARK   17  A    between atoms: C23_40  and  O6_41 
ROOT
HETATM    1  C11 UNL     1      17.090  36.647 -15.348  1.00  0.00     0.179 C 
HETATM    2  C12 UNL     1      17.700  35.825 -16.417  1.00  0.00     0.189 C 
HETATM    3  C13 UNL     1      17.189  36.057 -17.802  1.00  0.00     0.250 A 
HETATM    4  N2  UNL     1      16.502  37.257 -18.164  1.00  0.00    -0.057 N 
ATOM      5  H21 UNL     1      16.539  37.913 -18.943  1.00  0.00     0.278 HD
ATOM      6  H22 UNL     1      16.482  38.218 -17.823  1.00  0.00     0.278 HD
HETATM    7  C14 UNL     1      15.777  36.035 -17.868  1.00  0.00     0.250 A 
HETATM    8  C15 UNL     1      14.992  35.997 -16.600  1.00  0.00     0.182 C 
HETATM    9  C16 UNL     1      15.606  36.614 -15.409  1.00  0.00     0.192 C 
ENDROOT
BRANCH   9  10
HETATM   10  O3  UNL     1      14.995  36.077 -14.284  1.00  0.00    -0.363 OA
BRANCH  10  11
HETATM   11  C17 UNL     1      13.856  36.700 -13.876  1.00  0.00     0.242 C 
HETATM   12  C18 UNL     1      14.201  38.109 -13.565  1.00  0.00     0.249 C 
HETATM   13  O4  UNL     1      13.852  39.114 -14.216  1.00  0.00    -0.271 OA
HETATM   14  N3  UNL     1      15.006  38.303 -12.412  1.00  0.00    -0.358 N 
HETATM   15  C19 UNL     1      15.297  37.120 -11.634  1.00  0.00     0.130 C 
ATOM     16  H3  UNL     1      15.358  39.224 -12.148  1.00  0.00     0.162 HD
HETATM   17  C20 UNL     1      13.972  36.424 -11.358  1.00  0.00     0.044 C 
HETATM   18  C23 UNL     1      13.230  36.122 -12.627  1.00  0.00     0.162 C 
BRANCH  17  19
HETATM   19  C21 UNL     1      13.204  37.313 -10.409  1.00  0.00     0.108 C 
BRANCH  19  20
HETATM   20  C22 UNL     1      14.044  37.865  -9.328  1.00  0.00     0.231 C 
HETATM   21  N4  UNL     1      14.374  39.273  -9.289  1.00  0.00    -0.062 NA
HETATM   22  O5  UNL     1      14.476  37.106  -8.436  1.00  0.00    -0.277 OA
ENDBRANCH  19  20
ENDBRANCH  17  19
BRANCH  18  23
HETATM   23  O6  UNL     1      12.985  34.756 -12.751  1.00  0.00    -0.392 OA
ATOM     24  H6  UNL     1      12.768  34.513 -13.644  1.00  0.00     0.210 HD
ENDBRANCH  18  23
ENDBRANCH  10  11
ENDBRANCH   9  10
BRANCH   1  25
HETATM   25  C10 UNL     1      17.542  38.088 -15.323  1.00  0.00     0.044 C 
BRANCH  25  26
HETATM   26  C9  UNL     1      18.235  38.462 -14.042  1.00  0.00     0.003 C 
BRANCH  26  27
HETATM   27  C8  UNL     1      18.562  39.942 -13.989  1.00  0.00     0.000 C 
BRANCH  27  28
HETATM   28  C7  UNL     1      17.635  40.681 -13.082  1.00  0.00     0.000 C 
BRANCH  28  29
HETATM   29  C6  UNL     1      18.246  41.012 -11.750  1.00  0.00     0.000 C 
BRANCH  29  30
HETATM   30  C5  UNL     1      17.248  41.038 -10.625  1.00  0.00     0.000 C 
BRANCH  30  31
HETATM   31  C4  UNL     1      16.539  42.341 -10.489  1.00  0.00     0.000 C 
BRANCH  31  32
HETATM   32  C3  UNL     1      17.256  43.266  -9.561  1.00  0.00    -0.000 C 
BRANCH  32  33
HETATM   33  C2  UNL     1      16.379  43.654  -8.393  1.00  0.00    -0.005 C 
HETATM   34  C1  UNL     1      17.043  44.896  -7.774  1.00  0.00     0.005 C 
ENDBRANCH  32  33
ENDBRANCH  31  32
ENDBRANCH  30  31
ENDBRANCH  29  30
ENDBRANCH  28  29
ENDBRANCH  27  28
ENDBRANCH  26  27
ENDBRANCH  25  26
ENDBRANCH   1  25
BRANCH   1  35
HETATM   35  N1  UNL     1      17.607  36.080 -14.099  1.00  0.00    -0.065 N 
ATOM     36  H13 UNL     1      17.887  36.778 -13.409  1.00  0.00     0.275 HD
ATOM     37  H12 UNL     1      16.898  35.629 -13.522  1.00  0.00     0.275 HD
ATOM     38  H11 UNL     1      18.360  35.460 -14.394  1.00  0.00     0.275 HD
ENDBRANCH   1  35
BRANCH   8  39
HETATM   39  O2  UNL     1      14.616  34.675 -16.381  1.00  0.00    -0.391 OA
ATOM     40  H2  UNL     1      14.641  34.229 -17.218  1.00  0.00     0.210 HD
ENDBRANCH   8  39
BRANCH   2  41
HETATM   41  O1  UNL     1      17.468  34.484 -16.110  1.00  0.00    -0.391 OA
ATOM     42  H1  UNL     1      16.539  34.381 -15.940  1.00  0.00     0.210 HD
ENDBRANCH   2  41
TORSDOF 17
ENDMDL
