MODEL 1
REMARK VINA RESULT: -6.246974972      0.000      0.000
REMARK  3 active torsions:
REMARK  status: ('A' for Active; 'I' for Inactive)
REMARK    1  A    between atoms: C2_2  and  C3_3 
REMARK    2  A    between atoms: C3_3  and  N1_5 
REMARK       I    between atoms: N1_5  and  C4_7 
REMARK    3  A    between atoms: C4_7  and  C5_9 
ROOT
HETATM    1  N1  UNL     1       2.143 141.467 352.995  1.00  0.00    -0.327 N 
ATOM      2  H1  UNL     1       2.250 141.173 353.966  1.00  0.00     0.165 HD
HETATM    3  C4  UNL     1       2.731 140.679 351.973  1.00  0.00     0.225 C 
HETATM    4  O1  UNL     1       2.580 141.073 350.779  1.00  0.00    -0.273 OA
ENDROOT
BRANCH   3   5
HETATM    5  C5  UNL     1       3.494 139.457 352.211  1.00  0.00     0.086 C 
HETATM    6  C6  UNL     1       4.886 139.468 351.562  1.00  0.00    -0.001 C 
HETATM    7  C7  UNL     1       5.542 140.557 352.354  1.00  0.00     0.006 C 
HETATM    8  C11 UNL     1       5.423 138.148 352.059  1.00  0.00     0.006 C 
HETATM    9  C8  UNL     1       4.961 140.440 353.748  1.00  0.00     0.006 C 
HETATM   10  C9  UNL     1       3.995 139.298 353.634  1.00  0.00    -0.001 C 
HETATM   11  C10 UNL     1       4.812 138.024 353.456  1.00  0.00     0.006 C 
ENDBRANCH   3   5
BRANCH   1  12
HETATM   12  C3  UNL     1       1.408 142.654 352.714  1.00  0.00     0.294 C 
HETATM   13  F1  UNL     1       0.329 142.750 353.591  1.00  0.00    -0.223 F 
BRANCH  12  14
HETATM   14  C2  UNL     1       2.217 143.885 352.757  1.00  0.00     0.021 C 
HETATM   15  C1  UNL     1       1.649 145.035 352.446  1.00  0.00     0.011 C 
ENDBRANCH  12  14
ENDBRANCH   1  12
TORSDOF 3
ENDMDL
MODEL 2
REMARK VINA RESULT: -6.091290464      2.607      5.062
REMARK  3 active torsions:
REMARK  status: ('A' for Active; 'I' for Inactive)
REMARK    1  A    between atoms: C2_2  and  C3_3 
REMARK    2  A    between atoms: C3_3  and  N1_5 
REMARK       I    between atoms: N1_5  and  C4_7 
REMARK    3  A    between atoms: C4_7  and  C5_9 
ROOT
HETATM    1  N1  UNL     1       3.696 141.785 352.136  1.00  0.00    -0.327 N 
ATOM      2  H1  UNL     1       4.674 141.725 351.855  1.00  0.00     0.165 HD
HETATM    3  C4  UNL     1       3.100 143.064 352.275  1.00  0.00     0.225 C 
HETATM    4  O1  UNL     1       1.883 143.101 352.626  1.00  0.00    -0.273 OA
ENDROOT
BRANCH   3   5
HETATM    5  C5  UNL     1       3.796 144.326 352.042  1.00  0.00     0.086 C 
HETATM    6  C6  UNL     1       3.621 145.340 353.182  1.00  0.00    -0.001 C 
HETATM    7  C7  UNL     1       4.349 144.634 354.284  1.00  0.00     0.006 C 
HETATM    8  C11 UNL     1       4.507 146.457 352.684  1.00  0.00     0.006 C 
HETATM    9  C8  UNL     1       5.488 143.905 353.603  1.00  0.00     0.006 C 
HETATM   10  C9  UNL     1       5.306 144.239 352.152  1.00  0.00    -0.001 C 
HETATM   11  C10 UNL     1       5.642 145.714 351.976  1.00  0.00     0.006 C 
ENDBRANCH   3   5
BRANCH   1  12
HETATM   12  C3  UNL     1       2.975 140.579 352.376  1.00  0.00     0.294 C 
HETATM   13  F1  UNL     1       2.662 139.977 351.159  1.00  0.00    -0.223 F 
BRANCH  12  14
HETATM   14  C2  UNL     1       3.676 139.627 353.256  1.00  0.00     0.021 C 
HETATM   15  C1  UNL     1       4.877 139.937 353.706  1.00  0.00     0.011 C 
ENDBRANCH  12  14
ENDBRANCH   1  12
TORSDOF 3
ENDMDL
MODEL 3
REMARK VINA RESULT: -5.963447678      1.699      1.786
REMARK  3 active torsions:
REMARK  status: ('A' for Active; 'I' for Inactive)
REMARK    1  A    between atoms: C2_2  and  C3_3 
REMARK    2  A    between atoms: C3_3  and  N1_5 
REMARK       I    between atoms: N1_5  and  C4_7 
REMARK    3  A    between atoms: C4_7  and  C5_9 
ROOT
HETATM    1  N1  UNL     1       3.811 142.679 352.432  1.00  0.00    -0.327 N 
ATOM      2  H1  UNL     1       4.769 142.677 352.082  1.00  0.00     0.165 HD
HETATM    3  C4  UNL     1       3.079 141.465 352.429  1.00  0.00     0.225 C 
HETATM    4  O1  UNL     1       1.892 141.503 352.870  1.00  0.00    -0.273 OA
ENDROOT
BRANCH   3   5
HETATM    5  C5  UNL     1       3.603 140.188 351.953  1.00  0.00     0.086 C 
HETATM    6  C6  UNL     1       5.137 140.104 351.994  1.00  0.00    -0.001 C 
HETATM    7  C7  UNL     1       5.370 140.151 353.472  1.00  0.00     0.006 C 
HETATM    8  C11 UNL     1       5.338 138.678 351.539  1.00  0.00     0.006 C 
HETATM    9  C8  UNL     1       4.194 139.416 354.083  1.00  0.00     0.006 C 
HETATM   10  C9  UNL     1       3.367 139.023 352.895  1.00  0.00    -0.001 C 
HETATM   11  C10 UNL     1       4.134 137.947 352.138  1.00  0.00     0.006 C 
ENDBRANCH   3   5
BRANCH   1  12
HETATM   12  C3  UNL     1       3.256 143.902 352.906  1.00  0.00     0.294 C 
HETATM   13  F1  UNL     1       4.262 144.677 353.479  1.00  0.00    -0.223 F 
BRANCH  12  14
HETATM   14  C2  UNL     1       2.538 144.674 351.875  1.00  0.00     0.021 C 
HETATM   15  C1  UNL     1       1.447 145.334 352.215  1.00  0.00     0.011 C 
ENDBRANCH  12  14
ENDBRANCH   1  12
TORSDOF 3
ENDMDL
MODEL 4
REMARK VINA RESULT: -5.933368552      1.320      1.542
REMARK  3 active torsions:
REMARK  status: ('A' for Active; 'I' for Inactive)
REMARK    1  A    between atoms: C2_2  and  C3_3 
REMARK    2  A    between atoms: C3_3  and  N1_5 
REMARK       I    between atoms: N1_5  and  C4_7 
REMARK    3  A    between atoms: C4_7  and  C5_9 
ROOT
HETATM    1  N1  UNL     1       3.194 142.652 352.546  1.00  0.00    -0.327 N 
ATOM      2  H1  UNL     1       3.602 142.722 353.478  1.00  0.00     0.165 HD
HETATM    3  C4  UNL     1       2.898 141.368 352.023  1.00  0.00     0.225 C 
HETATM    4  O1  UNL     1       2.394 141.317 350.862  1.00  0.00    -0.273 OA
ENDROOT
BRANCH   3   5
HETATM    5  C5  UNL     1       3.138 140.115 352.733  1.00  0.00     0.086 C 
HETATM    6  C6  UNL     1       3.671 138.993 351.829  1.00  0.00    -0.001 C 
HETATM    7  C7  UNL     1       5.010 139.555 351.464  1.00  0.00     0.006 C 
HETATM    8  C11 UNL     1       3.889 137.906 352.853  1.00  0.00     0.006 C 
HETATM    9  C8  UNL     1       5.470 140.313 352.692  1.00  0.00     0.006 C 
HETATM   10  C9  UNL     1       4.338 140.139 353.660  1.00  0.00    -0.001 C 
HETATM   11  C10 UNL     1       4.329 138.680 354.098  1.00  0.00     0.006 C 
ENDBRANCH   3   5
BRANCH   1  12
HETATM   12  C3  UNL     1       2.943 143.849 351.815  1.00  0.00     0.294 C 
HETATM   13  F1  UNL     1       1.590 144.170 351.902  1.00  0.00    -0.223 F 
BRANCH  12  14
HETATM   14  C2  UNL     1       3.771 144.993 352.235  1.00  0.00     0.021 C 
HETATM   15  C1  UNL     1       3.252 146.206 352.194  1.00  0.00     0.011 C 
ENDBRANCH  12  14
ENDBRANCH   1  12
TORSDOF 3
ENDMDL
MODEL 5
REMARK VINA RESULT: -5.857003362      1.763      2.852
REMARK  3 active torsions:
REMARK  status: ('A' for Active; 'I' for Inactive)
REMARK    1  A    between atoms: C2_2  and  C3_3 
REMARK    2  A    between atoms: C3_3  and  N1_5 
REMARK       I    between atoms: N1_5  and  C4_7 
REMARK    3  A    between atoms: C4_7  and  C5_9 
ROOT
HETATM    1  N1  UNL     1       3.303 140.177 352.516  1.00  0.00    -0.327 N 
ATOM      2  H1  UNL     1       3.066 140.008 353.494  1.00  0.00     0.165 HD
HETATM    3  C4  UNL     1       4.369 139.444 351.935  1.00  0.00     0.225 C 
HETATM    4  O1  UNL     1       4.639 139.679 350.720  1.00  0.00    -0.273 OA
ENDROOT
BRANCH   3   5
HETATM    5  C5  UNL     1       5.167 138.448 352.644  1.00  0.00     0.086 C 
HETATM    6  C6  UNL     1       4.357 137.625 353.658  1.00  0.00    -0.001 C 
HETATM    7  C7  UNL     1       3.445 136.880 352.732  1.00  0.00     0.006 C 
HETATM    8  C11 UNL     1       5.420 136.664 354.132  1.00  0.00     0.006 C 
HETATM    9  C8  UNL     1       4.269 136.621 351.488  1.00  0.00     0.006 C 
HETATM   10  C9  UNL     1       5.589 137.263 351.797  1.00  0.00    -0.001 C 
HETATM   11  C10 UNL     1       6.263 136.427 352.877  1.00  0.00     0.006 C 
ENDBRANCH   3   5
BRANCH   1  12
HETATM   12  C3  UNL     1       2.553 141.141 351.783  1.00  0.00     0.294 C 
HETATM   13  F1  UNL     1       1.935 140.521 350.700  1.00  0.00    -0.223 F 
BRANCH  12  14
HETATM   14  C2  UNL     1       1.561 141.870 352.593  1.00  0.00     0.021 C 
HETATM   15  C1  UNL     1       1.684 143.177 352.730  1.00  0.00     0.011 C 
ENDBRANCH  12  14
ENDBRANCH   1  12
TORSDOF 3
ENDMDL
