MODEL 1
REMARK VINA RESULT: -6.469282470      0.000      0.000
REMARK  2 active torsions:
REMARK  status: ('A' for Active; 'I' for Inactive)
REMARK       I    between atoms: C1_2  and  N1_3 
REMARK       I    between atoms: C1_2  and  N2_9 
REMARK    1  A    between atoms: N1_3  and  C2_5 
REMARK    2  A    between atoms: C2_5  and  C3_6 
ROOT
HETATM    1  O1  UNL     1       2.298 141.075 352.320  1.00  0.00    -0.247 OA
HETATM    2  C1  UNL     1       3.352 141.729 352.399  1.00  0.00     0.322 C 
HETATM    3  N1  UNL     1       4.607 141.099 352.373  1.00  0.00    -0.322 N 
ATOM      4  H1  UNL     1       5.399 141.736 352.460  1.00  0.00     0.169 HD
HETATM    5  N2  UNL     1       3.230 143.161 352.517  1.00  0.00    -0.331 N 
HETATM    6  C6  UNL     1       4.402 143.955 352.610  1.00  0.00     0.128 C 
HETATM    7  C7  UNL     1       4.135 145.399 352.946  1.00  0.00     0.023 C 
HETATM    8  C8  UNL     1       2.992 145.999 352.210  1.00  0.00     0.040 C 
HETATM    9  C9  UNL     1       1.847 145.100 351.932  1.00  0.00     0.188 C 
HETATM   10  F1  UNL     1       0.669 145.695 352.402  1.00  0.00    -0.248 F 
HETATM   11  C10 UNL     1       1.921 143.741 352.536  1.00  0.00     0.164 C 
ENDROOT
BRANCH   3  12
HETATM   12  C2  UNL     1       4.962 139.751 352.248  1.00  0.00     0.070 C 
BRANCH  12  13
HETATM   13  C3  UNL     1       4.896 138.784 353.340  1.00  0.00     0.024 A 
HETATM   14  C4  UNL     1       3.894 138.754 354.461  1.00  0.00     0.010 A 
HETATM   15  C5  UNL     1       3.875 137.695 353.367  1.00  0.00     0.010 A 
ENDBRANCH  12  13
ENDBRANCH   3  12
TORSDOF 2
ENDMDL
MODEL 2
REMARK VINA RESULT: -6.332877779      1.559      2.022
REMARK  2 active torsions:
REMARK  status: ('A' for Active; 'I' for Inactive)
REMARK       I    between atoms: C1_2  and  N1_3 
REMARK       I    between atoms: C1_2  and  N2_9 
REMARK    1  A    between atoms: N1_3  and  C2_5 
REMARK    2  A    between atoms: C2_5  and  C3_6 
ROOT
HETATM    1  O1  UNL     1       5.321 141.811 352.765  1.00  0.00    -0.247 OA
HETATM    2  C1  UNL     1       4.151 141.913 352.359  1.00  0.00     0.322 C 
HETATM    3  N1  UNL     1       3.368 140.777 352.093  1.00  0.00    -0.322 N 
ATOM      4  H1  UNL     1       2.429 140.985 351.751  1.00  0.00     0.169 HD
HETATM    5  N2  UNL     1       3.632 143.246 352.174  1.00  0.00    -0.331 N 
HETATM    6  C6  UNL     1       2.302 143.418 351.712  1.00  0.00     0.128 C 
HETATM    7  C7  UNL     1       1.960 144.841 351.356  1.00  0.00     0.023 C 
HETATM    8  C8  UNL     1       2.455 145.852 352.324  1.00  0.00     0.040 C 
HETATM    9  C9  UNL     1       3.760 145.563 352.964  1.00  0.00     0.188 C 
HETATM   10  F1  UNL     1       4.614 146.660 352.787  1.00  0.00    -0.248 F 
HETATM   11  C10 UNL     1       4.481 144.361 352.464  1.00  0.00     0.164 C 
ENDROOT
BRANCH   3  12
HETATM   12  C2  UNL     1       3.649 139.411 352.217  1.00  0.00     0.070 C 
BRANCH  12  13
HETATM   13  C3  UNL     1       4.252 138.805 353.400  1.00  0.00     0.024 A 
HETATM   14  C4  UNL     1       3.667 138.750 354.785  1.00  0.00     0.010 A 
HETATM   15  C5  UNL     1       3.786 137.492 353.936  1.00  0.00     0.010 A 
ENDBRANCH  12  13
ENDBRANCH   3  12
TORSDOF 2
ENDMDL
MODEL 3
REMARK VINA RESULT: -6.047038180      1.165      1.663
REMARK  2 active torsions:
REMARK  status: ('A' for Active; 'I' for Inactive)
REMARK       I    between atoms: C1_2  and  N1_3 
REMARK       I    between atoms: C1_2  and  N2_9 
REMARK    1  A    between atoms: N1_3  and  C2_5 
REMARK    2  A    between atoms: C2_5  and  C3_6 
ROOT
HETATM    1  O1  UNL     1       2.201 141.064 352.349  1.00  0.00    -0.247 OA
HETATM    2  C1  UNL     1       3.269 141.699 352.346  1.00  0.00     0.322 C 
HETATM    3  N1  UNL     1       4.507 141.046 352.217  1.00  0.00    -0.322 N 
ATOM      4  H1  UNL     1       5.315 141.669 352.243  1.00  0.00     0.169 HD
HETATM    5  N2  UNL     1       3.183 143.132 352.477  1.00  0.00    -0.331 N 
HETATM    6  C6  UNL     1       4.373 143.904 352.479  1.00  0.00     0.128 C 
HETATM    7  C7  UNL     1       4.161 145.351 352.839  1.00  0.00     0.023 C 
HETATM    8  C8  UNL     1       2.974 145.975 352.199  1.00  0.00     0.040 C 
HETATM    9  C9  UNL     1       1.794 145.098 352.011  1.00  0.00     0.188 C 
HETATM   10  F1  UNL     1       0.668 145.712 352.574  1.00  0.00    -0.248 F 
HETATM   11  C10 UNL     1       1.891 143.736 352.602  1.00  0.00     0.164 C 
ENDROOT
BRANCH   3  12
HETATM   12  C2  UNL     1       4.826 139.692 352.060  1.00  0.00     0.070 C 
BRANCH  12  13
HETATM   13  C3  UNL     1       4.843 139.001 350.775  1.00  0.00     0.024 A 
HETATM   14  C4  UNL     1       4.115 137.733 350.420  1.00  0.00     0.010 A 
HETATM   15  C5  UNL     1       3.689 139.071 349.829  1.00  0.00     0.010 A 
ENDBRANCH  12  13
ENDBRANCH   3  12
TORSDOF 2
ENDMDL
MODEL 4
REMARK VINA RESULT: -6.027694109      1.700      2.241
REMARK  2 active torsions:
REMARK  status: ('A' for Active; 'I' for Inactive)
REMARK       I    between atoms: C1_2  and  N1_3 
REMARK       I    between atoms: C1_2  and  N2_9 
REMARK    1  A    between atoms: N1_3  and  C2_5 
REMARK    2  A    between atoms: C2_5  and  C3_6 
ROOT
HETATM    1  O1  UNL     1       5.729 142.199 353.045  1.00  0.00    -0.247 OA
HETATM    2  C1  UNL     1       4.541 142.093 352.696  1.00  0.00     0.322 C 
HETATM    3  N1  UNL     1       3.887 140.850 352.694  1.00  0.00    -0.322 N 
ATOM      4  H1  UNL     1       2.919 140.885 352.374  1.00  0.00     0.169 HD
HETATM    5  N2  UNL     1       3.863 143.302 352.296  1.00  0.00    -0.331 N 
HETATM    6  C6  UNL     1       2.506 143.237 351.888  1.00  0.00     0.128 C 
HETATM    7  C7  UNL     1       1.987 144.519 351.293  1.00  0.00     0.023 C 
HETATM    8  C8  UNL     1       2.395 145.746 352.025  1.00  0.00     0.040 C 
HETATM    9  C9  UNL     1       3.747 145.728 352.631  1.00  0.00     0.188 C 
HETATM   10  F1  UNL     1       4.460 146.855 352.201  1.00  0.00    -0.248 F 
HETATM   11  C10 UNL     1       4.586 144.537 352.322  1.00  0.00     0.164 C 
ENDROOT
BRANCH   3  12
HETATM   12  C2  UNL     1       4.331 139.572 353.054  1.00  0.00     0.070 C 
BRANCH  12  13
HETATM   13  C3  UNL     1       3.799 138.334 352.490  1.00  0.00     0.024 A 
HETATM   14  C4  UNL     1       4.589 137.147 352.010  1.00  0.00     0.010 A 
HETATM   15  C5  UNL     1       3.749 137.068 353.279  1.00  0.00     0.010 A 
ENDBRANCH  12  13
ENDBRANCH   3  12
TORSDOF 2
ENDMDL
MODEL 5
REMARK VINA RESULT: -5.892605429      3.137      6.404
REMARK  2 active torsions:
REMARK  status: ('A' for Active; 'I' for Inactive)
REMARK       I    between atoms: C1_2  and  N1_3 
REMARK       I    between atoms: C1_2  and  N2_9 
REMARK    1  A    between atoms: N1_3  and  C2_5 
REMARK    2  A    between atoms: C2_5  and  C3_6 
ROOT
HETATM    1  O1  UNL     1       2.785 140.483 350.448  1.00  0.00    -0.247 OA
HETATM    2  C1  UNL     1       2.932 140.535 351.680  1.00  0.00     0.322 C 
HETATM    3  N1  UNL     1       2.557 141.673 352.414  1.00  0.00    -0.322 N 
ATOM      4  H1  UNL     1       2.739 141.606 353.416  1.00  0.00     0.169 HD
HETATM    5  N2  UNL     1       3.502 139.378 352.325  1.00  0.00    -0.331 N 
HETATM    6  C6  UNL     1       3.691 139.385 353.731  1.00  0.00     0.128 C 
HETATM    7  C7  UNL     1       4.488 138.215 354.245  1.00  0.00     0.023 C 
HETATM    8  C8  UNL     1       4.122 136.909 353.639  1.00  0.00     0.040 C 
HETATM    9  C9  UNL     1       3.723 136.938 352.212  1.00  0.00     0.188 C 
HETATM   10  F1  UNL     1       4.495 136.012 351.498  1.00  0.00    -0.248 F 
HETATM   11  C10 UNL     1       3.862 138.249 351.521  1.00  0.00     0.164 C 
ENDROOT
BRANCH   3  12
HETATM   12  C2  UNL     1       1.978 142.882 352.012  1.00  0.00     0.070 C 
BRANCH  12  13
HETATM   13  C3  UNL     1       2.239 144.167 352.655  1.00  0.00     0.024 A 
HETATM   14  C4  UNL     1       2.792 145.407 352.007  1.00  0.00     0.010 A 
HETATM   15  C5  UNL     1       1.339 145.342 352.460  1.00  0.00     0.010 A 
ENDBRANCH  12  13
ENDBRANCH   3  12
TORSDOF 2
ENDMDL
