MODEL 1
REMARK VINA RESULT: -5.595117053      0.000      0.000
REMARK  2 active torsions:
REMARK  status: ('A' for Active; 'I' for Inactive)
REMARK       I    between atoms: C1_4  and  N3_6 
REMARK    1  A    between atoms: C2_8  and  C3_9 
REMARK    2  A    between atoms: C2_8  and  N4_11 
ROOT
HETATM    1  N1  UNL     1     -23.816 -22.169 -12.786  1.00  0.00    -0.373 N 
ATOM      2  H11 UNL     1     -23.897 -22.735 -11.942  1.00  0.00     0.158 HD
ATOM      3  H12 UNL     1     -24.291 -21.272 -12.885  1.00  0.00     0.158 HD
HETATM    4  C1  UNL     1     -23.100 -22.576 -13.770  1.00  0.00     0.187 C 
HETATM    5  N2  UNL     1     -22.986 -21.784 -14.952  1.00  0.00    -0.064 NA
HETATM    6  N3  UNL     1     -22.441 -23.820 -13.633  1.00  0.00    -0.320 N 
ATOM      7  H3  UNL     1     -22.784 -24.616 -14.170  1.00  0.00     0.169 HD
HETATM    8  C2  UNL     1     -21.429 -23.990 -12.861  1.00  0.00     0.095 C 
ENDROOT
BRANCH   8   9
HETATM    9  C3  UNL     1     -20.847 -22.883 -12.031  1.00  0.00     0.191 C 
HETATM   10 CL1  UNL     1     -19.854 -21.803 -13.037  1.00  0.00    -0.122 Cl
ENDBRANCH   8   9
BRANCH   8  11
HETATM   11  N4  UNL     1     -20.816 -25.260 -12.769  1.00  0.00    -0.370 N 
HETATM   12  C4  UNL     1     -19.745 -25.466 -11.817  1.00  0.00     0.124 C 
HETATM   13  C5  UNL     1     -18.543 -25.924 -12.651  1.00  0.00     0.020 C 
HETATM   14  C6  UNL     1     -18.932 -27.277 -13.209  1.00  0.00     0.003 C 
HETATM   15  C7  UNL     1     -20.032 -27.074 -14.199  1.00  0.00     0.020 C 
HETATM   16  C8  UNL     1     -21.219 -26.380 -13.595  1.00  0.00     0.124 C 
ENDBRANCH   8  11
TORSDOF 2
ENDMDL
MODEL 2
REMARK VINA RESULT: -5.313370249      2.763      5.279
REMARK  2 active torsions:
REMARK  status: ('A' for Active; 'I' for Inactive)
REMARK       I    between atoms: C1_4  and  N3_6 
REMARK    1  A    between atoms: C2_8  and  C3_9 
REMARK    2  A    between atoms: C2_8  and  N4_11 
ROOT
HETATM    1  N1  UNL     1     -16.565 -27.135 -11.845  1.00  0.00    -0.373 N 
ATOM      2  H11 UNL     1     -17.224 -27.497 -11.155  1.00  0.00     0.158 HD
ATOM      3  H12 UNL     1     -15.657 -27.569 -12.006  1.00  0.00     0.158 HD
HETATM    4  C1  UNL     1     -16.866 -26.101 -12.543  1.00  0.00     0.187 C 
HETATM    5  N2  UNL     1     -15.944 -25.594 -13.508  1.00  0.00    -0.064 NA
HETATM    6  N3  UNL     1     -18.126 -25.499 -12.319  1.00  0.00    -0.320 N 
ATOM      7  H3  UNL     1     -18.158 -24.598 -11.841  1.00  0.00     0.169 HD
HETATM    8  C2  UNL     1     -19.229 -26.038 -12.691  1.00  0.00     0.095 C 
ENDROOT
BRANCH   8   9
HETATM    9  C3  UNL     1     -19.289 -27.359 -13.402  1.00  0.00     0.191 C 
HETATM   10 CL1  UNL     1     -19.264 -27.121 -15.164  1.00  0.00    -0.122 Cl
ENDBRANCH   8   9
BRANCH   8  11
HETATM   11  N4  UNL     1     -20.456 -25.384 -12.435  1.00  0.00    -0.370 N 
HETATM   12  C4  UNL     1     -21.696 -26.122 -12.558  1.00  0.00     0.124 C 
HETATM   13  C5  UNL     1     -22.520 -25.361 -13.603  1.00  0.00     0.020 C 
HETATM   14  C6  UNL     1     -22.840 -24.024 -12.967  1.00  0.00     0.003 C 
HETATM   15  C7  UNL     1     -21.568 -23.251 -12.843  1.00  0.00     0.020 C 
HETATM   16  C8  UNL     1     -20.529 -23.990 -12.049  1.00  0.00     0.124 C 
ENDBRANCH   8  11
TORSDOF 2
ENDMDL
MODEL 3
REMARK VINA RESULT: -5.226431913      3.763      5.535
REMARK  2 active torsions:
REMARK  status: ('A' for Active; 'I' for Inactive)
REMARK       I    between atoms: C1_4  and  N3_6 
REMARK    1  A    between atoms: C2_8  and  C3_9 
REMARK    2  A    between atoms: C2_8  and  N4_11 
ROOT
HETATM    1  N1  UNL     1     -14.822 -24.997 -12.066  1.00  0.00    -0.373 N 
ATOM      2  H11 UNL     1     -15.139 -25.591 -11.300  1.00  0.00     0.158 HD
ATOM      3  H12 UNL     1     -13.839 -24.760 -12.197  1.00  0.00     0.158 HD
HETATM    4  C1  UNL     1     -15.668 -24.518 -12.905  1.00  0.00     0.187 C 
HETATM    5  N2  UNL     1     -15.224 -23.686 -13.976  1.00  0.00    -0.064 NA
HETATM    6  N3  UNL     1     -17.032 -24.846 -12.722  1.00  0.00    -0.320 N 
ATOM      7  H3  UNL     1     -17.668 -24.121 -12.391  1.00  0.00     0.169 HD
HETATM    8  C2  UNL     1     -17.502 -26.017 -12.956  1.00  0.00     0.095 C 
ENDROOT
BRANCH   8   9
HETATM    9  C3  UNL     1     -16.650 -27.151 -13.448  1.00  0.00     0.191 C 
HETATM   10 CL1  UNL     1     -16.137 -28.180 -12.091  1.00  0.00    -0.122 Cl
ENDBRANCH   8   9
BRANCH   8  11
HETATM   11  N4  UNL     1     -18.877 -26.279 -12.753  1.00  0.00    -0.370 N 
HETATM   12  C4  UNL     1     -19.482 -27.433 -13.385  1.00  0.00     0.124 C 
HETATM   13  C5  UNL     1     -20.620 -26.872 -14.246  1.00  0.00     0.020 C 
HETATM   14  C6  UNL     1     -21.624 -26.304 -13.266  1.00  0.00     0.003 C 
HETATM   15  C7  UNL     1     -21.011 -25.107 -12.613  1.00  0.00     0.020 C 
HETATM   16  C8  UNL     1     -19.716 -25.436 -11.928  1.00  0.00     0.124 C 
ENDBRANCH   8  11
TORSDOF 2
ENDMDL
MODEL 4
REMARK VINA RESULT: -4.786330279      1.963      2.354
REMARK  2 active torsions:
REMARK  status: ('A' for Active; 'I' for Inactive)
REMARK       I    between atoms: C1_4  and  N3_6 
REMARK    1  A    between atoms: C2_8  and  C3_9 
REMARK    2  A    between atoms: C2_8  and  N4_11 
ROOT
HETATM    1  N1  UNL     1     -20.476 -21.220 -13.473  1.00  0.00    -0.373 N 
ATOM      2  H11 UNL     1     -20.257 -21.727 -14.330  1.00  0.00     0.158 HD
ATOM      3  H12 UNL     1     -20.706 -20.226 -13.475  1.00  0.00     0.158 HD
HETATM    4  C1  UNL     1     -20.469 -21.828 -12.342  1.00  0.00     0.187 C 
HETATM    5  N2  UNL     1     -20.775 -21.117 -11.143  1.00  0.00    -0.064 NA
HETATM    6  N3  UNL     1     -20.150 -23.206 -12.339  1.00  0.00    -0.320 N 
ATOM      7  H3  UNL     1     -19.247 -23.497 -11.965  1.00  0.00     0.169 HD
HETATM    8  C2  UNL     1     -20.949 -24.105 -12.787  1.00  0.00     0.095 C 
ENDROOT
BRANCH   8   9
HETATM    9  C3  UNL     1     -22.299 -23.781 -13.357  1.00  0.00     0.191 C 
HETATM   10 CL1  UNL     1     -23.440 -23.361 -12.058  1.00  0.00    -0.122 Cl
ENDBRANCH   8   9
BRANCH   8  11
HETATM   11  N4  UNL     1     -20.568 -25.466 -12.756  1.00  0.00    -0.370 N 
HETATM   12  C4  UNL     1     -19.390 -25.858 -12.011  1.00  0.00     0.124 C 
HETATM   13  C5  UNL     1     -18.471 -26.538 -13.034  1.00  0.00     0.020 C 
HETATM   14  C6  UNL     1     -19.196 -27.800 -13.450  1.00  0.00     0.003 C 
HETATM   15  C7  UNL     1     -20.410 -27.406 -14.226  1.00  0.00     0.020 C 
HETATM   16  C8  UNL     1     -21.315 -26.499 -13.443  1.00  0.00     0.124 C 
ENDBRANCH   8  11
TORSDOF 2
ENDMDL
MODEL 5
REMARK VINA RESULT: -4.761551135      4.668      5.512
REMARK  2 active torsions:
REMARK  status: ('A' for Active; 'I' for Inactive)
REMARK       I    between atoms: C1_4  and  N3_6 
REMARK    1  A    between atoms: C2_8  and  C3_9 
REMARK    2  A    between atoms: C2_8  and  N4_11 
ROOT
HETATM    1  N1  UNL     1     -16.680 -23.228 -13.065  1.00  0.00    -0.373 N 
ATOM      2  H11 UNL     1     -17.646 -23.378 -13.352  1.00  0.00     0.158 HD
ATOM      3  H12 UNL     1     -16.390 -22.397 -12.551  1.00  0.00     0.158 HD
HETATM    4  C1  UNL     1     -15.780 -24.099 -13.348  1.00  0.00     0.187 C 
HETATM    5  N2  UNL     1     -14.426 -23.889 -12.946  1.00  0.00    -0.064 NA
HETATM    6  N3  UNL     1     -16.182 -25.251 -14.063  1.00  0.00    -0.320 N 
ATOM      7  H3  UNL     1     -15.903 -25.342 -15.040  1.00  0.00     0.169 HD
HETATM    8  C2  UNL     1     -16.883 -26.187 -13.534  1.00  0.00     0.095 C 
ENDROOT
BRANCH   8   9
HETATM    9  C3  UNL     1     -17.342 -26.150 -12.105  1.00  0.00     0.191 C 
HETATM   10 CL1  UNL     1     -19.109 -25.971 -12.022  1.00  0.00    -0.122 Cl
ENDBRANCH   8   9
BRANCH   8  11
HETATM   11  N4  UNL     1     -17.252 -27.314 -14.304  1.00  0.00    -0.370 N 
HETATM   12  C4  UNL     1     -18.350 -27.205 -15.242  1.00  0.00     0.124 C 
HETATM   13  C5  UNL     1     -19.362 -28.273 -14.809  1.00  0.00     0.020 C 
HETATM   14  C6  UNL     1     -18.676 -29.600 -15.052  1.00  0.00     0.003 C 
HETATM   15  C7  UNL     1     -17.546 -29.725 -14.083  1.00  0.00     0.020 C 
HETATM   16  C8  UNL     1     -16.572 -28.588 -14.196  1.00  0.00     0.124 C 
ENDBRANCH   8  11
TORSDOF 2
ENDMDL
