MODEL 1
REMARK VINA RESULT: -9.045267547      0.000      0.000
REMARK  13 active torsions:
REMARK  status: ('A' for Active; 'I' for Inactive)
REMARK    1  A    between atoms: O1_2  and  C2_3 
REMARK    2  A    between atoms: C2_3  and  C3_5 
REMARK    3  A    between atoms: C3_5  and  C4_6 
REMARK    4  A    between atoms: C4_6  and  C5_7 
REMARK    5  A    between atoms: C8_10  and  O3_11 
REMARK    6  A    between atoms: C10_14  and  O4_15 
REMARK    7  A    between atoms: O4_15  and  C11_16 
REMARK    8  A    between atoms: C11_16  and  C12_18 
REMARK    9  A    between atoms: C12_18  and  N1_19 
REMARK   10  A    between atoms: C19_29  and  O6_30 
REMARK   11  A    between atoms: C19_29  and  C20_32 
REMARK   12  A    between atoms: C20_32  and  C22_34 
REMARK   13  A    between atoms: C22_34  and  C23_35 
REMARK       I    between atoms: C23_35  and  N2_37 
ROOT
HETATM    1  C5  UNL     1       0.260 -13.098 -17.317  1.00  0.00    -0.003 C 
HETATM    2  C6  UNL     1      -0.151 -14.272 -18.270  1.00  0.00     0.008 C 
HETATM    3  C7  UNL     1       1.148 -14.970 -18.437  1.00  0.00     0.039 C 
HETATM    4  C8  UNL     1       1.860 -14.874 -17.078  1.00  0.00     0.072 C 
HETATM    5  C9  UNL     1       1.941 -16.257 -16.566  1.00  0.00     0.055 C 
HETATM    6  C10 UNL     1       2.923 -16.541 -15.487  1.00  0.00     0.140 C 
HETATM    7  C13 UNL     1       3.136 -18.084 -15.596  1.00  0.00     0.045 C 
HETATM    8  C14 UNL     1       1.918 -18.718 -15.079  1.00  0.00    -0.006 C 
HETATM    9  C15 UNL     1       1.909 -18.654 -13.566  1.00  0.00     0.019 C 
HETATM   10  C16 UNL     1       0.626 -18.202 -15.632  1.00  0.00     0.001 C 
HETATM   11  C17 UNL     1       0.069 -19.226 -16.596  1.00  0.00     0.009 C 
HETATM   12  C18 UNL     1       1.329 -20.065 -16.863  1.00  0.00     0.039 C 
HETATM   13  C19 UNL     1       1.829 -20.205 -15.465  1.00  0.00     0.069 C 
HETATM   14  C28 UNL     1       0.611 -16.829 -16.202  1.00  0.00    -0.000 C 
HETATM   15  C29 UNL     1      -0.277 -15.897 -15.419  1.00  0.00     0.006 C 
HETATM   16  C30 UNL     1       0.124 -14.508 -15.275  1.00  0.00     0.013 C 
HETATM   17  C31 UNL     1       1.038 -13.898 -16.318  1.00  0.00    -0.009 C 
HETATM   18  C32 UNL     1       1.975 -13.004 -15.543  1.00  0.00     0.019 C 
ENDROOT
BRANCH  13  19
HETATM   19  O6  UNL     1       0.891 -20.821 -14.625  1.00  0.00    -0.389 OA
ATOM     20  H6  UNL     1       0.358 -21.404 -15.152  1.00  0.00     0.210 HD
ENDBRANCH  13  19
BRANCH  13  21
HETATM   21  C20 UNL     1       3.088 -20.958 -15.392  1.00  0.00     0.025 C 
HETATM   22  C21 UNL     1       3.140 -22.052 -14.331  1.00  0.00     0.013 C 
BRANCH  21  23
HETATM   23  C22 UNL     1       3.602 -21.480 -16.699  1.00  0.00     0.110 C 
BRANCH  23  24
HETATM   24  C23 UNL     1       4.986 -21.268 -17.063  1.00  0.00     0.220 C 
HETATM   25  O7  UNL     1       5.761 -20.635 -16.297  1.00  0.00    -0.273 OA
HETATM   26  N2  UNL     1       5.580 -21.726 -18.251  1.00  0.00    -0.352 N 
HETATM   27  C24 UNL     1       6.949 -21.507 -18.667  1.00  0.00     0.126 C 
HETATM   28  C27 UNL     1       4.976 -22.520 -19.283  1.00  0.00     0.126 C 
HETATM   29  C25 UNL     1       6.929 -21.618 -20.183  1.00  0.00     0.021 C 
HETATM   30  C26 UNL     1       5.443 -21.768 -20.523  1.00  0.00     0.021 C 
ENDBRANCH  23  24
ENDBRANCH  21  23
ENDBRANCH  13  21
BRANCH   6  31
HETATM   31  O4  UNL     1       4.203 -15.964 -15.680  1.00  0.00    -0.314 OA
BRANCH  31  32
HETATM   32  C11 UNL     1       5.371 -16.685 -15.487  1.00  0.00     0.284 C 
HETATM   33  O5  UNL     1       6.236 -16.792 -16.390  1.00  0.00    -0.263 OA
BRANCH  32  34
HETATM   34  C12 UNL     1       5.554 -17.331 -14.153  1.00  0.00     0.340 C 
BRANCH  34  35
HETATM   35  N1  UNL     1       6.288 -18.568 -14.297  1.00  0.00    -0.070 N 
ATOM     36  H13 UNL     1       5.828 -19.212 -14.939  1.00  0.00     0.274 HD
ATOM     37  H12 UNL     1       7.158 -18.438 -14.813  1.00  0.00     0.274 HD
ATOM     38  H11 UNL     1       6.447 -18.989 -13.382  1.00  0.00     0.274 HD
ENDBRANCH  34  35
ENDBRANCH  32  34
ENDBRANCH  31  32
ENDBRANCH   6  31
BRANCH   4  39
HETATM   39  O3  UNL     1       3.168 -14.410 -17.320  1.00  0.00    -0.389 OA
ATOM     40  H3  UNL     1       3.424 -13.880 -16.574  1.00  0.00     0.210 HD
ENDBRANCH   4  39
BRANCH   1  41
HETATM   41  C4  UNL     1       0.923 -12.136 -18.192  1.00  0.00     0.015 C 
BRANCH  41  42
HETATM   42  C3  UNL     1       0.222 -11.573 -19.381  1.00  0.00     0.111 C 
BRANCH  42  43
HETATM   43  C2  UNL     1      -0.587 -10.366 -18.896  1.00  0.00     0.258 C 
HETATM   44  O2  UNL     1      -0.988  -9.591 -19.787  1.00  0.00    -0.265 OA
BRANCH  43  45
HETATM   45  O1  UNL     1      -0.856 -10.145 -17.574  1.00  0.00    -0.326 OA
HETATM   46  C1  UNL     1      -2.031  -9.390 -17.241  1.00  0.00     0.213 C 
ENDBRANCH  43  45
ENDBRANCH  42  43
ENDBRANCH  41  42
ENDBRANCH   1  41
TORSDOF 13
ENDMDL
MODEL 2
REMARK VINA RESULT: -8.932658698      1.010      1.380
REMARK  13 active torsions:
REMARK  status: ('A' for Active; 'I' for Inactive)
REMARK    1  A    between atoms: O1_2  and  C2_3 
REMARK    2  A    between atoms: C2_3  and  C3_5 
REMARK    3  A    between atoms: C3_5  and  C4_6 
REMARK    4  A    between atoms: C4_6  and  C5_7 
REMARK    5  A    between atoms: C8_10  and  O3_11 
REMARK    6  A    between atoms: C10_14  and  O4_15 
REMARK    7  A    between atoms: O4_15  and  C11_16 
REMARK    8  A    between atoms: C11_16  and  C12_18 
REMARK    9  A    between atoms: C12_18  and  N1_19 
REMARK   10  A    between atoms: C19_29  and  O6_30 
REMARK   11  A    between atoms: C19_29  and  C20_32 
REMARK   12  A    between atoms: C20_32  and  C22_34 
REMARK   13  A    between atoms: C22_34  and  C23_35 
REMARK       I    between atoms: C23_35  and  N2_37 
ROOT
HETATM    1  C5  UNL     1      -0.172 -13.061 -16.370  1.00  0.00    -0.003 C 
HETATM    2  C6  UNL     1      -0.369 -14.119 -17.508  1.00  0.00     0.008 C 
HETATM    3  C7  UNL     1       0.999 -14.685 -17.611  1.00  0.00     0.039 C 
HETATM    4  C8  UNL     1       1.552 -14.724 -16.177  1.00  0.00     0.072 C 
HETATM    5  C9  UNL     1       1.706 -16.155 -15.843  1.00  0.00     0.055 C 
HETATM    6  C10 UNL     1       2.589 -16.509 -14.702  1.00  0.00     0.140 C 
HETATM    7  C13 UNL     1       2.955 -18.001 -14.984  1.00  0.00     0.045 C 
HETATM    8  C14 UNL     1       1.753 -18.793 -14.700  1.00  0.00    -0.006 C 
HETATM    9  C15 UNL     1       1.578 -18.940 -13.204  1.00  0.00     0.019 C 
HETATM   10  C16 UNL     1       0.484 -18.306 -15.329  1.00  0.00     0.001 C 
HETATM   11  C17 UNL     1       0.130 -19.226 -16.477  1.00  0.00     0.009 C 
HETATM   12  C18 UNL     1       1.482 -19.920 -16.700  1.00  0.00     0.039 C 
HETATM   13  C19 UNL     1       1.843 -20.214 -15.284  1.00  0.00     0.069 C 
HETATM   14  C28 UNL     1       0.402 -16.872 -15.714  1.00  0.00    -0.000 C 
HETATM   15  C29 UNL     1      -0.645 -16.129 -14.927  1.00  0.00     0.006 C 
HETATM   16  C30 UNL     1      -0.392 -14.748 -14.558  1.00  0.00     0.013 C 
HETATM   17  C31 UNL     1       0.567 -13.930 -15.399  1.00  0.00    -0.009 C 
HETATM   18  C32 UNL     1       1.330 -13.082 -14.409  1.00  0.00     0.019 C 
ENDROOT
BRANCH  13  19
HETATM   19  O6  UNL     1       0.883 -21.011 -14.646  1.00  0.00    -0.389 OA
ATOM     20  H6  UNL     1       1.260 -21.871 -14.502  1.00  0.00     0.210 HD
ENDBRANCH  13  19
BRANCH  13  21
HETATM   21  C20 UNL     1       3.151 -20.870 -15.162  1.00  0.00     0.025 C 
HETATM   22  C21 UNL     1       3.304 -21.818 -13.977  1.00  0.00     0.013 C 
BRANCH  21  23
HETATM   23  C22 UNL     1       3.666 -21.516 -16.412  1.00  0.00     0.110 C 
BRANCH  23  24
HETATM   24  C23 UNL     1       5.018 -21.254 -16.852  1.00  0.00     0.220 C 
HETATM   25  O7  UNL     1       5.794 -20.547 -16.156  1.00  0.00    -0.273 OA
HETATM   26  N2  UNL     1       5.579 -21.739 -18.046  1.00  0.00    -0.352 N 
HETATM   27  C24 UNL     1       6.913 -21.473 -18.538  1.00  0.00     0.126 C 
HETATM   28  C27 UNL     1       4.969 -22.611 -19.010  1.00  0.00     0.126 C 
HETATM   29  C25 UNL     1       6.829 -21.658 -20.044  1.00  0.00     0.021 C 
HETATM   30  C26 UNL     1       5.338 -21.898 -20.304  1.00  0.00     0.021 C 
ENDBRANCH  23  24
ENDBRANCH  21  23
ENDBRANCH  13  21
BRANCH   6  31
HETATM   31  O4  UNL     1       3.823 -15.814 -14.667  1.00  0.00    -0.314 OA
BRANCH  31  32
HETATM   32  C11 UNL     1       5.042 -16.476 -14.669  1.00  0.00     0.284 C 
HETATM   33  O5  UNL     1       5.456 -17.097 -13.659  1.00  0.00    -0.263 OA
BRANCH  32  34
HETATM   34  C12 UNL     1       5.842 -16.416 -15.928  1.00  0.00     0.340 C 
BRANCH  34  35
HETATM   35  N1  UNL     1       6.349 -17.729 -16.257  1.00  0.00    -0.070 N 
ATOM     36  H13 UNL     1       6.759 -18.193 -15.447  1.00  0.00     0.274 HD
ATOM     37  H12 UNL     1       5.598 -18.392 -16.447  1.00  0.00     0.274 HD
ATOM     38  H11 UNL     1       7.007 -17.665 -17.034  1.00  0.00     0.274 HD
ENDBRANCH  34  35
ENDBRANCH  32  34
ENDBRANCH  31  32
ENDBRANCH   6  31
BRANCH   4  39
HETATM   39  O3  UNL     1       2.828 -14.131 -16.201  1.00  0.00    -0.389 OA
ATOM     40  H3  UNL     1       3.196 -14.212 -15.329  1.00  0.00     0.210 HD
ENDBRANCH   4  39
BRANCH   1  41
HETATM   41  C4  UNL     1       0.488 -11.938 -17.029  1.00  0.00     0.015 C 
BRANCH  41  42
HETATM   42  C3  UNL     1      -0.306 -10.863 -17.689  1.00  0.00     0.111 C 
BRANCH  42  43
HETATM   43  C2  UNL     1      -0.015 -10.947 -19.190  1.00  0.00     0.258 C 
HETATM   44  O2  UNL     1      -0.716 -10.217 -19.918  1.00  0.00    -0.265 OA
BRANCH  43  45
HETATM   45  O1  UNL     1       0.950 -11.767 -19.707  1.00  0.00    -0.326 OA
HETATM   46  C1  UNL     1       0.585 -12.646 -20.781  1.00  0.00     0.213 C 
ENDBRANCH  43  45
ENDBRANCH  42  43
ENDBRANCH  41  42
ENDBRANCH   1  41
TORSDOF 13
ENDMDL
MODEL 3
REMARK VINA RESULT: -8.552540806      3.690      9.949
REMARK  13 active torsions:
REMARK  status: ('A' for Active; 'I' for Inactive)
REMARK    1  A    between atoms: O1_2  and  C2_3 
REMARK    2  A    between atoms: C2_3  and  C3_5 
REMARK    3  A    between atoms: C3_5  and  C4_6 
REMARK    4  A    between atoms: C4_6  and  C5_7 
REMARK    5  A    between atoms: C8_10  and  O3_11 
REMARK    6  A    between atoms: C10_14  and  O4_15 
REMARK    7  A    between atoms: O4_15  and  C11_16 
REMARK    8  A    between atoms: C11_16  and  C12_18 
REMARK    9  A    between atoms: C12_18  and  N1_19 
REMARK   10  A    between atoms: C19_29  and  O6_30 
REMARK   11  A    between atoms: C19_29  and  C20_32 
REMARK   12  A    between atoms: C20_32  and  C22_34 
REMARK   13  A    between atoms: C22_34  and  C23_35 
REMARK       I    between atoms: C23_35  and  N2_37 
ROOT
HETATM    1  C5  UNL     1       2.316 -19.792 -16.059  1.00  0.00    -0.003 C 
HETATM    2  C6  UNL     1       1.379 -19.327 -17.225  1.00  0.00     0.008 C 
HETATM    3  C7  UNL     1       0.281 -18.679 -16.467  1.00  0.00     0.039 C 
HETATM    4  C8  UNL     1       0.945 -17.986 -15.266  1.00  0.00     0.072 C 
HETATM    5  C9  UNL     1       0.754 -16.536 -15.480  1.00  0.00     0.055 C 
HETATM    6  C10 UNL     1       0.917 -15.635 -14.311  1.00  0.00     0.140 C 
HETATM    7  C13 UNL     1       0.130 -14.354 -14.735  1.00  0.00     0.045 C 
HETATM    8  C14 UNL     1       0.937 -13.680 -15.758  1.00  0.00    -0.006 C 
HETATM    9  C15 UNL     1       2.096 -12.958 -15.105  1.00  0.00     0.019 C 
HETATM   10  C16 UNL     1       1.424 -14.543 -16.881  1.00  0.00     0.001 C 
HETATM   11  C17 UNL     1       0.615 -14.227 -18.120  1.00  0.00     0.009 C 
HETATM   12  C18 UNL     1      -0.590 -13.515 -17.486  1.00  0.00     0.039 C 
HETATM   13  C19 UNL     1       0.128 -12.623 -16.531  1.00  0.00     0.069 C 
HETATM   14  C28 UNL     1       1.532 -16.006 -16.640  1.00  0.00    -0.000 C 
HETATM   15  C29 UNL     1       2.956 -16.492 -16.712  1.00  0.00     0.006 C 
HETATM   16  C30 UNL     1       3.376 -17.557 -15.818  1.00  0.00     0.013 C 
HETATM   17  C31 UNL     1       2.333 -18.514 -15.278  1.00  0.00    -0.009 C 
HETATM   18  C32 UNL     1       2.744 -18.775 -13.849  1.00  0.00     0.019 C 
ENDROOT
BRANCH  13  19
HETATM   19  O6  UNL     1       1.030 -11.768 -17.178  1.00  0.00    -0.389 OA
ATOM     20  H6  UNL     1       1.467 -12.261 -17.863  1.00  0.00     0.210 HD
ENDBRANCH  13  19
BRANCH  13  21
HETATM   21  C20 UNL     1      -0.790 -11.809 -15.724  1.00  0.00     0.025 C 
HETATM   22  C21 UNL     1      -0.128 -10.837 -14.753  1.00  0.00     0.013 C 
BRANCH  21  23
HETATM   23  C22 UNL     1      -1.878 -11.118 -16.488  1.00  0.00     0.110 C 
BRANCH  23  24
HETATM   24  C23 UNL     1      -1.633  -9.818 -17.070  1.00  0.00     0.220 C 
HETATM   25  O7  UNL     1      -1.143  -9.715 -18.226  1.00  0.00    -0.273 OA
HETATM   26  N2  UNL     1      -1.904  -8.593 -16.437  1.00  0.00    -0.352 N 
HETATM   27  C24 UNL     1      -1.644  -7.273 -16.971  1.00  0.00     0.126 C 
HETATM   28  C27 UNL     1      -2.512  -8.386 -15.153  1.00  0.00     0.126 C 
HETATM   29  C25 UNL     1      -1.510  -6.369 -15.756  1.00  0.00     0.021 C 
HETATM   30  C26 UNL     1      -1.579  -7.334 -14.568  1.00  0.00     0.021 C 
ENDBRANCH  23  24
ENDBRANCH  21  23
ENDBRANCH  13  21
BRANCH   6  31
HETATM   31  O4  UNL     1       0.298 -16.087 -13.119  1.00  0.00    -0.314 OA
BRANCH  31  32
HETATM   32  C11 UNL     1       0.290 -15.327 -11.960  1.00  0.00     0.284 C 
HETATM   33  O5  UNL     1       1.351 -14.892 -11.449  1.00  0.00    -0.263 OA
BRANCH  32  34
HETATM   34  C12 UNL     1      -1.042 -15.049 -11.343  1.00  0.00     0.340 C 
BRANCH  34  35
HETATM   35  N1  UNL     1      -1.257 -13.623 -11.248  1.00  0.00    -0.070 N 
ATOM     36  H13 UNL     1      -1.245 -13.173 -12.163  1.00  0.00     0.274 HD
ATOM     37  H12 UNL     1      -2.216 -13.398 -10.983  1.00  0.00     0.274 HD
ATOM     38  H11 UNL     1      -0.578 -13.208 -10.609  1.00  0.00     0.274 HD
ENDBRANCH  34  35
ENDBRANCH  32  34
ENDBRANCH  31  32
ENDBRANCH   6  31
BRANCH   4  39
HETATM   39  O3  UNL     1       0.231 -18.364 -14.113  1.00  0.00    -0.389 OA
ATOM     40  H3  UNL     1       0.658 -17.958 -13.367  1.00  0.00     0.210 HD
ENDBRANCH   4  39
BRANCH   1  41
HETATM   41  C4  UNL     1       1.670 -20.989 -15.530  1.00  0.00     0.015 C 
BRANCH  41  42
HETATM   42  C3  UNL     1       2.476 -22.164 -15.091  1.00  0.00     0.111 C 
BRANCH  42  43
HETATM   43  C2  UNL     1       1.620 -22.947 -14.091  1.00  0.00     0.258 C 
HETATM   44  O2  UNL     1       1.622 -22.513 -12.922  1.00  0.00    -0.265 OA
BRANCH  43  45
HETATM   45  O1  UNL     1       0.897 -24.051 -14.448  1.00  0.00    -0.326 OA
HETATM   46  C1  UNL     1       1.602 -25.165 -15.017  1.00  0.00     0.213 C 
ENDBRANCH  43  45
ENDBRANCH  42  43
ENDBRANCH  41  42
ENDBRANCH   1  41
TORSDOF 13
ENDMDL
MODEL 4
REMARK VINA RESULT: -8.308481887      2.990      9.654
REMARK  13 active torsions:
REMARK  status: ('A' for Active; 'I' for Inactive)
REMARK    1  A    between atoms: O1_2  and  C2_3 
REMARK    2  A    between atoms: C2_3  and  C3_5 
REMARK    3  A    between atoms: C3_5  and  C4_6 
REMARK    4  A    between atoms: C4_6  and  C5_7 
REMARK    5  A    between atoms: C8_10  and  O3_11 
REMARK    6  A    between atoms: C10_14  and  O4_15 
REMARK    7  A    between atoms: O4_15  and  C11_16 
REMARK    8  A    between atoms: C11_16  and  C12_18 
REMARK    9  A    between atoms: C12_18  and  N1_19 
REMARK   10  A    between atoms: C19_29  and  O6_30 
REMARK   11  A    between atoms: C19_29  and  C20_32 
REMARK   12  A    between atoms: C20_32  and  C22_34 
REMARK   13  A    between atoms: C22_34  and  C23_35 
REMARK       I    between atoms: C23_35  and  N2_37 
ROOT
HETATM    1  C5  UNL     1       2.902 -19.240 -16.447  1.00  0.00    -0.003 C 
HETATM    2  C6  UNL     1       1.684 -18.946 -17.387  1.00  0.00     0.008 C 
HETATM    3  C7  UNL     1       0.713 -18.372 -16.424  1.00  0.00     0.039 C 
HETATM    4  C8  UNL     1       1.541 -17.542 -15.429  1.00  0.00     0.072 C 
HETATM    5  C9  UNL     1       1.142 -16.136 -15.646  1.00  0.00     0.055 C 
HETATM    6  C10 UNL     1       1.454 -15.153 -14.577  1.00  0.00     0.140 C 
HETATM    7  C13 UNL     1       0.451 -13.990 -14.857  1.00  0.00     0.045 C 
HETATM    8  C14 UNL     1       0.928 -13.298 -16.060  1.00  0.00    -0.006 C 
HETATM    9  C15 UNL     1       2.112 -12.421 -15.711  1.00  0.00     0.019 C 
HETATM   10  C16 UNL     1       1.252 -14.172 -17.232  1.00  0.00     0.001 C 
HETATM   11  C17 UNL     1       0.159 -14.017 -18.267  1.00  0.00     0.009 C 
HETATM   12  C18 UNL     1      -0.950 -13.397 -17.403  1.00  0.00     0.039 C 
HETATM   13  C19 UNL     1      -0.147 -12.380 -16.667  1.00  0.00     0.069 C 
HETATM   14  C28 UNL     1       1.578 -15.598 -16.970  1.00  0.00    -0.000 C 
HETATM   15  C29 UNL     1       2.998 -15.937 -17.345  1.00  0.00     0.006 C 
HETATM   16  C30 UNL     1       3.724 -16.896 -16.531  1.00  0.00     0.013 C 
HETATM   17  C31 UNL     1       2.943 -17.922 -15.736  1.00  0.00    -0.009 C 
HETATM   18  C32 UNL     1       3.687 -18.052 -14.428  1.00  0.00     0.019 C 
ENDROOT
BRANCH  13  19
HETATM   19  O6  UNL     1       0.486 -11.476 -17.531  1.00  0.00    -0.389 OA
ATOM     20  H6  UNL     1       1.269 -11.891 -17.872  1.00  0.00     0.210 HD
ENDBRANCH  13  19
BRANCH  13  21
HETATM   21  C20 UNL     1      -0.952 -11.619 -15.702  1.00  0.00     0.025 C 
HETATM   22  C21 UNL     1      -0.165 -10.735 -14.740  1.00  0.00     0.013 C 
BRANCH  21  23
HETATM   23  C22 UNL     1      -2.101 -10.854 -16.285  1.00  0.00     0.110 C 
BRANCH  23  24
HETATM   24  C23 UNL     1      -1.868  -9.571 -16.909  1.00  0.00     0.220 C 
HETATM   25  O7  UNL     1      -1.519  -9.499 -18.117  1.00  0.00    -0.273 OA
HETATM   26  N2  UNL     1      -2.002  -8.330 -16.262  1.00  0.00    -0.352 N 
HETATM   27  C24 UNL     1      -1.747  -7.028 -16.840  1.00  0.00     0.126 C 
HETATM   28  C27 UNL     1      -2.438  -8.087 -14.916  1.00  0.00     0.126 C 
HETATM   29  C25 UNL     1      -1.424  -6.124 -15.661  1.00  0.00     0.021 C 
HETATM   30  C26 UNL     1      -1.392  -7.077 -14.462  1.00  0.00     0.021 C 
ENDBRANCH  23  24
ENDBRANCH  21  23
ENDBRANCH  13  21
BRANCH   6  31
HETATM   31  O4  UNL     1       1.169 -15.595 -13.261  1.00  0.00    -0.314 OA
BRANCH  31  32
HETATM   32  C11 UNL     1       2.024 -15.343 -12.198  1.00  0.00     0.284 C 
HETATM   33  O5  UNL     1       2.955 -14.506 -12.286  1.00  0.00    -0.263 OA
BRANCH  32  34
HETATM   34  C12 UNL     1       1.787 -16.116 -10.943  1.00  0.00     0.340 C 
BRANCH  34  35
HETATM   35  N1  UNL     1       1.870 -17.534 -11.210  1.00  0.00    -0.070 N 
ATOM     36  H13 UNL     1       2.202 -17.726 -12.155  1.00  0.00     0.274 HD
ATOM     37  H12 UNL     1       2.629 -17.977 -10.692  1.00  0.00     0.274 HD
ATOM     38  H11 UNL     1       0.971 -17.979 -11.024  1.00  0.00     0.274 HD
ENDBRANCH  34  35
ENDBRANCH  32  34
ENDBRANCH  31  32
ENDBRANCH   6  31
BRANCH   4  39
HETATM   39  O3  UNL     1       1.147 -17.922 -14.132  1.00  0.00    -0.389 OA
ATOM     40  H3  UNL     1       0.243 -18.212 -14.183  1.00  0.00     0.210 HD
ENDBRANCH   4  39
BRANCH   1  41
HETATM   41  C4  UNL     1       2.531 -20.464 -15.744  1.00  0.00     0.015 C 
BRANCH  41  42
HETATM   42  C3  UNL     1       3.417 -21.661 -15.770  1.00  0.00     0.111 C 
BRANCH  42  43
HETATM   43  C2  UNL     1       4.508 -21.389 -16.811  1.00  0.00     0.258 C 
HETATM   44  O2  UNL     1       5.620 -21.059 -16.353  1.00  0.00    -0.265 OA
BRANCH  43  45
HETATM   45  O1  UNL     1       4.285 -21.499 -18.155  1.00  0.00    -0.326 OA
HETATM   46  C1  UNL     1       5.120 -22.393 -18.907  1.00  0.00     0.213 C 
ENDBRANCH  43  45
ENDBRANCH  42  43
ENDBRANCH  41  42
ENDBRANCH   1  41
TORSDOF 13
ENDMDL
MODEL 5
REMARK VINA RESULT: -8.152970498      3.169      9.446
REMARK  13 active torsions:
REMARK  status: ('A' for Active; 'I' for Inactive)
REMARK    1  A    between atoms: O1_2  and  C2_3 
REMARK    2  A    between atoms: C2_3  and  C3_5 
REMARK    3  A    between atoms: C3_5  and  C4_6 
REMARK    4  A    between atoms: C4_6  and  C5_7 
REMARK    5  A    between atoms: C8_10  and  O3_11 
REMARK    6  A    between atoms: C10_14  and  O4_15 
REMARK    7  A    between atoms: O4_15  and  C11_16 
REMARK    8  A    between atoms: C11_16  and  C12_18 
REMARK    9  A    between atoms: C12_18  and  N1_19 
REMARK   10  A    between atoms: C19_29  and  O6_30 
REMARK   11  A    between atoms: C19_29  and  C20_32 
REMARK   12  A    between atoms: C20_32  and  C22_34 
REMARK   13  A    between atoms: C22_34  and  C23_35 
REMARK       I    between atoms: C23_35  and  N2_37 
ROOT
HETATM    1  C5  UNL     1       2.919 -21.220 -15.258  1.00  0.00    -0.003 C 
HETATM    2  C6  UNL     1       2.299 -20.647 -16.578  1.00  0.00     0.008 C 
HETATM    3  C7  UNL     1       1.067 -20.005 -16.059  1.00  0.00     0.039 C 
HETATM    4  C8  UNL     1       1.441 -19.413 -14.690  1.00  0.00     0.072 C 
HETATM    5  C9  UNL     1       1.342 -17.947 -14.843  1.00  0.00     0.055 C 
HETATM    6  C10 UNL     1       1.242 -17.126 -13.609  1.00  0.00     0.140 C 
HETATM    7  C13 UNL     1       0.609 -15.792 -14.119  1.00  0.00     0.045 C 
HETATM    8  C14 UNL     1       1.652 -15.088 -14.872  1.00  0.00    -0.006 C 
HETATM    9  C15 UNL     1       2.639 -14.454 -13.915  1.00  0.00     0.019 C 
HETATM   10  C16 UNL     1       2.374 -15.900 -15.904  1.00  0.00     0.001 C 
HETATM   11  C17 UNL     1       1.892 -15.476 -17.275  1.00  0.00     0.009 C 
HETATM   12  C18 UNL     1       0.588 -14.757 -16.898  1.00  0.00     0.039 C 
HETATM   13  C19 UNL     1       1.077 -13.955 -15.740  1.00  0.00     0.069 C 
HETATM   14  C28 UNL     1       2.386 -17.377 -15.746  1.00  0.00    -0.000 C 
HETATM   15  C29 UNL     1       3.774 -17.914 -15.512  1.00  0.00     0.006 C 
HETATM   16  C30 UNL     1       3.943 -19.047 -14.619  1.00  0.00     0.013 C 
HETATM   17  C31 UNL     1       2.779 -19.994 -14.409  1.00  0.00    -0.009 C 
HETATM   18  C32 UNL     1       2.830 -20.358 -12.945  1.00  0.00     0.019 C 
ENDROOT
BRANCH  13  19
HETATM   19  O6  UNL     1       2.128 -13.098 -16.094  1.00  0.00    -0.389 OA
ATOM     20  H6  UNL     1       2.918 -13.619 -16.184  1.00  0.00     0.210 HD
ENDBRANCH  13  19
BRANCH  13  21
HETATM   21  C20 UNL     1       0.013 -13.157 -15.119  1.00  0.00     0.025 C 
HETATM   22  C21 UNL     1       0.462 -11.854 -14.466  1.00  0.00     0.013 C 
BRANCH  21  23
HETATM   23  C22 UNL     1      -1.194 -12.918 -15.975  1.00  0.00     0.110 C 
BRANCH  23  24
HETATM   24  C23 UNL     1      -1.524 -11.573 -16.392  1.00  0.00     0.220 C 
HETATM   25  O7  UNL     1      -2.418 -10.917 -15.794  1.00  0.00    -0.273 OA
HETATM   26  N2  UNL     1      -0.910 -10.892 -17.456  1.00  0.00    -0.352 N 
HETATM   27  C24 UNL     1      -1.233  -9.562 -17.926  1.00  0.00     0.126 C 
HETATM   28  C27 UNL     1       0.172 -11.349 -18.282  1.00  0.00     0.126 C 
HETATM   29  C25 UNL     1      -0.791  -9.531 -19.380  1.00  0.00     0.021 C 
HETATM   30  C26 UNL     1      -0.351 -10.971 -19.662  1.00  0.00     0.021 C 
ENDBRANCH  23  24
ENDBRANCH  21  23
ENDBRANCH  13  21
BRANCH   6  31
HETATM   31  O4  UNL     1       0.345 -17.626 -12.633  1.00  0.00    -0.314 OA
BRANCH  31  32
HETATM   32  C11 UNL     1       0.499 -17.351 -11.282  1.00  0.00     0.284 C 
HETATM   33  O5  UNL     1       0.178 -16.239 -10.796  1.00  0.00    -0.263 OA
BRANCH  32  34
HETATM   34  C12 UNL     1       1.066 -18.439 -10.432  1.00  0.00     0.340 C 
BRANCH  34  35
HETATM   35  N1  UNL     1       0.297 -19.651 -10.598  1.00  0.00    -0.070 N 
ATOM     36  H13 UNL     1       0.692 -20.258 -11.315  1.00  0.00     0.274 HD
ATOM     37  H12 UNL     1       0.396 -20.279  -9.800  1.00  0.00     0.274 HD
ATOM     38  H11 UNL     1      -0.679 -19.423 -10.785  1.00  0.00     0.274 HD
ENDBRANCH  34  35
ENDBRANCH  32  34
ENDBRANCH  31  32
ENDBRANCH   6  31
BRANCH   4  39
HETATM   39  O3  UNL     1       0.463 -19.833 -13.768  1.00  0.00    -0.389 OA
ATOM     40  H3  UNL     1       0.386 -19.155 -13.106  1.00  0.00     0.210 HD
ENDBRANCH   4  39
BRANCH   1  41
HETATM   41  C4  UNL     1       2.137 -22.421 -14.981  1.00  0.00     0.015 C 
BRANCH  41  42
HETATM   42  C3  UNL     1       2.805 -23.700 -14.608  1.00  0.00     0.111 C 
BRANCH  42  43
HETATM   43  C2  UNL     1       1.753 -24.807 -14.730  1.00  0.00     0.258 C 
HETATM   44  O2  UNL     1       0.566 -24.427 -14.730  1.00  0.00    -0.265 OA
BRANCH  43  45
HETATM   45  O1  UNL     1       2.087 -26.129 -14.834  1.00  0.00    -0.326 OA
HETATM   46  C1  UNL     1       3.158 -26.488 -15.720  1.00  0.00     0.213 C 
ENDBRANCH  43  45
ENDBRANCH  42  43
ENDBRANCH  41  42
ENDBRANCH   1  41
TORSDOF 13
ENDMDL
