MODEL 1
REMARK VINA RESULT: -8.767476927      0.000      0.000
REMARK  9 active torsions:
REMARK  status: ('A' for Active; 'I' for Inactive)
REMARK    1  A    between atoms: O1_2  and  N1_3 
REMARK       I    between atoms: N1_3  and  C2_5 
REMARK    2  A    between atoms: C2_5  and  C3_7 
REMARK    3  A    between atoms: C4_8  and  C5_9 
REMARK    4  A    between atoms: C19_26  and  O5_27 
REMARK    5  A    between atoms: O5_27  and  C20_28 
REMARK    6  A    between atoms: C20_28  and  C22_30 
REMARK    7  A    between atoms: C23_31  and  C24_32 
REMARK    8  A    between atoms: C23_31  and  C27_37 
REMARK    9  A    between atoms: C25_33  and  C26_34 
ROOT
HETATM    1  C3  UNL     1       2.932 -16.979 -13.761  1.00  0.00     0.095 C 
HETATM    2  C4  UNL     1       2.749 -18.311 -14.520  1.00  0.00     0.033 C 
HETATM    3  C12 UNL     1       1.955 -18.249 -15.743  1.00  0.00     0.051 C 
HETATM    4  C13 UNL     1       2.554 -18.494 -17.080  1.00  0.00     0.032 C 
HETATM    5  C14 UNL     1       0.760 -19.160 -15.730  1.00  0.00     0.069 C 
HETATM    6  N2  UNL     1      -0.192 -19.859 -15.710  1.00  0.00    -0.196 NA
HETATM    7  C15 UNL     1       1.227 -16.902 -16.008  1.00  0.00     0.030 C 
HETATM    8  C16 UNL     1       0.852 -16.264 -14.722  1.00  0.00     0.002 C 
HETATM    9  C17 UNL     1      -0.271 -15.331 -14.749  1.00  0.00     0.015 C 
HETATM   10  C18 UNL     1      -1.264 -15.623 -13.616  1.00  0.00     0.013 C 
HETATM   11  C19 UNL     1       0.062 -13.864 -14.678  1.00  0.00     0.126 C 
HETATM   12  C28 UNL     1       1.337 -13.562 -13.981  1.00  0.00     0.033 C 
HETATM   13  C29 UNL     1       1.932 -14.762 -13.223  1.00  0.00     0.013 C 
HETATM   14  C30 UNL     1       2.187 -15.798 -14.272  1.00  0.00    -0.027 C 
HETATM   15  C31 UNL     1       3.058 -15.162 -15.328  1.00  0.00     0.016 C 
ENDROOT
BRANCH   2  16
HETATM   16  C5  UNL     1       4.076 -19.045 -14.509  1.00  0.00    -0.003 A 
HETATM   17  C6  UNL     1       5.240 -17.987 -14.456  1.00  0.00     0.019 C 
HETATM   18  C7  UNL     1       4.463 -20.344 -14.837  1.00  0.00     0.052 A 
HETATM   19  C8  UNL     1       4.465 -19.994 -13.365  1.00  0.00     0.080 A 
HETATM   20  C9  UNL     1       3.608 -20.521 -12.339  1.00  0.00     0.049 C 
HETATM   21  O4  UNL     1       5.794 -19.919 -12.846  1.00  0.00    -0.309 OA
HETATM   22  C10 UNL     1       4.585 -21.310 -11.431  1.00  0.00     0.114 C 
HETATM   23  C11 UNL     1       5.921 -20.988 -12.011  1.00  0.00     0.259 C 
HETATM   24  O3  UNL     1       6.950 -21.670 -11.705  1.00  0.00    -0.265 OA
ENDBRANCH   2  16
BRANCH   1  25
HETATM   25  C2  UNL     1       2.558 -17.145 -12.320  1.00  0.00     0.246 C 
HETATM   26  N1  UNL     1       3.387 -16.821 -11.229  1.00  0.00    -0.235 N 
ATOM     27  H1  UNL     1       4.318 -16.447 -11.413  1.00  0.00     0.197 HD
HETATM   28  O2  UNL     1       1.402 -17.614 -12.037  1.00  0.00    -0.271 OA
BRANCH  26  29
HETATM   29  O1  UNL     1       2.997 -16.988  -9.954  1.00  0.00    -0.283 OA
HETATM   30  C1  UNL     1       3.605 -17.994  -9.261  1.00  0.00     0.237 C 
ENDBRANCH  26  29
ENDBRANCH   1  25
BRANCH  11  31
HETATM   31  O5  UNL     1      -0.010 -13.344 -15.958  1.00  0.00    -0.377 OA
BRANCH  31  32
HETATM   32  C20 UNL     1       0.219 -11.985 -16.075  1.00  0.00     0.141 C 
HETATM   33  C21 UNL     1      -0.413 -11.245 -14.871  1.00  0.00     0.044 C 
BRANCH  32  34
HETATM   34  C22 UNL     1      -0.256 -11.391 -17.301  1.00  0.00     0.023 C 
HETATM   35  C23 UNL     1       0.262 -11.629 -18.520  1.00  0.00     0.039 C 
BRANCH  35  36
HETATM   36  C24 UNL     1       1.354 -12.507 -18.735  1.00  0.00     0.025 C 
HETATM   37  C25 UNL     1       1.310 -13.714 -19.201  1.00  0.00     0.085 C 
BRANCH  37  38
HETATM   38  C26 UNL     1       2.590 -14.472 -19.349  1.00  0.00     0.198 C 
HETATM   39  O6  UNL     1       2.781 -15.576 -18.791  1.00  0.00    -0.645 OA
HETATM   40  O7  UNL     1       3.636 -13.977 -20.119  1.00  0.00    -0.645 OA
ENDBRANCH  37  38
ENDBRANCH  35  36
BRANCH  35  41
HETATM   41  C27 UNL     1      -0.388 -10.914 -19.603  1.00  0.00     0.209 C 
HETATM   42  O8  UNL     1      -0.313 -11.267 -20.781  1.00  0.00    -0.644 OA
HETATM   43  O9  UNL     1      -1.146  -9.753 -19.302  1.00  0.00    -0.644 OA
ENDBRANCH  35  41
ENDBRANCH  32  34
ENDBRANCH  31  32
ENDBRANCH  11  31
TORSDOF 9
ENDMDL
MODEL 2
REMARK VINA RESULT: -8.670447142      1.560      2.841
REMARK  9 active torsions:
REMARK  status: ('A' for Active; 'I' for Inactive)
REMARK    1  A    between atoms: O1_2  and  N1_3 
REMARK       I    between atoms: N1_3  and  C2_5 
REMARK    2  A    between atoms: C2_5  and  C3_7 
REMARK    3  A    between atoms: C4_8  and  C5_9 
REMARK    4  A    between atoms: C19_26  and  O5_27 
REMARK    5  A    between atoms: O5_27  and  C20_28 
REMARK    6  A    between atoms: C20_28  and  C22_30 
REMARK    7  A    between atoms: C23_31  and  C24_32 
REMARK    8  A    between atoms: C23_31  and  C27_37 
REMARK    9  A    between atoms: C25_33  and  C26_34 
ROOT
HETATM    1  C3  UNL     1       2.709 -17.500 -13.745  1.00  0.00     0.095 C 
HETATM    2  C4  UNL     1       2.425 -18.852 -14.434  1.00  0.00     0.033 C 
HETATM    3  C12 UNL     1       2.202 -18.804 -15.876  1.00  0.00     0.051 C 
HETATM    4  C13 UNL     1       3.150 -19.423 -16.838  1.00  0.00     0.032 C 
HETATM    5  C14 UNL     1       0.872 -19.362 -16.297  1.00  0.00     0.069 C 
HETATM    6  N2  UNL     1      -0.184 -19.779 -16.625  1.00  0.00    -0.196 NA
HETATM    7  C15 UNL     1       2.071 -17.382 -16.492  1.00  0.00     0.030 C 
HETATM    8  C16 UNL     1       1.458 -16.456 -15.508  1.00  0.00     0.002 C 
HETATM    9  C17 UNL     1       0.768 -15.286 -16.043  1.00  0.00     0.015 C 
HETATM   10  C18 UNL     1      -0.613 -15.112 -15.396  1.00  0.00     0.013 C 
HETATM   11  C19 UNL     1       1.480 -13.964 -15.928  1.00  0.00     0.126 C 
HETATM   12  C28 UNL     1       2.431 -13.882 -14.791  1.00  0.00     0.033 C 
HETATM   13  C29 UNL     1       2.306 -15.043 -13.789  1.00  0.00     0.013 C 
HETATM   14  C30 UNL     1       2.605 -16.276 -14.582  1.00  0.00    -0.027 C 
HETATM   15  C31 UNL     1       3.954 -16.078 -15.228  1.00  0.00     0.016 C 
ENDROOT
BRANCH   2  16
HETATM   16  C5  UNL     1       3.362 -19.888 -13.843  1.00  0.00    -0.003 A 
HETATM   17  C6  UNL     1       4.612 -19.151 -13.234  1.00  0.00     0.019 C 
HETATM   18  C7  UNL     1       3.497 -21.267 -13.998  1.00  0.00     0.052 A 
HETATM   19  C8  UNL     1       2.933 -20.792 -12.677  1.00  0.00     0.080 A 
HETATM   20  C9  UNL     1       1.604 -20.992 -12.170  1.00  0.00     0.049 C 
HETATM   21  O4  UNL     1       3.857 -21.001 -11.608  1.00  0.00    -0.309 OA
HETATM   22  C10 UNL     1       1.826 -21.910 -10.941  1.00  0.00     0.114 C 
HETATM   23  C11 UNL     1       3.312 -21.985 -10.839  1.00  0.00     0.259 C 
HETATM   24  O3  UNL     1       3.876 -22.868 -10.119  1.00  0.00    -0.265 OA
ENDBRANCH   2  16
BRANCH   1  25
HETATM   25  C2  UNL     1       1.795 -17.311 -12.574  1.00  0.00     0.246 C 
HETATM   26  N1  UNL     1       2.192 -16.836 -11.309  1.00  0.00    -0.235 N 
ATOM     27  H1  UNL     1       3.173 -16.601 -11.158  1.00  0.00     0.197 HD
HETATM   28  O2  UNL     1       0.555 -17.596 -12.711  1.00  0.00    -0.271 OA
BRANCH  26  29
HETATM   29  O1  UNL     1       1.326 -16.683 -10.293  1.00  0.00    -0.283 OA
HETATM   30  C1  UNL     1       1.036 -15.399  -9.933  1.00  0.00     0.237 C 
ENDBRANCH  26  29
ENDBRANCH   1  25
BRANCH  11  31
HETATM   31  O5  UNL     1       2.051 -13.675 -17.154  1.00  0.00    -0.377 OA
BRANCH  31  32
HETATM   32  C20 UNL     1       1.306 -14.021 -18.267  1.00  0.00     0.141 C 
HETATM   33  C21 UNL     1       2.102 -15.024 -19.136  1.00  0.00     0.044 C 
BRANCH  32  34
HETATM   34  C22 UNL     1       0.885 -12.910 -19.087  1.00  0.00     0.023 C 
HETATM   35  C23 UNL     1       0.023 -11.953 -18.699  1.00  0.00     0.039 C 
BRANCH  35  36
HETATM   36  C24 UNL     1      -0.577 -11.931 -17.415  1.00  0.00     0.025 C 
HETATM   37  C25 UNL     1      -0.347 -11.094 -16.456  1.00  0.00     0.085 C 
BRANCH  37  38
HETATM   38  C26 UNL     1      -1.096 -11.252 -15.171  1.00  0.00     0.198 C 
HETATM   39  O6  UNL     1      -0.564 -11.726 -14.142  1.00  0.00    -0.645 OA
HETATM   40  O7  UNL     1      -2.430 -10.878 -15.064  1.00  0.00    -0.645 OA
ENDBRANCH  37  38
ENDBRANCH  35  36
BRANCH  35  41
HETATM   41  C27 UNL     1      -0.244 -10.938 -19.701  1.00  0.00     0.209 C 
HETATM   42  O8  UNL     1       0.129 -11.036 -20.871  1.00  0.00    -0.644 OA
HETATM   43  O9  UNL     1      -0.965  -9.775 -19.325  1.00  0.00    -0.644 OA
ENDBRANCH  35  41
ENDBRANCH  32  34
ENDBRANCH  31  32
ENDBRANCH  11  31
TORSDOF 9
ENDMDL
MODEL 3
REMARK VINA RESULT: -8.626889465      3.029      5.405
REMARK  9 active torsions:
REMARK  status: ('A' for Active; 'I' for Inactive)
REMARK    1  A    between atoms: O1_2  and  N1_3 
REMARK       I    between atoms: N1_3  and  C2_5 
REMARK    2  A    between atoms: C2_5  and  C3_7 
REMARK    3  A    between atoms: C4_8  and  C5_9 
REMARK    4  A    between atoms: C19_26  and  O5_27 
REMARK    5  A    between atoms: O5_27  and  C20_28 
REMARK    6  A    between atoms: C20_28  and  C22_30 
REMARK    7  A    between atoms: C23_31  and  C24_32 
REMARK    8  A    between atoms: C23_31  and  C27_37 
REMARK    9  A    between atoms: C25_33  and  C26_34 
ROOT
HETATM    1  C3  UNL     1       1.353 -19.890 -12.957  1.00  0.00     0.095 C 
HETATM    2  C4  UNL     1       2.466 -20.145 -11.916  1.00  0.00     0.033 C 
HETATM    3  C12 UNL     1       3.738 -19.470 -12.157  1.00  0.00     0.051 C 
HETATM    4  C13 UNL     1       4.245 -18.405 -11.254  1.00  0.00     0.032 C 
HETATM    5  C14 UNL     1       4.904 -20.411 -12.267  1.00  0.00     0.069 C 
HETATM    6  N2  UNL     1       5.817 -21.153 -12.376  1.00  0.00    -0.196 NA
HETATM    7  C15 UNL     1       3.874 -18.757 -13.532  1.00  0.00     0.030 C 
HETATM    8  C16 UNL     1       3.092 -19.484 -14.562  1.00  0.00     0.002 C 
HETATM    9  C17 UNL     1       3.514 -19.320 -15.950  1.00  0.00     0.015 C 
HETATM   10  C18 UNL     1       3.612 -20.674 -16.664  1.00  0.00     0.013 C 
HETATM   11  C19 UNL     1       2.670 -18.423 -16.816  1.00  0.00     0.126 C 
HETATM   12  C28 UNL     1       1.249 -18.331 -16.396  1.00  0.00     0.033 C 
HETATM   13  C29 UNL     1       0.844 -19.375 -15.339  1.00  0.00     0.013 C 
HETATM   14  C30 UNL     1       1.718 -19.093 -14.158  1.00  0.00    -0.027 C 
HETATM   15  C31 UNL     1       1.522 -17.643 -13.791  1.00  0.00     0.016 C 
ENDROOT
BRANCH   2  16
HETATM   16  C5  UNL     1       1.836 -20.112 -10.537  1.00  0.00    -0.003 A 
HETATM   17  C6  UNL     1       0.488 -19.304 -10.614  1.00  0.00     0.019 C 
HETATM   18  C7  UNL     1       2.317 -20.350  -9.250  1.00  0.00     0.052 A 
HETATM   19  C8  UNL     1       1.388 -21.398  -9.823  1.00  0.00     0.080 A 
HETATM   20  C9  UNL     1       1.709 -22.751 -10.180  1.00  0.00     0.049 C 
HETATM   21  O4  UNL     1       0.124 -21.396  -9.157  1.00  0.00    -0.309 OA
HETATM   22  C10 UNL     1       0.888 -23.590  -9.168  1.00  0.00     0.114 C 
HETATM   23  C11 UNL     1       0.081 -22.560  -8.452  1.00  0.00     0.259 C 
HETATM   24  O3  UNL     1      -0.512 -22.835  -7.360  1.00  0.00    -0.265 OA
ENDBRANCH   2  16
BRANCH   1  25
HETATM   25  C2  UNL     1       0.790 -21.188 -13.444  1.00  0.00     0.246 C 
HETATM   26  N1  UNL     1       1.556 -22.286 -13.883  1.00  0.00    -0.235 N 
ATOM     27  H1  UNL     1       2.573 -22.209 -13.878  1.00  0.00     0.197 HD
HETATM   28  O2  UNL     1      -0.481 -21.334 -13.472  1.00  0.00    -0.271 OA
BRANCH  26  29
HETATM   29  O1  UNL     1       0.996 -23.431 -14.307  1.00  0.00    -0.283 OA
HETATM   30  C1  UNL     1       1.852 -24.456 -14.588  1.00  0.00     0.237 C 
ENDBRANCH  26  29
ENDBRANCH   1  25
BRANCH  11  31
HETATM   31  O5  UNL     1       3.303 -17.197 -16.912  1.00  0.00    -0.377 OA
BRANCH  31  32
HETATM   32  C20 UNL     1       2.519 -16.141 -17.339  1.00  0.00     0.141 C 
HETATM   33  C21 UNL     1       3.044 -15.620 -18.700  1.00  0.00     0.044 C 
BRANCH  32  34
HETATM   34  C22 UNL     1       2.424 -15.039 -16.413  1.00  0.00     0.023 C 
HETATM   35  C23 UNL     1       1.680 -13.934 -16.607  1.00  0.00     0.039 C 
BRANCH  35  36
HETATM   36  C24 UNL     1       0.892 -13.732 -17.768  1.00  0.00     0.025 C 
HETATM   37  C25 UNL     1       1.017 -12.789 -18.645  1.00  0.00     0.085 C 
BRANCH  37  38
HETATM   38  C26 UNL     1       0.072 -12.760 -19.805  1.00  0.00     0.198 C 
HETATM   39  O6  UNL     1      -0.147 -11.717 -20.461  1.00  0.00    -0.645 OA
HETATM   40  O7  UNL     1      -0.611 -13.901 -20.206  1.00  0.00    -0.645 OA
ENDBRANCH  37  38
ENDBRANCH  35  36
BRANCH  35  41
HETATM   41  C27 UNL     1       1.745 -12.965 -15.530  1.00  0.00     0.209 C 
HETATM   42  O8  UNL     1       1.898 -11.758 -15.722  1.00  0.00    -0.644 OA
HETATM   43  O9  UNL     1       1.630 -13.418 -14.190  1.00  0.00    -0.644 OA
ENDBRANCH  35  41
ENDBRANCH  32  34
ENDBRANCH  31  32
ENDBRANCH  11  31
TORSDOF 9
ENDMDL
MODEL 4
REMARK VINA RESULT: -8.615262923      2.797      8.451
REMARK  9 active torsions:
REMARK  status: ('A' for Active; 'I' for Inactive)
REMARK    1  A    between atoms: O1_2  and  N1_3 
REMARK       I    between atoms: N1_3  and  C2_5 
REMARK    2  A    between atoms: C2_5  and  C3_7 
REMARK    3  A    between atoms: C4_8  and  C5_9 
REMARK    4  A    between atoms: C19_26  and  O5_27 
REMARK    5  A    between atoms: O5_27  and  C20_28 
REMARK    6  A    between atoms: C20_28  and  C22_30 
REMARK    7  A    between atoms: C23_31  and  C24_32 
REMARK    8  A    between atoms: C23_31  and  C27_37 
REMARK    9  A    between atoms: C25_33  and  C26_34 
ROOT
HETATM    1  C3  UNL     1       1.215 -16.715 -14.285  1.00  0.00     0.095 C 
HETATM    2  C4  UNL     1       2.302 -15.998 -15.115  1.00  0.00     0.033 C 
HETATM    3  C12 UNL     1       3.563 -16.716 -15.278  1.00  0.00     0.051 C 
HETATM    4  C13 UNL     1       4.016 -17.216 -16.602  1.00  0.00     0.032 C 
HETATM    5  C14 UNL     1       4.756 -15.956 -14.772  1.00  0.00     0.069 C 
HETATM    6  N2  UNL     1       5.691 -15.367 -14.352  1.00  0.00    -0.196 NA
HETATM    7  C15 UNL     1       3.721 -18.006 -14.425  1.00  0.00     0.030 C 
HETATM    8  C16 UNL     1       2.988 -17.862 -13.143  1.00  0.00     0.002 C 
HETATM    9  C17 UNL     1       3.447 -18.680 -12.024  1.00  0.00     0.015 C 
HETATM   10  C18 UNL     1       3.600 -17.841 -10.749  1.00  0.00     0.013 C 
HETATM   11  C19 UNL     1       2.605 -19.877 -11.668  1.00  0.00     0.126 C 
HETATM   12  C28 UNL     1       1.171 -19.742 -12.026  1.00  0.00     0.033 C 
HETATM   13  C29 UNL     1       0.762 -18.314 -12.430  1.00  0.00     0.013 C 
HETATM   14  C30 UNL     1       1.593 -17.997 -13.633  1.00  0.00    -0.027 C 
HETATM   15  C31 UNL     1       1.349 -19.087 -14.647  1.00  0.00     0.016 C 
ENDROOT
BRANCH   2  16
HETATM   16  C5  UNL     1       1.632 -15.355 -16.313  1.00  0.00    -0.003 A 
HETATM   17  C6  UNL     1       0.174 -15.931 -16.448  1.00  0.00     0.019 C 
HETATM   18  C7  UNL     1       2.104 -14.656 -17.424  1.00  0.00     0.052 A 
HETATM   19  C8  UNL     1       1.376 -13.840 -16.378  1.00  0.00     0.080 A 
HETATM   20  C9  UNL     1       1.923 -12.825 -15.523  1.00  0.00     0.049 C 
HETATM   21  O4  UNL     1       0.108 -13.389 -16.857  1.00  0.00    -0.309 OA
HETATM   22  C10 UNL     1       1.217 -11.533 -16.006  1.00  0.00     0.114 C 
HETATM   23  C11 UNL     1       0.231 -12.041 -17.005  1.00  0.00     0.259 C 
HETATM   24  O3  UNL     1      -0.344 -11.250 -17.818  1.00  0.00    -0.265 OA
ENDBRANCH   2  16
BRANCH   1  25
HETATM   25  C2  UNL     1       0.699 -15.810 -13.210  1.00  0.00     0.246 C 
HETATM   26  N1  UNL     1      -0.660 -15.635 -12.886  1.00  0.00    -0.235 N 
ATOM     27  H1  UNL     1      -1.362 -16.153 -13.415  1.00  0.00     0.197 HD
HETATM   28  O2  UNL     1       1.540 -15.135 -12.521  1.00  0.00    -0.271 OA
BRANCH  26  29
HETATM   29  O1  UNL     1      -1.067 -14.810 -11.907  1.00  0.00    -0.283 OA
HETATM   30  C1  UNL     1      -1.707 -15.392 -10.852  1.00  0.00     0.237 C 
ENDBRANCH  26  29
ENDBRANCH   1  25
BRANCH  11  31
HETATM   31  O5  UNL     1       3.209 -21.002 -12.201  1.00  0.00    -0.377 OA
BRANCH  31  32
HETATM   32  C20 UNL     1       2.953 -22.195 -11.548  1.00  0.00     0.141 C 
HETATM   33  C21 UNL     1       4.260 -22.733 -10.917  1.00  0.00     0.044 C 
BRANCH  32  34
HETATM   34  C22 UNL     1       2.363 -23.223 -12.369  1.00  0.00     0.023 C 
HETATM   35  C23 UNL     1       2.498 -23.311 -13.705  1.00  0.00     0.039 C 
BRANCH  35  36
HETATM   36  C24 UNL     1       3.253 -22.382 -14.465  1.00  0.00     0.025 C 
HETATM   37  C25 UNL     1       3.208 -22.196 -15.745  1.00  0.00     0.085 C 
BRANCH  37  38
HETATM   38  C26 UNL     1       4.096 -21.155 -16.349  1.00  0.00     0.198 C 
HETATM   39  O6  UNL     1       3.776 -20.520 -17.379  1.00  0.00    -0.645 OA
HETATM   40  O7  UNL     1       5.329 -20.846 -15.788  1.00  0.00    -0.645 OA
ENDBRANCH  37  38
ENDBRANCH  35  36
BRANCH  35  41
HETATM   41  C27 UNL     1       1.811 -24.437 -14.310  1.00  0.00     0.209 C 
HETATM   42  O8  UNL     1       0.610 -24.422 -14.583  1.00  0.00    -0.644 OA
HETATM   43  O9  UNL     1       2.547 -25.614 -14.603  1.00  0.00    -0.644 OA
ENDBRANCH  35  41
ENDBRANCH  32  34
ENDBRANCH  31  32
ENDBRANCH  11  31
TORSDOF 9
ENDMDL
MODEL 5
REMARK VINA RESULT: -8.497901169      3.231      5.824
REMARK  9 active torsions:
REMARK  status: ('A' for Active; 'I' for Inactive)
REMARK    1  A    between atoms: O1_2  and  N1_3 
REMARK       I    between atoms: N1_3  and  C2_5 
REMARK    2  A    between atoms: C2_5  and  C3_7 
REMARK    3  A    between atoms: C4_8  and  C5_9 
REMARK    4  A    between atoms: C19_26  and  O5_27 
REMARK    5  A    between atoms: O5_27  and  C20_28 
REMARK    6  A    between atoms: C20_28  and  C22_30 
REMARK    7  A    between atoms: C23_31  and  C24_32 
REMARK    8  A    between atoms: C23_31  and  C27_37 
REMARK    9  A    between atoms: C25_33  and  C26_34 
ROOT
HETATM    1  C3  UNL     1       2.644 -17.700 -15.928  1.00  0.00     0.095 C 
HETATM    2  C4  UNL     1       2.460 -18.971 -15.070  1.00  0.00     0.033 C 
HETATM    3  C12 UNL     1       1.427 -18.907 -14.041  1.00  0.00     0.051 C 
HETATM    4  C13 UNL     1       0.201 -19.744 -14.106  1.00  0.00     0.032 C 
HETATM    5  C14 UNL     1       1.946 -19.166 -12.654  1.00  0.00     0.069 C 
HETATM    6  N2  UNL     1       2.359 -19.347 -11.562  1.00  0.00    -0.196 NA
HETATM    7  C15 UNL     1       0.797 -17.507 -13.803  1.00  0.00     0.030 C 
HETATM    8  C16 UNL     1       1.800 -16.445 -14.063  1.00  0.00     0.002 C 
HETATM    9  C17 UNL     1       1.596 -15.164 -13.393  1.00  0.00     0.015 C 
HETATM   10  C18 UNL     1       2.888 -14.674 -12.727  1.00  0.00     0.013 C 
HETATM   11  C19 UNL     1       1.076 -14.031 -14.238  1.00  0.00     0.126 C 
HETATM   12  C28 UNL     1       1.421 -14.135 -15.678  1.00  0.00     0.033 C 
HETATM   13  C29 UNL     1       2.471 -15.217 -15.989  1.00  0.00     0.013 C 
HETATM   14  C30 UNL     1       1.849 -16.503 -15.546  1.00  0.00    -0.027 C 
HETATM   15  C31 UNL     1       0.520 -16.624 -16.249  1.00  0.00     0.016 C 
ENDROOT
BRANCH   2  16
HETATM   16  C5  UNL     1       2.546 -20.175 -15.989  1.00  0.00    -0.003 A 
HETATM   17  C6  UNL     1       1.798 -19.842 -17.333  1.00  0.00     0.019 C 
HETATM   18  C7  UNL     1       2.844 -21.523 -15.789  1.00  0.00     0.052 A 
HETATM   19  C8  UNL     1       3.894 -20.702 -16.505  1.00  0.00     0.080 A 
HETATM   20  C9  UNL     1       5.205 -20.355 -16.033  1.00  0.00     0.049 C 
HETATM   21  O4  UNL     1       3.995 -21.068 -17.882  1.00  0.00    -0.309 OA
HETATM   22  C10 UNL     1       6.146 -21.113 -17.005  1.00  0.00     0.114 C 
HETATM   23  C11 UNL     1       5.203 -21.684 -18.010  1.00  0.00     0.259 C 
HETATM   24  O3  UNL     1       5.575 -22.600 -18.810  1.00  0.00    -0.265 OA
ENDBRANCH   2  16
BRANCH   1  25
HETATM   25  C2  UNL     1       4.083 -17.287 -15.944  1.00  0.00     0.246 C 
HETATM   26  N1  UNL     1       4.913 -17.211 -14.808  1.00  0.00    -0.235 N 
ATOM     27  H1  UNL     1       4.521 -17.449 -13.897  1.00  0.00     0.197 HD
HETATM   28  O2  UNL     1       4.619 -16.975 -17.063  1.00  0.00    -0.271 OA
BRANCH  26  29
HETATM   29  O1  UNL     1       6.201 -16.837 -14.881  1.00  0.00    -0.283 OA
HETATM   30  C1  UNL     1       6.439 -15.495 -14.942  1.00  0.00     0.237 C 
ENDBRANCH  26  29
ENDBRANCH   1  25
BRANCH  11  31
HETATM   31  O5  UNL     1      -0.280 -13.903 -13.998  1.00  0.00    -0.377 OA
BRANCH  31  32
HETATM   32  C20 UNL     1      -0.698 -12.678 -13.511  1.00  0.00     0.141 C 
HETATM   33  C21 UNL     1      -0.860 -11.678 -14.682  1.00  0.00     0.044 C 
BRANCH  32  34
HETATM   34  C22 UNL     1       0.159 -12.098 -12.506  1.00  0.00     0.023 C 
HETATM   35  C23 UNL     1       0.022 -12.282 -11.180  1.00  0.00     0.039 C 
BRANCH  35  36
HETATM   36  C24 UNL     1      -1.003 -13.084 -10.617  1.00  0.00     0.025 C 
HETATM   37  C25 UNL     1      -0.968 -14.358 -10.393  1.00  0.00     0.085 C 
BRANCH  37  38
HETATM   38  C26 UNL     1      -2.168 -15.012  -9.786  1.00  0.00     0.198 C 
HETATM   39  O6  UNL     1      -3.209 -14.374  -9.511  1.00  0.00    -0.645 OA
HETATM   40  O7  UNL     1      -2.179 -16.370  -9.495  1.00  0.00    -0.645 OA
ENDBRANCH  37  38
ENDBRANCH  35  36
BRANCH  35  41
HETATM   41  C27 UNL     1       1.010 -11.595 -10.369  1.00  0.00     0.209 C 
HETATM   42  O8  UNL     1       0.837 -10.463  -9.917  1.00  0.00    -0.644 OA
HETATM   43  O9  UNL     1       2.234 -12.250 -10.078  1.00  0.00    -0.644 OA
ENDBRANCH  35  41
ENDBRANCH  32  34
ENDBRANCH  31  32
ENDBRANCH  11  31
TORSDOF 9
ENDMDL
