MODEL 1
REMARK VINA RESULT: -7.860886137      0.000      0.000
REMARK  2 active torsions:
REMARK  status: ('A' for Active; 'I' for Inactive)
REMARK       I    between atoms: C1_2  and  N1_3 
REMARK       I    between atoms: C1_2  and  N3_13 
REMARK    1  A    between atoms: N1_3  and  N2_5 
REMARK    2  A    between atoms: C2_7  and  C3_9 
ROOT
HETATM    1  O1  UNL     1      16.475  27.907 -14.659  1.00  0.00    -0.245 OA
HETATM    2  C1  UNL     1      16.673  28.172 -15.911  1.00  0.00     0.341 C 
HETATM    3  N1  UNL     1      16.381  29.458 -16.405  1.00  0.00    -0.250 N 
ATOM      4  H1  UNL     1      16.541  29.684 -17.387  1.00  0.00     0.192 HD
HETATM    5  N3  UNL     1      17.186  27.064 -16.621  1.00  0.00    -0.297 N 
HETATM    6  C4  UNL     1      17.732  25.898 -15.937  1.00  0.00     0.144 C 
HETATM    7  C5  UNL     1      19.208  25.784 -16.082  1.00  0.00     0.100 C 
HETATM    8  S1  UNL     1      19.695  25.944 -17.801  1.00  0.00    -0.126 SA
HETATM    9  C6  UNL     1      18.337  26.615 -18.730  1.00  0.00     0.027 A 
HETATM   10  C7  UNL     1      18.388  26.637 -20.082  1.00  0.00     0.021 A 
HETATM   11  C8  UNL     1      17.324  27.150 -20.802  1.00  0.00     0.002 A 
HETATM   12  C9  UNL     1      16.204  27.641 -20.143  1.00  0.00     0.002 A 
HETATM   13  C10 UNL     1      16.175  27.608 -18.772  1.00  0.00     0.031 A 
HETATM   14  C11 UNL     1      17.225  27.102 -18.041  1.00  0.00     0.055 A 
ENDROOT
BRANCH   3  15
HETATM   15  N2  UNL     1      15.882  30.393 -15.555  1.00  0.00    -0.286 N 
HETATM   16  C2  UNL     1      14.839  31.059 -15.467  1.00  0.00     0.149 C 
HETATM   17 CL1  UNL     1      14.786  32.166 -14.059  1.00  0.00    -0.063 Cl
ATOM     18  H2  UNL     1      16.530  30.601 -14.795  1.00  0.00     0.188 HD
BRANCH  16  19
HETATM   19  C3  UNL     1      13.640  31.111 -16.299  1.00  0.00     0.243 C 
HETATM   20 CL2  UNL     1      13.364  32.834 -16.735  1.00  0.00    -0.076 Cl
HETATM   21 CL3  UNL     1      13.627  30.144 -17.740  1.00  0.00    -0.076 Cl
HETATM   22 CL4  UNL     1      12.270  30.571 -15.262  1.00  0.00    -0.076 Cl
ENDBRANCH  16  19
ENDBRANCH   3  15
TORSDOF 2
ENDMDL
MODEL 2
REMARK VINA RESULT: -7.738850796      0.127      1.116
REMARK  2 active torsions:
REMARK  status: ('A' for Active; 'I' for Inactive)
REMARK       I    between atoms: C1_2  and  N1_3 
REMARK       I    between atoms: C1_2  and  N3_13 
REMARK    1  A    between atoms: N1_3  and  N2_5 
REMARK    2  A    between atoms: C2_7  and  C3_9 
ROOT
HETATM    1  O1  UNL     1      16.499  27.920 -14.594  1.00  0.00    -0.245 OA
HETATM    2  C1  UNL     1      16.673  28.193 -15.848  1.00  0.00     0.341 C 
HETATM    3  N1  UNL     1      16.378  29.485 -16.326  1.00  0.00    -0.250 N 
ATOM      4  H1  UNL     1      16.518  29.717 -17.310  1.00  0.00     0.192 HD
HETATM    5  N3  UNL     1      17.163  27.087 -16.577  1.00  0.00    -0.297 N 
HETATM    6  C4  UNL     1      17.715  25.913 -15.914  1.00  0.00     0.144 C 
HETATM    7  C5  UNL     1      19.187  25.790 -16.092  1.00  0.00     0.100 C 
HETATM    8  S1  UNL     1      19.638  25.960 -17.820  1.00  0.00    -0.126 SA
HETATM    9  C6  UNL     1      18.264  26.647 -18.714  1.00  0.00     0.027 A 
HETATM   10  C7  UNL     1      18.286  26.679 -20.067  1.00  0.00     0.021 A 
HETATM   11  C8  UNL     1      17.210  27.204 -20.760  1.00  0.00     0.002 A 
HETATM   12  C9  UNL     1      16.108  27.697 -20.073  1.00  0.00     0.002 A 
HETATM   13  C10 UNL     1      16.109  27.653 -18.702  1.00  0.00     0.031 A 
HETATM   14  C11 UNL     1      17.171  27.136 -17.997  1.00  0.00     0.055 A 
ENDROOT
BRANCH   3  15
HETATM   15  N2  UNL     1      15.904  30.416 -15.458  1.00  0.00    -0.286 N 
HETATM   16  C2  UNL     1      14.873  31.098 -15.350  1.00  0.00     0.149 C 
HETATM   17 CL1  UNL     1      14.852  32.187 -13.928  1.00  0.00    -0.063 Cl
ATOM     18  H2  UNL     1      16.563  30.604 -14.703  1.00  0.00     0.188 HD
BRANCH  16  19
HETATM   19  C3  UNL     1      13.666  31.181 -16.168  1.00  0.00     0.243 C 
HETATM   20 CL2  UNL     1      12.302  30.551 -15.179  1.00  0.00    -0.076 Cl
HETATM   21 CL3  UNL     1      13.241  32.737 -16.808  1.00  0.00    -0.076 Cl
HETATM   22 CL4  UNL     1      13.909  30.062 -17.560  1.00  0.00    -0.076 Cl
ENDBRANCH  16  19
ENDBRANCH   3  15
TORSDOF 2
ENDMDL
MODEL 3
REMARK VINA RESULT: -6.499961227      4.216      5.201
REMARK  2 active torsions:
REMARK  status: ('A' for Active; 'I' for Inactive)
REMARK       I    between atoms: C1_2  and  N1_3 
REMARK       I    between atoms: C1_2  and  N3_13 
REMARK    1  A    between atoms: N1_3  and  N2_5 
REMARK    2  A    between atoms: C2_7  and  C3_9 
ROOT
HETATM    1  O1  UNL     1      14.408  25.419 -12.796  1.00  0.00    -0.245 OA
HETATM    2  C1  UNL     1      15.687  25.508 -12.984  1.00  0.00     0.341 C 
HETATM    3  N1  UNL     1      16.331  26.748 -12.811  1.00  0.00    -0.250 N 
ATOM      4  H1  UNL     1      17.339  26.831 -12.947  1.00  0.00     0.192 HD
HETATM    5  N3  UNL     1      16.263  24.272 -13.352  1.00  0.00    -0.297 N 
HETATM    6  C4  UNL     1      15.548  23.013 -13.195  1.00  0.00     0.144 C 
HETATM    7  C5  UNL     1      16.114  22.158 -12.117  1.00  0.00     0.100 C 
HETATM    8  S1  UNL     1      17.891  21.996 -12.298  1.00  0.00    -0.126 SA
HETATM    9  C6  UNL     1      18.476  23.237 -13.428  1.00  0.00     0.027 A 
HETATM   10  C7  UNL     1      19.749  23.188 -13.885  1.00  0.00     0.021 A 
HETATM   11  C8  UNL     1      20.197  24.150 -14.774  1.00  0.00     0.002 A 
HETATM   12  C9  UNL     1      19.346  25.162 -15.198  1.00  0.00     0.002 A 
HETATM   13  C10 UNL     1      18.060  25.190 -14.721  1.00  0.00     0.031 A 
HETATM   14  C11 UNL     1      17.599  24.242 -13.837  1.00  0.00     0.055 A 
ENDROOT
BRANCH   3  15
HETATM   15  N2  UNL     1      15.591  27.832 -12.459  1.00  0.00    -0.286 N 
HETATM   16  C2  UNL     1      15.539  29.027 -12.790  1.00  0.00     0.149 C 
HETATM   17 CL1  UNL     1      14.295  29.980 -11.921  1.00  0.00    -0.063 Cl
ATOM     18  H2  UNL     1      14.903  27.606 -11.741  1.00  0.00     0.188 HD
BRANCH  16  19
HETATM   19  C3  UNL     1      16.304  29.807 -13.758  1.00  0.00     0.243 C 
HETATM   20 CL2  UNL     1      18.042  29.649 -13.322  1.00  0.00    -0.076 Cl
HETATM   21 CL3  UNL     1      16.095  29.421 -15.437  1.00  0.00    -0.076 Cl
HETATM   22 CL4  UNL     1      15.824  31.528 -13.526  1.00  0.00    -0.076 Cl
ENDBRANCH  16  19
ENDBRANCH   3  15
TORSDOF 2
ENDMDL
MODEL 4
REMARK VINA RESULT: -6.495711319      1.942      2.422
REMARK  2 active torsions:
REMARK  status: ('A' for Active; 'I' for Inactive)
REMARK       I    between atoms: C1_2  and  N1_3 
REMARK       I    between atoms: C1_2  and  N3_13 
REMARK    1  A    between atoms: N1_3  and  N2_5 
REMARK    2  A    between atoms: C2_7  and  C3_9 
ROOT
HETATM    1  O1  UNL     1      16.511  26.062 -13.127  1.00  0.00    -0.245 OA
HETATM    2  C1  UNL     1      17.020  26.624 -14.177  1.00  0.00     0.341 C 
HETATM    3  N1  UNL     1      16.875  28.012 -14.363  1.00  0.00    -0.250 N 
ATOM      4  H1  UNL     1      17.278  28.469 -15.181  1.00  0.00     0.192 HD
HETATM    5  N3  UNL     1      17.683  25.699 -15.014  1.00  0.00    -0.297 N 
HETATM    6  C4  UNL     1      18.027  24.358 -14.558  1.00  0.00     0.144 C 
HETATM    7  C5  UNL     1      19.491  24.171 -14.371  1.00  0.00     0.100 C 
HETATM    8  S1  UNL     1      20.396  24.730 -15.816  1.00  0.00    -0.126 SA
HETATM    9  C6  UNL     1      19.321  25.720 -16.828  1.00  0.00     0.027 A 
HETATM   10  C7  UNL     1      19.710  26.084 -18.072  1.00  0.00     0.021 A 
HETATM   11  C8  UNL     1      18.866  26.845 -18.861  1.00  0.00     0.002 A 
HETATM   12  C9  UNL     1      17.622  27.236 -18.381  1.00  0.00     0.002 A 
HETATM   13  C10 UNL     1      17.249  26.853 -17.118  1.00  0.00     0.031 A 
HETATM   14  C11 UNL     1      18.077  26.097 -16.320  1.00  0.00     0.055 A 
ENDROOT
BRANCH   3  15
HETATM   15  N2  UNL     1      16.189  28.733 -13.438  1.00  0.00    -0.286 N 
HETATM   16  C2  UNL     1      15.452  29.731 -13.446  1.00  0.00     0.149 C 
HETATM   17 CL1  UNL     1      14.834  30.206 -11.833  1.00  0.00    -0.063 Cl
ATOM     18  H2  UNL     1      16.310  28.358 -12.497  1.00  0.00     0.188 HD
BRANCH  16  19
HETATM   19  C3  UNL     1      14.990  30.596 -14.528  1.00  0.00     0.243 C 
HETATM   20 CL2  UNL     1      15.450  32.282 -14.101  1.00  0.00    -0.076 Cl
HETATM   21 CL3  UNL     1      15.550  30.236 -16.131  1.00  0.00    -0.076 Cl
HETATM   22 CL4  UNL     1      13.192  30.493 -14.538  1.00  0.00    -0.076 Cl
ENDBRANCH  16  19
ENDBRANCH   3  15
TORSDOF 2
ENDMDL
MODEL 5
REMARK VINA RESULT: -6.457185192      4.538      5.564
REMARK  2 active torsions:
REMARK  status: ('A' for Active; 'I' for Inactive)
REMARK       I    between atoms: C1_2  and  N1_3 
REMARK       I    between atoms: C1_2  and  N3_13 
REMARK    1  A    between atoms: N1_3  and  N2_5 
REMARK    2  A    between atoms: C2_7  and  C3_9 
ROOT
HETATM    1  O1  UNL     1      14.363  25.157 -12.917  1.00  0.00    -0.245 OA
HETATM    2  C1  UNL     1      15.656  25.188 -12.993  1.00  0.00     0.341 C 
HETATM    3  N1  UNL     1      16.337  26.400 -12.768  1.00  0.00    -0.250 N 
ATOM      4  H1  UNL     1      17.355  26.438 -12.815  1.00  0.00     0.192 HD
HETATM    5  N3  UNL     1      16.207  23.925 -13.302  1.00  0.00    -0.297 N 
HETATM    6  C4  UNL     1      15.425  22.700 -13.205  1.00  0.00     0.144 C 
HETATM    7  C5  UNL     1      15.855  21.830 -12.077  1.00  0.00     0.100 C 
HETATM    8  S1  UNL     1      17.633  21.588 -12.100  1.00  0.00    -0.126 SA
HETATM    9  C6  UNL     1      18.370  22.793 -13.178  1.00  0.00     0.027 A 
HETATM   10  C7  UNL     1      19.675  22.685 -13.521  1.00  0.00     0.021 A 
HETATM   11  C8  UNL     1      20.242  23.619 -14.370  1.00  0.00     0.002 A 
HETATM   12  C9  UNL     1      19.478  24.664 -14.872  1.00  0.00     0.002 A 
HETATM   13  C10 UNL     1      18.157  24.752 -14.511  1.00  0.00     0.031 A 
HETATM   14  C11 UNL     1      17.578  23.833 -13.668  1.00  0.00     0.055 A 
ENDROOT
BRANCH   3  15
HETATM   15  N2  UNL     1      15.618  27.518 -12.487  1.00  0.00    -0.286 N 
HETATM   16  C2  UNL     1      15.686  28.723 -12.776  1.00  0.00     0.149 C 
HETATM   17 CL1  UNL     1      14.384  29.727 -12.064  1.00  0.00    -0.063 Cl
ATOM     18  H2  UNL     1      14.818  27.316 -11.888  1.00  0.00     0.188 HD
BRANCH  16  19
HETATM   19  C3  UNL     1      16.632  29.481 -13.590  1.00  0.00     0.243 C 
HETATM   20 CL2  UNL     1      16.182  31.217 -13.458  1.00  0.00    -0.076 Cl
HETATM   21 CL3  UNL     1      18.320  29.296 -13.231  1.00  0.00    -0.076 Cl
HETATM   22 CL4  UNL     1      16.373  28.965 -15.296  1.00  0.00    -0.076 Cl
ENDBRANCH  16  19
ENDBRANCH   3  15
TORSDOF 2
ENDMDL
