MODEL 1
REMARK VINA RESULT: -6.376203612      0.000      0.000
REMARK  2 active torsions:
REMARK  status: ('A' for Active; 'I' for Inactive)
REMARK    1  A    between atoms: C2_2  and  C5_5 
REMARK    2  A    between atoms: N2_10  and  C7_11 
ROOT
HETATM    1  C5  UNL     1      16.769  27.368 -17.445  1.00  0.00     0.108 A 
HETATM    2  N1  UNL     1      16.802  28.076 -16.285  1.00  0.00    -0.295 N 
ATOM      3  H1  UNL     1      16.441  29.020 -16.147  1.00  0.00     0.172 HD
HETATM    4  C6  UNL     1      17.397  27.314 -15.354  1.00  0.00     0.347 A 
HETATM    5  O1  UNL     1      17.573  27.709 -14.171  1.00  0.00    -0.245 OA
HETATM    6  N2  UNL     1      17.735  26.140 -15.912  1.00  0.00    -0.201 N 
HETATM    7  N3  UNL     1      17.343  26.202 -17.171  1.00  0.00    -0.277 N 
ATOM      8  H3  UNL     1      17.467  25.450 -17.849  1.00  0.00     0.189 HD
ENDROOT
BRANCH   6   9
HETATM    9  C7  UNL     1      18.384  25.081 -15.222  1.00  0.00     0.108 A 
HETATM   10  C8  UNL     1      19.707  24.759 -15.452  1.00  0.00     0.088 A 
HETATM   11 CL1  UNL     1      20.577  25.711 -16.638  1.00  0.00    -0.080 Cl
HETATM   12  C9  UNL     1      20.329  23.723 -14.774  1.00  0.00     0.081 A 
HETATM   13 CL2  UNL     1      22.014  23.343 -15.092  1.00  0.00    -0.081 Cl
HETATM   14  C10 UNL     1      19.650  22.971 -13.842  1.00  0.00     0.081 A 
HETATM   15 CL3  UNL     1      20.461  21.658 -12.988  1.00  0.00    -0.081 Cl
HETATM   16  C11 UNL     1      18.329  23.282 -13.602  1.00  0.00     0.081 A 
HETATM   17 CL4  UNL     1      17.462  22.329 -12.417  1.00  0.00    -0.081 Cl
HETATM   18  C12 UNL     1      17.719  24.315 -14.283  1.00  0.00     0.088 A 
HETATM   19 CL5  UNL     1      16.021  24.707 -13.969  1.00  0.00    -0.080 Cl
ENDBRANCH   6   9
BRANCH   1  20
HETATM   20  C2  UNL     1      16.176  27.913 -18.690  1.00  0.00     0.009 C 
HETATM   21  C1  UNL     1      15.579  26.764 -19.503  1.00  0.00     0.023 C 
HETATM   22  C3  UNL     1      17.209  28.570 -19.581  1.00  0.00     0.023 C 
HETATM   23  C4  UNL     1      15.055  28.850 -18.343  1.00  0.00     0.023 C 
ENDBRANCH   1  20
TORSDOF 2
ENDMDL
MODEL 2
REMARK VINA RESULT: -6.371084758      0.085      2.562
REMARK  2 active torsions:
REMARK  status: ('A' for Active; 'I' for Inactive)
REMARK    1  A    between atoms: C2_2  and  C5_5 
REMARK    2  A    between atoms: N2_10  and  C7_11 
ROOT
HETATM    1  C5  UNL     1      16.796  27.346 -17.468  1.00  0.00     0.108 A 
HETATM    2  N1  UNL     1      16.826  28.047 -16.304  1.00  0.00    -0.295 N 
ATOM      3  H1  UNL     1      16.458  28.987 -16.159  1.00  0.00     0.172 HD
HETATM    4  C6  UNL     1      17.427  27.283 -15.378  1.00  0.00     0.347 A 
HETATM    5  O1  UNL     1      17.601  27.670 -14.193  1.00  0.00    -0.245 OA
HETATM    6  N2  UNL     1      17.772  26.115 -15.944  1.00  0.00    -0.201 N 
HETATM    7  N3  UNL     1      17.378  26.183 -17.202  1.00  0.00    -0.277 N 
ATOM      8  H3  UNL     1      17.506  25.436 -17.885  1.00  0.00     0.189 HD
ENDROOT
BRANCH   6   9
HETATM    9  C7  UNL     1      18.429  25.055 -15.262  1.00  0.00     0.108 A 
HETATM   10  C8  UNL     1      17.783  24.276 -14.323  1.00  0.00     0.088 A 
HETATM   11 CL1  UNL     1      16.101  24.637 -13.991  1.00  0.00    -0.080 Cl
HETATM   12  C9  UNL     1      18.434  23.247 -13.663  1.00  0.00     0.081 A 
HETATM   13 CL2  UNL     1      17.580  22.276 -12.474  1.00  0.00    -0.081 Cl
HETATM   14  C10 UNL     1      19.756  22.960 -13.918  1.00  0.00     0.081 A 
HETATM   15 CL3  UNL     1      20.567  21.644 -13.069  1.00  0.00    -0.081 Cl
HETATM   16  C11 UNL     1      20.414  23.729 -14.854  1.00  0.00     0.081 A 
HETATM   17 CL4  UNL     1      22.094  23.367 -15.183  1.00  0.00    -0.081 Cl
HETATM   18  C12 UNL     1      19.755  24.752 -15.505  1.00  0.00     0.088 A 
HETATM   19 CL5  UNL     1      20.607  25.736 -16.705  1.00  0.00    -0.080 Cl
ENDBRANCH   6   9
BRANCH   1  20
HETATM   20  C2  UNL     1      16.198  27.896 -18.709  1.00  0.00     0.009 C 
HETATM   21  C1  UNL     1      15.601  26.749 -19.525  1.00  0.00     0.023 C 
HETATM   22  C3  UNL     1      17.227  28.559 -19.600  1.00  0.00     0.023 C 
HETATM   23  C4  UNL     1      15.077  28.829 -18.354  1.00  0.00     0.023 C 
ENDBRANCH   1  20
TORSDOF 2
ENDMDL
MODEL 3
REMARK VINA RESULT: -6.362733451      2.465      3.301
REMARK  2 active torsions:
REMARK  status: ('A' for Active; 'I' for Inactive)
REMARK    1  A    between atoms: C2_2  and  C5_5 
REMARK    2  A    between atoms: N2_10  and  C7_11 
ROOT
HETATM    1  C5  UNL     1      17.716  27.173 -14.300  1.00  0.00     0.108 A 
HETATM    2  N1  UNL     1      17.408  26.694 -15.534  1.00  0.00    -0.295 N 
ATOM      3  H1  UNL     1      16.767  27.122 -16.202  1.00  0.00     0.172 HD
HETATM    4  C6  UNL     1      18.097  25.557 -15.718  1.00  0.00     0.347 A 
HETATM    5  O1  UNL     1      18.013  24.881 -16.777  1.00  0.00    -0.245 OA
HETATM    6  N2  UNL     1      18.832  25.318 -14.619  1.00  0.00    -0.201 N 
HETATM    7  N3  UNL     1      18.582  26.308 -13.784  1.00  0.00    -0.277 N 
ATOM      8  H3  UNL     1      19.000  26.399 -12.858  1.00  0.00     0.189 HD
ENDROOT
BRANCH   6   9
HETATM    9  C7  UNL     1      19.691  24.197 -14.457  1.00  0.00     0.108 A 
HETATM   10  C8  UNL     1      20.906  24.105 -15.105  1.00  0.00     0.088 A 
HETATM   11 CL1  UNL     1      21.368  25.433 -16.151  1.00  0.00    -0.080 Cl
HETATM   12  C9  UNL     1      21.735  23.007 -14.939  1.00  0.00     0.081 A 
HETATM   13 CL2  UNL     1      23.275  22.925 -15.780  1.00  0.00    -0.081 Cl
HETATM   14  C10 UNL     1      21.377  21.961 -14.120  1.00  0.00     0.081 A 
HETATM   15 CL3  UNL     1      22.447  20.572 -13.921  1.00  0.00    -0.081 Cl
HETATM   16  C11 UNL     1      20.167  22.039 -13.466  1.00  0.00     0.081 A 
HETATM   17 CL4  UNL     1      19.707  20.712 -12.422  1.00  0.00    -0.081 Cl
HETATM   18  C12 UNL     1      19.349  23.138 -13.638  1.00  0.00     0.088 A 
HETATM   19 CL5  UNL     1      17.795  23.231 -12.795  1.00  0.00    -0.080 Cl
ENDBRANCH   6   9
BRANCH   1  20
HETATM   20  C2  UNL     1      17.129  28.426 -13.767  1.00  0.00     0.009 C 
HETATM   21  C1  UNL     1      16.145  28.080 -12.649  1.00  0.00     0.023 C 
HETATM   22  C3  UNL     1      16.334  29.180 -14.812  1.00  0.00     0.023 C 
HETATM   23  C4  UNL     1      18.214  29.273 -13.168  1.00  0.00     0.023 C 
ENDBRANCH   1  20
TORSDOF 2
ENDMDL
MODEL 4
REMARK VINA RESULT: -6.351251573      2.464      4.137
REMARK  2 active torsions:
REMARK  status: ('A' for Active; 'I' for Inactive)
REMARK    1  A    between atoms: C2_2  and  C5_5 
REMARK    2  A    between atoms: N2_10  and  C7_11 
ROOT
HETATM    1  C5  UNL     1      17.712  27.179 -14.295  1.00  0.00     0.108 A 
HETATM    2  N1  UNL     1      17.408  26.702 -15.531  1.00  0.00    -0.295 N 
ATOM      3  H1  UNL     1      16.774  27.134 -16.202  1.00  0.00     0.172 HD
HETATM    4  C6  UNL     1      18.091  25.560 -15.711  1.00  0.00     0.347 A 
HETATM    5  O1  UNL     1      18.010  24.886 -16.771  1.00  0.00    -0.245 OA
HETATM    6  N2  UNL     1      18.818  25.316 -14.608  1.00  0.00    -0.201 N 
HETATM    7  N3  UNL     1      18.568  26.308 -13.774  1.00  0.00    -0.277 N 
ATOM      8  H3  UNL     1      18.981  26.395 -12.845  1.00  0.00     0.189 HD
ENDROOT
BRANCH   6   9
HETATM    9  C7  UNL     1      19.668  24.191 -14.441  1.00  0.00     0.108 A 
HETATM   10  C8  UNL     1      19.329  23.130 -13.624  1.00  0.00     0.088 A 
HETATM   11 CL1  UNL     1      17.792  23.213 -12.788  1.00  0.00    -0.080 Cl
HETATM   12  C9  UNL     1      20.167  22.038 -13.468  1.00  0.00     0.081 A 
HETATM   13 CL2  UNL     1      19.702  20.707 -12.421  1.00  0.00    -0.081 Cl
HETATM   14  C10 UNL     1      21.377  21.968 -14.121  1.00  0.00     0.081 A 
HETATM   15 CL3  UNL     1      22.429  20.568 -13.910  1.00  0.00    -0.081 Cl
HETATM   16  C11 UNL     1      21.729  23.019 -14.940  1.00  0.00     0.081 A 
HETATM   17 CL4  UNL     1      23.265  22.935 -15.774  1.00  0.00    -0.081 Cl
HETATM   18  C12 UNL     1      20.886  24.102 -15.089  1.00  0.00     0.088 A 
HETATM   19 CL5  UNL     1      21.346  25.449 -16.142  1.00  0.00    -0.080 Cl
ENDBRANCH   6   9
BRANCH   1  20
HETATM   20  C2  UNL     1      17.129  28.435 -13.765  1.00  0.00     0.009 C 
HETATM   21  C1  UNL     1      16.144  28.095 -12.645  1.00  0.00     0.023 C 
HETATM   22  C3  UNL     1      16.336  29.189 -14.811  1.00  0.00     0.023 C 
HETATM   23  C4  UNL     1      18.217  29.280 -13.168  1.00  0.00     0.023 C 
ENDBRANCH   1  20
TORSDOF 2
ENDMDL
MODEL 5
REMARK VINA RESULT: -6.287161276      3.685      5.950
REMARK  2 active torsions:
REMARK  status: ('A' for Active; 'I' for Inactive)
REMARK    1  A    between atoms: C2_2  and  C5_5 
REMARK    2  A    between atoms: N2_10  and  C7_11 
ROOT
HETATM    1  C5  UNL     1      20.856  23.031 -15.027  1.00  0.00     0.108 A 
HETATM    2  N1  UNL     1      20.311  23.484 -16.187  1.00  0.00    -0.295 N 
ATOM      3  H1  UNL     1      20.708  23.373 -17.120  1.00  0.00     0.172 HD
HETATM    4  C6  UNL     1      19.159  24.105 -15.887  1.00  0.00     0.347 A 
HETATM    5  O1  UNL     1      18.427  24.631 -16.765  1.00  0.00    -0.245 OA
HETATM    6  N2  UNL     1      18.974  24.046 -14.557  1.00  0.00    -0.201 N 
HETATM    7  N3  UNL     1      20.012  23.393 -14.068  1.00  0.00    -0.277 N 
ATOM      8  H3  UNL     1      20.149  23.193 -13.077  1.00  0.00     0.189 HD
ENDROOT
BRANCH   6   9
HETATM    9  C7  UNL     1      17.855  24.598 -13.878  1.00  0.00     0.108 A 
HETATM   10  C8  UNL     1      17.699  25.960 -13.710  1.00  0.00     0.088 A 
HETATM   11 CL1  UNL     1      18.940  27.004 -14.372  1.00  0.00    -0.080 Cl
HETATM   12  C9  UNL     1      16.604  26.487 -13.045  1.00  0.00     0.081 A 
HETATM   13 CL2  UNL     1      16.438  28.225 -12.851  1.00  0.00    -0.081 Cl
HETATM   14  C10 UNL     1      15.627  25.672 -12.521  1.00  0.00     0.081 A 
HETATM   15 CL3  UNL     1      14.239  26.363 -11.679  1.00  0.00    -0.081 Cl
HETATM   16  C11 UNL     1      15.769  24.310 -12.681  1.00  0.00     0.081 A 
HETATM   17 CL4  UNL     1      14.529  23.269 -12.019  1.00  0.00    -0.081 Cl
HETATM   18  C12 UNL     1      16.863  23.796 -13.346  1.00  0.00     0.088 A 
HETATM   19 CL5  UNL     1      17.040  22.045 -13.547  1.00  0.00    -0.080 Cl
ENDBRANCH   6   9
BRANCH   1  20
HETATM   20  C2  UNL     1      22.142  22.293 -14.990  1.00  0.00     0.009 C 
HETATM   21  C1  UNL     1      22.070  21.117 -15.964  1.00  0.00     0.023 C 
HETATM   22  C3  UNL     1      22.425  21.698 -13.627  1.00  0.00     0.023 C 
HETATM   23  C4  UNL     1      23.250  23.195 -15.450  1.00  0.00     0.023 C 
ENDBRANCH   1  20
TORSDOF 2
ENDMDL
