MODEL 1
REMARK VINA RESULT: -7.712628613      0.000      0.000
REMARK  1 active torsions:
REMARK  status: ('A' for Active; 'I' for Inactive)
REMARK    1  A    between atoms: C2_7  and  N3_8 
ROOT
HETATM    1  N3  UNL     1      17.067  29.323 -13.460  1.00  0.00    -0.330 N 
ATOM      2  H3  UNL     1      17.793  29.841 -12.966  1.00  0.00     0.168 HD
HETATM    3  C3  UNL     1      16.231  30.011 -14.159  1.00  0.00     0.079 C 
HETATM    4  C4  UNL     1      16.272  31.491 -14.280  1.00  0.00     0.078 C 
HETATM    5  C5  UNL     1      14.785  31.826 -14.274  1.00  0.00     0.038 C 
HETATM    6  C6  UNL     1      14.269  30.762 -15.250  1.00  0.00     0.034 C 
HETATM    7  C7  UNL     1      12.814  30.468 -15.037  1.00  0.00     0.034 C 
HETATM    8  C8  UNL     1      12.154  31.568 -15.866  1.00  0.00     0.044 C 
HETATM    9  C9  UNL     1      13.066  31.732 -17.057  1.00  0.00     0.115 C 
HETATM   10 CL2  UNL     1      13.055  33.448 -17.538  1.00  0.00    -0.102 Cl
HETATM   11 CL3  UNL     1      12.472  30.797 -18.466  1.00  0.00    -0.102 Cl
HETATM   12  C10 UNL     1      14.437  31.279 -16.633  1.00  0.00     0.073 C 
HETATM   13  N4  UNL     1      15.121  29.615 -14.954  1.00  0.00    -0.370 N 
ATOM     14  H4  UNL     1      14.945  28.663 -15.274  1.00  0.00     0.161 HD
ENDROOT
BRANCH   1  15
HETATM   15  C2  UNL     1      17.073  27.944 -13.314  1.00  0.00     0.145 A 
HETATM   16  N2  UNL     1      18.086  27.206 -13.781  1.00  0.00    -0.283 N 
HETATM   17  N1  UNL     1      18.135  25.895 -13.665  1.00  0.00    -0.287 N 
ATOM     18  H2  UNL     1      18.857  27.682 -14.249  1.00  0.00     0.188 HD
HETATM   19  C1  UNL     1      17.136  25.243 -13.056  1.00  0.00     0.141 A 
ATOM     20  H1  UNL     1      18.931  25.378 -14.038  1.00  0.00     0.188 HD
HETATM   21 CL1  UNL     1      17.238  23.481 -12.919  1.00  0.00    -0.061 Cl
HETATM   22  C12 UNL     1      16.060  25.932 -12.549  1.00  0.00     0.099 A 
HETATM   23  C11 UNL     1      16.033  27.305 -12.683  1.00  0.00     0.104 A 
HETATM   24 CL5  UNL     1      14.750  25.098 -11.751  1.00  0.00    -0.079 Cl
HETATM   25 CL4  UNL     1      14.659  28.158 -12.033  1.00  0.00    -0.078 Cl
ENDBRANCH   1  15
TORSDOF 1
ENDMDL
MODEL 2
REMARK VINA RESULT: -6.992399746      1.609      1.909
REMARK  1 active torsions:
REMARK  status: ('A' for Active; 'I' for Inactive)
REMARK    1  A    between atoms: C2_7  and  N3_8 
ROOT
HETATM    1  N3  UNL     1      16.125  29.159 -12.934  1.00  0.00    -0.330 N 
ATOM      2  H3  UNL     1      16.853  29.603 -12.376  1.00  0.00     0.168 HD
HETATM    3  C3  UNL     1      15.501  29.904 -13.780  1.00  0.00     0.079 C 
HETATM    4  C4  UNL     1      15.784  31.349 -13.979  1.00  0.00     0.078 C 
HETATM    5  C5  UNL     1      14.379  31.895 -14.197  1.00  0.00     0.038 C 
HETATM    6  C6  UNL     1      13.833  30.844 -15.171  1.00  0.00     0.034 C 
HETATM    7  C7  UNL     1      12.335  30.782 -15.144  1.00  0.00     0.034 C 
HETATM    8  C8  UNL     1      11.963  31.899 -16.118  1.00  0.00     0.044 C 
HETATM    9  C9  UNL     1      13.033  31.835 -17.180  1.00  0.00     0.115 C 
HETATM   10 CL2  UNL     1      13.348  33.492 -17.756  1.00  0.00    -0.102 Cl
HETATM   11 CL3  UNL     1      12.487  30.889 -18.600  1.00  0.00    -0.102 Cl
HETATM   12  C10 UNL     1      14.253  31.222 -16.546  1.00  0.00     0.073 C 
HETATM   13  N4  UNL     1      14.453  29.613 -14.696  1.00  0.00    -0.370 N 
ATOM     14  H4  UNL     1      14.175  28.674 -14.981  1.00  0.00     0.161 HD
ENDROOT
BRANCH   1  15
HETATM   15  C2  UNL     1      15.900  27.809 -12.709  1.00  0.00     0.145 A 
HETATM   16  N2  UNL     1      14.799  27.390 -12.076  1.00  0.00    -0.283 N 
HETATM   17  N1  UNL     1      14.543  26.119 -11.840  1.00  0.00    -0.287 N 
ATOM     18  H2  UNL     1      14.125  28.088 -11.760  1.00  0.00     0.188 HD
HETATM   19  C1  UNL     1      15.410  25.181 -12.241  1.00  0.00     0.141 A 
ATOM     20  H1  UNL     1      13.688  25.851 -11.353  1.00  0.00     0.188 HD
HETATM   21 CL1  UNL     1      15.032  23.484 -11.907  1.00  0.00    -0.061 Cl
HETATM   22  C12 UNL     1      16.565  25.533 -12.899  1.00  0.00     0.099 A 
HETATM   23  C11 UNL     1      16.809  26.871 -13.134  1.00  0.00     0.104 A 
HETATM   24 CL5  UNL     1      17.705  24.323 -13.431  1.00  0.00    -0.079 Cl
HETATM   25 CL4  UNL     1      18.278  27.294 -13.969  1.00  0.00    -0.078 Cl
ENDBRANCH   1  15
TORSDOF 1
ENDMDL
MODEL 3
REMARK VINA RESULT: -6.742993951      4.850      7.752
REMARK  1 active torsions:
REMARK  status: ('A' for Active; 'I' for Inactive)
REMARK    1  A    between atoms: C2_7  and  N3_8 
ROOT
HETATM    1  N3  UNL     1      18.535  24.982 -14.339  1.00  0.00    -0.330 N 
ATOM      2  H3  UNL     1      19.421  25.233 -13.900  1.00  0.00     0.168 HD
HETATM    3  C3  UNL     1      17.667  24.382 -13.600  1.00  0.00     0.079 C 
HETATM    4  C4  UNL     1      17.886  24.044 -12.170  1.00  0.00     0.078 C 
HETATM    5  C5  UNL     1      17.210  22.681 -12.085  1.00  0.00     0.038 C 
HETATM    6  C6  UNL     1      15.914  22.979 -12.849  1.00  0.00     0.034 C 
HETATM    7  C7  UNL     1      15.300  21.733 -13.412  1.00  0.00     0.034 C 
HETATM    8  C8  UNL     1      14.494  21.221 -12.220  1.00  0.00     0.044 C 
HETATM    9  C9  UNL     1      13.988  22.474 -11.550  1.00  0.00     0.115 C 
HETATM   10 CL2  UNL     1      13.928  22.183  -9.792  1.00  0.00    -0.102 Cl
HETATM   11 CL3  UNL     1      12.316  22.860 -12.067  1.00  0.00    -0.102 Cl
HETATM   12  C10 UNL     1      14.943  23.583 -11.900  1.00  0.00     0.073 C 
HETATM   13  N4  UNL     1      16.359  23.903 -13.886  1.00  0.00    -0.370 N 
ATOM     14  H4  UNL     1      15.809  24.168 -14.703  1.00  0.00     0.161 HD
ENDROOT
BRANCH   1  15
HETATM   15  C2  UNL     1      18.381  25.320 -15.675  1.00  0.00     0.145 A 
HETATM   16  N2  UNL     1      18.872  24.540 -16.644  1.00  0.00    -0.283 N 
HETATM   17  N1  UNL     1      18.750  24.820 -17.926  1.00  0.00    -0.287 N 
ATOM     18  H2  UNL     1      19.364  23.687 -16.378  1.00  0.00     0.188 HD
HETATM   19  C1  UNL     1      18.109  25.933 -18.304  1.00  0.00     0.141 A 
ATOM     20  H1  UNL     1      19.141  24.191 -18.627  1.00  0.00     0.188 HD
HETATM   21 CL1  UNL     1      17.964  26.275 -20.035  1.00  0.00    -0.061 Cl
HETATM   22  C12 UNL     1      17.576  26.786 -17.367  1.00  0.00     0.099 A 
HETATM   23  C11 UNL     1      17.718  26.469 -16.031  1.00  0.00     0.104 A 
HETATM   24 CL5  UNL     1      16.737  28.240 -17.844  1.00  0.00    -0.079 Cl
HETATM   25 CL4  UNL     1      17.035  27.564 -14.860  1.00  0.00    -0.078 Cl
ENDBRANCH   1  15
TORSDOF 1
ENDMDL
MODEL 4
REMARK VINA RESULT: -6.570969294      4.186      7.492
REMARK  1 active torsions:
REMARK  status: ('A' for Active; 'I' for Inactive)
REMARK    1  A    between atoms: C2_7  and  N3_8 
ROOT
HETATM    1  N3  UNL     1      17.721  26.509 -14.292  1.00  0.00    -0.330 N 
ATOM      2  H3  UNL     1      18.560  26.889 -13.855  1.00  0.00     0.168 HD
HETATM    3  C3  UNL     1      17.028  25.675 -13.595  1.00  0.00     0.079 C 
HETATM    4  C4  UNL     1      17.384  25.249 -12.217  1.00  0.00     0.078 C 
HETATM    5  C5  UNL     1      16.998  23.775 -12.257  1.00  0.00     0.038 C 
HETATM    6  C6  UNL     1      15.631  23.877 -12.946  1.00  0.00     0.034 C 
HETATM    7  C7  UNL     1      15.249  22.594 -13.620  1.00  0.00     0.034 C 
HETATM    8  C8  UNL     1      14.625  21.813 -12.465  1.00  0.00     0.044 C 
HETATM    9  C9  UNL     1      13.914  22.865 -11.650  1.00  0.00     0.115 C 
HETATM   10 CL2  UNL     1      14.002  22.396  -9.933  1.00  0.00    -0.102 Cl
HETATM   11 CL3  UNL     1      12.174  22.951 -12.073  1.00  0.00    -0.102 Cl
HETATM   12  C10 UNL     1      14.609  24.174 -11.908  1.00  0.00     0.073 C 
HETATM   13  N4  UNL     1      15.829  24.970 -13.891  1.00  0.00    -0.370 N 
ATOM     14  H4  UNL     1      15.196  25.196 -14.658  1.00  0.00     0.161 HD
ENDROOT
BRANCH   1  15
HETATM   15  C2  UNL     1      17.434  26.938 -15.579  1.00  0.00     0.145 A 
HETATM   16  N2  UNL     1      16.749  28.066 -15.792  1.00  0.00    -0.283 N 
HETATM   17  N1  UNL     1      16.454  28.513 -16.996  1.00  0.00    -0.287 N 
ATOM     18  H2  UNL     1      16.441  28.607 -14.984  1.00  0.00     0.188 HD
HETATM   19  C1  UNL     1      16.845  27.824 -18.075  1.00  0.00     0.141 A 
ATOM     20  H1  UNL     1      15.929  29.381 -17.105  1.00  0.00     0.188 HD
HETATM   21 CL1  UNL     1      16.430  28.456 -19.676  1.00  0.00    -0.061 Cl
HETATM   22  C12 UNL     1      17.553  26.654 -17.937  1.00  0.00     0.099 A 
HETATM   23  C11 UNL     1      17.850  26.208 -16.665  1.00  0.00     0.104 A 
HETATM   24 CL5  UNL     1      18.071  25.744 -19.334  1.00  0.00    -0.079 Cl
HETATM   25 CL4  UNL     1      18.749  24.723 -16.515  1.00  0.00    -0.078 Cl
ENDBRANCH   1  15
TORSDOF 1
ENDMDL
MODEL 5
REMARK VINA RESULT: -6.476733414      1.758      7.067
REMARK  1 active torsions:
REMARK  status: ('A' for Active; 'I' for Inactive)
REMARK    1  A    between atoms: C2_7  and  N3_8 
ROOT
HETATM    1  N3  UNL     1      16.601  29.600 -14.493  1.00  0.00    -0.330 N 
ATOM      2  H3  UNL     1      17.061  30.377 -14.020  1.00  0.00     0.168 HD
HETATM    3  C3  UNL     1      16.953  28.411 -14.139  1.00  0.00     0.079 C 
HETATM    4  C4  UNL     1      17.974  28.124 -13.098  1.00  0.00     0.078 C 
HETATM    5  C5  UNL     1      18.677  26.916 -13.705  1.00  0.00     0.038 C 
HETATM    6  C6  UNL     1      17.460  26.099 -14.157  1.00  0.00     0.034 C 
HETATM    7  C7  UNL     1      17.807  25.145 -15.260  1.00  0.00     0.034 C 
HETATM    8  C8  UNL     1      18.337  23.946 -14.476  1.00  0.00     0.044 C 
HETATM    9  C9  UNL     1      17.477  23.907 -13.236  1.00  0.00     0.115 C 
HETATM   10 CL2  UNL     1      18.477  23.322 -11.881  1.00  0.00    -0.102 Cl
HETATM   11 CL3  UNL     1      16.123  22.747 -13.418  1.00  0.00    -0.102 Cl
HETATM   12  C10 UNL     1      16.975  25.306 -12.997  1.00  0.00     0.073 C 
HETATM   13  N4  UNL     1      16.522  27.131 -14.583  1.00  0.00    -0.370 N 
ATOM     14  H4  UNL     1      15.675  26.959 -15.125  1.00  0.00     0.161 HD
ENDROOT
BRANCH   1  15
HETATM   15  C2  UNL     1      15.656  29.922 -15.455  1.00  0.00     0.145 A 
HETATM   16  N2  UNL     1      15.839  29.589 -16.738  1.00  0.00    -0.283 N 
HETATM   17  N1  UNL     1      14.970  29.874 -17.686  1.00  0.00    -0.287 N 
ATOM     18  H2  UNL     1      16.691  29.091 -16.994  1.00  0.00     0.188 HD
HETATM   19  C1  UNL     1      13.842  30.528 -17.380  1.00  0.00     0.141 A 
ATOM     20  H1  UNL     1      15.155  29.598 -18.650  1.00  0.00     0.188 HD
HETATM   21 CL1  UNL     1      12.698  30.893 -18.681  1.00  0.00    -0.061 Cl
HETATM   22  C12 UNL     1      13.583  30.904 -16.083  1.00  0.00     0.099 A 
HETATM   23  C11 UNL     1      14.509  30.593 -15.108  1.00  0.00     0.104 A 
HETATM   24 CL5  UNL     1      12.118  31.756 -15.666  1.00  0.00    -0.079 Cl
HETATM   25 CL4  UNL     1      14.161  31.079 -13.472  1.00  0.00    -0.078 Cl
ENDBRANCH   1  15
TORSDOF 1
ENDMDL
