MODEL 1
REMARK VINA RESULT: -6.467070379      0.000      0.000
REMARK  2 active torsions:
REMARK  status: ('A' for Active; 'I' for Inactive)
REMARK    1  A    between atoms: C3_7  and  N3_8 
REMARK    2  A    between atoms: N4_11  and  C6_12 
ROOT
HETATM    1  N3  UNL     1       5.356  19.230 -19.478  1.00  0.00    -0.326 N 
HETATM    2  C4  UNL     1       6.051  19.689 -18.319  1.00  0.00     0.158 C 
HETATM    3  C5  UNL     1       6.118  21.189 -18.204  1.00  0.00     0.293 C 
HETATM    4  N4  UNL     1       4.934  21.874 -18.540  1.00  0.00     0.102 N 
HETATM    5  C9  UNL     1       3.830  21.065 -18.907  1.00  0.00     0.273 C 
HETATM    6  C10 UNL     1       2.724  21.834 -19.621  1.00  0.00     0.048 C 
HETATM    7  C11 UNL     1       4.234  20.003 -19.909  1.00  0.00     0.306 C 
HETATM    8  F1  UNL     1       3.120  19.158 -20.016  1.00  0.00    -0.224 F 
ENDROOT
BRANCH   1   9
HETATM    9  C3  UNL     1       5.781  18.046 -20.136  1.00  0.00     0.165 A 
HETATM   10  N2  UNL     1       5.124  17.057 -20.735  1.00  0.00    -0.279 N 
HETATM   11  N1  UNL     1       5.763  16.090 -21.252  1.00  0.00    -0.296 N 
ATOM     12  H2  UNL     1       4.105  17.076 -20.779  1.00  0.00     0.189 HD
HETATM   13  C2  UNL     1       7.096  16.071 -21.192  1.00  0.00     0.066 A 
ATOM     14  H1  UNL     1       5.260  15.331 -21.710  1.00  0.00     0.187 HD
HETATM   15  C1  UNL     1       8.066  15.050 -21.723  1.00  0.00     0.078 C 
HETATM   16  S1  UNL     1       7.392  17.525 -20.349  1.00  0.00    -0.038 SA
ENDBRANCH   1   9
BRANCH   4  17
HETATM   17  C6  UNL     1       4.692  22.923 -17.616  1.00  0.00     0.215 C 
HETATM   18  C7  UNL     1       4.513  24.284 -18.236  1.00  0.00     0.042 C 
HETATM   19  C8  UNL     1       5.875  23.114 -16.655  1.00  0.00     0.042 C 
ENDBRANCH   4  17
TORSDOF 2
ENDMDL
MODEL 2
REMARK VINA RESULT: -5.795071635      0.912      1.036
REMARK  2 active torsions:
REMARK  status: ('A' for Active; 'I' for Inactive)
REMARK    1  A    between atoms: C3_7  and  N3_8 
REMARK    2  A    between atoms: N4_11  and  C6_12 
ROOT
HETATM    1  N3  UNL     1       5.576  18.540 -19.719  1.00  0.00    -0.326 N 
HETATM    2  C4  UNL     1       6.268  18.916 -18.529  1.00  0.00     0.158 C 
HETATM    3  C5  UNL     1       6.356  20.406 -18.322  1.00  0.00     0.293 C 
HETATM    4  N4  UNL     1       5.186  21.128 -18.624  1.00  0.00     0.102 N 
HETATM    5  C9  UNL     1       4.073  20.360 -19.049  1.00  0.00     0.273 C 
HETATM    6  C10 UNL     1       2.985  21.188 -19.722  1.00  0.00     0.048 C 
HETATM    7  C11 UNL     1       4.470  19.355 -20.110  1.00  0.00     0.306 C 
HETATM    8  F1  UNL     1       3.344  18.535 -20.277  1.00  0.00    -0.224 F 
ENDROOT
BRANCH   1   9
HETATM    9  C3  UNL     1       5.989  17.392 -20.445  1.00  0.00     0.165 A 
HETATM   10  N2  UNL     1       5.321  16.413 -21.048  1.00  0.00    -0.279 N 
HETATM   11  N1  UNL     1       5.951  15.481 -21.635  1.00  0.00    -0.296 N 
ATOM     12  H2  UNL     1       4.301  16.412 -21.039  1.00  0.00     0.189 HD
HETATM   13  C2  UNL     1       7.285  15.488 -21.645  1.00  0.00     0.066 A 
ATOM     14  H1  UNL     1       5.439  14.730 -22.098  1.00  0.00     0.187 HD
HETATM   15  C1  UNL     1       8.246  14.509 -22.265  1.00  0.00     0.078 C 
HETATM   16  S1  UNL     1       7.596  16.914 -20.760  1.00  0.00    -0.038 SA
ENDBRANCH   1   9
BRANCH   4  17
HETATM   17  C6  UNL     1       4.951  22.122 -17.639  1.00  0.00     0.215 C 
HETATM   18  C7  UNL     1       6.132  23.009 -17.342  1.00  0.00     0.042 C 
HETATM   19  C8  UNL     1       4.612  21.499 -16.277  1.00  0.00     0.042 C 
ENDBRANCH   4  17
TORSDOF 2
ENDMDL
MODEL 3
REMARK VINA RESULT: -5.778902202      1.046      1.046
REMARK  2 active torsions:
REMARK  status: ('A' for Active; 'I' for Inactive)
REMARK    1  A    between atoms: C3_7  and  N3_8 
REMARK    2  A    between atoms: N4_11  and  C6_12 
ROOT
HETATM    1  N3  UNL     1       5.602  19.161 -19.529  1.00  0.00    -0.326 N 
HETATM    2  C4  UNL     1       6.257  19.627 -18.350  1.00  0.00     0.158 C 
HETATM    3  C5  UNL     1       6.225  21.125 -18.188  1.00  0.00     0.293 C 
HETATM    4  N4  UNL     1       5.002  21.742 -18.514  1.00  0.00     0.102 N 
HETATM    5  C9  UNL     1       3.956  20.874 -18.917  1.00  0.00     0.273 C 
HETATM    6  C10 UNL     1       2.808  21.593 -19.617  1.00  0.00     0.048 C 
HETATM    7  C11 UNL     1       4.435  19.873 -19.946  1.00  0.00     0.306 C 
HETATM    8  F1  UNL     1       3.379  18.961 -20.090  1.00  0.00    -0.224 F 
ENDROOT
BRANCH   1   9
HETATM    9  C3  UNL     1       6.107  18.028 -20.219  1.00  0.00     0.165 A 
HETATM   10  N2  UNL     1       7.319  17.700 -20.657  1.00  0.00    -0.279 N 
HETATM   11  N1  UNL     1       7.500  16.600 -21.264  1.00  0.00    -0.296 N 
ATOM     12  H2  UNL     1       8.104  18.333 -20.503  1.00  0.00     0.189 HD
HETATM   13  C2  UNL     1       6.470  15.776 -21.461  1.00  0.00     0.066 A 
ATOM     14  H1  UNL     1       8.430  16.349 -21.600  1.00  0.00     0.187 HD
HETATM   15  C1  UNL     1       6.430  14.435 -22.144  1.00  0.00     0.078 C 
HETATM   16  S1  UNL     1       5.213  16.665 -20.723  1.00  0.00    -0.038 SA
ENDBRANCH   1   9
BRANCH   4  17
HETATM   17  C6  UNL     1       4.685  22.743 -17.561  1.00  0.00     0.215 C 
HETATM   18  C7  UNL     1       4.340  24.088 -18.146  1.00  0.00     0.042 C 
HETATM   19  C8  UNL     1       5.876  23.043 -16.639  1.00  0.00     0.042 C 
ENDBRANCH   4  17
TORSDOF 2
ENDMDL
MODEL 4
REMARK VINA RESULT: -5.432505361      3.056      6.940
REMARK  2 active torsions:
REMARK  status: ('A' for Active; 'I' for Inactive)
REMARK    1  A    between atoms: C3_7  and  N3_8 
REMARK    2  A    between atoms: N4_11  and  C6_12 
ROOT
HETATM    1  N3  UNL     1       4.094  22.465 -18.850  1.00  0.00    -0.326 N 
HETATM    2  C4  UNL     1       3.085  21.607 -19.380  1.00  0.00     0.158 C 
HETATM    3  C5  UNL     1       3.630  20.399 -20.097  1.00  0.00     0.293 C 
HETATM    4  N4  UNL     1       4.727  19.771 -19.476  1.00  0.00     0.102 N 
HETATM    5  C9  UNL     1       5.151  20.335 -18.247  1.00  0.00     0.273 C 
HETATM    6  C10 UNL     1       6.544  19.883 -17.820  1.00  0.00     0.048 C 
HETATM    7  C11 UNL     1       5.276  21.841 -18.345  1.00  0.00     0.306 C 
HETATM    8  F1  UNL     1       5.488  22.278 -17.029  1.00  0.00    -0.224 F 
ENDROOT
BRANCH   1   9
HETATM    9  C3  UNL     1       3.889  23.870 -18.829  1.00  0.00     0.165 A 
HETATM   10  N2  UNL     1       3.884  24.770 -17.850  1.00  0.00    -0.279 N 
HETATM   11  N1  UNL     1       3.663  25.992 -18.111  1.00  0.00    -0.296 N 
ATOM     12  H2  UNL     1       4.058  24.477 -16.888  1.00  0.00     0.189 HD
HETATM   13  C2  UNL     1       3.437  26.370 -19.370  1.00  0.00     0.066 A 
ATOM     14  H1  UNL     1       3.659  26.682 -17.360  1.00  0.00     0.187 HD
HETATM   15  C1  UNL     1       3.155  27.740 -19.926  1.00  0.00     0.078 C 
HETATM   16  S1  UNL     1       3.558  24.868 -20.173  1.00  0.00    -0.038 SA
ENDBRANCH   1   9
BRANCH   4  17
HETATM   17  C6  UNL     1       4.584  18.361 -19.528  1.00  0.00     0.215 C 
HETATM   18  C7  UNL     1       5.756  17.628 -20.127  1.00  0.00     0.042 C 
HETATM   19  C8  UNL     1       3.403  17.946 -20.418  1.00  0.00     0.042 C 
ENDBRANCH   4  17
TORSDOF 2
ENDMDL
MODEL 5
REMARK VINA RESULT: -5.260100658      3.740      7.219
REMARK  2 active torsions:
REMARK  status: ('A' for Active; 'I' for Inactive)
REMARK    1  A    between atoms: C3_7  and  N3_8 
REMARK    2  A    between atoms: N4_11  and  C6_12 
ROOT
HETATM    1  N3  UNL     1       4.484  23.687 -18.705  1.00  0.00    -0.326 N 
HETATM    2  C4  UNL     1       3.645  22.541 -18.579  1.00  0.00     0.158 C 
HETATM    3  C5  UNL     1       4.301  21.256 -19.012  1.00  0.00     0.293 C 
HETATM    4  N4  UNL     1       5.644  21.099 -18.617  1.00  0.00     0.102 N 
HETATM    5  C9  UNL     1       6.188  22.151 -17.837  1.00  0.00     0.273 C 
HETATM    6  C10 UNL     1       7.711  22.127 -17.767  1.00  0.00     0.048 C 
HETATM    7  C11 UNL     1       5.876  23.503 -18.441  1.00  0.00     0.306 C 
HETATM    8  F1  UNL     1       6.278  24.438 -17.475  1.00  0.00    -0.224 F 
ENDROOT
BRANCH   1   9
HETATM    9  C3  UNL     1       3.921  24.941 -19.064  1.00  0.00     0.165 A 
HETATM   10  N2  UNL     1       3.487  25.975 -18.351  1.00  0.00    -0.279 N 
HETATM   11  N1  UNL     1       3.013  26.997 -18.937  1.00  0.00    -0.296 N 
ATOM     12  H2  UNL     1       3.534  25.948 -17.332  1.00  0.00     0.189 HD
HETATM   13  C2  UNL     1       2.953  27.028 -20.269  1.00  0.00     0.066 A 
ATOM     14  H1  UNL     1       2.679  27.791 -18.390  1.00  0.00     0.187 HD
HETATM   15  C1  UNL     1       2.442  28.110 -21.182  1.00  0.00     0.078 C 
HETATM   16  S1  UNL     1       3.619  25.502 -20.646  1.00  0.00    -0.038 SA
ENDBRANCH   1   9
BRANCH   4  17
HETATM   17  C6  UNL     1       5.876  19.773 -18.171  1.00  0.00     0.215 C 
HETATM   18  C7  UNL     1       5.294  18.698 -19.053  1.00  0.00     0.042 C 
HETATM   19  C8  UNL     1       5.225  19.514 -16.805  1.00  0.00     0.042 C 
ENDBRANCH   4  17
TORSDOF 2
ENDMDL
