MODEL 1
REMARK VINA RESULT: -10.599065275      0.000      0.000
REMARK  7 active torsions:
REMARK  status: ('A' for Active; 'I' for Inactive)
REMARK    1  A    between atoms: C2_5  and  C3_6 
REMARK    2  A    between atoms: C2_5  and  C9_13 
REMARK    3  A    between atoms: C9_13  and  C10_14 
REMARK    4  A    between atoms: C9_13  and  C17_23 
REMARK    5  A    between atoms: C10_14  and  C11_16 
REMARK    6  A    between atoms: C17_23  and  C18_25 
REMARK    7  A    between atoms: C21_28  and  N3_29 
ROOT
HETATM    1  N1  UNL     1     -18.164   2.539 -12.216  1.00  0.00    -0.172 NA
HETATM    2  C1  UNL     1     -18.756   3.524 -12.059  1.00  0.00     0.182 C 
HETATM    3  N2  UNL     1     -19.414   4.679 -11.909  1.00  0.00    -0.295 N 
ATOM      4  H2  UNL     1     -19.537   5.155 -12.803  1.00  0.00     0.178 HD
HETATM    5  C2  UNL     1     -19.906   5.313 -11.000  1.00  0.00     0.048 C 
ENDROOT
BRANCH   5   6
HETATM    6  C3  UNL     1     -20.555   6.611 -11.383  1.00  0.00    -0.011 A 
HETATM    7  C4  UNL     1     -20.983   6.805 -12.687  1.00  0.00     0.016 A 
HETATM    8  C5  UNL     1     -21.582   7.980 -13.065  1.00  0.00     0.043 A 
HETATM    9  C6  UNL     1     -21.762   8.984 -12.146  1.00  0.00     0.116 A 
HETATM   10  F1  UNL     1     -22.361  10.139 -12.556  1.00  0.00    -0.206 F 
HETATM   11  C7  UNL     1     -21.338   8.781 -10.873  1.00  0.00     0.043 A 
HETATM   12  C8  UNL     1     -20.736   7.613 -10.468  1.00  0.00     0.016 A 
ENDBRANCH   5   6
BRANCH   5  13
HETATM   13  C9  UNL     1     -19.894   5.015  -9.572  1.00  0.00     0.186 C 
BRANCH  13  14
HETATM   14  C10 UNL     1     -20.076   3.572  -9.231  1.00  0.00     0.177 C 
HETATM   15  O1  UNL     1     -19.130   2.882  -8.792  1.00  0.00    -0.291 OA
BRANCH  14  16
HETATM   16  C11 UNL     1     -21.385   2.916  -9.408  1.00  0.00     0.011 A 
HETATM   17  C12 UNL     1     -21.950   2.683 -10.646  1.00  0.00     0.017 A 
HETATM   18  C13 UNL     1     -23.177   2.063 -10.743  1.00  0.00     0.025 A 
HETATM   19  C14 UNL     1     -23.889   1.654  -9.636  1.00  0.00     0.034 A 
HETATM   20 CL1  UNL     1     -25.433   0.876  -9.751  1.00  0.00    -0.084 Cl
HETATM   21  C15 UNL     1     -23.338   1.880  -8.395  1.00  0.00     0.025 A 
HETATM   22  C16 UNL     1     -22.109   2.501  -8.311  1.00  0.00     0.017 A 
ENDBRANCH  14  16
ENDBRANCH  13  14
BRANCH  13  23
HETATM   23  C17 UNL     1     -18.619   5.498  -8.976  1.00  0.00     0.177 C 
HETATM   24  O2  UNL     1     -17.553   5.239  -9.626  1.00  0.00    -0.291 OA
BRANCH  23  25
HETATM   25  C18 UNL     1     -18.488   6.224  -7.738  1.00  0.00     0.011 A 
HETATM   26  C19 UNL     1     -18.242   5.554  -6.541  1.00  0.00     0.017 A 
HETATM   27  C20 UNL     1     -18.095   6.220  -5.355  1.00  0.00     0.037 A 
HETATM   28  C21 UNL     1     -18.196   7.609  -5.346  1.00  0.00     0.102 A 
HETATM   29  C22 UNL     1     -18.439   8.287  -6.518  1.00  0.00     0.037 A 
HETATM   30  C23 UNL     1     -18.586   7.591  -7.718  1.00  0.00     0.017 A 
BRANCH  28  31
HETATM   31  N3  UNL     1     -18.047   8.322  -4.125  1.00  0.00    -0.116 N 
HETATM   32  O3  UNL     1     -17.419   7.780  -3.185  1.00  0.00    -0.532 OA
HETATM   33  O4  UNL     1     -18.592   9.569  -4.021  1.00  0.00    -0.532 OA
ENDBRANCH  28  31
ENDBRANCH  23  25
ENDBRANCH  13  23
ENDBRANCH   5  13
TORSDOF 7
ENDMDL
MODEL 2
REMARK VINA RESULT: -10.469876590      1.137      1.510
REMARK  7 active torsions:
REMARK  status: ('A' for Active; 'I' for Inactive)
REMARK    1  A    between atoms: C2_5  and  C3_6 
REMARK    2  A    between atoms: C2_5  and  C9_13 
REMARK    3  A    between atoms: C9_13  and  C10_14 
REMARK    4  A    between atoms: C9_13  and  C17_23 
REMARK    5  A    between atoms: C10_14  and  C11_16 
REMARK    6  A    between atoms: C17_23  and  C18_25 
REMARK    7  A    between atoms: C21_28  and  N3_29 
ROOT
HETATM    1  N1  UNL     1     -18.778   2.435 -13.690  1.00  0.00    -0.172 NA
HETATM    2  C1  UNL     1     -19.251   3.422 -13.304  1.00  0.00     0.182 C 
HETATM    3  N2  UNL     1     -19.771   4.581 -12.885  1.00  0.00    -0.295 N 
ATOM      4  H2  UNL     1     -19.867   5.244 -13.655  1.00  0.00     0.178 HD
HETATM    5  C2  UNL     1     -20.160   5.058 -11.840  1.00  0.00     0.048 C 
ENDROOT
BRANCH   5   6
HETATM    6  C3  UNL     1     -20.671   6.467 -11.915  1.00  0.00    -0.011 A 
HETATM    7  C4  UNL     1     -21.223   6.935 -13.097  1.00  0.00     0.016 A 
HETATM    8  C5  UNL     1     -21.700   8.218 -13.193  1.00  0.00     0.043 A 
HETATM    9  C6  UNL     1     -21.634   9.057 -12.108  1.00  0.00     0.116 A 
HETATM   10  F1  UNL     1     -22.119  10.325 -12.238  1.00  0.00    -0.206 F 
HETATM   11  C7  UNL     1     -21.092   8.586 -10.957  1.00  0.00     0.043 A 
HETATM   12  C8  UNL     1     -20.606   7.305 -10.834  1.00  0.00     0.016 A 
ENDBRANCH   5   6
BRANCH   5  13
HETATM   13  C9  UNL     1     -20.136   4.468 -10.506  1.00  0.00     0.186 C 
BRANCH  13  14
HETATM   14  C10 UNL     1     -20.411   3.000 -10.465  1.00  0.00     0.177 C 
HETATM   15  O1  UNL     1     -19.507   2.162 -10.671  1.00  0.00    -0.291 OA
BRANCH  14  16
HETATM   16  C11 UNL     1     -21.768   2.497 -10.179  1.00  0.00     0.011 A 
HETATM   17  C12 UNL     1     -22.733   2.340 -11.153  1.00  0.00     0.017 A 
HETATM   18  C13 UNL     1     -23.983   1.862 -10.821  1.00  0.00     0.025 A 
HETATM   19  C14 UNL     1     -24.327   1.526  -9.530  1.00  0.00     0.034 A 
HETATM   20 CL1  UNL     1     -25.896   0.925  -9.105  1.00  0.00    -0.084 Cl
HETATM   21  C15 UNL     1     -23.374   1.677  -8.548  1.00  0.00     0.025 A 
HETATM   22  C16 UNL     1     -22.127   2.155  -8.893  1.00  0.00     0.017 A 
ENDBRANCH  14  16
ENDBRANCH  13  14
BRANCH  13  23
HETATM   23  C17 UNL     1     -18.817   4.734  -9.870  1.00  0.00     0.177 C 
HETATM   24  O2  UNL     1     -17.792   4.628 -10.622  1.00  0.00    -0.291 OA
BRANCH  23  25
HETATM   25  C18 UNL     1     -18.602   5.093  -8.492  1.00  0.00     0.011 A 
HETATM   26  C19 UNL     1     -17.871   6.232  -8.157  1.00  0.00     0.017 A 
HETATM   27  C20 UNL     1     -17.668   6.606  -6.857  1.00  0.00     0.037 A 
HETATM   28  C21 UNL     1     -18.207   5.824  -5.840  1.00  0.00     0.102 A 
HETATM   29  C22 UNL     1     -18.930   4.695  -6.151  1.00  0.00     0.037 A 
HETATM   30  C23 UNL     1     -19.127   4.329  -7.482  1.00  0.00     0.017 A 
BRANCH  28  31
HETATM   31  N3  UNL     1     -18.008   6.193  -4.481  1.00  0.00    -0.116 N 
HETATM   32  O3  UNL     1     -17.874   5.286  -3.626  1.00  0.00    -0.532 OA
HETATM   33  O4  UNL     1     -17.969   7.518  -4.157  1.00  0.00    -0.532 OA
ENDBRANCH  28  31
ENDBRANCH  23  25
ENDBRANCH  13  23
ENDBRANCH   5  13
TORSDOF 7
ENDMDL
MODEL 3
REMARK VINA RESULT: -10.438679947      1.126      1.619
REMARK  7 active torsions:
REMARK  status: ('A' for Active; 'I' for Inactive)
REMARK    1  A    between atoms: C2_5  and  C3_6 
REMARK    2  A    between atoms: C2_5  and  C9_13 
REMARK    3  A    between atoms: C9_13  and  C10_14 
REMARK    4  A    between atoms: C9_13  and  C17_23 
REMARK    5  A    between atoms: C10_14  and  C11_16 
REMARK    6  A    between atoms: C17_23  and  C18_25 
REMARK    7  A    between atoms: C21_28  and  N3_29 
ROOT
HETATM    1  N1  UNL     1     -18.835   2.434 -13.739  1.00  0.00    -0.172 NA
HETATM    2  C1  UNL     1     -19.293   3.427 -13.350  1.00  0.00     0.182 C 
HETATM    3  N2  UNL     1     -19.795   4.593 -12.929  1.00  0.00    -0.295 N 
ATOM      4  H2  UNL     1     -19.889   5.256 -13.699  1.00  0.00     0.178 HD
HETATM    5  C2  UNL     1     -20.170   5.076 -11.882  1.00  0.00     0.048 C 
ENDROOT
BRANCH   5   6
HETATM    6  C3  UNL     1     -20.664   6.492 -11.954  1.00  0.00    -0.011 A 
HETATM    7  C4  UNL     1     -21.220   6.965 -13.133  1.00  0.00     0.016 A 
HETATM    8  C5  UNL     1     -21.682   8.254 -13.227  1.00  0.00     0.043 A 
HETATM    9  C6  UNL     1     -21.597   9.093 -12.143  1.00  0.00     0.116 A 
HETATM   10  F1  UNL     1     -22.067  10.367 -12.271  1.00  0.00    -0.206 F 
HETATM   11  C7  UNL     1     -21.052   8.617 -10.995  1.00  0.00     0.043 A 
HETATM   12  C8  UNL     1     -20.581   7.330 -10.875  1.00  0.00     0.016 A 
ENDBRANCH   5   6
BRANCH   5  13
HETATM   13  C9  UNL     1     -20.144   4.488 -10.547  1.00  0.00     0.186 C 
BRANCH  13  14
HETATM   14  C10 UNL     1     -20.408   3.018 -10.505  1.00  0.00     0.177 C 
HETATM   15  O1  UNL     1     -19.521   2.189 -10.806  1.00  0.00    -0.291 OA
BRANCH  14  16
HETATM   16  C11 UNL     1     -21.731   2.501 -10.108  1.00  0.00     0.011 A 
HETATM   17  C12 UNL     1     -22.055   2.185  -8.804  1.00  0.00     0.017 A 
HETATM   18  C13 UNL     1     -23.312   1.708  -8.498  1.00  0.00     0.025 A 
HETATM   19  C14 UNL     1     -24.286   1.523  -9.455  1.00  0.00     0.034 A 
HETATM   20 CL1  UNL     1     -25.868   0.922  -9.078  1.00  0.00    -0.084 Cl
HETATM   21  C15 UNL     1     -23.977   1.834 -10.760  1.00  0.00     0.025 A 
HETATM   22  C16 UNL     1     -22.716   2.312 -11.053  1.00  0.00     0.017 A 
ENDBRANCH  14  16
ENDBRANCH  13  14
BRANCH  13  23
HETATM   23  C17 UNL     1     -18.828   4.764  -9.909  1.00  0.00     0.177 C 
HETATM   24  O2  UNL     1     -17.797   4.611 -10.644  1.00  0.00    -0.291 OA
BRANCH  23  25
HETATM   25  C18 UNL     1     -18.623   5.184  -8.547  1.00  0.00     0.011 A 
HETATM   26  C19 UNL     1     -19.095   4.415  -7.485  1.00  0.00     0.017 A 
HETATM   27  C20 UNL     1     -18.898   4.781  -6.181  1.00  0.00     0.037 A 
HETATM   28  C21 UNL     1     -18.205   5.958  -5.910  1.00  0.00     0.102 A 
HETATM   29  C22 UNL     1     -17.733   6.730  -6.946  1.00  0.00     0.037 A 
HETATM   30  C23 UNL     1     -17.943   6.341  -8.269  1.00  0.00     0.017 A 
BRANCH  28  31
HETATM   31  N3  UNL     1     -17.989   6.358  -4.563  1.00  0.00    -0.116 N 
HETATM   32  O3  UNL     1     -17.949   7.583  -4.300  1.00  0.00    -0.532 OA
HETATM   33  O4  UNL     1     -17.832   5.397  -3.607  1.00  0.00    -0.532 OA
ENDBRANCH  28  31
ENDBRANCH  23  25
ENDBRANCH  13  23
ENDBRANCH   5  13
TORSDOF 7
ENDMDL
MODEL 4
REMARK VINA RESULT: -10.365174806      3.802      6.209
REMARK  7 active torsions:
REMARK  status: ('A' for Active; 'I' for Inactive)
REMARK    1  A    between atoms: C2_5  and  C3_6 
REMARK    2  A    between atoms: C2_5  and  C9_13 
REMARK    3  A    between atoms: C9_13  and  C10_14 
REMARK    4  A    between atoms: C9_13  and  C17_23 
REMARK    5  A    between atoms: C10_14  and  C11_16 
REMARK    6  A    between atoms: C17_23  and  C18_25 
REMARK    7  A    between atoms: C21_28  and  N3_29 
ROOT
HETATM    1  N1  UNL     1     -18.007   2.138 -12.884  1.00  0.00    -0.172 NA
HETATM    2  C1  UNL     1     -18.952   2.143 -12.210  1.00  0.00     0.182 C 
HETATM    3  N2  UNL     1     -20.060   2.125 -11.462  1.00  0.00    -0.295 N 
ATOM      4  H2  UNL     1     -20.538   1.227 -11.528  1.00  0.00     0.178 HD
HETATM    5  C2  UNL     1     -20.652   2.887 -10.726  1.00  0.00     0.048 C 
ENDROOT
BRANCH   5   6
HETATM    6  C3  UNL     1     -21.910   2.353 -10.106  1.00  0.00    -0.011 A 
HETATM    7  C4  UNL     1     -21.980   2.182  -8.732  1.00  0.00     0.016 A 
HETATM    8  C5  UNL     1     -23.118   1.699  -8.139  1.00  0.00     0.043 A 
HETATM    9  C6  UNL     1     -24.209   1.377  -8.908  1.00  0.00     0.116 A 
HETATM   10  F1  UNL     1     -25.324   0.900  -8.286  1.00  0.00    -0.206 F 
HETATM   11  C7  UNL     1     -24.128   1.549 -10.252  1.00  0.00     0.043 A 
HETATM   12  C8  UNL     1     -22.999   2.031 -10.872  1.00  0.00     0.016 A 
ENDBRANCH   5   6
BRANCH   5  13
HETATM   13  C9  UNL     1     -20.338   4.277 -10.412  1.00  0.00     0.186 C 
BRANCH  13  14
HETATM   14  C10 UNL     1     -18.969   4.501  -9.859  1.00  0.00     0.177 C 
HETATM   15  O1  UNL     1     -17.951   4.396 -10.577  1.00  0.00    -0.291 OA
BRANCH  14  16
HETATM   16  C11 UNL     1     -18.779   4.852  -8.439  1.00  0.00     0.011 A 
HETATM   17  C12 UNL     1     -19.340   4.133  -7.404  1.00  0.00     0.017 A 
HETATM   18  C13 UNL     1     -19.123   4.513  -6.096  1.00  0.00     0.025 A 
HETATM   19  C14 UNL     1     -18.353   5.606  -5.762  1.00  0.00     0.034 A 
HETATM   20 CL1  UNL     1     -18.076   6.091  -4.121  1.00  0.00    -0.084 Cl
HETATM   21  C15 UNL     1     -17.787   6.334  -6.785  1.00  0.00     0.025 A 
HETATM   22  C16 UNL     1     -18.011   5.943  -8.089  1.00  0.00     0.017 A 
ENDBRANCH  14  16
ENDBRANCH  13  14
BRANCH  13  23
HETATM   23  C17 UNL     1     -20.512   5.111 -11.632  1.00  0.00     0.177 C 
HETATM   24  O2  UNL     1     -20.931   4.511 -12.676  1.00  0.00    -0.291 OA
BRANCH  23  25
HETATM   25  C18 UNL     1     -20.248   6.523 -11.733  1.00  0.00     0.011 A 
HETATM   26  C19 UNL     1     -20.395   7.357 -10.626  1.00  0.00     0.017 A 
HETATM   27  C20 UNL     1     -20.134   8.699 -10.690  1.00  0.00     0.037 A 
HETATM   28  C21 UNL     1     -19.708   9.245 -11.897  1.00  0.00     0.102 A 
HETATM   29  C22 UNL     1     -19.558   8.437 -13.001  1.00  0.00     0.037 A 
HETATM   30  C23 UNL     1     -19.829   7.072 -12.917  1.00  0.00     0.017 A 
BRANCH  28  31
HETATM   31  N3  UNL     1     -19.431  10.637 -11.987  1.00  0.00    -0.116 N 
HETATM   32  O3  UNL     1     -18.866  11.200 -11.020  1.00  0.00    -0.532 OA
HETATM   33  O4  UNL     1     -19.788  11.307 -13.121  1.00  0.00    -0.532 OA
ENDBRANCH  28  31
ENDBRANCH  23  25
ENDBRANCH  13  23
ENDBRANCH   5  13
TORSDOF 7
ENDMDL
MODEL 5
REMARK VINA RESULT: -10.357061499      3.809      6.173
REMARK  7 active torsions:
REMARK  status: ('A' for Active; 'I' for Inactive)
REMARK    1  A    between atoms: C2_5  and  C3_6 
REMARK    2  A    between atoms: C2_5  and  C9_13 
REMARK    3  A    between atoms: C9_13  and  C10_14 
REMARK    4  A    between atoms: C9_13  and  C17_23 
REMARK    5  A    between atoms: C10_14  and  C11_16 
REMARK    6  A    between atoms: C17_23  and  C18_25 
REMARK    7  A    between atoms: C21_28  and  N3_29 
ROOT
HETATM    1  N1  UNL     1     -18.001   2.027 -12.879  1.00  0.00    -0.172 NA
HETATM    2  C1  UNL     1     -18.949   2.054 -12.210  1.00  0.00     0.182 C 
HETATM    3  N2  UNL     1     -20.062   2.061 -11.468  1.00  0.00    -0.295 N 
ATOM      4  H2  UNL     1     -20.550   1.167 -11.522  1.00  0.00     0.178 HD
HETATM    5  C2  UNL     1     -20.648   2.841 -10.748  1.00  0.00     0.048 C 
ENDROOT
BRANCH   5   6
HETATM    6  C3  UNL     1     -21.916   2.333 -10.127  1.00  0.00    -0.011 A 
HETATM    7  C4  UNL     1     -23.028   2.108 -10.924  1.00  0.00     0.016 A 
HETATM    8  C5  UNL     1     -24.200   1.641 -10.385  1.00  0.00     0.043 A 
HETATM    9  C6  UNL     1     -24.281   1.389  -9.037  1.00  0.00     0.116 A 
HETATM   10  F1  UNL     1     -25.461   0.925  -8.534  1.00  0.00    -0.206 F 
HETATM   11  C7  UNL     1     -23.186   1.613  -8.268  1.00  0.00     0.043 A 
HETATM   12  C8  UNL     1     -22.000   2.081  -8.784  1.00  0.00     0.016 A 
ENDBRANCH   5   6
BRANCH   5  13
HETATM   13  C9  UNL     1     -20.320   4.233 -10.456  1.00  0.00     0.186 C 
BRANCH  13  14
HETATM   14  C10 UNL     1     -18.955   4.450  -9.889  1.00  0.00     0.177 C 
HETATM   15  O1  UNL     1     -17.931   4.340 -10.597  1.00  0.00    -0.291 OA
BRANCH  14  16
HETATM   16  C11 UNL     1     -18.778   4.799  -8.467  1.00  0.00     0.011 A 
HETATM   17  C12 UNL     1     -19.365   4.090  -7.438  1.00  0.00     0.017 A 
HETATM   18  C13 UNL     1     -19.157   4.468  -6.129  1.00  0.00     0.025 A 
HETATM   19  C14 UNL     1     -18.373   5.548  -5.786  1.00  0.00     0.034 A 
HETATM   20 CL1  UNL     1     -18.109   6.028  -4.142  1.00  0.00    -0.084 Cl
HETATM   21  C15 UNL     1     -17.781   6.264  -6.801  1.00  0.00     0.025 A 
HETATM   22  C16 UNL     1     -17.995   5.876  -8.108  1.00  0.00     0.017 A 
ENDBRANCH  14  16
ENDBRANCH  13  14
BRANCH  13  23
HETATM   23  C17 UNL     1     -20.468   5.047 -11.693  1.00  0.00     0.177 C 
HETATM   24  O2  UNL     1     -20.836   4.424 -12.743  1.00  0.00    -0.291 OA
BRANCH  23  25
HETATM   25  C18 UNL     1     -20.230   6.463 -11.804  1.00  0.00     0.011 A 
HETATM   26  C19 UNL     1     -20.374   7.300 -10.699  1.00  0.00     0.017 A 
HETATM   27  C20 UNL     1     -20.137   8.645 -10.773  1.00  0.00     0.037 A 
HETATM   28  C21 UNL     1     -19.740   9.193 -11.990  1.00  0.00     0.102 A 
HETATM   29  C22 UNL     1     -19.592   8.382 -13.092  1.00  0.00     0.037 A 
HETATM   30  C23 UNL     1     -19.839   7.013 -12.998  1.00  0.00     0.017 A 
BRANCH  28  31
HETATM   31  N3  UNL     1     -19.487  10.588 -12.091  1.00  0.00    -0.116 N 
HETATM   32  O3  UNL     1     -19.830  11.186 -13.138  1.00  0.00    -0.532 OA
HETATM   33  O4  UNL     1     -18.883  11.225 -11.046  1.00  0.00    -0.532 OA
ENDBRANCH  28  31
ENDBRANCH  23  25
ENDBRANCH  13  23
ENDBRANCH   5  13
TORSDOF 7
ENDMDL
