MODEL 1
REMARK VINA RESULT: -8.794569480      0.000      0.000
REMARK  6 active torsions:
REMARK  status: ('A' for Active; 'I' for Inactive)
REMARK    1  A    between atoms: N1_2  and  C2_4 
REMARK    2  A    between atoms: C4_6  and  S1_7 
REMARK    3  A    between atoms: C6_11  and  C7_12 
REMARK    4  A    between atoms: C7_12  and  N2_13 
REMARK    5  A    between atoms: N3_16  and  C10_17 
REMARK    6  A    between atoms: C10_17  and  C11_18 
ROOT
HETATM    1  N2  UNL     1     -21.028   2.272  -7.895  1.00  0.00    -0.385 N 
HETATM    2  C8  UNL     1     -21.143   2.507  -6.567  1.00  0.00     0.152 C 
HETATM    3  C9  UNL     1     -19.755   3.099  -6.142  1.00  0.00     0.292 C 
HETATM    4  N3  UNL     1     -19.810   4.510  -6.516  1.00  0.00     0.095 N 
HETATM    5  C17 UNL     1     -20.633   4.638  -7.706  1.00  0.00     0.292 C 
HETATM    6  C18 UNL     1     -20.475   3.441  -8.618  1.00  0.00     0.152 C 
ENDROOT
BRANCH   1   7
HETATM    7  C7  UNL     1     -21.759   1.513  -8.789  1.00  0.00     0.106 C 
BRANCH   7   8
HETATM    8  C6  UNL     1     -22.200   0.150  -8.404  1.00  0.00     0.043 A 
HETATM    9  C4  UNL     1     -23.360  -0.247  -7.801  1.00  0.00     0.080 A 
HETATM   10  C3  UNL     1     -23.410  -1.493  -7.264  1.00  0.00     0.062 A 
HETATM   11  C2  UNL     1     -22.290  -2.270  -7.359  1.00  0.00     0.075 A 
HETATM   12  S2  UNL     1     -21.197  -1.206  -8.224  1.00  0.00    -0.070 SA
BRANCH   9  13
HETATM   13  S1  UNL     1     -24.756   0.872  -7.746  1.00  0.00     0.173 S 
HETATM   14  C5  UNL     1     -25.377   1.203  -9.370  1.00  0.00     0.167 C 
HETATM   15  O1  UNL     1     -25.852   0.222  -6.893  1.00  0.00    -0.223 OA
HETATM   16  O2  UNL     1     -24.422   2.151  -7.082  1.00  0.00    -0.223 OA
ENDBRANCH   9  13
BRANCH  11  17
HETATM   17  N1  UNL     1     -21.981  -3.547  -6.793  1.00  0.00    -0.370 N 
HETATM   18  C1  UNL     1     -22.729  -4.520  -6.791  1.00  0.00     0.118 C 
ATOM     19  H1  UNL     1     -21.066  -3.657  -6.356  1.00  0.00     0.165 HD
ENDBRANCH  11  17
ENDBRANCH   7   8
ENDBRANCH   1   7
BRANCH   4  20
HETATM   20  C10 UNL     1     -18.492   5.004  -6.882  1.00  0.00     0.311 C 
BRANCH  20  21
HETATM   21  C11 UNL     1     -18.335   6.353  -6.226  1.00  0.00    -0.027 A 
HETATM   22  C12 UNL     1     -18.315   7.410  -7.141  1.00  0.00     0.032 A 
HETATM   23  C13 UNL     1     -18.155   8.685  -6.617  1.00  0.00     0.036 A 
HETATM   24 CL1  UNL     1     -18.128  10.033  -7.740  1.00  0.00    -0.084 Cl
HETATM   25  C14 UNL     1     -18.033   8.854  -5.263  1.00  0.00     0.047 A 
HETATM   26  C15 UNL     1     -18.054   7.814  -4.347  1.00  0.00     0.036 A 
HETATM   27 CL2  UNL     1     -17.884   8.150  -2.653  1.00  0.00    -0.084 Cl
HETATM   28  C16 UNL     1     -18.215   6.549  -4.879  1.00  0.00     0.032 A 
ENDBRANCH  20  21
ENDBRANCH   4  20
TORSDOF 6
ENDMDL
MODEL 2
REMARK VINA RESULT: -8.705738459      0.780      1.926
REMARK  6 active torsions:
REMARK  status: ('A' for Active; 'I' for Inactive)
REMARK    1  A    between atoms: N1_2  and  C2_4 
REMARK    2  A    between atoms: C4_6  and  S1_7 
REMARK    3  A    between atoms: C6_11  and  C7_12 
REMARK    4  A    between atoms: C7_12  and  N2_13 
REMARK    5  A    between atoms: N3_16  and  C10_17 
REMARK    6  A    between atoms: C10_17  and  C11_18 
ROOT
HETATM    1  N2  UNL     1     -21.030   2.345  -7.949  1.00  0.00    -0.385 N 
HETATM    2  C8  UNL     1     -21.116   2.611  -6.625  1.00  0.00     0.152 C 
HETATM    3  C9  UNL     1     -19.712   3.193  -6.241  1.00  0.00     0.292 C 
HETATM    4  N3  UNL     1     -19.756   4.597  -6.646  1.00  0.00     0.095 N 
HETATM    5  C17 UNL     1     -20.600   4.709  -7.822  1.00  0.00     0.292 C 
HETATM    6  C18 UNL     1     -20.477   3.489  -8.709  1.00  0.00     0.152 C 
ENDROOT
BRANCH   1   7
HETATM    7  C7  UNL     1     -21.789   1.576  -8.811  1.00  0.00     0.106 C 
BRANCH   7   8
HETATM    8  C6  UNL     1     -22.194   0.207  -8.409  1.00  0.00     0.043 A 
HETATM    9  C4  UNL     1     -23.336  -0.210  -7.783  1.00  0.00     0.080 A 
HETATM   10  C3  UNL     1     -23.350  -1.453  -7.237  1.00  0.00     0.062 A 
HETATM   11  C2  UNL     1     -22.215  -2.206  -7.343  1.00  0.00     0.075 A 
HETATM   12  S2  UNL     1     -21.159  -1.126  -8.234  1.00  0.00    -0.070 SA
BRANCH   9  13
HETATM   13  S1  UNL     1     -24.755   0.879  -7.715  1.00  0.00     0.173 S 
HETATM   14  C5  UNL     1     -25.383   1.216  -9.335  1.00  0.00     0.167 C 
HETATM   15  O1  UNL     1     -25.836   0.196  -6.869  1.00  0.00    -0.223 OA
HETATM   16  O2  UNL     1     -24.446   2.156  -7.036  1.00  0.00    -0.223 OA
ENDBRANCH   9  13
BRANCH  11  17
HETATM   17  N1  UNL     1     -21.869  -3.471  -6.773  1.00  0.00    -0.370 N 
HETATM   18  C1  UNL     1     -22.593  -4.463  -6.758  1.00  0.00     0.118 C 
ATOM     19  H1  UNL     1     -20.948  -3.556  -6.343  1.00  0.00     0.165 HD
ENDBRANCH  11  17
ENDBRANCH   7   8
ENDBRANCH   1   7
BRANCH   4  20
HETATM   20  C10 UNL     1     -18.438   5.064  -7.049  1.00  0.00     0.311 C 
BRANCH  20  21
HETATM   21  C11 UNL     1     -18.511   6.569  -7.110  1.00  0.00    -0.027 A 
HETATM   22  C12 UNL     1     -18.306   7.180  -5.870  1.00  0.00     0.032 A 
HETATM   23  C13 UNL     1     -18.375   8.566  -5.839  1.00  0.00     0.036 A 
HETATM   24 CL1  UNL     1     -18.120   9.363  -4.297  1.00  0.00    -0.084 Cl
HETATM   25  C14 UNL     1     -18.627   9.260  -6.992  1.00  0.00     0.047 A 
HETATM   26  C15 UNL     1     -18.829   8.665  -8.227  1.00  0.00     0.036 A 
HETATM   27 CL2  UNL     1     -19.148   9.650  -9.621  1.00  0.00    -0.084 Cl
HETATM   28  C16 UNL     1     -18.757   7.286  -8.248  1.00  0.00     0.032 A 
ENDBRANCH  20  21
ENDBRANCH   4  20
TORSDOF 6
ENDMDL
MODEL 3
REMARK VINA RESULT: -8.677443761      2.197      3.211
REMARK  6 active torsions:
REMARK  status: ('A' for Active; 'I' for Inactive)
REMARK    1  A    between atoms: N1_2  and  C2_4 
REMARK    2  A    between atoms: C4_6  and  S1_7 
REMARK    3  A    between atoms: C6_11  and  C7_12 
REMARK    4  A    between atoms: C7_12  and  N2_13 
REMARK    5  A    between atoms: N3_16  and  C10_17 
REMARK    6  A    between atoms: C10_17  and  C11_18 
ROOT
HETATM    1  N2  UNL     1     -20.281   2.013  -6.770  1.00  0.00    -0.385 N 
HETATM    2  C8  UNL     1     -20.664   2.836  -5.767  1.00  0.00     0.152 C 
HETATM    3  C9  UNL     1     -19.473   3.841  -5.596  1.00  0.00     0.292 C 
HETATM    4  N3  UNL     1     -19.663   4.840  -6.646  1.00  0.00     0.095 N 
HETATM    5  C17 UNL     1     -20.270   4.190  -7.794  1.00  0.00     0.292 C 
HETATM    6  C18 UNL     1     -19.783   2.766  -7.944  1.00  0.00     0.152 C 
ENDROOT
BRANCH   1   7
HETATM    7  C7  UNL     1     -20.725   0.777  -7.202  1.00  0.00     0.106 C 
BRANCH   7   8
HETATM    8  C6  UNL     1     -22.171   0.566  -7.459  1.00  0.00     0.043 A 
HETATM    9  C4  UNL     1     -22.846  -0.595  -7.715  1.00  0.00     0.080 A 
HETATM   10  C3  UNL     1     -24.100  -0.507  -8.226  1.00  0.00     0.062 A 
HETATM   11  C2  UNL     1     -24.607   0.740  -8.455  1.00  0.00     0.075 A 
HETATM   12  S2  UNL     1     -23.283   1.760  -7.925  1.00  0.00    -0.070 SA
BRANCH   9  13
HETATM   13  S1  UNL     1     -22.063  -2.167  -7.366  1.00  0.00     0.173 S 
HETATM   14  C5  UNL     1     -20.918  -2.610  -8.639  1.00  0.00     0.167 C 
HETATM   15  O1  UNL     1     -21.329  -2.043  -6.025  1.00  0.00    -0.223 OA
HETATM   16  O2  UNL     1     -23.050  -3.256  -7.196  1.00  0.00    -0.223 OA
ENDBRANCH   9  13
BRANCH  11  17
HETATM   17  N1  UNL     1     -25.814   1.161  -9.095  1.00  0.00    -0.370 N 
HETATM   18  C1  UNL     1     -25.876   1.770 -10.160  1.00  0.00     0.118 C 
ATOM     19  H1  UNL     1     -26.695   0.939  -8.630  1.00  0.00     0.165 HD
ENDBRANCH  11  17
ENDBRANCH   7   8
ENDBRANCH   1   7
BRANCH   4  20
HETATM   20  C10 UNL     1     -18.385   5.361  -7.107  1.00  0.00     0.311 C 
BRANCH  20  21
HETATM   21  C11 UNL     1     -18.449   6.861  -6.962  1.00  0.00    -0.027 A 
HETATM   22  C12 UNL     1     -18.751   7.516  -8.159  1.00  0.00     0.032 A 
HETATM   23  C13 UNL     1     -18.810   8.902  -8.113  1.00  0.00     0.036 A 
HETATM   24 CL1  UNL     1     -19.190   9.753  -9.600  1.00  0.00    -0.084 Cl
HETATM   25  C14 UNL     1     -18.584   9.554  -6.931  1.00  0.00     0.047 A 
HETATM   26  C15 UNL     1     -18.286   8.915  -5.738  1.00  0.00     0.036 A 
HETATM   27 CL2  UNL     1     -18.011   9.849  -4.301  1.00  0.00    -0.084 Cl
HETATM   28  C16 UNL     1     -18.230   7.535  -5.794  1.00  0.00     0.032 A 
ENDBRANCH  20  21
ENDBRANCH   4  20
TORSDOF 6
ENDMDL
MODEL 4
REMARK VINA RESULT: -8.637063792      2.235      3.663
REMARK  6 active torsions:
REMARK  status: ('A' for Active; 'I' for Inactive)
REMARK    1  A    between atoms: N1_2  and  C2_4 
REMARK    2  A    between atoms: C4_6  and  S1_7 
REMARK    3  A    between atoms: C6_11  and  C7_12 
REMARK    4  A    between atoms: C7_12  and  N2_13 
REMARK    5  A    between atoms: N3_16  and  C10_17 
REMARK    6  A    between atoms: C10_17  and  C11_18 
ROOT
HETATM    1  N2  UNL     1     -20.266   2.018  -6.775  1.00  0.00    -0.385 N 
HETATM    2  C8  UNL     1     -20.635   2.870  -5.791  1.00  0.00     0.152 C 
HETATM    3  C9  UNL     1     -19.442   3.879  -5.665  1.00  0.00     0.292 C 
HETATM    4  N3  UNL     1     -19.644   4.847  -6.741  1.00  0.00     0.095 N 
HETATM    5  C17 UNL     1     -20.267   4.164  -7.862  1.00  0.00     0.292 C 
HETATM    6  C18 UNL     1     -19.782   2.736  -7.977  1.00  0.00     0.152 C 
ENDROOT
BRANCH   1   7
HETATM    7  C7  UNL     1     -20.717   0.770  -7.165  1.00  0.00     0.106 C 
BRANCH   7   8
HETATM    8  C6  UNL     1     -22.161   0.562  -7.427  1.00  0.00     0.043 A 
HETATM    9  C4  UNL     1     -22.835  -0.596  -7.698  1.00  0.00     0.080 A 
HETATM   10  C3  UNL     1     -24.089  -0.504  -8.210  1.00  0.00     0.062 A 
HETATM   11  C2  UNL     1     -24.596   0.746  -8.426  1.00  0.00     0.075 A 
HETATM   12  S2  UNL     1     -23.273   1.761  -7.881  1.00  0.00    -0.070 SA
BRANCH   9  13
HETATM   13  S1  UNL     1     -22.053  -2.172  -7.366  1.00  0.00     0.173 S 
HETATM   14  C5  UNL     1     -20.899  -2.596  -8.638  1.00  0.00     0.167 C 
HETATM   15  O1  UNL     1     -21.326  -2.065  -6.019  1.00  0.00    -0.223 OA
HETATM   16  O2  UNL     1     -23.039  -3.264  -7.216  1.00  0.00    -0.223 OA
ENDBRANCH   9  13
BRANCH  11  17
HETATM   17  N1  UNL     1     -25.802   1.174  -9.063  1.00  0.00    -0.370 N 
HETATM   18  C1  UNL     1     -25.865   1.755 -10.143  1.00  0.00     0.118 C 
ATOM     19  H1  UNL     1     -26.681   0.982  -8.582  1.00  0.00     0.165 HD
ENDBRANCH  11  17
ENDBRANCH   7   8
ENDBRANCH   1   7
BRANCH   4  20
HETATM   20  C10 UNL     1     -18.372   5.353  -7.233  1.00  0.00     0.311 C 
BRANCH  20  21
HETATM   21  C11 UNL     1     -18.501   6.853  -7.312  1.00  0.00    -0.027 A 
HETATM   22  C12 UNL     1     -18.239   7.492  -6.097  1.00  0.00     0.032 A 
HETATM   23  C13 UNL     1     -18.356   8.875  -6.082  1.00  0.00     0.036 A 
HETATM   24 CL1  UNL     1     -18.032   9.706  -4.571  1.00  0.00    -0.084 Cl
HETATM   25  C14 UNL     1     -18.704   9.540  -7.226  1.00  0.00     0.047 A 
HETATM   26  C15 UNL     1     -18.963   8.918  -8.437  1.00  0.00     0.036 A 
HETATM   27 CL2  UNL     1     -19.404   9.867  -9.822  1.00  0.00    -0.084 Cl
HETATM   28  C16 UNL     1     -18.844   7.542  -8.442  1.00  0.00     0.032 A 
ENDBRANCH  20  21
ENDBRANCH   4  20
TORSDOF 6
ENDMDL
MODEL 5
REMARK VINA RESULT: -8.389547937      1.236      2.294
REMARK  6 active torsions:
REMARK  status: ('A' for Active; 'I' for Inactive)
REMARK    1  A    between atoms: N1_2  and  C2_4 
REMARK    2  A    between atoms: C4_6  and  S1_7 
REMARK    3  A    between atoms: C6_11  and  C7_12 
REMARK    4  A    between atoms: C7_12  and  N2_13 
REMARK    5  A    between atoms: N3_16  and  C10_17 
REMARK    6  A    between atoms: C10_17  and  C11_18 
ROOT
HETATM    1  N2  UNL     1     -21.189   2.498  -7.786  1.00  0.00    -0.385 N 
HETATM    2  C8  UNL     1     -21.097   2.717  -6.454  1.00  0.00     0.152 C 
HETATM    3  C9  UNL     1     -19.640   3.253  -6.236  1.00  0.00     0.292 C 
HETATM    4  N3  UNL     1     -19.698   4.671  -6.584  1.00  0.00     0.095 N 
HETATM    5  C17 UNL     1     -20.684   4.846  -7.636  1.00  0.00     0.292 C 
HETATM    6  C18 UNL     1     -20.708   3.658  -8.573  1.00  0.00     0.152 C 
ENDROOT
BRANCH   1   7
HETATM    7  C7  UNL     1     -22.074   1.779  -8.569  1.00  0.00     0.106 C 
BRANCH   7   8
HETATM    8  C6  UNL     1     -22.177   0.310  -8.395  1.00  0.00     0.043 A 
HETATM    9  C4  UNL     1     -23.009  -0.411  -7.585  1.00  0.00     0.080 A 
HETATM   10  C3  UNL     1     -22.712  -1.717  -7.360  1.00  0.00     0.062 A 
HETATM   11  C2  UNL     1     -21.593  -2.226  -7.956  1.00  0.00     0.075 A 
HETATM   12  S2  UNL     1     -20.998  -0.829  -8.836  1.00  0.00    -0.070 SA
BRANCH   9  13
HETATM   13  S1  UNL     1     -24.445   0.379  -6.865  1.00  0.00     0.173 S 
HETATM   14  C5  UNL     1     -24.004   1.343  -5.448  1.00  0.00     0.167 C 
HETATM   15  O1  UNL     1     -25.073   1.283  -7.934  1.00  0.00    -0.223 OA
HETATM   16  O2  UNL     1     -25.489  -0.597  -6.486  1.00  0.00    -0.223 OA
ENDBRANCH   9  13
BRANCH  11  17
HETATM   17  N1  UNL     1     -20.947  -3.494  -7.817  1.00  0.00    -0.370 N 
HETATM   18  C1  UNL     1     -21.369  -4.557  -8.263  1.00  0.00     0.118 C 
ATOM     19  H1  UNL     1     -20.065  -3.517  -7.305  1.00  0.00     0.165 HD
ENDBRANCH  11  17
ENDBRANCH   7   8
ENDBRANCH   1   7
BRANCH   4  20
HETATM   20  C10 UNL     1     -18.431   5.124  -7.138  1.00  0.00     0.311 C 
BRANCH  20  21
HETATM   21  C11 UNL     1     -18.500   6.629  -7.209  1.00  0.00    -0.027 A 
HETATM   22  C12 UNL     1     -18.310   7.246  -5.969  1.00  0.00     0.032 A 
HETATM   23  C13 UNL     1     -18.378   8.632  -5.947  1.00  0.00     0.036 A 
HETATM   24 CL1  UNL     1     -18.142   9.437  -4.406  1.00  0.00    -0.084 Cl
HETATM   25  C14 UNL     1     -18.613   9.321  -7.107  1.00  0.00     0.047 A 
HETATM   26  C15 UNL     1     -18.800   8.719  -8.341  1.00  0.00     0.036 A 
HETATM   27 CL2  UNL     1     -19.098   9.697  -9.745  1.00  0.00    -0.084 Cl
HETATM   28  C16 UNL     1     -18.730   7.339  -8.353  1.00  0.00     0.032 A 
ENDBRANCH  20  21
ENDBRANCH   4  20
TORSDOF 6
ENDMDL
