MODEL 1
REMARK VINA RESULT: 3.931000388      0.000      0.000
REMARK  3 active torsions:
REMARK  status: ('A' for Active; 'I' for Inactive)
REMARK    1  A    between atoms: C9_14  and  C10_15 
REMARK    2  A    between atoms: C11_16  and  C12_17 
REMARK    3  A    between atoms: C15_20  and  N4_21 
ROOT
HETATM    1  C1  UNL     1      11.938  14.188  17.038  1.00  0.00     0.068 C 
HETATM    2  C2  UNL     1      11.034  15.369  16.956  1.00  0.00     0.008 A 
HETATM    3  C3  UNL     1      11.161  16.304  17.952  1.00  0.00     0.055 A 
HETATM    4  C4  UNL     1      10.349  17.400  17.911  1.00  0.00     0.051 A 
HETATM    5  N1  UNL     1      10.425  18.351  18.862  1.00  0.00    -0.351 N 
ATOM      6  H1  UNL     1      11.099  18.250  19.621  1.00  0.00     0.166 HD
HETATM    7  C5  UNL     1       9.632  19.422  18.825  1.00  0.00     0.182 A 
HETATM    8  N2  UNL     1       8.759  19.566  17.853  1.00  0.00    -0.343 N 
ATOM      9  H2  UNL     1       8.162  20.392  17.843  1.00  0.00     0.167 HD
HETATM   10  C6  UNL     1       8.625  18.629  16.843  1.00  0.00     0.130 A 
HETATM   11  C7  UNL     1       7.636  18.933  15.873  1.00  0.00     0.118 C 
HETATM   12  N3  UNL     1       6.816  19.252  15.133  1.00  0.00    -0.190 NA
HETATM   13  C8  UNL     1       9.416  17.536  16.860  1.00  0.00     0.064 A 
HETATM   14  C9  UNL     1       9.305  16.601  15.884  1.00  0.00     0.103 A 
HETATM   15  N5  UNL     1      10.150  15.510  15.971  1.00  0.00    -0.352 N 
ATOM     16  H5  UNL     1      10.094  14.787  15.254  1.00  0.00     0.166 HD
ENDROOT
BRANCH  14  17
HETATM   17  C10 UNL     1       8.419  16.601  14.765  1.00  0.00    -0.042 C 
HETATM   18  C11 UNL     1       7.646  16.528  13.865  1.00  0.00    -0.060 C 
BRANCH  18  19
HETATM   19  C12 UNL     1       6.694  16.432  12.797  1.00  0.00     0.018 A 
HETATM   20  C13 UNL     1       5.451  17.013  12.937  1.00  0.00     0.023 A 
HETATM   21  C14 UNL     1       4.514  16.942  11.916  1.00  0.00     0.031 A 
HETATM   22  C15 UNL     1       4.799  16.280  10.721  1.00  0.00     0.046 A 
HETATM   23  C24 UNL     1       6.039  15.703  10.586  1.00  0.00     0.031 A 
HETATM   24  C25 UNL     1       6.958  15.780  11.599  1.00  0.00     0.023 A 
BRANCH  22  25
HETATM   25  N4  UNL     1       3.788  16.253   9.726  1.00  0.00    -0.244 N 
HETATM   26  C16 UNL     1       3.918  16.633   8.341  1.00  0.00     0.266 A 
HETATM   27  O1  UNL     1       4.968  17.053   7.825  1.00  0.00    -0.267 OA
HETATM   28  C17 UNL     1       2.646  16.444   7.674  1.00  0.00     0.048 A 
HETATM   29  C18 UNL     1       2.239  16.654   6.354  1.00  0.00     0.018 A 
HETATM   30  C22 UNL     1       1.720  15.963   8.574  1.00  0.00     0.048 A 
HETATM   31  C19 UNL     1       0.954  16.386   5.989  1.00  0.00     0.001 A 
HETATM   32  C20 UNL     1       0.026  15.907   6.890  1.00  0.00     0.001 A 
HETATM   33  C21 UNL     1       0.426  15.698   8.187  1.00  0.00     0.018 A 
HETATM   34  C23 UNL     1       2.435  15.843   9.862  1.00  0.00     0.266 A 
HETATM   35  O2  UNL     1       1.904  15.432  10.925  1.00  0.00    -0.267 OA
ENDBRANCH  22  25
ENDBRANCH  18  19
ENDBRANCH  14  17
TORSDOF 3
ENDMDL
MODEL 2
REMARK VINA RESULT: 3.941043781      0.086      1.546
REMARK  3 active torsions:
REMARK  status: ('A' for Active; 'I' for Inactive)
REMARK    1  A    between atoms: C9_14  and  C10_15 
REMARK    2  A    between atoms: C11_16  and  C12_17 
REMARK    3  A    between atoms: C15_20  and  N4_21 
ROOT
HETATM    1  C1  UNL     1      11.948  14.150  17.125  1.00  0.00     0.068 C 
HETATM    2  C2  UNL     1      11.047  15.333  17.038  1.00  0.00     0.008 A 
HETATM    3  C3  UNL     1      11.167  16.265  18.038  1.00  0.00     0.055 A 
HETATM    4  C4  UNL     1      10.357  17.363  17.993  1.00  0.00     0.051 A 
HETATM    5  N1  UNL     1      10.427  18.310  18.946  1.00  0.00    -0.351 N 
ATOM      6  H1  UNL     1      11.094  18.207  19.711  1.00  0.00     0.166 HD
HETATM    7  C5  UNL     1       9.636  19.384  18.906  1.00  0.00     0.182 A 
HETATM    8  N2  UNL     1       8.772  19.531  17.928  1.00  0.00    -0.343 N 
ATOM      9  H2  UNL     1       8.177  20.359  17.914  1.00  0.00     0.167 HD
HETATM   10  C6  UNL     1       8.645  18.598  16.913  1.00  0.00     0.130 A 
HETATM   11  C7  UNL     1       7.664  18.906  15.936  1.00  0.00     0.118 C 
HETATM   12  N3  UNL     1       6.851  19.229  15.189  1.00  0.00    -0.190 NA
HETATM   13  C8  UNL     1       9.434  17.503  16.934  1.00  0.00     0.064 A 
HETATM   14  C9  UNL     1       9.330  16.571  15.955  1.00  0.00     0.103 A 
HETATM   15  N5  UNL     1      10.171  15.478  16.046  1.00  0.00    -0.352 N 
ATOM     16  H5  UNL     1      10.120  14.757  15.326  1.00  0.00     0.166 HD
ENDROOT
BRANCH  14  17
HETATM   17  C10 UNL     1       8.453  16.576  14.828  1.00  0.00    -0.042 C 
HETATM   18  C11 UNL     1       7.686  16.508  13.924  1.00  0.00    -0.060 C 
BRANCH  18  19
HETATM   19  C12 UNL     1       6.739  16.421  12.849  1.00  0.00     0.018 A 
HETATM   20  C13 UNL     1       5.515  17.044  12.967  1.00  0.00     0.023 A 
HETATM   21  C14 UNL     1       4.584  16.982  11.939  1.00  0.00     0.031 A 
HETATM   22  C15 UNL     1       4.857  16.286  10.760  1.00  0.00     0.046 A 
HETATM   23  C24 UNL     1       6.078  15.666  10.649  1.00  0.00     0.031 A 
HETATM   24  C25 UNL     1       6.992  15.735  11.668  1.00  0.00     0.023 A 
BRANCH  22  25
HETATM   25  N4  UNL     1       3.853  16.270   9.757  1.00  0.00    -0.244 N 
HETATM   26  C16 UNL     1       2.473  15.881   9.914  1.00  0.00     0.266 A 
HETATM   27  O1  UNL     1       1.971  15.492  10.982  1.00  0.00    -0.267 OA
HETATM   28  C17 UNL     1       1.793  16.021   8.642  1.00  0.00     0.048 A 
HETATM   29  C18 UNL     1       0.472  15.785   8.255  1.00  0.00     0.018 A 
HETATM   30  C22 UNL     1       2.680  16.478   7.692  1.00  0.00     0.048 A 
HETATM   31  C19 UNL     1       0.093  16.006   6.964  1.00  0.00     0.001 A 
HETATM   32  C20 UNL     1       0.980  16.462   6.013  1.00  0.00     0.001 A 
HETATM   33  C21 UNL     1       2.279  16.696   6.394  1.00  0.00     0.018 A 
HETATM   34  C23 UNL     1       3.973  16.635   8.391  1.00  0.00     0.266 A 
HETATM   35  O2  UNL     1       5.028  17.038   7.836  1.00  0.00    -0.267 OA
ENDBRANCH  22  25
ENDBRANCH  18  19
ENDBRANCH  14  17
TORSDOF 3
ENDMDL
MODEL 3
REMARK VINA RESULT: 4.635708724      2.811     10.588
REMARK  3 active torsions:
REMARK  status: ('A' for Active; 'I' for Inactive)
REMARK    1  A    between atoms: C9_14  and  C10_15 
REMARK    2  A    between atoms: C11_16  and  C12_17 
REMARK    3  A    between atoms: C15_20  and  N4_21 
ROOT
HETATM    1  C1  UNL     1       4.730  14.763   5.391  1.00  0.00     0.068 C 
HETATM    2  C2  UNL     1       3.898  15.393   6.455  1.00  0.00     0.008 A 
HETATM    3  C3  UNL     1       2.620  15.745   6.101  1.00  0.00     0.055 A 
HETATM    4  C4  UNL     1       1.829  16.326   7.049  1.00  0.00     0.051 A 
HETATM    5  N1  UNL     1       0.567  16.695   6.761  1.00  0.00    -0.351 N 
ATOM      6  H1  UNL     1       0.198  16.538   5.823  1.00  0.00     0.166 HD
HETATM    7  C5  UNL     1      -0.209  17.264   7.685  1.00  0.00     0.182 A 
HETATM    8  N2  UNL     1       0.252  17.472   8.898  1.00  0.00    -0.343 N 
ATOM      9  H2  UNL     1      -0.357  17.908   9.590  1.00  0.00     0.167 HD
HETATM   10  C6  UNL     1       1.538  17.119   9.265  1.00  0.00     0.130 A 
HETATM   11  C7  UNL     1       1.880  17.414  10.610  1.00  0.00     0.118 C 
HETATM   12  N3  UNL     1       2.076  17.688  11.709  1.00  0.00    -0.190 NA
HETATM   13  C8  UNL     1       2.342  16.543   8.347  1.00  0.00     0.064 A 
HETATM   14  C9  UNL     1       3.608  16.187   8.677  1.00  0.00     0.103 A 
HETATM   15  N5  UNL     1       4.369  15.604   7.682  1.00  0.00    -0.352 N 
ATOM     16  H5  UNL     1       5.327  15.324   7.896  1.00  0.00     0.166 HD
ENDROOT
BRANCH  14  17
HETATM   17  C10 UNL     1       4.262  16.340   9.937  1.00  0.00    -0.042 C 
HETATM   18  C11 UNL     1       4.881  16.462  10.943  1.00  0.00    -0.060 C 
BRANCH  18  19
HETATM   19  C12 UNL     1       5.646  16.628  12.146  1.00  0.00     0.018 A 
HETATM   20  C13 UNL     1       5.138  17.388  13.178  1.00  0.00     0.023 A 
HETATM   21  C14 UNL     1       5.855  17.558  14.354  1.00  0.00     0.031 A 
HETATM   22  C15 UNL     1       7.108  16.968  14.527  1.00  0.00     0.046 A 
HETATM   23  C24 UNL     1       7.609  16.212  13.496  1.00  0.00     0.031 A 
HETATM   24  C25 UNL     1       6.894  16.048  12.339  1.00  0.00     0.023 A 
BRANCH  22  25
HETATM   25  N4  UNL     1       7.775  17.190  15.760  1.00  0.00    -0.244 N 
HETATM   26  C16 UNL     1       8.434  18.400  16.188  1.00  0.00     0.266 A 
HETATM   27  O1  UNL     1       8.507  19.436  15.507  1.00  0.00    -0.267 OA
HETATM   28  C17 UNL     1       8.978  18.200  17.516  1.00  0.00     0.048 A 
HETATM   29  C18 UNL     1       9.692  19.042  18.372  1.00  0.00     0.018 A 
HETATM   30  C22 UNL     1       8.695  16.922  17.944  1.00  0.00     0.048 A 
HETATM   31  C19 UNL     1      10.090  18.587  19.594  1.00  0.00     0.001 A 
HETATM   32  C20 UNL     1       9.809  17.307  20.022  1.00  0.00     0.001 A 
HETATM   33  C21 UNL     1       9.105  16.480  19.181  1.00  0.00     0.018 A 
HETATM   34  C23 UNL     1       7.941  16.287  16.843  1.00  0.00     0.266 A 
HETATM   35  O2  UNL     1       7.510  15.105  16.875  1.00  0.00    -0.267 OA
ENDBRANCH  22  25
ENDBRANCH  18  19
ENDBRANCH  14  17
TORSDOF 3
ENDMDL
MODEL 4
REMARK VINA RESULT: 4.861532669      1.047      1.074
REMARK  3 active torsions:
REMARK  status: ('A' for Active; 'I' for Inactive)
REMARK    1  A    between atoms: C9_14  and  C10_15 
REMARK    2  A    between atoms: C11_16  and  C12_17 
REMARK    3  A    between atoms: C15_20  and  N4_21 
ROOT
HETATM    1  C1  UNL     1      12.503  16.024  16.923  1.00  0.00     0.068 C 
HETATM    2  C2  UNL     1      11.110  16.515  17.118  1.00  0.00     0.008 A 
HETATM    3  C3  UNL     1      10.790  16.957  18.377  1.00  0.00     0.055 A 
HETATM    4  C4  UNL     1       9.523  17.414  18.594  1.00  0.00     0.051 A 
HETATM    5  N1  UNL     1       9.149  17.858  19.809  1.00  0.00    -0.351 N 
ATOM      6  H1  UNL     1       9.822  17.854  20.575  1.00  0.00     0.166 HD
HETATM    7  C5  UNL     1       7.910  18.304  20.025  1.00  0.00     0.182 A 
HETATM    8  N2  UNL     1       7.032  18.315  19.047  1.00  0.00    -0.343 N 
ATOM      9  H2  UNL     1       6.091  18.660  19.233  1.00  0.00     0.167 HD
HETATM   10  C6  UNL     1       7.346  17.873  17.773  1.00  0.00     0.130 A 
HETATM   11  C7  UNL     1       6.285  17.950  16.835  1.00  0.00     0.118 C 
HETATM   12  N3  UNL     1       5.374  18.044  16.140  1.00  0.00    -0.190 NA
HETATM   13  C8  UNL     1       8.592  17.417  17.532  1.00  0.00     0.064 A 
HETATM   14  C9  UNL     1       8.928  16.976  16.294  1.00  0.00     0.103 A 
HETATM   15  N5  UNL     1      10.223  16.524  16.125  1.00  0.00    -0.352 N 
ATOM     16  H5  UNL     1      10.509  16.184  15.207  1.00  0.00     0.166 HD
ENDROOT
BRANCH  14  17
HETATM   17  C10 UNL     1       8.104  16.920  15.129  1.00  0.00    -0.042 C 
HETATM   18  C11 UNL     1       7.391  16.796  14.187  1.00  0.00    -0.060 C 
BRANCH  18  19
HETATM   19  C12 UNL     1       6.510  16.637  13.066  1.00  0.00     0.018 A 
HETATM   20  C13 UNL     1       5.254  17.205  13.100  1.00  0.00     0.023 A 
HETATM   21  C14 UNL     1       4.384  17.071  12.026  1.00  0.00     0.031 A 
HETATM   22  C15 UNL     1       4.754  16.359  10.884  1.00  0.00     0.046 A 
HETATM   23  C24 UNL     1       6.006  15.795  10.856  1.00  0.00     0.031 A 
HETATM   24  C25 UNL     1       6.858  15.934  11.920  1.00  0.00     0.023 A 
BRANCH  22  25
HETATM   25  N4  UNL     1       3.808  16.270   9.829  1.00  0.00    -0.244 N 
HETATM   26  C16 UNL     1       4.027  16.571   8.436  1.00  0.00     0.266 A 
HETATM   27  O1  UNL     1       5.107  16.965   7.966  1.00  0.00    -0.267 OA
HETATM   28  C17 UNL     1       2.800  16.338   7.701  1.00  0.00     0.048 A 
HETATM   29  C18 UNL     1       2.479  16.470   6.348  1.00  0.00     0.018 A 
HETATM   30  C22 UNL     1       1.819  15.906   8.566  1.00  0.00     0.048 A 
HETATM   31  C19 UNL     1       1.220  16.175   5.918  1.00  0.00     0.001 A 
HETATM   32  C20 UNL     1       0.236  15.745   6.783  1.00  0.00     0.001 A 
HETATM   33  C21 UNL     1       0.553  15.613   8.113  1.00  0.00     0.018 A 
HETATM   34  C23 UNL     1       2.450  15.863   9.902  1.00  0.00     0.266 A 
HETATM   35  O2  UNL     1       1.851  15.512  10.951  1.00  0.00    -0.267 OA
ENDBRANCH  22  25
ENDBRANCH  18  19
ENDBRANCH  14  17
TORSDOF 3
ENDMDL
MODEL 5
REMARK VINA RESULT: 5.497166643      1.122      2.740
REMARK  3 active torsions:
REMARK  status: ('A' for Active; 'I' for Inactive)
REMARK    1  A    between atoms: C9_14  and  C10_15 
REMARK    2  A    between atoms: C11_16  and  C12_17 
REMARK    3  A    between atoms: C15_20  and  N4_21 
ROOT
HETATM    1  C1  UNL     1       9.092  20.375  18.568  1.00  0.00     0.068 C 
HETATM    2  C2  UNL     1       9.151  19.090  17.817  1.00  0.00     0.008 A 
HETATM    3  C3  UNL     1      10.079  18.175  18.246  1.00  0.00     0.055 A 
HETATM    4  C4  UNL     1      10.163  16.986  17.582  1.00  0.00     0.051 A 
HETATM    5  N1  UNL     1      11.056  16.050  17.955  1.00  0.00    -0.351 N 
ATOM      6  H1  UNL     1      11.676  16.232  18.744  1.00  0.00     0.166 HD
HETATM    7  C5  UNL     1      11.142  14.887  17.307  1.00  0.00     0.182 A 
HETATM    8  N2  UNL     1      10.350  14.638  16.289  1.00  0.00    -0.343 N 
ATOM      9  H2  UNL     1      10.430  13.743  15.808  1.00  0.00     0.167 HD
HETATM   10  C6  UNL     1       9.408  15.553  15.850  1.00  0.00     0.130 A 
HETATM   11  C7  UNL     1       8.635  15.130  14.738  1.00  0.00     0.118 C 
HETATM   12  N3  UNL     1       8.056  14.712  13.838  1.00  0.00    -0.190 NA
HETATM   13  C8  UNL     1       9.304  16.737  16.489  1.00  0.00     0.064 A 
HETATM   14  C9  UNL     1       8.393  17.654  16.080  1.00  0.00     0.103 A 
HETATM   15  N5  UNL     1       8.347  18.841  16.785  1.00  0.00    -0.352 N 
ATOM     16  H5  UNL     1       7.674  19.554  16.504  1.00  0.00     0.166 HD
ENDROOT
BRANCH  14  17
HETATM   17  C10 UNL     1       7.462  17.545  15.002  1.00  0.00    -0.042 C 
HETATM   18  C11 UNL     1       6.694  17.368  14.114  1.00  0.00    -0.060 C 
BRANCH  18  19
HETATM   19  C12 UNL     1       5.754  17.135  13.056  1.00  0.00     0.018 A 
HETATM   20  C13 UNL     1       6.116  16.348  11.983  1.00  0.00     0.023 A 
HETATM   21  C14 UNL     1       5.223  16.101  10.950  1.00  0.00     0.031 A 
HETATM   22  C15 UNL     1       3.937  16.642  10.963  1.00  0.00     0.046 A 
HETATM   23  C24 UNL     1       3.582  17.427  12.034  1.00  0.00     0.031 A 
HETATM   24  C25 UNL     1       4.469  17.663  13.051  1.00  0.00     0.023 A 
BRANCH  22  25
HETATM   25  N4  UNL     1       3.084  16.342   9.869  1.00  0.00    -0.244 N 
HETATM   26  C16 UNL     1       3.342  16.587   8.471  1.00  0.00     0.266 A 
HETATM   27  O1  UNL     1       4.377  17.116   8.032  1.00  0.00    -0.267 OA
HETATM   28  C17 UNL     1       2.214  16.121   7.691  1.00  0.00     0.048 A 
HETATM   29  C18 UNL     1       1.963  16.118   6.317  1.00  0.00     0.018 A 
HETATM   30  C22 UNL     1       1.257  15.594   8.531  1.00  0.00     0.048 A 
HETATM   31  C19 UNL     1       0.793  15.604   5.842  1.00  0.00     0.001 A 
HETATM   32  C20 UNL     1      -0.166  15.079   6.683  1.00  0.00     0.001 A 
HETATM   33  C21 UNL     1       0.082  15.080   8.033  1.00  0.00     0.018 A 
HETATM   34  C23 UNL     1       1.802  15.733   9.898  1.00  0.00     0.266 A 
HETATM   35  O2  UNL     1       1.199  15.357  10.936  1.00  0.00    -0.267 OA
ENDBRANCH  22  25
ENDBRANCH  18  19
ENDBRANCH  14  17
TORSDOF 3
ENDMDL
