MODEL 1
REMARK VINA RESULT: -6.971883688      0.000      0.000
REMARK  10 active torsions:
REMARK  status: ('A' for Active; 'I' for Inactive)
REMARK    1  A    between atoms: C2_2  and  C3_3 
REMARK    2  A    between atoms: C3_3  and  C4_4 
REMARK    3  A    between atoms: C4_4  and  N1_5 
REMARK    4  A    between atoms: N1_5  and  C5_7 
REMARK    5  A    between atoms: C5_7  and  C7_11 
REMARK    6  A    between atoms: N6_15  and  C8_16 
REMARK    7  A    between atoms: C9_17  and  C10_18 
REMARK    8  A    between atoms: C11_19  and  C12_20 
REMARK    9  A    between atoms: C15_24  and  O1_25 
REMARK       I    between atoms: N9_30  and  C18_32 
REMARK   10  A    between atoms: C18_32  and  C19_34 
ROOT
HETATM    1  C12 UNL     1      20.785  15.419  31.318  1.00  0.00     0.017 A 
HETATM    2  C13 UNL     1      21.672  14.466  30.932  1.00  0.00     0.107 A 
HETATM    3  C14 UNL     1      21.940  13.290  31.739  1.00  0.00     0.104 C 
HETATM    4  N7  UNL     1      22.177  12.383  32.394  1.00  0.00    -0.191 NA
HETATM    5  C15 UNL     1      22.520  14.574  29.820  1.00  0.00     0.165 A 
HETATM    6  N8  UNL     1      22.449  15.708  29.093  1.00  0.00    -0.320 N 
ATOM      7  H8  UNL     1      23.057  15.809  28.280  1.00  0.00     0.169 HD
HETATM    8  C17 UNL     1      21.611  16.705  29.399  1.00  0.00     0.135 A 
HETATM    9  N9  UNL     1      21.561  17.800  28.680  1.00  0.00    -0.302 N 
ATOM     10  H9  UNL     1      20.904  18.529  28.958  1.00  0.00     0.171 HD
HETATM   11  C18 UNL     1      22.357  18.022  27.559  1.00  0.00     0.323 C 
HETATM   12  O2  UNL     1      22.211  17.318  26.536  1.00  0.00    -0.260 OA
HETATM   13  C20 UNL     1      20.789  16.576  30.489  1.00  0.00     0.102 A 
HETATM   14  N10 UNL     1      19.892  17.614  30.833  1.00  0.00    -0.097 NA
ENDROOT
BRANCH   1  15
HETATM   15  C11 UNL     1      19.780  15.336  32.321  1.00  0.00     0.015 C 
HETATM   16  C10 UNL     1      19.497  15.816  33.471  1.00  0.00     0.002 C 
BRANCH  16  17
HETATM   17  C9  UNL     1      20.123  16.729  34.362  1.00  0.00     0.019 C 
HETATM   18  C8  UNL     1      20.621  16.302  35.523  1.00  0.00     0.110 C 
BRANCH  18  19
HETATM   19  N6  UNL     1      20.579  14.976  35.960  1.00  0.00    -0.260 N 
HETATM   20  C7  UNL     1      21.584  14.083  36.512  1.00  0.00     0.281 C 
HETATM   21  N3  UNL     1      21.118  12.804  36.024  1.00  0.00    -0.093 NA
HETATM   22  N4  UNL     1      19.977  13.042  35.243  1.00  0.00    -0.015 NA
HETATM   23  N5  UNL     1      19.425  14.157  35.935  1.00  0.00    -0.009 NA
BRANCH  20  24
HETATM   24  C5  UNL     1      22.942  14.432  36.131  1.00  0.00     0.115 C 
HETATM   25  N2  UNL     1      23.779  14.947  36.909  1.00  0.00    -0.381 N 
HETATM   26  C6  UNL     1      23.761  15.344  38.254  1.00  0.00     0.147 C 
ATOM     27  H2  UNL     1      24.680  15.117  36.461  1.00  0.00     0.160 HD
BRANCH  24  28
HETATM   28  N1  UNL     1      23.366  14.172  34.786  1.00  0.00    -0.377 N 
ATOM     29  H1  UNL     1      22.958  13.373  34.300  1.00  0.00     0.160 HD
BRANCH  28  30
HETATM   30  C4  UNL     1      24.336  14.975  34.080  1.00  0.00     0.121 C 
BRANCH  30  31
HETATM   31  C3  UNL     1      23.751  16.226  33.477  1.00  0.00     0.019 C 
BRANCH  31  32
HETATM   32  C2  UNL     1      24.062  17.452  34.316  1.00  0.00    -0.003 C 
HETATM   33  C1  UNL     1      25.431  17.975  34.012  1.00  0.00     0.005 C 
ENDBRANCH  31  32
ENDBRANCH  30  31
ENDBRANCH  28  30
ENDBRANCH  24  28
ENDBRANCH  20  24
ENDBRANCH  18  19
ENDBRANCH  16  17
ENDBRANCH   1  15
BRANCH   5  34
HETATM   34  O1  UNL     1      23.406  13.560  29.465  1.00  0.00    -0.340 OA
HETATM   35  C16 UNL     1      24.243  13.831  28.342  1.00  0.00     0.211 C 
ENDBRANCH   5  34
BRANCH  11  36
HETATM   36  C19 UNL     1      23.360  19.071  27.564  1.00  0.00     0.270 C 
HETATM   37  O3  UNL     1      23.137  20.174  28.148  1.00  0.00    -0.640 OA
HETATM   38  O4  UNL     1      24.597  18.935  26.944  1.00  0.00    -0.640 OA
ENDBRANCH  11  36
TORSDOF 10
ENDMDL
MODEL 2
REMARK VINA RESULT: -6.848819805      1.313      3.493
REMARK  10 active torsions:
REMARK  status: ('A' for Active; 'I' for Inactive)
REMARK    1  A    between atoms: C2_2  and  C3_3 
REMARK    2  A    between atoms: C3_3  and  C4_4 
REMARK    3  A    between atoms: C4_4  and  N1_5 
REMARK    4  A    between atoms: N1_5  and  C5_7 
REMARK    5  A    between atoms: C5_7  and  C7_11 
REMARK    6  A    between atoms: N6_15  and  C8_16 
REMARK    7  A    between atoms: C9_17  and  C10_18 
REMARK    8  A    between atoms: C11_19  and  C12_20 
REMARK    9  A    between atoms: C15_24  and  O1_25 
REMARK       I    between atoms: N9_30  and  C18_32 
REMARK   10  A    between atoms: C18_32  and  C19_34 
ROOT
HETATM    1  C12 UNL     1      20.972  15.795  30.827  1.00  0.00     0.017 A 
HETATM    2  C13 UNL     1      21.246  16.832  29.995  1.00  0.00     0.107 A 
HETATM    3  C14 UNL     1      20.299  17.907  29.765  1.00  0.00     0.104 C 
HETATM    4  N7  UNL     1      19.538  18.735  29.557  1.00  0.00    -0.191 NA
HETATM    5  C15 UNL     1      22.375  16.907  29.165  1.00  0.00     0.165 A 
HETATM    6  N8  UNL     1      23.239  15.872  29.198  1.00  0.00    -0.320 N 
ATOM      7  H8  UNL     1      24.067  15.905  28.603  1.00  0.00     0.169 HD
HETATM    8  C17 UNL     1      23.051  14.805  29.982  1.00  0.00     0.135 A 
HETATM    9  N9  UNL     1      23.902  13.809  29.995  1.00  0.00    -0.302 N 
ATOM     10  H9  UNL     1      23.711  13.019  30.612  1.00  0.00     0.171 HD
HETATM   11  C18 UNL     1      25.054  13.770  29.213  1.00  0.00     0.323 C 
HETATM   12  O2  UNL     1      25.977  14.589  29.412  1.00  0.00    -0.260 OA
HETATM   13  C20 UNL     1      21.942  14.755  30.786  1.00  0.00     0.102 A 
HETATM   14  N10 UNL     1      21.720  13.639  31.627  1.00  0.00    -0.097 NA
ENDROOT
BRANCH   1  15
HETATM   15  C11 UNL     1      19.952  15.701  31.815  1.00  0.00     0.015 C 
HETATM   16  C10 UNL     1      19.641  16.185  32.956  1.00  0.00     0.002 C 
BRANCH  16  17
HETATM   17  C9  UNL     1      20.235  17.117  33.849  1.00  0.00     0.019 C 
HETATM   18  C8  UNL     1      20.521  16.760  35.102  1.00  0.00     0.110 C 
BRANCH  18  19
HETATM   19  N6  UNL     1      20.278  15.494  35.636  1.00  0.00    -0.260 N 
HETATM   20  C7  UNL     1      21.137  14.502  36.263  1.00  0.00     0.281 C 
HETATM   21  N3  UNL     1      20.478  13.276  35.868  1.00  0.00    -0.093 NA
HETATM   22  N4  UNL     1      19.385  13.626  35.062  1.00  0.00    -0.015 NA
HETATM   23  N5  UNL     1      19.012  14.861  35.663  1.00  0.00    -0.009 NA
BRANCH  20  24
HETATM   24  C5  UNL     1      22.530  14.609  35.869  1.00  0.00     0.115 C 
HETATM   25  N2  UNL     1      23.473  14.816  36.669  1.00  0.00    -0.381 N 
HETATM   26  C6  UNL     1      23.565  15.003  38.056  1.00  0.00     0.147 C 
ATOM     27  H2  UNL     1      24.381  14.856  36.205  1.00  0.00     0.160 HD
BRANCH  24  28
HETATM   28  N1  UNL     1      22.864  14.468  34.481  1.00  0.00    -0.377 N 
ATOM     29  H1  UNL     1      22.221  13.948  33.883  1.00  0.00     0.160 HD
BRANCH  28  30
HETATM   30  C4  UNL     1      24.056  15.018  33.881  1.00  0.00     0.121 C 
BRANCH  30  31
HETATM   31  C3  UNL     1      23.861  16.405  33.326  1.00  0.00     0.019 C 
BRANCH  31  32
HETATM   32  C2  UNL     1      24.313  17.471  34.307  1.00  0.00    -0.003 C 
HETATM   33  C1  UNL     1      25.627  18.058  33.893  1.00  0.00     0.005 C 
ENDBRANCH  31  32
ENDBRANCH  30  31
ENDBRANCH  28  30
ENDBRANCH  24  28
ENDBRANCH  20  24
ENDBRANCH  18  19
ENDBRANCH  16  17
ENDBRANCH   1  15
BRANCH   5  34
HETATM   34  O1  UNL     1      22.610  18.000  28.334  1.00  0.00    -0.340 OA
HETATM   35  C16 UNL     1      23.977  18.260  28.023  1.00  0.00     0.211 C 
ENDBRANCH   5  34
BRANCH  11  36
HETATM   36  C19 UNL     1      25.198  12.779  28.162  1.00  0.00     0.270 C 
HETATM   37  O3  UNL     1      26.019  11.821  28.287  1.00  0.00    -0.640 OA
HETATM   38  O4  UNL     1      24.462  12.818  26.983  1.00  0.00    -0.640 OA
ENDBRANCH  11  36
TORSDOF 10
ENDMDL
MODEL 3
REMARK VINA RESULT: -6.778229977      3.596      7.895
REMARK  10 active torsions:
REMARK  status: ('A' for Active; 'I' for Inactive)
REMARK    1  A    between atoms: C2_2  and  C3_3 
REMARK    2  A    between atoms: C3_3  and  C4_4 
REMARK    3  A    between atoms: C4_4  and  N1_5 
REMARK    4  A    between atoms: N1_5  and  C5_7 
REMARK    5  A    between atoms: C5_7  and  C7_11 
REMARK    6  A    between atoms: N6_15  and  C8_16 
REMARK    7  A    between atoms: C9_17  and  C10_18 
REMARK    8  A    between atoms: C11_19  and  C12_20 
REMARK    9  A    between atoms: C15_24  and  O1_25 
REMARK       I    between atoms: N9_30  and  C18_32 
REMARK   10  A    between atoms: C18_32  and  C19_34 
ROOT
HETATM    1  C12 UNL     1      25.220  16.325  33.135  1.00  0.00     0.017 A 
HETATM    2  C13 UNL     1      25.579  17.161  34.142  1.00  0.00     0.107 A 
HETATM    3  C14 UNL     1      26.965  17.504  34.402  1.00  0.00     0.104 C 
HETATM    4  N7  UNL     1      28.060  17.744  34.628  1.00  0.00    -0.191 NA
HETATM    5  C15 UNL     1      24.699  17.655  35.117  1.00  0.00     0.165 A 
HETATM    6  N8  UNL     1      23.410  17.263  35.045  1.00  0.00    -0.320 N 
ATOM      7  H8  UNL     1      22.752  17.609  35.743  1.00  0.00     0.169 HD
HETATM    8  C17 UNL     1      22.964  16.437  34.092  1.00  0.00     0.135 A 
HETATM    9  N9  UNL     1      21.708  16.066  34.043  1.00  0.00    -0.302 N 
ATOM     10  H9  UNL     1      21.420  15.435  33.295  1.00  0.00     0.171 HD
HETATM   11  C18 UNL     1      20.745  16.487  34.957  1.00  0.00     0.323 C 
HETATM   12  O2  UNL     1      20.410  17.690  35.007  1.00  0.00    -0.260 OA
HETATM   13  C20 UNL     1      23.842  15.969  33.148  1.00  0.00     0.102 A 
HETATM   14  N10 UNL     1      23.395  15.097  32.128  1.00  0.00    -0.097 NA
ENDROOT
BRANCH   1  15
HETATM   15  C11 UNL     1      25.994  15.904  32.018  1.00  0.00     0.015 C 
HETATM   16  C10 UNL     1      26.533  16.379  30.961  1.00  0.00     0.002 C 
BRANCH  16  17
HETATM   17  C9  UNL     1      26.603  17.664  30.357  1.00  0.00     0.019 C 
HETATM   18  C8  UNL     1      26.200  17.838  29.098  1.00  0.00     0.110 C 
BRANCH  18  19
HETATM   19  N6  UNL     1      25.693  16.823  28.285  1.00  0.00    -0.260 N 
HETATM   20  C7  UNL     1      24.374  16.566  27.728  1.00  0.00     0.281 C 
HETATM   21  N3  UNL     1      24.365  15.121  27.691  1.00  0.00    -0.093 NA
HETATM   22  N4  UNL     1      25.582  14.678  28.232  1.00  0.00    -0.015 NA
HETATM   23  N5  UNL     1      26.445  15.726  27.803  1.00  0.00    -0.009 NA
BRANCH  20  24
HETATM   24  C5  UNL     1      23.296  17.172  28.490  1.00  0.00     0.115 C 
HETATM   25  N2  UNL     1      22.935  18.366  28.369  1.00  0.00    -0.381 N 
HETATM   26  C6  UNL     1      23.355  19.447  27.580  1.00  0.00     0.147 C 
ATOM     27  H2  UNL     1      22.158  18.607  28.985  1.00  0.00     0.160 HD
BRANCH  24  28
HETATM   28  N1  UNL     1      22.587  16.363  29.438  1.00  0.00    -0.377 N 
ATOM     29  H1  UNL     1      23.082  15.581  29.867  1.00  0.00     0.160 HD
BRANCH  28  30
HETATM   30  C4  UNL     1      21.214  16.591  29.822  1.00  0.00     0.121 C 
BRANCH  30  31
HETATM   31  C3  UNL     1      20.500  15.338  30.260  1.00  0.00     0.019 C 
BRANCH  31  32
HETATM   32  C2  UNL     1      19.433  15.634  31.297  1.00  0.00    -0.003 C 
HETATM   33  C1  UNL     1      19.309  17.108  31.534  1.00  0.00     0.005 C 
ENDBRANCH  31  32
ENDBRANCH  30  31
ENDBRANCH  28  30
ENDBRANCH  24  28
ENDBRANCH  20  24
ENDBRANCH  18  19
ENDBRANCH  16  17
ENDBRANCH   1  15
BRANCH   5  34
HETATM   34  O1  UNL     1      25.121  18.517  36.126  1.00  0.00    -0.340 OA
HETATM   35  C16 UNL     1      24.512  18.326  37.401  1.00  0.00     0.211 C 
ENDBRANCH   5  34
BRANCH  11  36
HETATM   36  C19 UNL     1      20.118  15.536  35.857  1.00  0.00     0.270 C 
HETATM   37  O3  UNL     1      18.856  15.466  35.944  1.00  0.00    -0.640 OA
HETATM   38  O4  UNL     1      20.846  14.665  36.660  1.00  0.00    -0.640 OA
ENDBRANCH  11  36
TORSDOF 10
ENDMDL
MODEL 4
REMARK VINA RESULT: -6.606476284      3.798      8.087
REMARK  10 active torsions:
REMARK  status: ('A' for Active; 'I' for Inactive)
REMARK    1  A    between atoms: C2_2  and  C3_3 
REMARK    2  A    between atoms: C3_3  and  C4_4 
REMARK    3  A    between atoms: C4_4  and  N1_5 
REMARK    4  A    between atoms: N1_5  and  C5_7 
REMARK    5  A    between atoms: C5_7  and  C7_11 
REMARK    6  A    between atoms: N6_15  and  C8_16 
REMARK    7  A    between atoms: C9_17  and  C10_18 
REMARK    8  A    between atoms: C11_19  and  C12_20 
REMARK    9  A    between atoms: C15_24  and  O1_25 
REMARK       I    between atoms: N9_30  and  C18_32 
REMARK   10  A    between atoms: C18_32  and  C19_34 
ROOT
HETATM    1  C12 UNL     1      25.046  16.436  33.433  1.00  0.00     0.017 A 
HETATM    2  C13 UNL     1      25.227  17.167  34.562  1.00  0.00     0.107 A 
HETATM    3  C14 UNL     1      26.549  17.486  35.069  1.00  0.00     0.104 C 
HETATM    4  N7  UNL     1      27.591  17.706  35.487  1.00  0.00    -0.191 NA
HETATM    5  C15 UNL     1      24.197  17.557  35.430  1.00  0.00     0.165 A 
HETATM    6  N8  UNL     1      22.943  17.171  35.118  1.00  0.00    -0.320 N 
ATOM      7  H8  UNL     1      22.177  17.443  35.735  1.00  0.00     0.169 HD
HETATM    8  C17 UNL     1      22.666  16.444  34.029  1.00  0.00     0.135 A 
HETATM    9  N9  UNL     1      21.440  16.077  33.747  1.00  0.00    -0.302 N 
ATOM     10  H9  UNL     1      21.285  15.523  32.905  1.00  0.00     0.171 HD
HETATM   11  C18 UNL     1      20.339  16.400  34.535  1.00  0.00     0.323 C 
HETATM   12  O2  UNL     1      19.978  17.592  34.652  1.00  0.00    -0.260 OA
HETATM   13  C20 UNL     1      23.689  16.077  33.194  1.00  0.00     0.102 A 
HETATM   14  N10 UNL     1      23.424  15.310  32.035  1.00  0.00    -0.097 NA
ENDROOT
BRANCH   1  15
HETATM   15  C11 UNL     1      25.992  16.133  32.415  1.00  0.00     0.015 C 
HETATM   16  C10 UNL     1      26.745  16.721  31.566  1.00  0.00     0.002 C 
BRANCH  16  17
HETATM   17  C9  UNL     1      26.995  18.073  31.210  1.00  0.00     0.019 C 
HETATM   18  C8  UNL     1      27.145  18.416  29.930  1.00  0.00     0.110 C 
BRANCH  18  19
HETATM   19  N6  UNL     1      27.075  17.520  28.861  1.00  0.00    -0.260 N 
HETATM   20  C7  UNL     1      26.040  17.228  27.881  1.00  0.00     0.281 C 
HETATM   21  N3  UNL     1      26.279  15.822  27.637  1.00  0.00    -0.093 NA
HETATM   22  N4  UNL     1      27.337  15.424  28.469  1.00  0.00    -0.015 NA
HETATM   23  N5  UNL     1      28.105  16.623  28.493  1.00  0.00    -0.009 NA
BRANCH  20  24
HETATM   24  C5  UNL     1      24.701  17.557  28.337  1.00  0.00     0.115 C 
HETATM   25  N2  UNL     1      24.127  18.646  28.102  1.00  0.00    -0.381 N 
HETATM   26  C6  UNL     1      24.480  19.818  27.417  1.00  0.00     0.147 C 
ATOM     27  H2  UNL     1      23.189  18.691  28.501  1.00  0.00     0.160 HD
BRANCH  24  28
HETATM   28  N1  UNL     1      23.976  16.582  29.099  1.00  0.00    -0.377 N 
ATOM     29  H1  UNL     1      24.440  16.160  29.904  1.00  0.00     0.160 HD
BRANCH  28  30
HETATM   30  C4  UNL     1      22.629  16.162  28.793  1.00  0.00     0.121 C 
BRANCH  30  31
HETATM   31  C3  UNL     1      21.577  16.937  29.544  1.00  0.00     0.019 C 
BRANCH  31  32
HETATM   32  C2  UNL     1      20.656  17.691  28.602  1.00  0.00    -0.003 C 
HETATM   33  C1  UNL     1      20.768  19.169  28.812  1.00  0.00     0.005 C 
ENDBRANCH  31  32
ENDBRANCH  30  31
ENDBRANCH  28  30
ENDBRANCH  24  28
ENDBRANCH  20  24
ENDBRANCH  18  19
ENDBRANCH  16  17
ENDBRANCH   1  15
BRANCH   5  34
HETATM   34  O1  UNL     1      24.440  18.315  36.573  1.00  0.00    -0.340 OA
HETATM   35  C16 UNL     1      24.108  17.693  37.813  1.00  0.00     0.211 C 
ENDBRANCH   5  34
BRANCH  11  36
HETATM   36  C19 UNL     1      19.597  15.362  35.227  1.00  0.00     0.270 C 
HETATM   37  O3  UNL     1      18.900  15.639  36.249  1.00  0.00    -0.640 OA
HETATM   38  O4  UNL     1      19.606  14.032  34.822  1.00  0.00    -0.640 OA
ENDBRANCH  11  36
TORSDOF 10
ENDMDL
MODEL 5
REMARK VINA RESULT: -6.541291706      2.623      4.386
REMARK  10 active torsions:
REMARK  status: ('A' for Active; 'I' for Inactive)
REMARK    1  A    between atoms: C2_2  and  C3_3 
REMARK    2  A    between atoms: C3_3  and  C4_4 
REMARK    3  A    between atoms: C4_4  and  N1_5 
REMARK    4  A    between atoms: N1_5  and  C5_7 
REMARK    5  A    between atoms: C5_7  and  C7_11 
REMARK    6  A    between atoms: N6_15  and  C8_16 
REMARK    7  A    between atoms: C9_17  and  C10_18 
REMARK    8  A    between atoms: C11_19  and  C12_20 
REMARK    9  A    between atoms: C15_24  and  O1_25 
REMARK       I    between atoms: N9_30  and  C18_32 
REMARK   10  A    between atoms: C18_32  and  C19_34 
ROOT
HETATM    1  C12 UNL     1      23.052  16.280  30.672  1.00  0.00     0.017 A 
HETATM    2  C13 UNL     1      22.825  17.038  29.569  1.00  0.00     0.107 A 
HETATM    3  C14 UNL     1      21.483  17.350  29.111  1.00  0.00     0.104 C 
HETATM    4  N7  UNL     1      20.426  17.564  28.732  1.00  0.00    -0.191 NA
HETATM    5  C15 UNL     1      23.822  17.467  28.680  1.00  0.00     0.165 A 
HETATM    6  N8  UNL     1      25.090  17.092  28.943  1.00  0.00    -0.320 N 
ATOM      7  H8  UNL     1      25.832  17.392  28.310  1.00  0.00     0.169 HD
HETATM    8  C17 UNL     1      25.412  16.341  30.002  1.00  0.00     0.135 A 
HETATM    9  N9  UNL     1      26.651  15.985  30.236  1.00  0.00    -0.302 N 
ATOM     10  H9  UNL     1      26.841  15.412  31.059  1.00  0.00     0.171 HD
HETATM   11  C18 UNL     1      27.722  16.346  29.423  1.00  0.00     0.323 C 
HETATM   12  O2  UNL     1      28.062  17.546  29.328  1.00  0.00    -0.260 OA
HETATM   13  C20 UNL     1      24.421  15.936  30.859  1.00  0.00     0.102 A 
HETATM   14  N10 UNL     1      24.734  15.143  31.988  1.00  0.00    -0.097 NA
ENDROOT
BRANCH   1  15
HETATM   15  C11 UNL     1      22.143  15.935  31.710  1.00  0.00     0.015 C 
HETATM   16  C10 UNL     1      21.942  16.152  32.953  1.00  0.00     0.002 C 
BRANCH  16  17
HETATM   17  C9  UNL     1      22.607  16.897  33.964  1.00  0.00     0.019 C 
HETATM   18  C8  UNL     1      22.068  17.012  35.179  1.00  0.00     0.110 C 
BRANCH  18  19
HETATM   19  N6  UNL     1      20.853  16.438  35.560  1.00  0.00    -0.260 N 
HETATM   20  C7  UNL     1      20.505  15.146  36.128  1.00  0.00     0.281 C 
HETATM   21  N3  UNL     1      19.187  14.943  35.568  1.00  0.00    -0.093 NA
HETATM   22  N4  UNL     1      18.908  16.041  34.740  1.00  0.00    -0.015 NA
HETATM   23  N5  UNL     1      19.593  17.071  35.446  1.00  0.00    -0.009 NA
BRANCH  20  24
HETATM   24  C5  UNL     1      21.470  14.102  35.830  1.00  0.00     0.115 C 
HETATM   25  N2  UNL     1      22.508  13.893  36.501  1.00  0.00    -0.381 N 
HETATM   26  C6  UNL     1      23.084  14.484  37.635  1.00  0.00     0.147 C 
ATOM     27  H2  UNL     1      23.060  13.114  36.139  1.00  0.00     0.160 HD
BRANCH  24  28
HETATM   28  N1  UNL     1      21.231  13.247  34.703  1.00  0.00    -0.377 N 
ATOM     29  H1  UNL     1      20.263  13.038  34.456  1.00  0.00     0.160 HD
BRANCH  28  30
HETATM   30  C4  UNL     1      22.279  12.665  33.899  1.00  0.00     0.121 C 
BRANCH  30  31
HETATM   31  C3  UNL     1      21.824  12.272  32.518  1.00  0.00     0.019 C 
BRANCH  31  32
HETATM   32  C2  UNL     1      22.996  12.086  31.572  1.00  0.00    -0.003 C 
HETATM   33  C1  UNL     1      22.688  12.650  30.220  1.00  0.00     0.005 C 
ENDBRANCH  31  32
ENDBRANCH  30  31
ENDBRANCH  28  30
ENDBRANCH  24  28
ENDBRANCH  20  24
ENDBRANCH  18  19
ENDBRANCH  16  17
ENDBRANCH   1  15
BRANCH   5  34
HETATM   34  O1  UNL     1      23.532  18.250  27.566  1.00  0.00    -0.340 OA
HETATM   35  C16 UNL     1      24.061  19.575  27.583  1.00  0.00     0.211 C 
ENDBRANCH   5  34
BRANCH  11  36
HETATM   36  C19 UNL     1      28.457  15.338  28.681  1.00  0.00     0.270 C 
HETATM   37  O3  UNL     1      28.109  14.121  28.730  1.00  0.00    -0.640 OA
HETATM   38  O4  UNL     1      29.561  15.638  27.891  1.00  0.00    -0.640 OA
ENDBRANCH  11  36
TORSDOF 10
ENDMDL
