MODEL 1
REMARK VINA RESULT: -5.723687918      0.000      0.000
REMARK  10 active torsions:
REMARK  status: ('A' for Active; 'I' for Inactive)
REMARK    1  A    between atoms: C2_2  and  O1_3 
REMARK    2  A    between atoms: C2_2  and  C3_5 
REMARK    3  A    between atoms: C3_5  and  C4_6 
REMARK    4  A    between atoms: C4_6  and  C6_8 
REMARK    5  A    between atoms: C4_6  and  C16_26 
REMARK    6  A    between atoms: C8_10  and  C9_11 
REMARK    7  A    between atoms: C13_15  and  O2_16 
REMARK    8  A    between atoms: C14_18  and  O3_19 
REMARK    9  A    between atoms: C15_21  and  N1_22 
REMARK   10  A    between atoms: N1_22  and  N2_23 
ROOT
HETATM    1  C6  UNL     1      57.250   5.609  36.358  1.00  0.00    -0.003 A 
HETATM    2  C7  UNL     1      57.827   5.123  35.168  1.00  0.00     0.022 A 
HETATM    3  C8  UNL     1      58.328   5.953  34.189  1.00  0.00    -0.014 A 
HETATM    4  C13 UNL     1      58.297   7.324  34.311  1.00  0.00     0.109 A 
HETATM    5  C14 UNL     1      57.747   7.831  35.440  1.00  0.00     0.143 A 
HETATM    6  C15 UNL     1      57.242   6.977  36.422  1.00  0.00     0.173 A 
ENDROOT
BRANCH   1   7
HETATM    7  C4  UNL     1      56.906   4.662  37.422  1.00  0.00    -0.004 C 
HETATM    8  C5  UNL     1      57.209   4.945  38.813  1.00  0.00     0.021 C 
BRANCH   7   9
HETATM    9  C3  UNL     1      55.415   4.417  37.305  1.00  0.00     0.046 C 
BRANCH   9  10
HETATM   10  C2  UNL     1      54.519   4.835  38.388  1.00  0.00     0.115 C 
HETATM   11  C1  UNL     1      53.391   3.957  38.818  1.00  0.00     0.039 C 
BRANCH  10  12
HETATM   12  O1  UNL     1      53.887   6.067  38.002  1.00  0.00    -0.396 OA
ATOM     13  H1  UNL     1      54.474   6.440  37.355  1.00  0.00     0.210 HD
ENDBRANCH  10  12
ENDBRANCH   9  10
ENDBRANCH   7   9
BRANCH   7  14
HETATM   14  C16 UNL     1      57.454   3.255  37.104  1.00  0.00    -0.040 C 
HETATM   15  C17 UNL     1      58.894   3.159  36.769  1.00  0.00     0.015 C 
HETATM   16  C18 UNL     1      57.220   2.347  38.289  1.00  0.00     0.015 C 
HETATM   17  C19 UNL     1      56.751   2.591  35.940  1.00  0.00     0.015 C 
ENDBRANCH   7  14
ENDBRANCH   1   7
BRANCH   6  18
HETATM   18  N1  UNL     1      56.571   7.576  37.468  1.00  0.00    -0.330 NA
BRANCH  18  19
HETATM   19  N2  UNL     1      56.016   8.096  38.289  1.00  0.00    -0.280 N 
ATOM     20  H22 UNL     1      55.440   7.754  37.520  1.00  0.00     0.191 HD
ATOM     21  H21 UNL     1      55.545   8.575  39.057  1.00  0.00     0.191 HD
ENDBRANCH  18  19
ENDBRANCH   6  18
BRANCH   3  22
HETATM   22  C9  UNL     1      58.940   5.414  32.924  1.00  0.00    -0.021 C 
HETATM   23  C10 UNL     1      58.949   3.899  33.098  1.00  0.00     0.019 C 
HETATM   24  C11 UNL     1      60.320   5.966  32.690  1.00  0.00     0.019 C 
HETATM   25  C12 UNL     1      58.071   5.704  31.737  1.00  0.00     0.019 C 
ENDBRANCH   3  22
BRANCH   5  26
HETATM   26  O3  UNL     1      57.666   9.200  35.665  1.00  0.00    -0.355 OA
ATOM     27  H3  UNL     1      57.563   9.559  36.539  1.00  0.00     0.218 HD
ENDBRANCH   5  26
BRANCH   4  28
HETATM   28  O2  UNL     1      58.813   8.135  33.305  1.00  0.00    -0.357 OA
ATOM     29  H2  UNL     1      59.539   8.721  33.483  1.00  0.00     0.217 HD
ENDBRANCH   4  28
TORSDOF 10
ENDMDL
MODEL 2
REMARK VINA RESULT: -5.680580976      1.253      1.590
REMARK  10 active torsions:
REMARK  status: ('A' for Active; 'I' for Inactive)
REMARK    1  A    between atoms: C2_2  and  O1_3 
REMARK    2  A    between atoms: C2_2  and  C3_5 
REMARK    3  A    between atoms: C3_5  and  C4_6 
REMARK    4  A    between atoms: C4_6  and  C6_8 
REMARK    5  A    between atoms: C4_6  and  C16_26 
REMARK    6  A    between atoms: C8_10  and  C9_11 
REMARK    7  A    between atoms: C13_15  and  O2_16 
REMARK    8  A    between atoms: C14_18  and  O3_19 
REMARK    9  A    between atoms: C15_21  and  N1_22 
REMARK   10  A    between atoms: N1_22  and  N2_23 
ROOT
HETATM    1  C6  UNL     1      57.109   5.253  36.297  1.00  0.00    -0.003 A 
HETATM    2  C7  UNL     1      57.694   4.852  35.079  1.00  0.00     0.022 A 
HETATM    3  C8  UNL     1      58.228   5.748  34.179  1.00  0.00    -0.014 A 
HETATM    4  C13 UNL     1      58.226   7.105  34.412  1.00  0.00     0.109 A 
HETATM    5  C14 UNL     1      57.671   7.531  35.572  1.00  0.00     0.143 A 
HETATM    6  C15 UNL     1      57.131   6.611  36.473  1.00  0.00     0.173 A 
ENDROOT
BRANCH   1   7
HETATM    7  C4  UNL     1      56.728   4.230  37.274  1.00  0.00    -0.004 C 
HETATM    8  C5  UNL     1      55.715   4.487  38.281  1.00  0.00     0.021 C 
BRANCH   7   9
HETATM    9  C3  UNL     1      56.299   3.018  36.472  1.00  0.00     0.046 C 
BRANCH   9  10
HETATM   10  C2  UNL     1      54.998   2.393  36.731  1.00  0.00     0.115 C 
HETATM   11  C1  UNL     1      54.852   0.908  36.702  1.00  0.00     0.039 C 
BRANCH  10  12
HETATM   12  O1  UNL     1      54.066   2.864  35.744  1.00  0.00    -0.396 OA
ATOM     13  H1  UNL     1      54.412   3.708  35.475  1.00  0.00     0.210 HD
ENDBRANCH  10  12
ENDBRANCH   9  10
ENDBRANCH   7   9
BRANCH   7  14
HETATM   14  C16 UNL     1      57.970   3.670  37.998  1.00  0.00    -0.040 C 
HETATM   15  C17 UNL     1      59.106   4.602  38.194  1.00  0.00     0.015 C 
HETATM   16  C18 UNL     1      57.572   3.176  39.369  1.00  0.00     0.015 C 
HETATM   17  C19 UNL     1      58.580   2.475  37.298  1.00  0.00     0.015 C 
ENDBRANCH   7  14
ENDBRANCH   1   7
BRANCH   6  18
HETATM   18  N1  UNL     1      56.457   7.138  37.555  1.00  0.00    -0.330 NA
BRANCH  18  19
HETATM   19  N2  UNL     1      55.910   7.604  38.413  1.00  0.00    -0.280 N 
ATOM     20  H22 UNL     1      55.694   7.990  37.494  1.00  0.00     0.191 HD
ATOM     21  H21 UNL     1      55.431   8.004  39.220  1.00  0.00     0.191 HD
ENDBRANCH  18  19
ENDBRANCH   6  18
BRANCH   3  22
HETATM   22  C9  UNL     1      58.848   5.301  32.881  1.00  0.00    -0.021 C 
HETATM   23  C10 UNL     1      58.818   3.777  32.929  1.00  0.00     0.019 C 
HETATM   24  C11 UNL     1      60.244   5.836  32.714  1.00  0.00     0.019 C 
HETATM   25  C12 UNL     1      58.006   5.710  31.710  1.00  0.00     0.019 C 
ENDBRANCH   3  22
BRANCH   5  26
HETATM   26  O3  UNL     1      57.616   8.878  35.908  1.00  0.00    -0.355 OA
ATOM     27  H3  UNL     1      56.791   9.343  35.984  1.00  0.00     0.218 HD
ENDBRANCH   5  26
BRANCH   4  28
HETATM   28  O2  UNL     1      58.776   7.983  33.483  1.00  0.00    -0.357 OA
ATOM     29  H2  UNL     1      59.057   7.670  32.632  1.00  0.00     0.217 HD
ENDBRANCH   4  28
TORSDOF 10
ENDMDL
MODEL 3
REMARK VINA RESULT: -5.555039736      2.572      5.803
REMARK  10 active torsions:
REMARK  status: ('A' for Active; 'I' for Inactive)
REMARK    1  A    between atoms: C2_2  and  O1_3 
REMARK    2  A    between atoms: C2_2  and  C3_5 
REMARK    3  A    between atoms: C3_5  and  C4_6 
REMARK    4  A    between atoms: C4_6  and  C6_8 
REMARK    5  A    between atoms: C4_6  and  C16_26 
REMARK    6  A    between atoms: C8_10  and  C9_11 
REMARK    7  A    between atoms: C13_15  and  O2_16 
REMARK    8  A    between atoms: C14_18  and  O3_19 
REMARK    9  A    between atoms: C15_21  and  N1_22 
REMARK   10  A    between atoms: N1_22  and  N2_23 
ROOT
HETATM    1  C6  UNL     1      56.276   4.416  38.176  1.00  0.00    -0.003 A 
HETATM    2  C7  UNL     1      55.471   3.357  38.641  1.00  0.00     0.022 A 
HETATM    3  C8  UNL     1      54.117   3.490  38.859  1.00  0.00    -0.014 A 
HETATM    4  C13 UNL     1      53.456   4.678  38.634  1.00  0.00     0.109 A 
HETATM    5  C14 UNL     1      54.196   5.720  38.189  1.00  0.00     0.143 A 
HETATM    6  C15 UNL     1      55.568   5.571  37.975  1.00  0.00     0.173 A 
ENDROOT
BRANCH   1   7
HETATM    7  C4  UNL     1      57.666   4.143  37.801  1.00  0.00    -0.004 C 
HETATM    8  C5  UNL     1      58.733   5.072  38.125  1.00  0.00     0.021 C 
BRANCH   7   9
HETATM    9  C3  UNL     1      58.011   2.798  38.409  1.00  0.00     0.046 C 
BRANCH   9  10
HETATM   10  C2  UNL     1      58.967   2.721  39.518  1.00  0.00     0.115 C 
HETATM   11  C1  UNL     1      59.761   1.479  39.749  1.00  0.00     0.039 C 
BRANCH  10  12
HETATM   12  O1  UNL     1      58.250   2.921  40.748  1.00  0.00    -0.396 OA
ATOM     13  H1  UNL     1      58.268   2.072  41.172  1.00  0.00     0.210 HD
ENDBRANCH  10  12
ENDBRANCH   9  10
ENDBRANCH   7   9
BRANCH   7  14
HETATM   14  C16 UNL     1      57.776   3.815  36.297  1.00  0.00    -0.040 C 
HETATM   15  C17 UNL     1      56.514   3.506  35.586  1.00  0.00     0.015 C 
HETATM   16  C18 UNL     1      58.409   4.980  35.575  1.00  0.00     0.015 C 
HETATM   17  C19 UNL     1      58.670   2.627  36.011  1.00  0.00     0.015 C 
ENDBRANCH   7  14
ENDBRANCH   1   7
BRANCH   6  18
HETATM   18  N1  UNL     1      56.267   6.718  37.663  1.00  0.00    -0.330 NA
BRANCH  18  19
HETATM   19  N2  UNL     1      56.800   7.672  37.421  1.00  0.00    -0.280 N 
ATOM     20  H22 UNL     1      55.844   7.778  37.760  1.00  0.00     0.191 HD
ATOM     21  H21 UNL     1      57.317   8.521  37.189  1.00  0.00     0.191 HD
ENDBRANCH  18  19
ENDBRANCH   6  18
BRANCH   3  22
HETATM   22  C9  UNL     1      53.274   2.348  39.358  1.00  0.00    -0.021 C 
HETATM   23  C10 UNL     1      54.237   1.173  39.501  1.00  0.00     0.019 C 
HETATM   24  C11 UNL     1      52.138   2.039  38.420  1.00  0.00     0.019 C 
HETATM   25  C12 UNL     1      52.736   2.630  40.728  1.00  0.00     0.019 C 
ENDBRANCH   3  22
BRANCH   5  26
HETATM   26  O3  UNL     1      53.630   6.963  37.929  1.00  0.00    -0.355 OA
ATOM     27  H3  UNL     1      54.121   7.769  38.034  1.00  0.00     0.218 HD
ENDBRANCH   5  26
BRANCH   4  28
HETATM   28  O2  UNL     1      52.088   4.778  38.863  1.00  0.00    -0.357 OA
ATOM     29  H2  UNL     1      51.715   5.579  39.212  1.00  0.00     0.217 HD
ENDBRANCH   4  28
TORSDOF 10
ENDMDL
MODEL 4
REMARK VINA RESULT: -5.246537278      2.620      5.653
REMARK  10 active torsions:
REMARK  status: ('A' for Active; 'I' for Inactive)
REMARK    1  A    between atoms: C2_2  and  O1_3 
REMARK    2  A    between atoms: C2_2  and  C3_5 
REMARK    3  A    between atoms: C3_5  and  C4_6 
REMARK    4  A    between atoms: C4_6  and  C6_8 
REMARK    5  A    between atoms: C4_6  and  C16_26 
REMARK    6  A    between atoms: C8_10  and  C9_11 
REMARK    7  A    between atoms: C13_15  and  O2_16 
REMARK    8  A    between atoms: C14_18  and  O3_19 
REMARK    9  A    between atoms: C15_21  and  N1_22 
REMARK   10  A    between atoms: N1_22  and  N2_23 
ROOT
HETATM    1  C6  UNL     1      56.188   4.368  37.574  1.00  0.00    -0.003 A 
HETATM    2  C7  UNL     1      55.810   3.015  37.457  1.00  0.00     0.022 A 
HETATM    3  C8  UNL     1      54.512   2.587  37.628  1.00  0.00    -0.014 A 
HETATM    4  C13 UNL     1      53.490   3.460  37.926  1.00  0.00     0.109 A 
HETATM    5  C14 UNL     1      53.813   4.769  38.050  1.00  0.00     0.143 A 
HETATM    6  C15 UNL     1      55.134   5.188  37.876  1.00  0.00     0.173 A 
ENDROOT
BRANCH   1   7
HETATM    7  C4  UNL     1      57.550   4.761  37.203  1.00  0.00    -0.004 C 
HETATM    8  C5  UNL     1      58.292   5.739  37.978  1.00  0.00     0.021 C 
BRANCH   7   9
HETATM    9  C3  UNL     1      58.362   3.483  37.156  1.00  0.00     0.046 C 
BRANCH   9  10
HETATM   10  C2  UNL     1      59.438   3.265  38.127  1.00  0.00     0.115 C 
HETATM   11  C1  UNL     1      60.693   2.564  37.723  1.00  0.00     0.039 C 
BRANCH  10  12
HETATM   12  O1  UNL     1      58.919   2.473  39.208  1.00  0.00    -0.396 OA
ATOM     13  H1  UNL     1      58.125   2.923  39.471  1.00  0.00     0.210 HD
ENDBRANCH  10  12
ENDBRANCH   9  10
ENDBRANCH   7   9
BRANCH   7  14
HETATM   14  C16 UNL     1      57.614   5.196  35.724  1.00  0.00    -0.040 C 
HETATM   15  C17 UNL     1      56.474   4.803  34.863  1.00  0.00     0.015 C 
HETATM   16  C18 UNL     1      57.719   6.701  35.647  1.00  0.00     0.015 C 
HETATM   17  C19 UNL     1      58.833   4.667  34.999  1.00  0.00     0.015 C 
ENDBRANCH   7  14
ENDBRANCH   1   7
BRANCH   6  18
HETATM   18  N1  UNL     1      55.399   6.511  38.163  1.00  0.00    -0.330 NA
BRANCH  18  19
HETATM   19  N2  UNL     1      55.572   7.593  38.392  1.00  0.00    -0.280 N 
ATOM     20  H22 UNL     1      54.624   7.352  38.101  1.00  0.00     0.191 HD
ATOM     21  H21 UNL     1      55.768   8.570  38.609  1.00  0.00     0.191 HD
ENDBRANCH  18  19
ENDBRANCH   6  18
BRANCH   3  22
HETATM   22  C9  UNL     1      54.128   1.137  37.500  1.00  0.00    -0.021 C 
HETATM   23  C10 UNL     1      55.443   0.392  37.293  1.00  0.00     0.019 C 
HETATM   24  C11 UNL     1      53.164   0.911  36.367  1.00  0.00     0.019 C 
HETATM   25  C12 UNL     1      53.538   0.619  38.777  1.00  0.00     0.019 C 
ENDBRANCH   3  22
BRANCH   5  26
HETATM   26  O3  UNL     1      52.860   5.735  38.348  1.00  0.00    -0.355 OA
ATOM     27  H3  UNL     1      53.070   6.504  38.865  1.00  0.00     0.218 HD
ENDBRANCH   5  26
BRANCH   4  28
HETATM   28  O2  UNL     1      52.189   2.995  38.090  1.00  0.00    -0.357 OA
ATOM     29  H2  UNL     1      51.875   2.735  38.948  1.00  0.00     0.217 HD
ENDBRANCH   4  28
TORSDOF 10
ENDMDL
MODEL 5
REMARK VINA RESULT: -5.051717333      5.095      8.619
REMARK  10 active torsions:
REMARK  status: ('A' for Active; 'I' for Inactive)
REMARK    1  A    between atoms: C2_2  and  O1_3 
REMARK    2  A    between atoms: C2_2  and  C3_5 
REMARK    3  A    between atoms: C3_5  and  C4_6 
REMARK    4  A    between atoms: C4_6  and  C6_8 
REMARK    5  A    between atoms: C4_6  and  C16_26 
REMARK    6  A    between atoms: C8_10  and  C9_11 
REMARK    7  A    between atoms: C13_15  and  O2_16 
REMARK    8  A    between atoms: C14_18  and  O3_19 
REMARK    9  A    between atoms: C15_21  and  N1_22 
REMARK   10  A    between atoms: N1_22  and  N2_23 
ROOT
HETATM    1  C6  UNL     1      61.493   7.917  31.858  1.00  0.00    -0.003 A 
HETATM    2  C7  UNL     1      60.856   9.004  32.489  1.00  0.00     0.022 A 
HETATM    3  C8  UNL     1      59.766   8.851  33.317  1.00  0.00    -0.014 A 
HETATM    4  C13 UNL     1      59.223   7.614  33.585  1.00  0.00     0.109 A 
HETATM    5  C14 UNL     1      59.805   6.544  32.995  1.00  0.00     0.143 A 
HETATM    6  C15 UNL     1      60.908   6.715  32.156  1.00  0.00     0.173 A 
ENDROOT
BRANCH   1   7
HETATM    7  C4  UNL     1      62.749   8.147  31.139  1.00  0.00    -0.004 C 
HETATM    8  C5  UNL     1      63.175   7.272  30.062  1.00  0.00     0.021 C 
BRANCH   7   9
HETATM    9  C3  UNL     1      62.674   9.560  30.596  1.00  0.00     0.046 C 
BRANCH   9  10
HETATM   10  C2  UNL     1      62.913   9.809  29.172  1.00  0.00     0.115 C 
HETATM   11  C1  UNL     1      63.902  10.840  28.739  1.00  0.00     0.039 C 
BRANCH  10  12
HETATM   12  O1  UNL     1      61.675  10.226  28.571  1.00  0.00    -0.396 OA
ATOM     13  H1  UNL     1      61.011   9.719  29.024  1.00  0.00     0.210 HD
ENDBRANCH  10  12
ENDBRANCH   9  10
ENDBRANCH   7   9
BRANCH   7  14
HETATM   14  C16 UNL     1      63.930   8.280  32.123  1.00  0.00    -0.040 C 
HETATM   15  C17 UNL     1      63.900   7.411  33.323  1.00  0.00     0.015 C 
HETATM   16  C18 UNL     1      65.222   7.980  31.400  1.00  0.00     0.015 C 
HETATM   17  C19 UNL     1      64.090   9.680  32.676  1.00  0.00     0.015 C 
ENDBRANCH   7  14
ENDBRANCH   1   7
BRANCH   6  18
HETATM   18  N1  UNL     1      61.346   5.593  31.483  1.00  0.00    -0.330 NA
BRANCH  18  19
HETATM   19  N2  UNL     1      61.671   4.659  30.959  1.00  0.00    -0.280 N 
ATOM     20  H22 UNL     1      62.065   4.799  31.889  1.00  0.00     0.191 HD
ATOM     21  H21 UNL     1      61.944   3.819  30.449  1.00  0.00     0.191 HD
ENDBRANCH  18  19
ENDBRANCH   6  18
BRANCH   3  22
HETATM   22  C9  UNL     1      59.098  10.025  33.982  1.00  0.00    -0.021 C 
HETATM   23  C10 UNL     1      60.057  11.195  33.783  1.00  0.00     0.019 C 
HETATM   24  C11 UNL     1      58.820   9.761  35.437  1.00  0.00     0.019 C 
HETATM   25  C12 UNL     1      57.825  10.391  33.281  1.00  0.00     0.019 C 
ENDBRANCH   3  22
BRANCH   5  26
HETATM   26  O3  UNL     1      59.339   5.250  33.197  1.00  0.00    -0.355 OA
ATOM     27  H3  UNL     1      59.859   4.489  32.971  1.00  0.00     0.218 HD
ENDBRANCH   5  26
BRANCH   4  28
HETATM   28  O2  UNL     1      58.122   7.493  34.428  1.00  0.00    -0.357 OA
ATOM     29  H2  UNL     1      58.243   7.349  35.359  1.00  0.00     0.217 HD
ENDBRANCH   4  28
TORSDOF 10
ENDMDL
