MODEL 1
REMARK VINA RESULT: -7.781753943      0.000      0.000
REMARK  5 active torsions:
REMARK  status: ('A' for Active; 'I' for Inactive)
REMARK    1  A    between atoms: C5_6  and  O1_7 
REMARK    2  A    between atoms: N1_9  and  C6_10 
REMARK    3  A    between atoms: C9_13  and  O2_14 
REMARK    4  A    between atoms: C10_16  and  C11_17 
REMARK    5  A    between atoms: C11_17  and  C12_18 
ROOT
HETATM    1  C1  UNL     1      60.043   9.088  32.627  1.00  0.00     0.027 C 
HETATM    2  C2  UNL     1      59.547   9.909  33.500  1.00  0.00    -0.017 C 
HETATM    3  S1  UNL     1      60.345  11.404  34.094  1.00  0.00    -0.090 SA
HETATM    4  C3  UNL     1      58.817  12.256  34.458  1.00  0.00     0.067 A 
HETATM    5  C4  UNL     1      57.837  11.300  34.478  1.00  0.00     0.024 A 
HETATM    6  C5  UNL     1      56.662  12.011  34.751  1.00  0.00     0.153 A 
HETATM    7  N1  UNL     1      56.936  13.327  34.889  1.00  0.00    -0.302 N 
HETATM    8  C9  UNL     1      58.284  13.484  34.706  1.00  0.00     0.162 A 
HETATM    9  C10 UNL     1      58.280   9.924  34.237  1.00  0.00     0.067 C 
ENDROOT
BRANCH   9  10
HETATM   10  C11 UNL     1      58.421   9.154  35.554  1.00  0.00     0.042 C 
BRANCH  10  11
HETATM   11  C12 UNL     1      57.970   7.777  35.339  1.00  0.00    -0.023 C 
HETATM   12  C13 UNL     1      57.403   7.027  36.283  1.00  0.00    -0.084 C 
HETATM   13  C14 UNL     1      56.993   5.646  35.923  1.00  0.00     0.034 C 
HETATM   14  C19 UNL     1      57.253   7.693  37.598  1.00  0.00     0.034 C 
HETATM   15  C15 UNL     1      57.574   4.607  36.855  1.00  0.00     0.004 C 
HETATM   16  C16 UNL     1      58.261   5.220  38.051  1.00  0.00     0.000 C 
HETATM   17  C17 UNL     1      57.229   5.657  39.055  1.00  0.00     0.000 C 
HETATM   18  C18 UNL     1      56.464   6.857  38.575  1.00  0.00     0.004 C 
ENDBRANCH  10  11
ENDBRANCH   9  10
BRANCH   6  19
HETATM   19  O1  UNL     1      55.396  11.449  34.866  1.00  0.00    -0.345 OA
ATOM     20  H1  UNL     1      54.582  11.890  34.659  1.00  0.00     0.219 HD
ENDBRANCH   6  19
BRANCH   8  21
HETATM   21  O2  UNL     1      58.877  14.733  34.786  1.00  0.00    -0.345 OA
ATOM     22  H2  UNL     1      59.206  15.220  35.533  1.00  0.00     0.219 HD
ENDBRANCH   8  21
BRANCH   7  23
HETATM   23  C6  UNL     1      55.953  14.324  35.174  1.00  0.00     0.094 A 
HETATM   24  C7  UNL     1      54.784  14.084  36.032  1.00  0.00     0.028 A 
HETATM   25  C8  UNL     1      55.939  14.761  36.658  1.00  0.00     0.028 A 
ENDBRANCH   7  23
TORSDOF 5
ENDMDL
MODEL 2
REMARK VINA RESULT: -7.275423921      2.911      6.744
REMARK  5 active torsions:
REMARK  status: ('A' for Active; 'I' for Inactive)
REMARK    1  A    between atoms: C5_6  and  O1_7 
REMARK    2  A    between atoms: N1_9  and  C6_10 
REMARK    3  A    between atoms: C9_13  and  O2_14 
REMARK    4  A    between atoms: C10_16  and  C11_17 
REMARK    5  A    between atoms: C11_17  and  C12_18 
ROOT
HETATM    1  C1  UNL     1      60.918   6.871  32.404  1.00  0.00     0.027 C 
HETATM    2  C2  UNL     1      59.749   6.934  32.961  1.00  0.00    -0.017 C 
HETATM    3  S1  UNL     1      58.383   5.812  32.647  1.00  0.00    -0.090 SA
HETATM    4  C3  UNL     1      57.647   6.014  34.262  1.00  0.00     0.067 A 
HETATM    5  C4  UNL     1      58.208   7.140  34.805  1.00  0.00     0.024 A 
HETATM    6  C5  UNL     1      57.616   7.250  36.069  1.00  0.00     0.153 A 
HETATM    7  N1  UNL     1      56.742   6.236  36.264  1.00  0.00    -0.302 N 
HETATM    8  C9  UNL     1      56.760   5.461  35.135  1.00  0.00     0.162 A 
HETATM    9  C10 UNL     1      59.176   7.843  33.960  1.00  0.00     0.067 C 
ENDROOT
BRANCH   9  10
HETATM   10  C11 UNL     1      58.530   9.050  33.272  1.00  0.00     0.042 C 
BRANCH  10  11
HETATM   11  C12 UNL     1      59.134  10.271  33.810  1.00  0.00    -0.023 C 
HETATM   12  C13 UNL     1      58.456  11.197  34.487  1.00  0.00    -0.084 C 
HETATM   13  C14 UNL     1      59.199  12.386  34.976  1.00  0.00     0.034 C 
HETATM   14  C19 UNL     1      57.015  10.904  34.665  1.00  0.00     0.034 C 
HETATM   15  C15 UNL     1      58.569  13.687  34.531  1.00  0.00     0.004 C 
HETATM   16  C16 UNL     1      57.226  13.486  33.873  1.00  0.00     0.000 C 
HETATM   17  C17 UNL     1      56.180  13.249  34.928  1.00  0.00     0.000 C 
HETATM   18  C18 UNL     1      56.338  11.902  35.572  1.00  0.00     0.004 C 
ENDBRANCH  10  11
ENDBRANCH   9  10
BRANCH   6  19
HETATM   19  O1  UNL     1      57.882   8.254  36.992  1.00  0.00    -0.345 OA
ATOM     20  H1  UNL     1      58.099   9.152  36.774  1.00  0.00     0.219 HD
ENDBRANCH   6  19
BRANCH   8  21
HETATM   21  O2  UNL     1      55.962   4.333  35.028  1.00  0.00    -0.345 OA
ATOM     22  H2  UNL     1      55.211   4.051  35.537  1.00  0.00     0.219 HD
ENDBRANCH   8  21
BRANCH   7  23
HETATM   23  C6  UNL     1      55.971   6.062  37.453  1.00  0.00     0.094 A 
HETATM   24  C7  UNL     1      55.674   4.746  38.038  1.00  0.00     0.028 A 
HETATM   25  C8  UNL     1      56.794   5.501  38.637  1.00  0.00     0.028 A 
ENDBRANCH   7  23
TORSDOF 5
ENDMDL
MODEL 3
REMARK VINA RESULT: -7.217255435      2.604      3.601
REMARK  5 active torsions:
REMARK  status: ('A' for Active; 'I' for Inactive)
REMARK    1  A    between atoms: C5_6  and  O1_7 
REMARK    2  A    between atoms: N1_9  and  C6_10 
REMARK    3  A    between atoms: C9_13  and  O2_14 
REMARK    4  A    between atoms: C10_16  and  C11_17 
REMARK    5  A    between atoms: C11_17  and  C12_18 
ROOT
HETATM    1  C1  UNL     1      58.789   5.043  31.478  1.00  0.00     0.027 C 
HETATM    2  C2  UNL     1      59.194   6.009  32.243  1.00  0.00    -0.017 C 
HETATM    3  S1  UNL     1      60.810   6.789  32.168  1.00  0.00    -0.090 SA
HETATM    4  C3  UNL     1      60.247   8.363  32.798  1.00  0.00     0.067 A 
HETATM    5  C4  UNL     1      59.020   8.136  33.365  1.00  0.00     0.024 A 
HETATM    6  C5  UNL     1      58.613   9.393  33.830  1.00  0.00     0.153 A 
HETATM    7  N1  UNL     1      59.558  10.320  33.553  1.00  0.00    -0.302 N 
HETATM    8  C9  UNL     1      60.580   9.678  32.907  1.00  0.00     0.162 A 
HETATM    9  C10 UNL     1      58.545   6.751  33.329  1.00  0.00     0.067 C 
ENDROOT
BRANCH   9  10
HETATM   10  C11 UNL     1      58.786   6.051  34.670  1.00  0.00     0.042 C 
BRANCH  10  11
HETATM   11  C12 UNL     1      57.554   5.366  35.066  1.00  0.00    -0.023 C 
HETATM   12  C13 UNL     1      56.866   5.657  36.170  1.00  0.00    -0.084 C 
HETATM   13  C14 UNL     1      55.631   4.879  36.446  1.00  0.00     0.034 C 
HETATM   14  C19 UNL     1      57.443   6.746  36.991  1.00  0.00     0.034 C 
HETATM   15  C15 UNL     1      55.638   4.250  37.821  1.00  0.00     0.004 C 
HETATM   16  C16 UNL     1      56.792   4.722  38.669  1.00  0.00     0.000 C 
HETATM   17  C17 UNL     1      56.491   6.092  39.213  1.00  0.00     0.000 C 
HETATM   18  C18 UNL     1      56.540   7.138  38.135  1.00  0.00     0.004 C 
ENDBRANCH  10  11
ENDBRANCH   9  10
BRANCH   6  19
HETATM   19  O1  UNL     1      57.415   9.653  34.484  1.00  0.00    -0.345 OA
ATOM     20  H1  UNL     1      56.849  10.395  34.311  1.00  0.00     0.219 HD
ENDBRANCH   6  19
BRANCH   8  21
HETATM   21  O2  UNL     1      61.707  10.368  32.488  1.00  0.00    -0.345 OA
ATOM     22  H2  UNL     1      62.630  10.153  32.553  1.00  0.00     0.219 HD
ENDBRANCH   8  21
BRANCH   7  23
HETATM   23  C6  UNL     1      59.448  11.702  33.897  1.00  0.00     0.094 A 
HETATM   24  C7  UNL     1      58.814  12.179  35.135  1.00  0.00     0.028 A 
HETATM   25  C8  UNL     1      60.289  12.091  35.135  1.00  0.00     0.028 A 
ENDBRANCH   7  23
TORSDOF 5
ENDMDL
MODEL 4
REMARK VINA RESULT: -7.209360964      1.054      1.539
REMARK  5 active torsions:
REMARK  status: ('A' for Active; 'I' for Inactive)
REMARK    1  A    between atoms: C5_6  and  O1_7 
REMARK    2  A    between atoms: N1_9  and  C6_10 
REMARK    3  A    between atoms: C9_13  and  O2_14 
REMARK    4  A    between atoms: C10_16  and  C11_17 
REMARK    5  A    between atoms: C11_17  and  C12_18 
ROOT
HETATM    1  C1  UNL     1      59.171   7.769  33.258  1.00  0.00     0.027 C 
HETATM    2  C2  UNL     1      58.969   8.845  33.953  1.00  0.00    -0.017 C 
HETATM    3  S1  UNL     1      60.036  10.289  33.971  1.00  0.00    -0.090 SA
HETATM    4  C3  UNL     1      58.727  11.440  34.361  1.00  0.00     0.067 A 
HETATM    5  C4  UNL     1      57.674  10.689  34.812  1.00  0.00     0.024 A 
HETATM    6  C5  UNL     1      56.671  11.626  35.090  1.00  0.00     0.153 A 
HETATM    7  N1  UNL     1      57.113  12.875  34.818  1.00  0.00    -0.302 N 
HETATM    8  C9  UNL     1      58.399  12.761  34.361  1.00  0.00     0.162 A 
HETATM    9  C10 UNL     1      57.899   9.243  34.874  1.00  0.00     0.067 C 
ENDROOT
BRANCH   9  10
HETATM   10  C11 UNL     1      58.235   8.800  36.302  1.00  0.00     0.042 C 
BRANCH  10  11
HETATM   11  C12 UNL     1      57.013   8.295  36.932  1.00  0.00    -0.023 C 
HETATM   12  C13 UNL     1      56.924   7.108  37.532  1.00  0.00    -0.084 C 
HETATM   13  C14 UNL     1      55.620   6.726  38.130  1.00  0.00     0.034 C 
HETATM   14  C19 UNL     1      58.174   6.312  37.520  1.00  0.00     0.034 C 
HETATM   15  C15 UNL     1      55.122   5.389  37.628  1.00  0.00     0.004 C 
HETATM   16  C16 UNL     1      56.151   4.659  36.802  1.00  0.00     0.000 C 
HETATM   17  C17 UNL     1      57.170   4.026  37.711  1.00  0.00     0.000 C 
HETATM   18  C18 UNL     1      58.058   5.056  38.349  1.00  0.00     0.004 C 
ENDBRANCH  10  11
ENDBRANCH   9  10
BRANCH   6  19
HETATM   19  O1  UNL     1      55.406  11.322  35.577  1.00  0.00    -0.345 OA
ATOM     20  H1  UNL     1      54.634  11.865  35.469  1.00  0.00     0.219 HD
ENDBRANCH   6  19
BRANCH   8  21
HETATM   21  O2  UNL     1      59.130  13.880  33.995  1.00  0.00    -0.345 OA
ATOM     22  H2  UNL     1      59.990  13.960  33.600  1.00  0.00     0.219 HD
ENDBRANCH   8  21
BRANCH   7  23
HETATM   23  C6  UNL     1      56.331  14.057  34.996  1.00  0.00     0.094 A 
HETATM   24  C7  UNL     1      55.616  14.373  36.242  1.00  0.00     0.028 A 
HETATM   25  C8  UNL     1      56.925  15.030  36.041  1.00  0.00     0.028 A 
ENDBRANCH   7  23
TORSDOF 5
ENDMDL
MODEL 5
REMARK VINA RESULT: -7.146418907      2.521      3.678
REMARK  5 active torsions:
REMARK  status: ('A' for Active; 'I' for Inactive)
REMARK    1  A    between atoms: C5_6  and  O1_7 
REMARK    2  A    between atoms: N1_9  and  C6_10 
REMARK    3  A    between atoms: C9_13  and  O2_14 
REMARK    4  A    between atoms: C10_16  and  C11_17 
REMARK    5  A    between atoms: C11_17  and  C12_18 
ROOT
HETATM    1  C1  UNL     1      58.446   5.183  31.623  1.00  0.00     0.027 C 
HETATM    2  C2  UNL     1      58.914   6.126  32.380  1.00  0.00    -0.017 C 
HETATM    3  S1  UNL     1      60.590   6.768  32.329  1.00  0.00    -0.090 SA
HETATM    4  C3  UNL     1      60.147   8.395  32.919  1.00  0.00     0.067 A 
HETATM    5  C4  UNL     1      58.894   8.282  33.461  1.00  0.00     0.024 A 
HETATM    6  C5  UNL     1      58.584   9.577  33.895  1.00  0.00     0.153 A 
HETATM    7  N1  UNL     1      59.608  10.416  33.623  1.00  0.00    -0.302 N 
HETATM    8  C9  UNL     1      60.587   9.680  33.012  1.00  0.00     0.162 A 
HETATM    9  C10 UNL     1      58.306   6.941  33.438  1.00  0.00     0.067 C 
ENDROOT
BRANCH   9  10
HETATM   10  C11 UNL     1      58.459   6.249  34.797  1.00  0.00     0.042 C 
BRANCH  10  11
HETATM   11  C12 UNL     1      57.582   6.917  35.761  1.00  0.00    -0.023 C 
HETATM   12  C13 UNL     1      57.337   6.453  36.986  1.00  0.00    -0.084 C 
HETATM   13  C14 UNL     1      56.427   7.237  37.858  1.00  0.00     0.034 C 
HETATM   14  C19 UNL     1      58.028   5.185  37.318  1.00  0.00     0.034 C 
HETATM   15  C15 UNL     1      55.286   6.406  38.401  1.00  0.00     0.004 C 
HETATM   16  C16 UNL     1      55.448   4.935  38.105  1.00  0.00     0.000 C 
HETATM   17  C17 UNL     1      56.443   4.335  39.060  1.00  0.00     0.000 C 
HETATM   18  C18 UNL     1      57.842   4.796  38.764  1.00  0.00     0.004 C 
ENDBRANCH  10  11
ENDBRANCH   9  10
BRANCH   6  19
HETATM   19  O1  UNL     1      57.398   9.948  34.516  1.00  0.00    -0.345 OA
ATOM     20  H1  UNL     1      56.562   9.514  34.401  1.00  0.00     0.219 HD
ENDBRANCH   6  19
BRANCH   8  21
HETATM   21  O2  UNL     1      61.776  10.265  32.607  1.00  0.00    -0.345 OA
ATOM     22  H2  UNL     1      61.943  11.008  32.039  1.00  0.00     0.219 HD
ENDBRANCH   8  21
BRANCH   7  23
HETATM   23  C6  UNL     1      59.607  11.809  33.941  1.00  0.00     0.094 A 
HETATM   24  C7  UNL     1      58.900  12.373  35.100  1.00  0.00     0.028 A 
HETATM   25  C8  UNL     1      60.350  12.135  35.258  1.00  0.00     0.028 A 
ENDBRANCH   7  23
TORSDOF 5
ENDMDL
