MODEL 1
REMARK VINA RESULT: -8.144441803      0.000      0.000
REMARK  4 active torsions:
REMARK  status: ('A' for Active; 'I' for Inactive)
REMARK    1  A    between atoms: C4_4  and  C5_5 
REMARK    2  A    between atoms: C5_5  and  C6_6 
REMARK    3  A    between atoms: C7_7  and  O1_8 
REMARK    4  A    between atoms: C8_10  and  C9_11 
ROOT
HETATM    1  C6  UNL     1      58.494   8.658  34.807  1.00  0.00     0.013 A 
HETATM    2  C7  UNL     1      58.987   8.159  33.586  1.00  0.00     0.081 A 
HETATM    3  C8  UNL     1      58.929   6.800  33.280  1.00  0.00    -0.020 A 
HETATM    4  C12 UNL     1      58.380   5.923  34.183  1.00  0.00     0.021 A 
HETATM    5  C13 UNL     1      57.889   6.386  35.388  1.00  0.00    -0.013 A 
HETATM    6  C14 UNL     1      57.957   7.731  35.670  1.00  0.00     0.094 A 
HETATM    7  O2  UNL     1      57.463   8.228  36.893  1.00  0.00    -0.296 OA
HETATM    8  C15 UNL     1      56.921   7.278  37.765  1.00  0.00     0.137 C 
HETATM    9  N1  UNL     1      55.942   7.520  38.558  1.00  0.00    -0.382 N 
ATOM     10  H11 UNL     1      55.547   6.827  39.194  1.00  0.00     0.158 HD
ATOM     11  H12 UNL     1      55.515   8.446  38.576  1.00  0.00     0.158 HD
HETATM   12  C16 UNL     1      57.552   5.911  37.738  1.00  0.00     0.179 C 
HETATM   13  C17 UNL     1      57.004   5.064  38.763  1.00  0.00     0.073 C 
HETATM   14  N2  UNL     1      56.575   4.374  39.584  1.00  0.00    -0.196 NA
HETATM   15  C18 UNL     1      57.295   5.389  36.324  1.00  0.00     0.006 C 
HETATM   16  C19 UNL     1      55.790   5.294  36.157  1.00  0.00     0.022 C 
HETATM   17  C20 UNL     1      57.864   4.029  36.098  1.00  0.00     0.022 C 
ENDROOT
BRANCH   1  18
HETATM   18  C5  UNL     1      58.622  10.091  35.022  1.00  0.00     0.072 C 
BRANCH  18  19
HETATM   19  C4  UNL     1      57.594  10.992  34.538  1.00  0.00    -0.020 C 
HETATM   20  C2  UNL     1      57.794  12.305  34.444  1.00  0.00    -0.091 C 
HETATM   21  C1  UNL     1      59.105  12.936  34.837  1.00  0.00     0.042 C 
HETATM   22  C3  UNL     1      56.726  13.220  33.936  1.00  0.00     0.042 C 
ENDBRANCH  18  19
ENDBRANCH   1  18
BRANCH   3  23
HETATM   23  C9  UNL     1      59.465   6.284  31.991  1.00  0.00     0.013 C 
HETATM   24  C10 UNL     1      58.515   5.272  31.378  1.00  0.00     0.015 C 
HETATM   25  C11 UNL     1      60.791   5.596  32.311  1.00  0.00     0.015 C 
ENDBRANCH   3  23
BRANCH   2  26
HETATM   26  O1  UNL     1      59.550   8.944  32.606  1.00  0.00    -0.359 OA
ATOM     27  H1  UNL     1      60.341   8.715  32.133  1.00  0.00     0.217 HD
ENDBRANCH   2  26
TORSDOF 4
ENDMDL
MODEL 2
REMARK VINA RESULT: -7.904582522      0.854      1.214
REMARK  4 active torsions:
REMARK  status: ('A' for Active; 'I' for Inactive)
REMARK    1  A    between atoms: C4_4  and  C5_5 
REMARK    2  A    between atoms: C5_5  and  C6_6 
REMARK    3  A    between atoms: C7_7  and  O1_8 
REMARK    4  A    between atoms: C8_10  and  C9_11 
ROOT
HETATM    1  C6  UNL     1      58.023   8.070  34.880  1.00  0.00     0.013 A 
HETATM    2  C7  UNL     1      58.606   7.473  33.746  1.00  0.00     0.081 A 
HETATM    3  C8  UNL     1      58.793   6.094  33.666  1.00  0.00    -0.020 A 
HETATM    4  C12 UNL     1      58.400   5.292  34.710  1.00  0.00     0.021 A 
HETATM    5  C13 UNL     1      57.824   5.853  35.834  1.00  0.00    -0.013 A 
HETATM    6  C14 UNL     1      57.651   7.216  35.893  1.00  0.00     0.094 A 
HETATM    7  O2  UNL     1      57.067   7.811  37.029  1.00  0.00    -0.296 OA
HETATM    8  C15 UNL     1      56.694   6.936  38.054  1.00  0.00     0.137 C 
HETATM    9  N1  UNL     1      55.681   7.128  38.817  1.00  0.00    -0.382 N 
ATOM     10  H11 UNL     1      55.410   6.490  39.565  1.00  0.00     0.158 HD
ATOM     11  H12 UNL     1      55.096   7.955  38.694  1.00  0.00     0.158 HD
HETATM   12  C16 UNL     1      57.557   5.716  38.237  1.00  0.00     0.179 C 
HETATM   13  C17 UNL     1      57.159   4.964  39.396  1.00  0.00     0.073 C 
HETATM   14  N2  UNL     1      56.852   4.354  40.327  1.00  0.00    -0.196 NA
HETATM   15  C18 UNL     1      57.409   4.933  36.932  1.00  0.00     0.006 C 
HETATM   16  C19 UNL     1      55.946   4.548  36.813  1.00  0.00     0.022 C 
HETATM   17  C20 UNL     1      58.212   3.676  36.917  1.00  0.00     0.022 C 
ENDROOT
BRANCH   1  18
HETATM   18  C5  UNL     1      57.893   9.518  34.857  1.00  0.00     0.072 C 
BRANCH  18  19
HETATM   19  C4  UNL     1      59.056  10.355  35.083  1.00  0.00    -0.020 C 
HETATM   20  C2  UNL     1      59.031  11.669  34.871  1.00  0.00    -0.091 C 
HETATM   21  C1  UNL     1      57.790  12.369  34.382  1.00  0.00     0.042 C 
HETATM   22  C3  UNL     1      60.237  12.518  35.116  1.00  0.00     0.042 C 
ENDBRANCH  18  19
ENDBRANCH   1  18
BRANCH   3  23
HETATM   23  C9  UNL     1      59.423   5.477  32.467  1.00  0.00     0.013 C 
HETATM   24  C10 UNL     1      58.392   5.234  31.380  1.00  0.00     0.015 C 
HETATM   25  C11 UNL     1      60.002   4.135  32.915  1.00  0.00     0.015 C 
ENDBRANCH   3  23
BRANCH   2  26
HETATM   26  O1  UNL     1      59.031   8.174  32.641  1.00  0.00    -0.359 OA
ATOM     27  H1  UNL     1      58.690   9.025  32.389  1.00  0.00     0.217 HD
ENDBRANCH   2  26
TORSDOF 4
ENDMDL
MODEL 3
REMARK VINA RESULT: -7.456924274      3.789      5.881
REMARK  4 active torsions:
REMARK  status: ('A' for Active; 'I' for Inactive)
REMARK    1  A    between atoms: C4_4  and  C5_5 
REMARK    2  A    between atoms: C5_5  and  C6_6 
REMARK    3  A    between atoms: C7_7  and  O1_8 
REMARK    4  A    between atoms: C8_10  and  C9_11 
ROOT
HETATM    1  C6  UNL     1      59.450   9.352  34.180  1.00  0.00     0.013 A 
HETATM    2  C7  UNL     1      58.560   8.308  34.496  1.00  0.00     0.081 A 
HETATM    3  C8  UNL     1      58.695   7.041  33.929  1.00  0.00    -0.020 A 
HETATM    4  C12 UNL     1      59.716   6.797  33.044  1.00  0.00     0.021 A 
HETATM    5  C13 UNL     1      60.604   7.804  32.717  1.00  0.00    -0.013 A 
HETATM    6  C14 UNL     1      60.452   9.046  33.286  1.00  0.00     0.094 A 
HETATM    7  O2  UNL     1      61.345  10.090  32.968  1.00  0.00    -0.296 OA
HETATM    8  C15 UNL     1      62.358   9.771  32.059  1.00  0.00     0.137 C 
HETATM    9  N1  UNL     1      63.532  10.286  32.097  1.00  0.00    -0.382 N 
ATOM     10  H11 UNL     1      64.271  10.054  31.433  1.00  0.00     0.158 HD
ATOM     11  H12 UNL     1      63.770  10.967  32.818  1.00  0.00     0.158 HD
HETATM   12  C16 UNL     1      62.007   8.766  30.994  1.00  0.00     0.179 C 
HETATM   13  C17 UNL     1      63.077   8.618  30.044  1.00  0.00     0.073 C 
HETATM   14  N2  UNL     1      63.926   8.494  29.271  1.00  0.00    -0.196 NA
HETATM   15  C18 UNL     1      61.699   7.478  31.758  1.00  0.00     0.006 C 
HETATM   16  C19 UNL     1      62.973   7.080  32.481  1.00  0.00     0.022 C 
HETATM   17  C20 UNL     1      61.314   6.351  30.861  1.00  0.00     0.022 C 
ENDROOT
BRANCH   1  18
HETATM   18  C5  UNL     1      59.202  10.633  34.820  1.00  0.00     0.072 C 
BRANCH  18  19
HETATM   19  C4  UNL     1      58.014  11.394  34.484  1.00  0.00    -0.020 C 
HETATM   20  C2  UNL     1      58.006  12.726  34.483  1.00  0.00    -0.091 C 
HETATM   21  C1  UNL     1      59.235  13.525  34.831  1.00  0.00     0.042 C 
HETATM   22  C3  UNL     1      56.775  13.495  34.127  1.00  0.00     0.042 C 
ENDBRANCH  18  19
ENDBRANCH   1  18
BRANCH   3  23
HETATM   23  C9  UNL     1      57.739   5.950  34.262  1.00  0.00     0.013 C 
HETATM   24  C10 UNL     1      58.197   5.188  35.492  1.00  0.00     0.015 C 
HETATM   25  C11 UNL     1      57.720   5.001  33.064  1.00  0.00     0.015 C 
ENDBRANCH   3  23
BRANCH   2  26
HETATM   26  O1  UNL     1      57.507   8.435  35.372  1.00  0.00    -0.359 OA
ATOM     27  H1  UNL     1      57.067   7.700  35.783  1.00  0.00     0.217 HD
ENDBRANCH   2  26
TORSDOF 4
ENDMDL
MODEL 4
REMARK VINA RESULT: -7.435174082      2.626      3.761
REMARK  4 active torsions:
REMARK  status: ('A' for Active; 'I' for Inactive)
REMARK    1  A    between atoms: C4_4  and  C5_5 
REMARK    2  A    between atoms: C5_5  and  C6_6 
REMARK    3  A    between atoms: C7_7  and  O1_8 
REMARK    4  A    between atoms: C8_10  and  C9_11 
ROOT
HETATM    1  C6  UNL     1      59.643   9.034  33.779  1.00  0.00     0.013 A 
HETATM    2  C7  UNL     1      60.671   9.556  32.972  1.00  0.00     0.081 A 
HETATM    3  C8  UNL     1      61.336   8.762  32.038  1.00  0.00    -0.020 A 
HETATM    4  C12 UNL     1      60.986   7.442  31.896  1.00  0.00     0.021 A 
HETATM    5  C13 UNL     1      59.980   6.904  32.676  1.00  0.00    -0.013 A 
HETATM    6  C14 UNL     1      59.339   7.705  33.592  1.00  0.00     0.094 A 
HETATM    7  O2  UNL     1      58.310   7.180  34.400  1.00  0.00    -0.296 OA
HETATM    8  C15 UNL     1      58.008   5.828  34.203  1.00  0.00     0.137 C 
HETATM    9  N1  UNL     1      56.829   5.339  34.332  1.00  0.00    -0.382 N 
ATOM     10  H11 UNL     1      56.610   4.353  34.189  1.00  0.00     0.158 HD
ATOM     11  H12 UNL     1      56.049   5.944  34.590  1.00  0.00     0.158 HD
HETATM   12  C16 UNL     1      59.160   4.936  33.823  1.00  0.00     0.179 C 
HETATM   13  C17 UNL     1      58.757   3.556  33.778  1.00  0.00     0.073 C 
HETATM   14  N2  UNL     1      58.448   2.444  33.744  1.00  0.00    -0.196 NA
HETATM   15  C18 UNL     1      59.637   5.468  32.471  1.00  0.00     0.006 C 
HETATM   16  C19 UNL     1      58.481   5.304  31.501  1.00  0.00     0.022 C 
HETATM   17  C20 UNL     1      60.798   4.706  31.927  1.00  0.00     0.022 C 
ENDROOT
BRANCH   1  18
HETATM   18  C5  UNL     1      59.033   9.952  34.727  1.00  0.00     0.072 C 
BRANCH  18  19
HETATM   19  C4  UNL     1      57.961  10.830  34.300  1.00  0.00    -0.020 C 
HETATM   20  C2  UNL     1      58.052  12.155  34.400  1.00  0.00    -0.091 C 
HETATM   21  C1  UNL     1      59.279  12.824  34.964  1.00  0.00     0.042 C 
HETATM   22  C3  UNL     1      56.941  13.046  33.948  1.00  0.00     0.042 C 
ENDBRANCH  18  19
ENDBRANCH   1  18
BRANCH   3  23
HETATM   23  C9  UNL     1      62.430   9.323  31.199  1.00  0.00     0.013 C 
HETATM   24  C10 UNL     1      62.281   8.884  29.753  1.00  0.00     0.015 C 
HETATM   25  C11 UNL     1      63.741   8.771  31.758  1.00  0.00     0.015 C 
ENDBRANCH   3  23
BRANCH   2  26
HETATM   26  O1  UNL     1      61.100  10.863  33.022  1.00  0.00    -0.359 OA
ATOM     27  H1  UNL     1      60.589  11.601  32.713  1.00  0.00     0.217 HD
ENDBRANCH   2  26
TORSDOF 4
ENDMDL
MODEL 5
REMARK VINA RESULT: -7.378699895      3.751      7.008
REMARK  4 active torsions:
REMARK  status: ('A' for Active; 'I' for Inactive)
REMARK    1  A    between atoms: C4_4  and  C5_5 
REMARK    2  A    between atoms: C5_5  and  C6_6 
REMARK    3  A    between atoms: C7_7  and  O1_8 
REMARK    4  A    between atoms: C8_10  and  C9_11 
ROOT
HETATM    1  C6  UNL     1      58.924   7.554  33.822  1.00  0.00     0.013 A 
HETATM    2  C7  UNL     1      58.503   8.770  34.394  1.00  0.00     0.081 A 
HETATM    3  C8  UNL     1      59.264   9.932  34.272  1.00  0.00    -0.020 A 
HETATM    4  C12 UNL     1      60.450   9.900  33.579  1.00  0.00     0.021 A 
HETATM    5  C13 UNL     1      60.886   8.720  33.008  1.00  0.00    -0.013 A 
HETATM    6  C14 UNL     1      60.120   7.585  33.142  1.00  0.00     0.094 A 
HETATM    7  O2  UNL     1      60.544   6.368  32.568  1.00  0.00    -0.296 OA
HETATM    8  C15 UNL     1      61.761   6.408  31.881  1.00  0.00     0.137 C 
HETATM    9  N1  UNL     1      62.017   5.689  30.850  1.00  0.00    -0.382 N 
ATOM     10  H11 UNL     1      62.905   5.718  30.349  1.00  0.00     0.158 HD
ATOM     11  H12 UNL     1      61.314   5.045  30.487  1.00  0.00     0.158 HD
HETATM   12  C16 UNL     1      62.799   7.359  32.415  1.00  0.00     0.179 C 
HETATM   13  C17 UNL     1      64.046   7.218  31.714  1.00  0.00     0.073 C 
HETATM   14  N2  UNL     1      65.055   7.111  31.162  1.00  0.00    -0.196 NA
HETATM   15  C18 UNL     1      62.175   8.747  32.260  1.00  0.00     0.006 C 
HETATM   16  C19 UNL     1      61.954   8.966  30.775  1.00  0.00     0.022 C 
HETATM   17  C20 UNL     1      63.063   9.839  32.753  1.00  0.00     0.022 C 
ENDROOT
BRANCH   1  18
HETATM   18  C5  UNL     1      58.057   6.406  34.027  1.00  0.00     0.072 C 
BRANCH  18  19
HETATM   19  C4  UNL     1      58.493   5.308  34.869  1.00  0.00    -0.020 C 
HETATM   20  C2  UNL     1      57.911   5.041  36.037  1.00  0.00    -0.091 C 
HETATM   21  C1  UNL     1      56.761   5.866  36.555  1.00  0.00     0.042 C 
HETATM   22  C3  UNL     1      58.368   3.902  36.890  1.00  0.00     0.042 C 
ENDBRANCH  18  19
ENDBRANCH   1  18
BRANCH   3  23
HETATM   23  C9  UNL     1      58.814  11.208  34.892  1.00  0.00     0.013 C 
HETATM   24  C10 UNL     1      57.840  11.936  33.983  1.00  0.00     0.015 C 
HETATM   25  C11 UNL     1      60.062  12.070  35.080  1.00  0.00     0.015 C 
ENDBRANCH   3  23
BRANCH   2  26
HETATM   26  O1  UNL     1      57.334   8.922  35.102  1.00  0.00    -0.359 OA
ATOM     27  H1  UNL     1      56.911   9.759  35.255  1.00  0.00     0.217 HD
ENDBRANCH   2  26
TORSDOF 4
ENDMDL
