MODEL 1
REMARK VINA RESULT: -5.233119892      0.000      0.000
REMARK  2 active torsions:
REMARK  status: ('A' for Active; 'I' for Inactive)
REMARK    1  A    between atoms: S1_2  and  C2_3 
REMARK    2  A    between atoms: C6_7  and  N1_8 
ROOT
HETATM    1  C2  UNL     1     -37.720   9.079  44.945  1.00  0.00     0.014 C 
HETATM    2  C3  UNL     1     -37.208   8.581  43.599  1.00  0.00     0.053 C 
HETATM    3  C4  UNL     1     -38.018   7.390  43.164  1.00  0.00     0.190 C 
HETATM    4  C5  UNL     1     -37.716   6.273  44.133  1.00  0.00     0.071 C 
HETATM    5  C6  UNL     1     -38.224   6.696  45.504  1.00  0.00     0.129 C 
HETATM    6  C7  UNL     1     -39.707   6.923  45.369  1.00  0.00     0.071 C 
HETATM    7  C8  UNL     1     -39.895   8.093  44.431  1.00  0.00     0.190 C 
HETATM    8  C9  UNL     1     -39.194   9.337  44.901  1.00  0.00     0.053 C 
HETATM    9  N2  UNL     1     -39.433   7.642  43.130  1.00  0.00    -0.066 N 
ATOM     10  H21 UNL     1     -39.957   6.832  42.800  1.00  0.00     0.278 HD
ATOM     11  H22 UNL     1     -39.685   8.296  42.389  1.00  0.00     0.278 HD
HETATM   12  C10 UNL     1     -37.495   7.939  45.930  1.00  0.00     0.059 C 
ENDROOT
BRANCH   5  13
HETATM   13  N1  UNL     1     -38.014   5.669  46.490  1.00  0.00    -0.070 N 
ATOM     14  H13 UNL     1     -38.781   5.635  47.162  1.00  0.00     0.275 HD
ATOM     15  H12 UNL     1     -38.116   4.738  46.085  1.00  0.00     0.275 HD
ATOM     16  H11 UNL     1     -37.113   5.774  46.959  1.00  0.00     0.275 HD
ENDBRANCH   5  13
BRANCH   1  17
HETATM   17  S1  UNL     1     -36.729  10.489  45.421  1.00  0.00    -0.163 SA
HETATM   18  C1  UNL     1     -37.519  12.076  45.121  1.00  0.00     0.090 C 
ENDBRANCH   1  17
TORSDOF 2
ENDMDL
MODEL 2
REMARK VINA RESULT: -5.140149891      9.456     11.089
REMARK  2 active torsions:
REMARK  status: ('A' for Active; 'I' for Inactive)
REMARK    1  A    between atoms: S1_2  and  C2_3 
REMARK    2  A    between atoms: C6_7  and  N1_8 
ROOT
HETATM    1  C2  UNL     1     -39.248  14.480  52.382  1.00  0.00     0.014 C 
HETATM    2  C3  UNL     1     -39.146  15.787  53.158  1.00  0.00     0.053 C 
HETATM    3  C4  UNL     1     -40.085  15.747  54.333  1.00  0.00     0.190 C 
HETATM    4  C5  UNL     1     -41.488  15.732  53.778  1.00  0.00     0.071 C 
HETATM    5  C6  UNL     1     -41.669  14.434  53.003  1.00  0.00     0.129 C 
HETATM    6  C7  UNL     1     -41.451  13.309  53.981  1.00  0.00     0.071 C 
HETATM    7  C8  UNL     1     -40.007  13.379  54.426  1.00  0.00     0.190 C 
HETATM    8  C9  UNL     1     -39.038  13.301  53.279  1.00  0.00     0.053 C 
HETATM    9  N2  UNL     1     -39.882  14.609  55.188  1.00  0.00    -0.066 N 
ATOM     10  H21 UNL     1     -40.506  14.622  55.995  1.00  0.00     0.278 HD
ATOM     11  H22 UNL     1     -38.993  14.660  55.685  1.00  0.00     0.278 HD
HETATM   12  C10 UNL     1     -40.681  14.403  51.871  1.00  0.00     0.059 C 
ENDROOT
BRANCH   5  13
HETATM   13  N1  UNL     1     -42.999  14.314  52.469  1.00  0.00    -0.070 N 
ATOM     14  H13 UNL     1     -43.678  14.815  53.043  1.00  0.00     0.275 HD
ATOM     15  H12 UNL     1     -43.102  14.843  51.603  1.00  0.00     0.275 HD
ATOM     16  H11 UNL     1     -43.268  13.337  52.342  1.00  0.00     0.275 HD
ENDBRANCH   5  13
BRANCH   1  17
HETATM   17  S1  UNL     1     -38.122  14.575  50.997  1.00  0.00    -0.163 SA
HETATM   18  C1  UNL     1     -36.487  13.908  51.335  1.00  0.00     0.090 C 
ENDBRANCH   1  17
TORSDOF 2
ENDMDL
MODEL 3
REMARK VINA RESULT: -5.136716499      1.258      2.207
REMARK  2 active torsions:
REMARK  status: ('A' for Active; 'I' for Inactive)
REMARK    1  A    between atoms: S1_2  and  C2_3 
REMARK    2  A    between atoms: C6_7  and  N1_8 
ROOT
HETATM    1  C2  UNL     1     -37.371   9.014  44.454  1.00  0.00     0.014 C 
HETATM    2  C3  UNL     1     -36.638   8.207  45.519  1.00  0.00     0.053 C 
HETATM    3  C4  UNL     1     -37.238   6.831  45.606  1.00  0.00     0.190 C 
HETATM    4  C5  UNL     1     -38.642   6.993  46.138  1.00  0.00     0.071 C 
HETATM    5  C6  UNL     1     -39.442   7.777  45.107  1.00  0.00     0.129 C 
HETATM    6  C7  UNL     1     -39.424   6.969  43.836  1.00  0.00     0.071 C 
HETATM    7  C8  UNL     1     -37.990   6.920  43.359  1.00  0.00     0.190 C 
HETATM    8  C9  UNL     1     -37.398   8.285  43.147  1.00  0.00     0.053 C 
HETATM    9  N2  UNL     1     -37.267   6.138  44.347  1.00  0.00    -0.066 N 
ATOM     10  H21 UNL     1     -37.646   5.196  44.438  1.00  0.00     0.278 HD
ATOM     11  H22 UNL     1     -36.331   5.892  44.026  1.00  0.00     0.278 HD
HETATM   12  C10 UNL     1     -38.813   9.130  44.931  1.00  0.00     0.059 C 
ENDROOT
BRANCH   5  13
HETATM   13  N1  UNL     1     -40.812   7.946  45.514  1.00  0.00    -0.070 N 
ATOM     14  H13 UNL     1     -41.240   7.053  45.760  1.00  0.00     0.275 HD
ATOM     15  H12 UNL     1     -40.877   8.408  46.420  1.00  0.00     0.275 HD
ATOM     16  H11 UNL     1     -41.358   8.437  44.805  1.00  0.00     0.275 HD
ENDBRANCH   5  13
BRANCH   1  17
HETATM   17  S1  UNL     1     -36.628  10.638  44.389  1.00  0.00    -0.163 SA
HETATM   18  C1  UNL     1     -37.558  11.906  45.260  1.00  0.00     0.090 C 
ENDBRANCH   1  17
TORSDOF 2
ENDMDL
MODEL 4
REMARK VINA RESULT: -5.101307469      2.953      4.611
REMARK  2 active torsions:
REMARK  status: ('A' for Active; 'I' for Inactive)
REMARK    1  A    between atoms: S1_2  and  C2_3 
REMARK    2  A    between atoms: C6_7  and  N1_8 
ROOT
HETATM    1  C2  UNL     1     -36.802   9.117  44.115  1.00  0.00     0.014 C 
HETATM    2  C3  UNL     1     -36.296   9.881  42.897  1.00  0.00     0.053 C 
HETATM    3  C4  UNL     1     -35.547  11.105  43.349  1.00  0.00     0.190 C 
HETATM    4  C5  UNL     1     -36.552  12.025  43.997  1.00  0.00     0.071 C 
HETATM    5  C6  UNL     1     -37.086  11.330  45.242  1.00  0.00     0.129 C 
HETATM    6  C7  UNL     1     -35.905  11.082  46.143  1.00  0.00     0.071 C 
HETATM    7  C8  UNL     1     -34.996  10.107  45.429  1.00  0.00     0.190 C 
HETATM    8  C9  UNL     1     -35.687   8.821  45.069  1.00  0.00     0.053 C 
HETATM    9  N2  UNL     1     -34.481  10.815  44.270  1.00  0.00    -0.066 N 
ATOM     10  H21 UNL     1     -33.967  11.655  44.535  1.00  0.00     0.278 HD
ATOM     11  H22 UNL     1     -33.718  10.308  43.822  1.00  0.00     0.278 HD
HETATM   12  C10 UNL     1     -37.766  10.054  44.831  1.00  0.00     0.059 C 
ENDROOT
BRANCH   5  13
HETATM   13  N1  UNL     1     -38.027  12.156  45.951  1.00  0.00    -0.070 N 
ATOM     14  H13 UNL     1     -37.719  12.335  46.906  1.00  0.00     0.275 HD
ATOM     15  H12 UNL     1     -38.020  13.113  45.599  1.00  0.00     0.275 HD
ATOM     16  H11 UNL     1     -38.967  11.758  45.931  1.00  0.00     0.275 HD
ENDBRANCH   5  13
BRANCH   1  17
HETATM   17  S1  UNL     1     -37.686   7.678  43.530  1.00  0.00    -0.163 SA
HETATM   18  C1  UNL     1     -39.472   7.793  43.707  1.00  0.00     0.090 C 
ENDBRANCH   1  17
TORSDOF 2
ENDMDL
MODEL 5
REMARK VINA RESULT: -5.073099061      1.167      1.191
REMARK  2 active torsions:
REMARK  status: ('A' for Active; 'I' for Inactive)
REMARK    1  A    between atoms: S1_2  and  C2_3 
REMARK    2  A    between atoms: C6_7  and  N1_8 
ROOT
HETATM    1  C2  UNL     1     -37.056   8.533  44.935  1.00  0.00     0.014 C 
HETATM    2  C3  UNL     1     -36.843   7.484  43.851  1.00  0.00     0.053 C 
HETATM    3  C4  UNL     1     -38.137   6.761  43.591  1.00  0.00     0.190 C 
HETATM    4  C5  UNL     1     -38.461   5.973  44.837  1.00  0.00     0.071 C 
HETATM    5  C6  UNL     1     -38.709   6.966  45.964  1.00  0.00     0.129 C 
HETATM    6  C7  UNL     1     -39.870   7.826  45.540  1.00  0.00     0.071 C 
HETATM    7  C8  UNL     1     -39.422   8.613  44.328  1.00  0.00     0.190 C 
HETATM    8  C9  UNL     1     -38.195   9.442  44.591  1.00  0.00     0.053 C 
HETATM    9  N2  UNL     1     -39.228   7.640  43.268  1.00  0.00    -0.066 N 
ATOM     10  H21 UNL     1     -40.084   7.125  43.063  1.00  0.00     0.278 HD
ATOM     11  H22 UNL     1     -39.101   8.086  42.360  1.00  0.00     0.278 HD
HETATM   12  C10 UNL     1     -37.458   7.767  46.189  1.00  0.00     0.059 C 
ENDROOT
BRANCH   5  13
HETATM   13  N1  UNL     1     -39.067   6.301  47.189  1.00  0.00    -0.070 N 
ATOM     14  H13 UNL     1     -38.432   6.551  47.948  1.00  0.00     0.275 HD
ATOM     15  H12 UNL     1     -39.932   6.676  47.577  1.00  0.00     0.275 HD
ATOM     16  H11 UNL     1     -39.121   5.289  47.068  1.00  0.00     0.275 HD
ENDBRANCH   5  13
BRANCH   1  17
HETATM   17  S1  UNL     1     -35.496   9.361  45.211  1.00  0.00    -0.163 SA
HETATM   18  C1  UNL     1     -35.610  10.805  46.275  1.00  0.00     0.090 C 
ENDBRANCH   1  17
TORSDOF 2
ENDMDL
