MODEL 1
REMARK VINA RESULT: -6.260262203      0.000      0.000
REMARK  5 active torsions:
REMARK  status: ('A' for Active; 'I' for Inactive)
REMARK    1  A    between atoms: C2_2  and  N1_4 
REMARK    2  A    between atoms: C6_7  and  N2_8 
REMARK    3  A    between atoms: N2_8  and  C7_10 
REMARK    4  A    between atoms: C7_10  and  N3_12 
REMARK    5  A    between atoms: N3_12  and  C8_14 
ROOT
HETATM    1  N1  UNL     1      -3.081   6.191  13.659  1.00  0.00     0.096 N 
HETATM    2  C4  UNL     1      -2.200   5.197  14.185  1.00  0.00     0.275 C 
HETATM    3  C5  UNL     1      -3.088   4.090  14.777  1.00  0.00     0.055 C 
HETATM    4  C6  UNL     1      -3.971   3.527  13.720  1.00  0.00     0.087 C 
HETATM    5  C12 UNL     1      -4.619   4.583  12.855  1.00  0.00     0.060 C 
HETATM    6  C13 UNL     1      -3.653   5.688  12.448  1.00  0.00     0.221 C 
HETATM    7  C14 UNL     1      -4.412   6.698  11.649  1.00  0.00     0.043 C 
ENDROOT
BRANCH   4   8
HETATM    8  N2  UNL     1      -5.017   2.741  14.334  1.00  0.00    -0.363 N 
ATOM      9  H2  UNL     1      -5.979   2.930  14.052  1.00  0.00     0.162 HD
BRANCH   8  10
HETATM   10  C7  UNL     1      -4.802   1.729  15.298  1.00  0.00     0.168 C 
HETATM   11  S1  UNL     1      -4.324   0.252  14.822  1.00  0.00    -0.041 SA
BRANCH  10  12
HETATM   12  N3  UNL     1      -5.018   1.965  16.683  1.00  0.00    -0.359 N 
ATOM     13  H3  UNL     1      -4.204   1.987  17.298  1.00  0.00     0.162 HD
BRANCH  12  14
HETATM   14  C8  UNL     1      -6.319   2.175  17.272  1.00  0.00     0.021 C 
HETATM   15  C9  UNL     1      -6.894   3.526  16.869  1.00  0.00     0.037 C 
HETATM   16  C10 UNL     1      -7.318   1.094  16.919  1.00  0.00     0.037 C 
HETATM   17  C11 UNL     1      -6.170   2.166  18.786  1.00  0.00     0.037 C 
ENDBRANCH  12  14
ENDBRANCH  10  12
ENDBRANCH   8  10
ENDBRANCH   4   8
BRANCH   1  18
HETATM   18  C2  UNL     1      -2.550   7.512  13.604  1.00  0.00     0.215 C 
HETATM   19  C1  UNL     1      -2.618   8.091  15.021  1.00  0.00     0.042 C 
HETATM   20  C3  UNL     1      -1.083   7.531  13.204  1.00  0.00     0.042 C 
ENDBRANCH   1  18
TORSDOF 5
ENDMDL
MODEL 2
REMARK VINA RESULT: -6.172244973      1.056      1.685
REMARK  5 active torsions:
REMARK  status: ('A' for Active; 'I' for Inactive)
REMARK    1  A    between atoms: C2_2  and  N1_4 
REMARK    2  A    between atoms: C6_7  and  N2_8 
REMARK    3  A    between atoms: N2_8  and  C7_10 
REMARK    4  A    between atoms: C7_10  and  N3_12 
REMARK    5  A    between atoms: N3_12  and  C8_14 
ROOT
HETATM    1  N1  UNL     1      -2.768   6.458  13.462  1.00  0.00     0.096 N 
HETATM    2  C4  UNL     1      -3.491   6.623  14.683  1.00  0.00     0.275 C 
HETATM    3  C5  UNL     1      -4.437   5.416  14.801  1.00  0.00     0.055 C 
HETATM    4  C6  UNL     1      -3.651   4.152  14.802  1.00  0.00     0.087 C 
HETATM    5  C12 UNL     1      -2.570   4.118  13.747  1.00  0.00     0.060 C 
HETATM    6  C13 UNL     1      -1.796   5.426  13.651  1.00  0.00     0.221 C 
HETATM    7  C14 UNL     1      -0.799   5.296  12.544  1.00  0.00     0.043 C 
ENDROOT
BRANCH   4   8
HETATM    8  N2  UNL     1      -4.538   3.034  14.578  1.00  0.00    -0.363 N 
ATOM      9  H2  UNL     1      -5.141   3.065  13.755  1.00  0.00     0.162 HD
BRANCH   8  10
HETATM   10  C7  UNL     1      -4.631   1.899  15.417  1.00  0.00     0.168 C 
HETATM   11  S1  UNL     1      -4.397   0.418  14.794  1.00  0.00    -0.041 SA
BRANCH  10  12
HETATM   12  N3  UNL     1      -4.948   2.020  16.797  1.00  0.00    -0.359 N 
ATOM     13  H3  UNL     1      -4.181   1.995  17.469  1.00  0.00     0.162 HD
BRANCH  12  14
HETATM   14  C8  UNL     1      -6.290   2.175  17.305  1.00  0.00     0.021 C 
HETATM   15  C9  UNL     1      -6.908   3.485  16.836  1.00  0.00     0.037 C 
HETATM   16  C10 UNL     1      -7.210   1.036  16.922  1.00  0.00     0.037 C 
HETATM   17  C11 UNL     1      -6.229   2.206  18.825  1.00  0.00     0.037 C 
ENDBRANCH  12  14
ENDBRANCH  10  12
ENDBRANCH   8  10
ENDBRANCH   4   8
BRANCH   1  18
HETATM   18  C2  UNL     1      -2.300   7.662  12.861  1.00  0.00     0.215 C 
HETATM   19  C1  UNL     1      -3.303   8.048  11.768  1.00  0.00     0.042 C 
HETATM   20  C3  UNL     1      -2.266   8.825  13.841  1.00  0.00     0.042 C 
ENDBRANCH   1  18
TORSDOF 5
ENDMDL
MODEL 3
REMARK VINA RESULT: -6.097727216      1.043      1.955
REMARK  5 active torsions:
REMARK  status: ('A' for Active; 'I' for Inactive)
REMARK    1  A    between atoms: C2_2  and  N1_4 
REMARK    2  A    between atoms: C6_7  and  N2_8 
REMARK    3  A    between atoms: N2_8  and  C7_10 
REMARK    4  A    between atoms: C7_10  and  N3_12 
REMARK    5  A    between atoms: N3_12  and  C8_14 
ROOT
HETATM    1  N1  UNL     1      -2.852   6.437  13.495  1.00  0.00     0.096 N 
HETATM    2  C4  UNL     1      -3.596   6.611  14.702  1.00  0.00     0.275 C 
HETATM    3  C5  UNL     1      -4.536   5.399  14.817  1.00  0.00     0.055 C 
HETATM    4  C6  UNL     1      -3.743   4.141  14.844  1.00  0.00     0.087 C 
HETATM    5  C12 UNL     1      -2.645   4.101  13.808  1.00  0.00     0.060 C 
HETATM    6  C13 UNL     1      -1.877   5.413  13.711  1.00  0.00     0.221 C 
HETATM    7  C14 UNL     1      -0.861   5.278  12.622  1.00  0.00     0.043 C 
ENDROOT
BRANCH   4   8
HETATM    8  N2  UNL     1      -4.620   3.015  14.618  1.00  0.00    -0.363 N 
ATOM      9  H2  UNL     1      -5.256   3.063  13.822  1.00  0.00     0.162 HD
BRANCH   8  10
HETATM   10  C7  UNL     1      -4.659   1.850  15.420  1.00  0.00     0.168 C 
HETATM   11  S1  UNL     1      -4.388   0.399  14.745  1.00  0.00    -0.041 SA
BRANCH  10  12
HETATM   12  N3  UNL     1      -4.954   1.915  16.809  1.00  0.00    -0.359 N 
ATOM     13  H3  UNL     1      -4.190   1.768  17.469  1.00  0.00     0.162 HD
BRANCH  12  14
HETATM   14  C8  UNL     1      -6.270   2.176  17.342  1.00  0.00     0.021 C 
HETATM   15  C9  UNL     1      -6.245   2.240  18.863  1.00  0.00     0.037 C 
HETATM   16  C10 UNL     1      -6.890   3.450  16.810  1.00  0.00     0.037 C 
HETATM   17  C11 UNL     1      -7.188   1.032  16.939  1.00  0.00     0.037 C 
ENDBRANCH  12  14
ENDBRANCH  10  12
ENDBRANCH   8  10
ENDBRANCH   4   8
BRANCH   1  18
HETATM   18  C2  UNL     1      -2.381   7.638  12.888  1.00  0.00     0.215 C 
HETATM   19  C1  UNL     1      -3.357   7.994  11.762  1.00  0.00     0.042 C 
HETATM   20  C3  UNL     1      -2.390   8.816  13.851  1.00  0.00     0.042 C 
ENDBRANCH   1  18
TORSDOF 5
ENDMDL
MODEL 4
REMARK VINA RESULT: -6.062361928      1.620      2.162
REMARK  5 active torsions:
REMARK  status: ('A' for Active; 'I' for Inactive)
REMARK    1  A    between atoms: C2_2  and  N1_4 
REMARK    2  A    between atoms: C6_7  and  N2_8 
REMARK    3  A    between atoms: N2_8  and  C7_10 
REMARK    4  A    between atoms: C7_10  and  N3_12 
REMARK    5  A    between atoms: N3_12  and  C8_14 
ROOT
HETATM    1  N1  UNL     1      -4.551   5.591  11.809  1.00  0.00     0.096 N 
HETATM    2  C4  UNL     1      -4.432   5.949  13.186  1.00  0.00     0.275 C 
HETATM    3  C5  UNL     1      -5.084   4.814  13.994  1.00  0.00     0.055 C 
HETATM    4  C6  UNL     1      -4.398   3.526  13.707  1.00  0.00     0.087 C 
HETATM    5  C12 UNL     1      -4.134   3.302  12.237  1.00  0.00     0.060 C 
HETATM    6  C13 UNL     1      -3.611   4.548  11.534  1.00  0.00     0.221 C 
HETATM    7  C14 UNL     1      -3.442   4.226  10.083  1.00  0.00     0.043 C 
ENDROOT
BRANCH   4   8
HETATM    8  N2  UNL     1      -5.205   2.431  14.195  1.00  0.00    -0.363 N 
ATOM      9  H2  UNL     1      -6.082   2.238  13.711  1.00  0.00     0.162 HD
BRANCH   8  10
HETATM   10  C7  UNL     1      -4.866   1.607  15.294  1.00  0.00     0.168 C 
HETATM   11  S1  UNL     1      -4.280   0.116  15.031  1.00  0.00    -0.041 SA
BRANCH  10  12
HETATM   12  N3  UNL     1      -5.049   2.045  16.633  1.00  0.00    -0.359 N 
ATOM     13  H3  UNL     1      -4.217   2.247  17.189  1.00  0.00     0.162 HD
BRANCH  12  14
HETATM   14  C8  UNL     1      -6.339   2.221  17.255  1.00  0.00     0.021 C 
HETATM   15  C9  UNL     1      -6.923   3.590  16.934  1.00  0.00     0.037 C 
HETATM   16  C10 UNL     1      -7.342   1.158  16.863  1.00  0.00     0.037 C 
HETATM   17  C11 UNL     1      -6.163   2.132  18.764  1.00  0.00     0.037 C 
ENDBRANCH  12  14
ENDBRANCH  10  12
ENDBRANCH   8  10
ENDBRANCH   4   8
BRANCH   1  18
HETATM   18  C2  UNL     1      -4.568   6.681  10.892  1.00  0.00     0.215 C 
HETATM   19  C1  UNL     1      -6.004   7.212  10.840  1.00  0.00     0.042 C 
HETATM   20  C3  UNL     1      -3.699   7.842  11.356  1.00  0.00     0.042 C 
ENDBRANCH   1  18
TORSDOF 5
ENDMDL
MODEL 5
REMARK VINA RESULT: -6.016642987      2.379      6.425
REMARK  5 active torsions:
REMARK  status: ('A' for Active; 'I' for Inactive)
REMARK    1  A    between atoms: C2_2  and  N1_4 
REMARK    2  A    between atoms: C6_7  and  N2_8 
REMARK    3  A    between atoms: N2_8  and  C7_10 
REMARK    4  A    between atoms: C7_10  and  N3_12 
REMARK    5  A    between atoms: N3_12  and  C8_14 
ROOT
HETATM    1  N1  UNL     1      -5.646   2.491  16.427  1.00  0.00     0.096 N 
HETATM    2  C4  UNL     1      -6.644   3.412  15.982  1.00  0.00     0.275 C 
HETATM    3  C5  UNL     1      -5.900   4.681  15.531  1.00  0.00     0.055 C 
HETATM    4  C6  UNL     1      -4.943   4.349  14.441  1.00  0.00     0.087 C 
HETATM    5  C12 UNL     1      -4.136   3.101  14.712  1.00  0.00     0.060 C 
HETATM    6  C13 UNL     1      -4.977   1.964  15.277  1.00  0.00     0.221 C 
HETATM    7  C14 UNL     1      -4.069   0.809  15.557  1.00  0.00     0.043 C 
ENDROOT
BRANCH   4   8
HETATM    8  N2  UNL     1      -4.026   5.450  14.255  1.00  0.00    -0.363 N 
ATOM      9  H2  UNL     1      -3.564   5.826  15.083  1.00  0.00     0.162 HD
BRANCH   8  10
HETATM   10  C7  UNL     1      -3.723   6.043  13.007  1.00  0.00     0.168 C 
HETATM   11  S1  UNL     1      -2.839   7.404  12.957  1.00  0.00    -0.041 SA
BRANCH  10  12
HETATM   12  N3  UNL     1      -4.195   5.488  11.787  1.00  0.00    -0.359 N 
ATOM     13  H3  UNL     1      -5.090   5.820  11.424  1.00  0.00     0.162 HD
BRANCH  12  14
HETATM   14  C8  UNL     1      -3.486   4.485  11.030  1.00  0.00     0.021 C 
HETATM   15  C9  UNL     1      -3.249   4.941   9.597  1.00  0.00     0.037 C 
HETATM   16  C10 UNL     1      -2.159   4.098  11.645  1.00  0.00     0.037 C 
HETATM   17  C11 UNL     1      -4.339   3.225  10.982  1.00  0.00     0.037 C 
ENDBRANCH  12  14
ENDBRANCH  10  12
ENDBRANCH   8  10
ENDBRANCH   4   8
BRANCH   1  18
HETATM   18  C2  UNL     1      -6.081   1.538  17.393  1.00  0.00     0.215 C 
HETATM   19  C1  UNL     1      -6.252   2.282  18.722  1.00  0.00     0.042 C 
HETATM   20  C3  UNL     1      -7.442   0.948  17.055  1.00  0.00     0.042 C 
ENDBRANCH   1  18
TORSDOF 5
ENDMDL
