MODEL 1
REMARK VINA RESULT: -7.475498809      0.000      0.000
REMARK  7 active torsions:
REMARK  status: ('A' for Active; 'I' for Inactive)
REMARK    1  A    between atoms: O1_2  and  C2_3 
REMARK    2  A    between atoms: C2_3  and  C3_5 
REMARK    3  A    between atoms: C6_8  and  O3_9 
REMARK    4  A    between atoms: C11_15  and  O4_16 
REMARK    5  A    between atoms: O4_16  and  C12_17 
REMARK    6  A    between atoms: C23_30  and  O7_31 
REMARK    7  A    between atoms: C25_34  and  O8_35 
ROOT
HETATM    1  C3  UNL     1       3.677  -5.800 -12.474  1.00  0.00     0.174 C 
HETATM    2  C4  UNL     1       2.973  -4.692 -11.756  1.00  0.00     0.054 C 
HETATM    3  C5  UNL     1       3.308  -3.305 -12.072  1.00  0.00     0.036 C 
HETATM    4  C6  UNL     1       4.673  -2.837 -11.905  1.00  0.00     0.132 C 
HETATM    5  C7  UNL     1       5.863  -3.620 -12.255  1.00  0.00     0.039 C 
HETATM    6  C8  UNL     1       6.963  -2.986 -11.370  1.00  0.00     0.024 C 
HETATM    7  C9  UNL     1       5.776  -5.063 -11.694  1.00  0.00     0.139 C 
HETATM    8  C10 UNL     1       7.091  -5.547 -11.236  1.00  0.00     0.066 C 
HETATM    9  C11 UNL     1       7.508  -6.967 -11.433  1.00  0.00     0.142 C 
HETATM   10  C14 UNL     1       8.745  -7.072 -12.352  1.00  0.00    -0.021 C 
HETATM   11  C15 UNL     1       9.928  -6.350 -11.785  1.00  0.00     0.017 C 
HETATM   12  C16 UNL     1       9.141  -8.552 -12.274  1.00  0.00     0.017 C 
HETATM   13  C17 UNL     1       8.454  -6.818 -13.780  1.00  0.00     0.013 C 
HETATM   14  C18 UNL     1       9.050  -5.594 -14.395  1.00  0.00     0.027 C 
HETATM   15  C19 UNL     1       7.856  -4.804 -14.963  1.00  0.00     0.168 C 
HETATM   16  O6  UNL     1       6.952  -4.781 -13.943  1.00  0.00    -0.380 OA
HETATM   17  C20 UNL     1       6.298  -3.613 -13.698  1.00  0.00     0.071 C 
HETATM   18  C21 UNL     1       7.387  -2.517 -13.791  1.00  0.00     0.047 C 
HETATM   19  C22 UNL     1       5.293  -3.326 -14.735  1.00  0.00     0.070 C 
HETATM   20  C23 UNL     1       4.573  -4.359 -15.441  1.00  0.00     0.123 C 
HETATM   21  C24 UNL     1       4.296  -5.693 -14.909  1.00  0.00     0.067 C 
HETATM   22  C25 UNL     1       3.169  -5.829 -13.934  1.00  0.00     0.165 C 
HETATM   23  O9  UNL     1       5.020  -5.801 -12.510  1.00  0.00    -0.361 OA
ENDROOT
BRANCH   1  24
HETATM   24  C2  UNL     1       3.192  -7.020 -11.774  1.00  0.00     0.296 C 
HETATM   25  O2  UNL     1       2.049  -7.421 -11.943  1.00  0.00    -0.262 OA
BRANCH  24  26
HETATM   26  O1  UNL     1       4.036  -7.705 -10.927  1.00  0.00    -0.324 OA
HETATM   27  C1  UNL     1       3.985  -9.136 -10.803  1.00  0.00     0.213 C 
ENDBRANCH  24  26
ENDBRANCH   1  24
BRANCH  22  28
HETATM   28  O8  UNL     1       2.086  -5.038 -14.161  1.00  0.00    -0.392 OA
ATOM     29  H8  UNL     1       1.273  -5.516 -14.277  1.00  0.00     0.210 HD
ENDBRANCH  22  28
BRANCH   4  30
HETATM   30  O3  UNL     1       4.787  -2.449 -10.531  1.00  0.00    -0.395 OA
ATOM     31  H3  UNL     1       5.381  -1.708 -10.520  1.00  0.00     0.210 HD
ENDBRANCH   4  30
BRANCH  20  32
HETATM   32  O7  UNL     1       3.303  -3.817 -15.802  1.00  0.00    -0.395 OA
ATOM     33  H7  UNL     1       2.658  -4.199 -15.218  1.00  0.00     0.210 HD
ENDBRANCH  20  32
BRANCH   9  34
HETATM   34  O4  UNL     1       8.007  -7.530 -10.218  1.00  0.00    -0.315 OA
BRANCH  34  35
HETATM   35  C12 UNL     1       7.283  -8.249  -9.304  1.00  0.00     0.255 C 
HETATM   36  C13 UNL     1       6.569  -7.604  -8.158  1.00  0.00     0.126 C 
HETATM   37  O5  UNL     1       7.230  -9.485  -9.447  1.00  0.00    -0.266 OA
ENDBRANCH  34  35
ENDBRANCH   9  34
TORSDOF 7
ENDMDL
MODEL 2
REMARK VINA RESULT: -7.047357538      1.447      1.834
REMARK  7 active torsions:
REMARK  status: ('A' for Active; 'I' for Inactive)
REMARK    1  A    between atoms: O1_2  and  C2_3 
REMARK    2  A    between atoms: C2_3  and  C3_5 
REMARK    3  A    between atoms: C6_8  and  O3_9 
REMARK    4  A    between atoms: C11_15  and  O4_16 
REMARK    5  A    between atoms: O4_16  and  C12_17 
REMARK    6  A    between atoms: C23_30  and  O7_31 
REMARK    7  A    between atoms: C25_34  and  O8_35 
ROOT
HETATM    1  C3  UNL     1       3.102  -5.372 -12.411  1.00  0.00     0.174 C 
HETATM    2  C4  UNL     1       3.009  -3.983 -11.861  1.00  0.00     0.054 C 
HETATM    3  C5  UNL     1       3.898  -2.945 -12.380  1.00  0.00     0.036 C 
HETATM    4  C6  UNL     1       5.337  -3.117 -12.291  1.00  0.00     0.132 C 
HETATM    5  C7  UNL     1       6.033  -4.386 -12.527  1.00  0.00     0.039 C 
HETATM    6  C8  UNL     1       7.359  -4.200 -11.750  1.00  0.00     0.024 C 
HETATM    7  C9  UNL     1       5.360  -5.553 -11.759  1.00  0.00     0.139 C 
HETATM    8  C10 UNL     1       6.356  -6.507 -11.240  1.00  0.00     0.066 C 
HETATM    9  C11 UNL     1       6.090  -7.976 -11.227  1.00  0.00     0.142 C 
HETATM   10  C14 UNL     1       7.087  -8.740 -12.126  1.00  0.00    -0.021 C 
HETATM   11  C15 UNL     1       8.504  -8.555 -11.676  1.00  0.00     0.017 C 
HETATM   12  C16 UNL     1       6.796 -10.217 -11.831  1.00  0.00     0.017 C 
HETATM   13  C17 UNL     1       6.839  -8.572 -13.574  1.00  0.00     0.013 C 
HETATM   14  C18 UNL     1       7.868  -7.834 -14.365  1.00  0.00     0.027 C 
HETATM   15  C19 UNL     1       7.107  -6.676 -15.039  1.00  0.00     0.168 C 
HETATM   16  O6  UNL     1       6.380  -6.120 -14.030  1.00  0.00    -0.380 OA
HETATM   17  C20 UNL     1       6.325  -4.762 -13.957  1.00  0.00     0.071 C 
HETATM   18  C21 UNL     1       7.776  -4.289 -14.216  1.00  0.00     0.047 C 
HETATM   19  C22 UNL     1       5.480  -4.195 -15.020  1.00  0.00     0.070 C 
HETATM   20  C23 UNL     1       4.331  -4.881 -15.563  1.00  0.00     0.123 C 
HETATM   21  C24 UNL     1       3.533  -5.870 -14.838  1.00  0.00     0.067 C 
HETATM   22  C25 UNL     1       2.532  -5.361 -13.849  1.00  0.00     0.165 C 
HETATM   23  O9  UNL     1       4.301  -5.976 -12.453  1.00  0.00    -0.361 OA
ENDROOT
BRANCH   1  24
HETATM   24  C2  UNL     1       2.179  -6.145 -11.537  1.00  0.00     0.296 C 
HETATM   25  O2  UNL     1       2.546  -6.539 -10.439  1.00  0.00    -0.262 OA
BRANCH  24  26
HETATM   26  O1  UNL     1       0.899  -6.423 -11.967  1.00  0.00    -0.324 OA
HETATM   27  C1  UNL     1      -0.088  -6.985 -11.088  1.00  0.00     0.213 C 
ENDBRANCH  24  26
ENDBRANCH   1  24
BRANCH  22  28
HETATM   28  O8  UNL     1       1.895  -4.208 -14.186  1.00  0.00    -0.392 OA
ATOM     29  H8  UNL     1       1.780  -4.087 -15.121  1.00  0.00     0.210 HD
ENDBRANCH  22  28
BRANCH   4  30
HETATM   30  O3  UNL     1       5.706  -2.645 -10.990  1.00  0.00    -0.395 OA
ATOM     31  H3  UNL     1       6.643  -2.786 -10.920  1.00  0.00     0.210 HD
ENDBRANCH   4  30
BRANCH  20  32
HETATM   32  O7  UNL     1       3.407  -3.882 -15.994  1.00  0.00    -0.395 OA
ATOM     33  H7  UNL     1       2.610  -4.329 -16.253  1.00  0.00     0.210 HD
ENDBRANCH  20  32
BRANCH   9  34
HETATM   34  O4  UNL     1       6.374  -8.540  -9.944  1.00  0.00    -0.315 OA
BRANCH  34  35
HETATM   35  C12 UNL     1       6.101  -7.964  -8.731  1.00  0.00     0.255 C 
HETATM   36  C13 UNL     1       7.007  -8.112  -7.549  1.00  0.00     0.126 C 
HETATM   37  O5  UNL     1       5.055  -7.298  -8.627  1.00  0.00    -0.266 OA
ENDBRANCH  34  35
ENDBRANCH   9  34
TORSDOF 7
ENDMDL
MODEL 3
REMARK VINA RESULT: -6.815347027      1.941      4.889
REMARK  7 active torsions:
REMARK  status: ('A' for Active; 'I' for Inactive)
REMARK    1  A    between atoms: O1_2  and  C2_3 
REMARK    2  A    between atoms: C2_3  and  C3_5 
REMARK    3  A    between atoms: C6_8  and  O3_9 
REMARK    4  A    between atoms: C11_15  and  O4_16 
REMARK    5  A    between atoms: O4_16  and  C12_17 
REMARK    6  A    between atoms: C23_30  and  O7_31 
REMARK    7  A    between atoms: C25_34  and  O8_35 
ROOT
HETATM    1  C3  UNL     1       4.813  -5.092 -15.772  1.00  0.00     0.174 C 
HETATM    2  C4  UNL     1       4.585  -3.614 -15.817  1.00  0.00     0.054 C 
HETATM    3  C5  UNL     1       5.365  -2.739 -14.944  1.00  0.00     0.036 C 
HETATM    4  C6  UNL     1       5.308  -2.921 -13.504  1.00  0.00     0.132 C 
HETATM    5  C7  UNL     1       5.285  -4.228 -12.837  1.00  0.00     0.039 C 
HETATM    6  C8  UNL     1       4.634  -3.904 -11.471  1.00  0.00     0.024 C 
HETATM    7  C9  UNL     1       4.244  -5.176 -13.485  1.00  0.00     0.139 C 
HETATM    8  C10 UNL     1       3.572  -6.015 -12.476  1.00  0.00     0.066 C 
HETATM    9  C11 UNL     1       3.217  -7.437 -12.760  1.00  0.00     0.142 C 
HETATM   10  C14 UNL     1       3.967  -8.406 -11.820  1.00  0.00    -0.021 C 
HETATM   11  C15 UNL     1       3.638  -8.159 -10.380  1.00  0.00     0.017 C 
HETATM   12  C16 UNL     1       3.335  -9.772 -12.114  1.00  0.00     0.017 C 
HETATM   13  C17 UNL     1       5.403  -8.560 -12.141  1.00  0.00     0.013 C 
HETATM   14  C18 UNL     1       6.388  -8.042 -11.144  1.00  0.00     0.027 C 
HETATM   15  C19 UNL     1       7.267  -7.047 -11.924  1.00  0.00     0.168 C 
HETATM   16  O6  UNL     1       6.375  -6.262 -12.591  1.00  0.00    -0.380 OA
HETATM   17  C20 UNL     1       6.606  -4.921 -12.624  1.00  0.00     0.071 C 
HETATM   18  C21 UNL     1       7.034  -4.553 -11.182  1.00  0.00     0.047 C 
HETATM   19  C22 UNL     1       7.729  -4.586 -13.516  1.00  0.00     0.070 C 
HETATM   20  C23 UNL     1       8.049  -5.348 -14.700  1.00  0.00     0.123 C 
HETATM   21  C24 UNL     1       7.083  -6.130 -15.472  1.00  0.00     0.067 C 
HETATM   22  C25 UNL     1       6.187  -5.389 -16.414  1.00  0.00     0.165 C 
HETATM   23  O9  UNL     1       4.774  -5.719 -14.583  1.00  0.00    -0.361 OA
ENDROOT
BRANCH   1  24
HETATM   24  C2  UNL     1       3.745  -5.627 -16.657  1.00  0.00     0.296 C 
HETATM   25  O2  UNL     1       2.689  -6.028 -16.188  1.00  0.00    -0.262 OA
BRANCH  24  26
HETATM   26  O1  UNL     1       3.945  -5.676 -18.021  1.00  0.00    -0.324 OA
HETATM   27  C1  UNL     1       2.921  -5.285 -18.950  1.00  0.00     0.213 C 
ENDBRANCH  24  26
ENDBRANCH   1  24
BRANCH  22  28
HETATM   28  O8  UNL     1       6.744  -4.325 -17.053  1.00  0.00    -0.392 OA
ATOM     29  H8  UNL     1       7.508  -3.966 -16.615  1.00  0.00     0.210 HD
ENDBRANCH  22  28
BRANCH   4  30
HETATM   30  O3  UNL     1       4.165  -2.180 -13.063  1.00  0.00    -0.395 OA
ATOM     31  H3  UNL     1       4.425  -1.762 -12.250  1.00  0.00     0.210 HD
ENDBRANCH   4  30
BRANCH  20  32
HETATM   32  O7  UNL     1       8.649  -4.449 -15.632  1.00  0.00    -0.395 OA
ATOM     33  H7  UNL     1       7.963  -3.874 -15.950  1.00  0.00     0.210 HD
ENDBRANCH  20  32
BRANCH   9  34
HETATM   34  O4  UNL     1       1.855  -7.706 -12.417  1.00  0.00    -0.315 OA
BRANCH  34  35
HETATM   35  C12 UNL     1       0.799  -7.763 -13.288  1.00  0.00     0.255 C 
HETATM   36  C13 UNL     1      -0.566  -7.264 -12.932  1.00  0.00     0.126 C 
HETATM   37  O5  UNL     1       1.002  -8.252 -14.415  1.00  0.00    -0.266 OA
ENDBRANCH  34  35
ENDBRANCH   9  34
TORSDOF 7
ENDMDL
MODEL 4
REMARK VINA RESULT: -6.797082372      1.904      4.973
REMARK  7 active torsions:
REMARK  status: ('A' for Active; 'I' for Inactive)
REMARK    1  A    between atoms: O1_2  and  C2_3 
REMARK    2  A    between atoms: C2_3  and  C3_5 
REMARK    3  A    between atoms: C6_8  and  O3_9 
REMARK    4  A    between atoms: C11_15  and  O4_16 
REMARK    5  A    between atoms: O4_16  and  C12_17 
REMARK    6  A    between atoms: C23_30  and  O7_31 
REMARK    7  A    between atoms: C25_34  and  O8_35 
ROOT
HETATM    1  C3  UNL     1       6.008  -4.678 -13.876  1.00  0.00     0.174 C 
HETATM    2  C4  UNL     1       5.443  -4.379 -15.228  1.00  0.00     0.054 C 
HETATM    3  C5  UNL     1       3.997  -4.239 -15.388  1.00  0.00     0.036 C 
HETATM    4  C6  UNL     1       3.123  -5.341 -15.029  1.00  0.00     0.132 C 
HETATM    5  C7  UNL     1       3.309  -6.193 -13.849  1.00  0.00     0.039 C 
HETATM    6  C8  UNL     1       2.558  -7.489 -14.239  1.00  0.00     0.024 C 
HETATM    7  C9  UNL     1       4.776  -6.683 -13.731  1.00  0.00     0.139 C 
HETATM    8  C10 UNL     1       4.847  -8.067 -13.230  1.00  0.00     0.066 C 
HETATM    9  C11 UNL     1       5.925  -8.499 -12.291  1.00  0.00     0.142 C 
HETATM   10  C14 UNL     1       5.345  -8.944 -10.931  1.00  0.00    -0.021 C 
HETATM   11  C15 UNL     1       4.407 -10.103 -11.071  1.00  0.00     0.017 C 
HETATM   12  C16 UNL     1       6.551  -9.533 -10.188  1.00  0.00     0.017 C 
HETATM   13  C17 UNL     1       4.872  -7.825 -10.086  1.00  0.00     0.013 C 
HETATM   14  C18 UNL     1       3.405  -7.740  -9.820  1.00  0.00     0.027 C 
HETATM   15  C19 UNL     1       2.988  -6.337 -10.302  1.00  0.00     0.168 C 
HETATM   16  O6  UNL     1       3.545  -6.228 -11.541  1.00  0.00    -0.380 OA
HETATM   17  C20 UNL     1       2.792  -5.677 -12.531  1.00  0.00     0.071 C 
HETATM   18  C21 UNL     1       1.388  -6.310 -12.367  1.00  0.00     0.047 C 
HETATM   19  C22 UNL     1       2.643  -4.222 -12.355  1.00  0.00     0.070 C 
HETATM   20  C23 UNL     1       3.660  -3.395 -11.749  1.00  0.00     0.123 C 
HETATM   21  C24 UNL     1       5.090  -3.701 -11.748  1.00  0.00     0.067 C 
HETATM   22  C25 UNL     1       5.860  -3.413 -12.999  1.00  0.00     0.165 C 
HETATM   23  O9  UNL     1       5.514  -5.716 -13.180  1.00  0.00    -0.361 OA
ENDROOT
BRANCH   1  24
HETATM   24  C2  UNL     1       7.453  -4.902 -14.153  1.00  0.00     0.296 C 
HETATM   25  O2  UNL     1       7.814  -5.408 -15.206  1.00  0.00    -0.262 OA
BRANCH  24  26
HETATM   26  O1  UNL     1       8.395  -4.537 -13.215  1.00  0.00    -0.324 OA
HETATM   27  C1  UNL     1       8.895  -5.470 -12.244  1.00  0.00     0.213 C 
ENDBRANCH  24  26
ENDBRANCH   1  24
BRANCH  22  28
HETATM   28  O8  UNL     1       5.485  -2.301 -13.687  1.00  0.00    -0.392 OA
ATOM     29  H8  UNL     1       6.191  -1.683 -13.839  1.00  0.00     0.210 HD
ENDBRANCH  22  28
BRANCH   4  30
HETATM   30  O3  UNL     1       3.070  -6.189 -16.182  1.00  0.00    -0.395 OA
ATOM     31  H3  UNL     1       2.358  -6.798 -16.023  1.00  0.00     0.210 HD
ENDBRANCH   4  30
BRANCH  20  32
HETATM   32  O7  UNL     1       3.544  -2.094 -12.326  1.00  0.00    -0.395 OA
ATOM     33  H7  UNL     1       2.665  -2.020 -12.678  1.00  0.00     0.210 HD
ENDBRANCH  20  32
BRANCH   9  34
HETATM   34  O4  UNL     1       6.548  -9.704 -12.742  1.00  0.00    -0.315 OA
BRANCH  34  35
HETATM   35  C12 UNL     1       7.448  -9.812 -13.770  1.00  0.00     0.255 C 
HETATM   36  C13 UNL     1       8.428  -8.730 -14.098  1.00  0.00     0.126 C 
HETATM   37  O5  UNL     1       7.434 -10.857 -14.446  1.00  0.00    -0.266 OA
ENDBRANCH  34  35
ENDBRANCH   9  34
TORSDOF 7
ENDMDL
MODEL 5
REMARK VINA RESULT: -6.756500462      2.280      5.423
REMARK  7 active torsions:
REMARK  status: ('A' for Active; 'I' for Inactive)
REMARK    1  A    between atoms: O1_2  and  C2_3 
REMARK    2  A    between atoms: C2_3  and  C3_5 
REMARK    3  A    between atoms: C6_8  and  O3_9 
REMARK    4  A    between atoms: C11_15  and  O4_16 
REMARK    5  A    between atoms: O4_16  and  C12_17 
REMARK    6  A    between atoms: C23_30  and  O7_31 
REMARK    7  A    between atoms: C25_34  and  O8_35 
ROOT
HETATM    1  C3  UNL     1       3.600  -5.279 -13.527  1.00  0.00     0.174 C 
HETATM    2  C4  UNL     1       3.942  -6.448 -12.659  1.00  0.00     0.054 C 
HETATM    3  C5  UNL     1       5.127  -6.386 -11.805  1.00  0.00     0.036 C 
HETATM    4  C6  UNL     1       6.434  -6.171 -12.401  1.00  0.00     0.132 C 
HETATM    5  C7  UNL     1       6.695  -5.242 -13.506  1.00  0.00     0.039 C 
HETATM    6  C8  UNL     1       7.992  -5.809 -14.132  1.00  0.00     0.024 C 
HETATM    7  C9  UNL     1       5.667  -5.423 -14.652  1.00  0.00     0.139 C 
HETATM    8  C10 UNL     1       6.294  -5.254 -15.976  1.00  0.00     0.066 C 
HETATM    9  C11 UNL     1       5.573  -4.579 -17.096  1.00  0.00     0.142 C 
HETATM   10  C14 UNL     1       6.296  -3.288 -17.537  1.00  0.00    -0.021 C 
HETATM   11  C15 UNL     1       7.687  -3.560 -18.022  1.00  0.00     0.017 C 
HETATM   12  C16 UNL     1       5.542  -2.854 -18.801  1.00  0.00     0.017 C 
HETATM   13  C17 UNL     1       6.148  -2.164 -16.587  1.00  0.00     0.013 C 
HETATM   14  C18 UNL     1       7.378  -1.700 -15.877  1.00  0.00     0.027 C 
HETATM   15  C19 UNL     1       7.042  -1.803 -14.377  1.00  0.00     0.168 C 
HETATM   16  O6  UNL     1       6.506  -3.048 -14.237  1.00  0.00    -0.380 OA
HETATM   17  C20 UNL     1       6.885  -3.788 -13.160  1.00  0.00     0.071 C 
HETATM   18  C21 UNL     1       8.417  -3.589 -13.057  1.00  0.00     0.047 C 
HETATM   19  C22 UNL     1       6.290  -3.277 -11.914  1.00  0.00     0.070 C 
HETATM   20  C23 UNL     1       4.995  -2.639 -11.863  1.00  0.00     0.123 C 
HETATM   21  C24 UNL     1       3.907  -2.888 -12.808  1.00  0.00     0.067 C 
HETATM   22  C25 UNL     1       3.098  -4.133 -12.619  1.00  0.00     0.165 C 
HETATM   23  O9  UNL     1       4.545  -4.772 -14.337  1.00  0.00    -0.361 OA
ENDROOT
BRANCH   1  24
HETATM   24  C2  UNL     1       2.459  -5.781 -14.339  1.00  0.00     0.296 C 
HETATM   25  O2  UNL     1       2.646  -6.256 -15.450  1.00  0.00    -0.262 OA
BRANCH  24  26
HETATM   26  O1  UNL     1       1.177  -5.709 -13.836  1.00  0.00    -0.324 OA
HETATM   27  C1  UNL     1       0.475  -6.879 -13.384  1.00  0.00     0.213 C 
ENDBRANCH  24  26
ENDBRANCH   1  24
BRANCH  22  28
HETATM   28  O8  UNL     1       2.870  -4.504 -11.330  1.00  0.00    -0.392 OA
ATOM     29  H8  UNL     1       3.472  -5.163 -11.004  1.00  0.00     0.210 HD
ENDBRANCH  22  28
BRANCH   4  30
HETATM   30  O3  UNL     1       6.903  -7.466 -12.792  1.00  0.00    -0.395 OA
ATOM     31  H3  UNL     1       7.526  -7.315 -13.493  1.00  0.00     0.210 HD
ENDBRANCH   4  30
BRANCH  20  32
HETATM   32  O7  UNL     1       4.449  -2.895 -10.570  1.00  0.00    -0.395 OA
ATOM     33  H7  UNL     1       4.105  -2.072 -10.242  1.00  0.00     0.210 HD
ENDBRANCH  20  32
BRANCH   9  34
HETATM   34  O4  UNL     1       5.632  -5.361 -18.291  1.00  0.00    -0.315 OA
BRANCH  34  35
HETATM   35  C12 UNL     1       4.572  -5.960 -18.917  1.00  0.00     0.255 C 
HETATM   36  C13 UNL     1       3.165  -5.474 -18.762  1.00  0.00     0.126 C 
HETATM   37  O5  UNL     1       4.806  -6.948 -19.640  1.00  0.00    -0.266 OA
ENDBRANCH  34  35
ENDBRANCH   9  34
TORSDOF 7
ENDMDL
