MODEL 1
REMARK VINA RESULT: -8.871360317      0.000      0.000
REMARK  5 active torsions:
REMARK  status: ('A' for Active; 'I' for Inactive)
REMARK    1  A    between atoms: C9_11  and  O3_13 
REMARK    2  A    between atoms: C11_15  and  O4_16 
REMARK    3  A    between atoms: C11_15  and  O5_18 
REMARK    4  A    between atoms: O5_18  and  C12_19 
REMARK    5  A    between atoms: C22_33  and  O10_34 
ROOT
HETATM    1  C1  UNL     1       3.939  -2.708 -12.416  1.00  0.00     0.020 C 
HETATM    2  C2  UNL     1       4.770  -3.765 -12.265  1.00  0.00    -0.018 C 
HETATM    3  C3  UNL     1       5.844  -3.595 -11.302  1.00  0.00     0.028 C 
HETATM    4  C4  UNL     1       7.115  -4.278 -11.442  1.00  0.00     0.042 C 
HETATM    5  C5  UNL     1       7.616  -3.135 -12.357  1.00  0.00     0.130 C 
HETATM    6  O1  UNL     1       7.656  -3.461 -13.617  1.00  0.00    -0.350 OA
HETATM    7  C6  UNL     1       6.827  -3.099 -14.603  1.00  0.00     0.161 C 
HETATM    8  C7  UNL     1       7.441  -3.710 -15.884  1.00  0.00     0.078 C 
HETATM    9  C8  UNL     1       6.966  -1.582 -14.809  1.00  0.00     0.078 C 
HETATM   10  O2  UNL     1       5.502  -3.347 -14.505  1.00  0.00    -0.315 OA
HETATM   11  C9  UNL     1       4.975  -4.567 -14.568  1.00  0.00     0.223 C 
HETATM   12  C10 UNL     1       3.802  -4.514 -15.521  1.00  0.00     0.085 C 
HETATM   13  C11 UNL     1       4.496  -4.937 -13.119  1.00  0.00     0.249 C 
HETATM   14  C23 UNL     1       6.577  -2.296 -11.733  1.00  0.00     0.019 C 
HETATM   15  C24 UNL     1       7.036  -1.582 -10.468  1.00  0.00     0.013 C 
ENDROOT
BRANCH  13  16
HETATM   16  O4  UNL     1       5.178  -6.101 -12.759  1.00  0.00    -0.357 OA
ATOM     17  H4  UNL     1       4.728  -6.911 -12.971  1.00  0.00     0.213 HD
ENDBRANCH  13  16
BRANCH  13  18
HETATM   18  O5  UNL     1       3.183  -5.223 -13.210  1.00  0.00    -0.282 OA
BRANCH  18  19
HETATM   19  C12 UNL     1       2.632  -6.267 -12.523  1.00  0.00     0.345 C 
HETATM   20  O6  UNL     1       2.831  -6.082 -11.157  1.00  0.00    -0.168 OA
HETATM   21  O7  UNL     1       1.803  -6.213 -10.407  1.00  0.00    -0.231 OA
HETATM   22  C13 UNL     1       1.621  -7.343  -9.669  1.00  0.00     0.156 C 
HETATM   23  C14 UNL     1       1.449  -6.832  -8.213  1.00  0.00     0.042 C 
HETATM   24  C15 UNL     1       0.362  -8.114  -9.919  1.00  0.00     0.035 C 
HETATM   25  C16 UNL     1       0.442  -9.174 -11.022  1.00  0.00     0.010 C 
HETATM   26  C17 UNL     1       1.284  -8.604 -12.067  1.00  0.00     0.027 C 
HETATM   27  C18 UNL     1       1.913  -9.507 -13.123  1.00  0.00     0.068 C 
HETATM   28  C20 UNL     1       0.682  -7.584 -12.956  1.00  0.00     0.098 C 
HETATM   29  C19 UNL     1       2.492  -8.246 -13.854  1.00  0.00     0.267 C 
HETATM   30  O8  UNL     1       3.154  -7.428 -13.024  1.00  0.00    -0.298 OA
HETATM   31  O9  UNL     1       1.210  -7.796 -14.265  1.00  0.00    -0.347 OA
HETATM   32  C21 UNL     1      -0.808  -7.709 -13.105  1.00  0.00     0.049 C 
HETATM   33  C22 UNL     1       1.126  -6.162 -12.714  1.00  0.00     0.248 C 
BRANCH  33  34
HETATM   34  O10 UNL     1       0.788  -5.438 -13.854  1.00  0.00    -0.384 OA
ATOM     35  H10 UNL     1      -0.130  -5.194 -13.867  1.00  0.00     0.210 HD
ENDBRANCH  33  34
ENDBRANCH  18  19
ENDBRANCH  13  18
BRANCH  11  36
HETATM   36  O3  UNL     1       5.787  -5.585 -15.045  1.00  0.00    -0.361 OA
ATOM     37  H3  UNL     1       5.362  -6.303 -15.500  1.00  0.00     0.213 HD
ENDBRANCH  11  36
TORSDOF 5
ENDMDL
MODEL 2
REMARK VINA RESULT: -8.423369100      1.720      3.287
REMARK  5 active torsions:
REMARK  status: ('A' for Active; 'I' for Inactive)
REMARK    1  A    between atoms: C9_11  and  O3_13 
REMARK    2  A    between atoms: C11_15  and  O4_16 
REMARK    3  A    between atoms: C11_15  and  O5_18 
REMARK    4  A    between atoms: O5_18  and  C12_19 
REMARK    5  A    between atoms: C22_33  and  O10_34 
ROOT
HETATM    1  C1  UNL     1       6.545  -5.613 -11.324  1.00  0.00     0.020 C 
HETATM    2  C2  UNL     1       6.018  -5.824 -12.553  1.00  0.00    -0.018 C 
HETATM    3  C3  UNL     1       6.927  -6.369 -13.547  1.00  0.00     0.028 C 
HETATM    4  C4  UNL     1       6.776  -6.088 -14.961  1.00  0.00     0.042 C 
HETATM    5  C5  UNL     1       7.594  -4.786 -14.778  1.00  0.00     0.130 C 
HETATM    6  O1  UNL     1       6.863  -3.709 -14.803  1.00  0.00    -0.350 OA
HETATM    7  C6  UNL     1       6.490  -2.925 -13.784  1.00  0.00     0.161 C 
HETATM    8  C7  UNL     1       5.727  -1.753 -14.443  1.00  0.00     0.078 C 
HETATM    9  C8  UNL     1       7.752  -2.270 -13.201  1.00  0.00     0.078 C 
HETATM   10  O2  UNL     1       5.816  -3.446 -12.735  1.00  0.00    -0.315 OA
HETATM   11  C9  UNL     1       4.559  -3.877 -12.808  1.00  0.00     0.223 C 
HETATM   12  C10 UNL     1       3.806  -3.305 -11.628  1.00  0.00     0.085 C 
HETATM   13  C11 UNL     1       4.604  -5.444 -12.731  1.00  0.00     0.249 C 
HETATM   14  C23 UNL     1       8.145  -5.407 -13.559  1.00  0.00     0.019 C 
HETATM   15  C24 UNL     1       9.395  -6.243 -13.803  1.00  0.00     0.013 C 
ENDROOT
BRANCH  13  16
HETATM   16  O4  UNL     1       4.009  -5.919 -13.902  1.00  0.00    -0.357 OA
ATOM     17  H4  UNL     1       3.976  -6.866 -13.979  1.00  0.00     0.213 HD
ENDBRANCH  13  16
BRANCH  13  18
HETATM   18  O5  UNL     1       3.832  -5.799 -11.686  1.00  0.00    -0.282 OA
BRANCH  18  19
HETATM   19  C12 UNL     1       3.085  -6.942 -11.708  1.00  0.00     0.345 C 
HETATM   20  O6  UNL     1       3.832  -7.976 -12.267  1.00  0.00    -0.168 OA
HETATM   21  O7  UNL     1       3.864  -9.076 -11.614  1.00  0.00    -0.231 OA
HETATM   22  C13 UNL     1       3.115 -10.141 -12.010  1.00  0.00     0.156 C 
HETATM   23  C14 UNL     1       4.138 -11.298 -12.169  1.00  0.00     0.042 C 
HETATM   24  C15 UNL     1       2.132 -10.679 -11.017  1.00  0.00     0.035 C 
HETATM   25  C16 UNL     1       0.741 -10.036 -11.047  1.00  0.00     0.010 C 
HETATM   26  C17 UNL     1       0.959  -8.619 -11.312  1.00  0.00     0.027 C 
HETATM   27  C18 UNL     1      -0.190  -7.745 -11.806  1.00  0.00     0.068 C 
HETATM   28  C20 UNL     1       1.433  -7.775 -10.191  1.00  0.00     0.098 C 
HETATM   29  C19 UNL     1       0.740  -6.484 -11.732  1.00  0.00     0.267 C 
HETATM   30  O8  UNL     1       1.911  -6.671 -12.357  1.00  0.00    -0.298 OA
HETATM   31  O9  UNL     1       0.792  -6.505 -10.314  1.00  0.00    -0.347 OA
HETATM   32  C21 UNL     1       1.039  -8.287  -8.834  1.00  0.00     0.049 C 
HETATM   33  C22 UNL     1       2.880  -7.352 -10.257  1.00  0.00     0.248 C 
BRANCH  33  34
HETATM   34  O10 UNL     1       3.024  -6.279  -9.380  1.00  0.00    -0.384 OA
ATOM     35  H10 UNL     1       2.205  -5.823  -9.233  1.00  0.00     0.210 HD
ENDBRANCH  33  34
ENDBRANCH  18  19
ENDBRANCH  13  18
BRANCH  11  36
HETATM   36  O3  UNL     1       3.825  -3.505 -13.924  1.00  0.00    -0.361 OA
ATOM     37  H3  UNL     1       2.983  -3.091 -13.773  1.00  0.00     0.213 HD
ENDBRANCH  11  36
TORSDOF 5
ENDMDL
MODEL 3
REMARK VINA RESULT: -8.402459891      1.633      7.177
REMARK  5 active torsions:
REMARK  status: ('A' for Active; 'I' for Inactive)
REMARK    1  A    between atoms: C9_11  and  O3_13 
REMARK    2  A    between atoms: C11_15  and  O4_16 
REMARK    3  A    between atoms: C11_15  and  O5_18 
REMARK    4  A    between atoms: O5_18  and  C12_19 
REMARK    5  A    between atoms: C22_33  and  O10_34 
ROOT
HETATM    1  C1  UNL     1       1.601  -6.157 -10.638  1.00  0.00     0.020 C 
HETATM    2  C2  UNL     1       1.898  -6.664 -11.857  1.00  0.00    -0.018 C 
HETATM    3  C3  UNL     1       0.777  -6.818 -12.769  1.00  0.00     0.028 C 
HETATM    4  C4  UNL     1       0.754  -7.849 -13.788  1.00  0.00     0.042 C 
HETATM    5  C5  UNL     1       0.179  -8.844 -12.751  1.00  0.00     0.130 C 
HETATM    6  O1  UNL     1       1.052  -9.714 -12.331  1.00  0.00    -0.350 OA
HETATM    7  C6  UNL     1       1.688  -9.763 -11.155  1.00  0.00     0.161 C 
HETATM    8  C7  UNL     1       2.511 -11.072 -11.202  1.00  0.00     0.078 C 
HETATM    9  C8  UNL     1       0.642 -10.018 -10.058  1.00  0.00     0.078 C 
HETATM   10  O2  UNL     1       2.427  -8.711 -10.736  1.00  0.00    -0.315 OA
HETATM   11  C9  UNL     1       3.579  -8.351 -11.297  1.00  0.00     0.223 C 
HETATM   12  C10 UNL     1       4.579  -8.119 -10.186  1.00  0.00     0.085 C 
HETATM   13  C11 UNL     1       3.310  -7.022 -12.088  1.00  0.00     0.249 C 
HETATM   14  C23 UNL     1      -0.269  -7.662 -11.993  1.00  0.00     0.019 C 
HETATM   15  C24 UNL     1      -1.653  -7.162 -12.388  1.00  0.00     0.013 C 
ENDROOT
BRANCH  13  16
HETATM   16  O4  UNL     1       3.643  -7.277 -13.421  1.00  0.00    -0.357 OA
ATOM     17  H4  UNL     1       4.322  -7.930 -13.546  1.00  0.00     0.213 HD
ENDBRANCH  13  16
BRANCH  13  18
HETATM   18  O5  UNL     1       4.168  -6.106 -11.602  1.00  0.00    -0.282 OA
BRANCH  18  19
HETATM   19  C12 UNL     1       4.975  -5.376 -12.428  1.00  0.00     0.345 C 
HETATM   20  O6  UNL     1       4.533  -5.504 -13.743  1.00  0.00    -0.168 OA
HETATM   21  O7  UNL     1       4.384  -4.420 -14.405  1.00  0.00    -0.231 OA
HETATM   22  C13 UNL     1       5.305  -4.040 -15.332  1.00  0.00     0.156 C 
HETATM   23  C14 UNL     1       4.485  -3.840 -16.635  1.00  0.00     0.042 C 
HETATM   24  C15 UNL     1       5.960  -2.710 -15.125  1.00  0.00     0.035 C 
HETATM   25  C16 UNL     1       7.230  -2.723 -14.267  1.00  0.00     0.010 C 
HETATM   26  C17 UNL     1       6.993  -3.702 -13.213  1.00  0.00     0.027 C 
HETATM   27  C18 UNL     1       8.163  -4.276 -12.420  1.00  0.00     0.068 C 
HETATM   28  C20 UNL     1       6.118  -3.302 -12.087  1.00  0.00     0.098 C 
HETATM   29  C19 UNL     1       7.158  -5.065 -11.510  1.00  0.00     0.267 C 
HETATM   30  O8  UNL     1       6.268  -5.771 -12.219  1.00  0.00    -0.298 OA
HETATM   31  O9  UNL     1       6.659  -3.885 -10.900  1.00  0.00    -0.347 OA
HETATM   32  C21 UNL     1       6.098  -1.822 -11.827  1.00  0.00     0.049 C 
HETATM   33  C22 UNL     1       4.738  -3.913 -12.081  1.00  0.00     0.248 C 
BRANCH  33  34
HETATM   34  O10 UNL     1       4.234  -3.752 -10.793  1.00  0.00    -0.384 OA
ATOM     35  H10 UNL     1       4.364  -2.871 -10.463  1.00  0.00     0.210 HD
ENDBRANCH  33  34
ENDBRANCH  18  19
ENDBRANCH  13  18
BRANCH  11  36
HETATM   36  O3  UNL     1       4.183  -9.264 -12.148  1.00  0.00    -0.361 OA
ATOM     37  H3  UNL     1       4.815  -9.862 -11.765  1.00  0.00     0.213 HD
ENDBRANCH  11  36
TORSDOF 5
ENDMDL
MODEL 4
REMARK VINA RESULT: -8.213529391      3.204      4.410
REMARK  5 active torsions:
REMARK  status: ('A' for Active; 'I' for Inactive)
REMARK    1  A    between atoms: C9_11  and  O3_13 
REMARK    2  A    between atoms: C11_15  and  O4_16 
REMARK    3  A    between atoms: C11_15  and  O5_18 
REMARK    4  A    between atoms: O5_18  and  C12_19 
REMARK    5  A    between atoms: C22_33  and  O10_34 
ROOT
HETATM    1  C1  UNL     1       5.604  -7.616  -9.582  1.00  0.00     0.020 C 
HETATM    2  C2  UNL     1       5.520  -8.614 -10.493  1.00  0.00    -0.018 C 
HETATM    3  C3  UNL     1       6.234  -9.835 -10.161  1.00  0.00     0.028 C 
HETATM    4  C4  UNL     1       6.775 -10.709 -11.184  1.00  0.00     0.042 C 
HETATM    5  C5  UNL     1       8.060  -9.847 -11.223  1.00  0.00     0.130 C 
HETATM    6  O1  UNL     1       8.138  -9.083 -12.274  1.00  0.00    -0.350 OA
HETATM    7  C6  UNL     1       7.951  -7.761 -12.365  1.00  0.00     0.161 C 
HETATM    8  C7  UNL     1       8.280  -7.413 -13.835  1.00  0.00     0.078 C 
HETATM    9  C8  UNL     1       9.060  -7.067 -11.559  1.00  0.00     0.078 C 
HETATM   10  O2  UNL     1       6.786  -7.208 -11.959  1.00  0.00    -0.315 OA
HETATM   11  C9  UNL     1       5.631  -7.373 -12.599  1.00  0.00     0.223 C 
HETATM   12  C10 UNL     1       4.984  -6.013 -12.739  1.00  0.00     0.085 C 
HETATM   13  C11 UNL     1       4.746  -8.320 -11.713  1.00  0.00     0.249 C 
HETATM   14  C23 UNL     1       7.693  -9.391  -9.870  1.00  0.00     0.019 C 
HETATM   15  C24 UNL     1       8.232 -10.274  -8.752  1.00  0.00     0.013 C 
ENDROOT
BRANCH  13  16
HETATM   16  O4  UNL     1       4.441  -9.433 -12.500  1.00  0.00    -0.357 OA
ATOM     17  H4  UNL     1       3.619  -9.375 -12.974  1.00  0.00     0.213 HD
ENDBRANCH  13  16
BRANCH  13  18
HETATM   18  O5  UNL     1       3.604  -7.652 -11.460  1.00  0.00    -0.282 OA
BRANCH  18  19
HETATM   19  C12 UNL     1       2.384  -8.255 -11.578  1.00  0.00     0.345 C 
HETATM   20  O6  UNL     1       2.420  -9.503 -10.961  1.00  0.00    -0.168 OA
HETATM   21  O7  UNL     1       1.471  -9.764 -10.144  1.00  0.00    -0.231 OA
HETATM   22  C13 UNL     1       0.447 -10.585 -10.507  1.00  0.00     0.156 C 
HETATM   23  C14 UNL     1       0.426 -11.687  -9.414  1.00  0.00     0.042 C 
HETATM   24  C15 UNL     1      -0.933 -10.006 -10.446  1.00  0.00     0.035 C 
HETATM   25  C16 UNL     1      -1.410  -9.297 -11.718  1.00  0.00     0.010 C 
HETATM   26  C17 UNL     1      -0.245  -8.603 -12.253  1.00  0.00     0.027 C 
HETATM   27  C18 UNL     1      -0.232  -8.129 -13.703  1.00  0.00     0.068 C 
HETATM   28  C20 UNL     1       0.171  -7.345 -11.589  1.00  0.00     0.098 C 
HETATM   29  C19 UNL     1       1.163  -7.451 -13.468  1.00  0.00     0.267 C 
HETATM   30  O8  UNL     1       2.050  -8.283 -12.904  1.00  0.00    -0.298 OA
HETATM   31  O9  UNL     1       0.626  -6.456 -12.610  1.00  0.00    -0.347 OA
HETATM   32  C21 UNL     1      -0.951  -6.619 -10.902  1.00  0.00     0.049 C 
HETATM   33  C22 UNL     1       1.415  -7.435 -10.739  1.00  0.00     0.248 C 
BRANCH  33  34
HETATM   34  O10 UNL     1       1.860  -6.130 -10.542  1.00  0.00    -0.384 OA
ATOM     35  H10 UNL     1       1.295  -5.490 -10.960  1.00  0.00     0.210 HD
ENDBRANCH  33  34
ENDBRANCH  18  19
ENDBRANCH  13  18
BRANCH  11  36
HETATM   36  O3  UNL     1       5.686  -7.886 -13.886  1.00  0.00    -0.361 OA
ATOM     37  H3  UNL     1       4.899  -7.820 -14.414  1.00  0.00     0.213 HD
ENDBRANCH  11  36
TORSDOF 5
ENDMDL
MODEL 5
REMARK VINA RESULT: -8.177283565      1.674      7.073
REMARK  5 active torsions:
REMARK  status: ('A' for Active; 'I' for Inactive)
REMARK    1  A    between atoms: C9_11  and  O3_13 
REMARK    2  A    between atoms: C11_15  and  O4_16 
REMARK    3  A    between atoms: C11_15  and  O5_18 
REMARK    4  A    between atoms: O5_18  and  C12_19 
REMARK    5  A    between atoms: C22_33  and  O10_34 
ROOT
HETATM    1  C1  UNL     1       3.499  -7.938 -13.939  1.00  0.00     0.020 C 
HETATM    2  C2  UNL     1       3.783  -7.795 -12.623  1.00  0.00    -0.018 C 
HETATM    3  C3  UNL     1       3.996  -9.027 -11.883  1.00  0.00     0.028 C 
HETATM    4  C4  UNL     1       3.692  -9.135 -10.470  1.00  0.00     0.042 C 
HETATM    5  C5  UNL     1       2.225  -9.480 -10.823  1.00  0.00     0.130 C 
HETATM    6  O1  UNL     1       1.397  -8.498 -10.608  1.00  0.00    -0.350 OA
HETATM    7  C6  UNL     1       0.807  -7.690 -11.497  1.00  0.00     0.161 C 
HETATM    8  C7  UNL     1      -0.137  -6.798 -10.656  1.00  0.00     0.078 C 
HETATM    9  C8  UNL     1      -0.145  -8.539 -12.353  1.00  0.00     0.078 C 
HETATM   10  O2  UNL     1       1.553  -6.968 -12.362  1.00  0.00    -0.315 OA
HETATM   11  C9  UNL     1       2.315  -5.940 -11.997  1.00  0.00     0.223 C 
HETATM   12  C10 UNL     1       2.043  -4.802 -12.955  1.00  0.00     0.085 C 
HETATM   13  C11 UNL     1       3.808  -6.413 -12.107  1.00  0.00     0.249 C 
HETATM   14  C23 UNL     1       2.730  -9.886 -12.148  1.00  0.00     0.019 C 
HETATM   15  C24 UNL     1       3.166 -11.344 -12.222  1.00  0.00     0.013 C 
ENDROOT
BRANCH  13  16
HETATM   16  O4  UNL     1       4.367  -6.269 -10.836  1.00  0.00    -0.357 OA
ATOM     17  H4  UNL     1       4.071  -5.506 -10.352  1.00  0.00     0.213 HD
ENDBRANCH  13  16
BRANCH  13  18
HETATM   18  O5  UNL     1       4.422  -5.554 -12.943  1.00  0.00    -0.282 OA
BRANCH  18  19
HETATM   19  C12 UNL     1       5.466  -4.778 -12.526  1.00  0.00     0.345 C 
HETATM   20  O6  UNL     1       6.557  -5.588 -12.221  1.00  0.00    -0.168 OA
HETATM   21  O7  UNL     1       7.680  -5.253 -12.734  1.00  0.00    -0.231 OA
HETATM   22  C13 UNL     1       8.630  -4.634 -11.982  1.00  0.00     0.156 C 
HETATM   23  C14 UNL     1       9.892  -5.523 -12.141  1.00  0.00     0.042 C 
HETATM   24  C15 UNL     1       9.089  -3.289 -12.452  1.00  0.00     0.035 C 
HETATM   25  C16 UNL     1       8.284  -2.094 -11.930  1.00  0.00     0.010 C 
HETATM   26  C17 UNL     1       6.893  -2.529 -11.898  1.00  0.00     0.027 C 
HETATM   27  C18 UNL     1       5.868  -1.763 -11.068  1.00  0.00     0.068 C 
HETATM   28  C20 UNL     1       6.161  -2.585 -13.185  1.00  0.00     0.098 C 
HETATM   29  C19 UNL     1       4.731  -2.695 -11.614  1.00  0.00     0.267 C 
HETATM   30  O8  UNL     1       5.029  -3.996 -11.492  1.00  0.00    -0.298 OA
HETATM   31  O9  UNL     1       4.820  -2.167 -12.928  1.00  0.00    -0.347 OA
HETATM   32  C21 UNL     1       6.681  -1.631 -14.223  1.00  0.00     0.049 C 
HETATM   33  C22 UNL     1       5.911  -3.968 -13.735  1.00  0.00     0.248 C 
BRANCH  33  34
HETATM   34  O10 UNL     1       4.903  -3.843 -14.687  1.00  0.00    -0.384 OA
ATOM     35  H10 UNL     1       4.283  -3.157 -14.468  1.00  0.00     0.210 HD
ENDBRANCH  33  34
ENDBRANCH  18  19
ENDBRANCH  13  18
BRANCH  11  36
HETATM   36  O3  UNL     1       2.105  -5.412 -10.733  1.00  0.00    -0.361 OA
ATOM     37  H3  UNL     1       2.763  -5.593 -10.071  1.00  0.00     0.213 HD
ENDBRANCH  11  36
TORSDOF 5
ENDMDL
