MODEL 1
REMARK VINA RESULT: -6.007740428      0.000      0.000
REMARK  3 active torsions:
REMARK  status: ('A' for Active; 'I' for Inactive)
REMARK    1  A    between atoms: O1_2  and  C2_3 
REMARK    2  A    between atoms: C5_6  and  C6_7 
REMARK    3  A    between atoms: N2_16  and  C13_17 
ROOT
HETATM    1  C2  UNL     1      -3.519   1.381  12.886  1.00  0.00     0.358 C 
HETATM    2  C3  UNL     1      -3.189   2.038  11.571  1.00  0.00     0.065 C 
HETATM    3  C4  UNL     1      -1.720   2.111  11.303  1.00  0.00     0.011 C 
HETATM    4  C5  UNL     1      -0.978   3.325  11.627  1.00  0.00     0.010 C 
HETATM    5  C10 UNL     1      -1.640   4.407  12.388  1.00  0.00     0.119 C 
HETATM    6  N1  UNL     1      -1.385   4.358  13.815  1.00  0.00    -0.419 N 
ATOM      7  H1  UNL     1      -0.445   4.426  14.205  1.00  0.00     0.153 HD
HETATM    8  C11 UNL     1      -2.541   4.207  14.629  1.00  0.00     0.144 C 
HETATM    9  C12 UNL     1      -2.806   2.710  14.786  1.00  0.00     0.295 C 
HETATM   10  N2  UNL     1      -3.828   2.221  13.957  1.00  0.00     0.123 N 
ENDROOT
BRANCH   4  11
HETATM   11  C6  UNL     1      -0.325   3.918  10.362  1.00  0.00    -0.046 C 
HETATM   12  C7  UNL     1       1.152   3.903  10.594  1.00  0.00     0.015 C 
HETATM   13  C8  UNL     1      -0.790   5.369  10.197  1.00  0.00     0.015 C 
HETATM   14  C9  UNL     1      -0.700   3.177   9.122  1.00  0.00     0.015 C 
ENDBRANCH   4  11
BRANCH   1  15
HETATM   15  O1  UNL     1      -4.550   0.475  12.703  1.00  0.00    -0.362 OA
HETATM   16  C1  UNL     1      -4.237  -0.593  11.894  1.00  0.00     0.204 C 
ENDBRANCH   1  15
BRANCH  10  17
HETATM   17  C13 UNL     1      -4.873   1.627  14.752  1.00  0.00     0.226 A 
HETATM   18  C14 UNL     1      -5.716   2.358  15.702  1.00  0.00     0.038 A 
HETATM   19  C15 UNL     1      -4.675   1.308  16.200  1.00  0.00     0.038 A 
ENDBRANCH  10  17
TORSDOF 3
ENDMDL
MODEL 2
REMARK VINA RESULT: -5.876440918      2.033      4.144
REMARK  3 active torsions:
REMARK  status: ('A' for Active; 'I' for Inactive)
REMARK    1  A    between atoms: O1_2  and  C2_3 
REMARK    2  A    between atoms: C5_6  and  C6_7 
REMARK    3  A    between atoms: N2_16  and  C13_17 
ROOT
HETATM    1  C2  UNL     1      -4.289   1.177  13.419  1.00  0.00     0.358 C 
HETATM    2  C3  UNL     1      -3.676   2.290  14.227  1.00  0.00     0.065 C 
HETATM    3  C4  UNL     1      -4.184   3.642  13.843  1.00  0.00     0.011 C 
HETATM    4  C5  UNL     1      -3.432   4.465  12.902  1.00  0.00     0.010 C 
HETATM    5  C10 UNL     1      -2.271   3.888  12.188  1.00  0.00     0.119 C 
HETATM    6  N1  UNL     1      -2.590   3.385  10.866  1.00  0.00    -0.419 N 
ATOM      7  H1  UNL     1      -2.963   3.983  10.129  1.00  0.00     0.153 HD
HETATM    8  C11 UNL     1      -2.346   1.997  10.674  1.00  0.00     0.144 C 
HETATM    9  C12 UNL     1      -3.607   1.242  11.091  1.00  0.00     0.295 C 
HETATM   10  N2  UNL     1      -3.530   0.660  12.368  1.00  0.00     0.123 N 
ENDROOT
BRANCH   4  11
HETATM   11  C6  UNL     1      -3.016   5.799  13.556  1.00  0.00    -0.046 C 
HETATM   12  C7  UNL     1      -3.229   6.864  12.528  1.00  0.00     0.015 C 
HETATM   13  C8  UNL     1      -1.525   5.735  13.907  1.00  0.00     0.015 C 
HETATM   14  C9  UNL     1      -3.768   6.079  14.813  1.00  0.00     0.015 C 
ENDBRANCH   4  11
BRANCH   1  15
HETATM   15  O1  UNL     1      -4.661   0.144  14.264  1.00  0.00    -0.362 OA
HETATM   16  C1  UNL     1      -4.547   0.431  15.604  1.00  0.00     0.204 C 
ENDBRANCH   1  15
BRANCH  10  17
HETATM   17  C13 UNL     1      -3.729  -0.764  12.279  1.00  0.00     0.226 A 
HETATM   18  C14 UNL     1      -2.945  -1.666  11.431  1.00  0.00     0.038 A 
HETATM   19  C15 UNL     1      -4.449  -1.388  11.126  1.00  0.00     0.038 A 
ENDBRANCH  10  17
TORSDOF 3
ENDMDL
MODEL 3
REMARK VINA RESULT: -5.876400390      0.829      1.401
REMARK  3 active torsions:
REMARK  status: ('A' for Active; 'I' for Inactive)
REMARK    1  A    between atoms: O1_2  and  C2_3 
REMARK    2  A    between atoms: C5_6  and  C6_7 
REMARK    3  A    between atoms: N2_16  and  C13_17 
ROOT
HETATM    1  C2  UNL     1      -3.678   1.517  13.192  1.00  0.00     0.358 C 
HETATM    2  C3  UNL     1      -3.556   2.029  11.782  1.00  0.00     0.065 C 
HETATM    3  C4  UNL     1      -2.159   2.414  11.415  1.00  0.00     0.011 C 
HETATM    4  C5  UNL     1      -1.732   3.805  11.520  1.00  0.00     0.010 C 
HETATM    5  C10 UNL     1      -2.622   4.798  12.165  1.00  0.00     0.119 C 
HETATM    6  N1  UNL     1      -2.325   5.024  13.566  1.00  0.00    -0.419 N 
ATOM      7  H1  UNL     1      -1.421   5.375  13.884  1.00  0.00     0.153 HD
HETATM    8  C11 UNL     1      -3.386   4.723  14.463  1.00  0.00     0.144 C 
HETATM    9  C12 UNL     1      -3.267   3.247  14.842  1.00  0.00     0.295 C 
HETATM   10  N2  UNL     1      -4.158   2.407  14.154  1.00  0.00     0.123 N 
ENDROOT
BRANCH   4  11
HETATM   11  C6  UNL     1      -1.281   4.343  10.147  1.00  0.00    -0.046 C 
HETATM   12  C7  UNL     1      -2.510   4.842   9.457  1.00  0.00     0.015 C 
HETATM   13  C8  UNL     1      -0.685   3.189   9.334  1.00  0.00     0.015 C 
HETATM   14  C9  UNL     1      -0.238   5.404  10.262  1.00  0.00     0.015 C 
ENDBRANCH   4  11
BRANCH   1  15
HETATM   15  O1  UNL     1      -4.456   0.371  13.201  1.00  0.00    -0.362 OA
HETATM   16  C1  UNL     1      -4.139  -0.545  12.225  1.00  0.00     0.204 C 
ENDBRANCH   1  15
BRANCH  10  17
HETATM   17  C13 UNL     1      -5.002   1.704  15.087  1.00  0.00     0.226 A 
HETATM   18  C14 UNL     1      -5.997   2.340  15.954  1.00  0.00     0.038 A 
HETATM   19  C15 UNL     1      -4.712   1.691  16.554  1.00  0.00     0.038 A 
ENDBRANCH  10  17
TORSDOF 3
ENDMDL
MODEL 4
REMARK VINA RESULT: -5.829480190      2.320      4.736
REMARK  3 active torsions:
REMARK  status: ('A' for Active; 'I' for Inactive)
REMARK    1  A    between atoms: O1_2  and  C2_3 
REMARK    2  A    between atoms: C5_6  and  C6_7 
REMARK    3  A    between atoms: N2_16  and  C13_17 
ROOT
HETATM    1  C2  UNL     1      -3.939   4.530  14.070  1.00  0.00     0.358 C 
HETATM    2  C3  UNL     1      -4.671   3.589  13.151  1.00  0.00     0.065 C 
HETATM    3  C4  UNL     1      -4.217   2.170  13.279  1.00  0.00     0.011 C 
HETATM    4  C5  UNL     1      -3.218   1.637  12.360  1.00  0.00     0.010 C 
HETATM    5  C10 UNL     1      -2.522   2.549  11.424  1.00  0.00     0.119 C 
HETATM    6  N1  UNL     1      -1.236   3.013  11.910  1.00  0.00    -0.419 N 
ATOM      7  H1  UNL     1      -0.470   2.375  12.126  1.00  0.00     0.153 HD
HETATM    8  C11 UNL     1      -1.122   4.422  12.062  1.00  0.00     0.144 C 
HETATM    9  C12 UNL     1      -1.602   4.777  13.468  1.00  0.00     0.295 C 
HETATM   10  N2  UNL     1      -2.909   5.290  13.514  1.00  0.00     0.123 N 
ENDROOT
BRANCH   4  11
HETATM   11  C6  UNL     1      -3.786   0.438  11.573  1.00  0.00    -0.046 C 
HETATM   12  C7  UNL     1      -4.107  -0.621  12.580  1.00  0.00     0.015 C 
HETATM   13  C8  UNL     1      -2.705  -0.088  10.622  1.00  0.00     0.015 C 
HETATM   14  C9  UNL     1      -4.976   0.804  10.752  1.00  0.00     0.015 C 
ENDBRANCH   4  11
BRANCH   1  15
HETATM   15  O1  UNL     1      -4.848   5.375  14.685  1.00  0.00    -0.362 OA
HETATM   16  C1  UNL     1      -6.072   4.804  14.950  1.00  0.00     0.204 C 
ENDBRANCH   1  15
BRANCH  10  17
HETATM   17  C13 UNL     1      -2.907   6.607  14.100  1.00  0.00     0.226 A 
HETATM   18  C14 UNL     1      -2.470   7.825  13.412  1.00  0.00     0.038 A 
HETATM   19  C15 UNL     1      -1.650   7.242  14.604  1.00  0.00     0.038 A 
ENDBRANCH  10  17
TORSDOF 3
ENDMDL
MODEL 5
REMARK VINA RESULT: -5.802110333      1.179      1.619
REMARK  3 active torsions:
REMARK  status: ('A' for Active; 'I' for Inactive)
REMARK    1  A    between atoms: O1_2  and  C2_3 
REMARK    2  A    between atoms: C5_6  and  C6_7 
REMARK    3  A    between atoms: N2_16  and  C13_17 
ROOT
HETATM    1  C2  UNL     1      -3.970   2.624  12.232  1.00  0.00     0.358 C 
HETATM    2  C3  UNL     1      -3.242   3.313  11.108  1.00  0.00     0.065 C 
HETATM    3  C4  UNL     1      -1.811   2.895  10.992  1.00  0.00     0.011 C 
HETATM    4  C5  UNL     1      -0.763   3.697  11.614  1.00  0.00     0.010 C 
HETATM    5  C10 UNL     1      -1.132   4.814  12.512  1.00  0.00     0.119 C 
HETATM    6  N1  UNL     1      -1.130   4.458  13.918  1.00  0.00    -0.419 N 
ATOM      7  H1  UNL     1      -0.293   4.124  14.397  1.00  0.00     0.153 HD
HETATM    8  C11 UNL     1      -2.380   4.609  14.579  1.00  0.00     0.144 C 
HETATM    9  C12 UNL     1      -3.153   3.302  14.413  1.00  0.00     0.295 C 
HETATM   10  N2  UNL     1      -4.141   3.344  13.415  1.00  0.00     0.123 N 
ENDROOT
BRANCH   4  11
HETATM   11  C6  UNL     1       0.236   4.204  10.555  1.00  0.00    -0.046 C 
HETATM   12  C7  UNL     1      -0.107   5.636  10.292  1.00  0.00     0.015 C 
HETATM   13  C8  UNL     1       0.043   3.399   9.265  1.00  0.00     0.015 C 
HETATM   14  C9  UNL     1       1.656   4.042  10.984  1.00  0.00     0.015 C 
ENDBRANCH   4  11
BRANCH   1  15
HETATM   15  O1  UNL     1      -5.205   2.187  11.782  1.00  0.00    -0.362 OA
HETATM   16  C1  UNL     1      -5.151   1.163  10.865  1.00  0.00     0.204 C 
ENDBRANCH   1  15
BRANCH  10  17
HETATM   17  C13 UNL     1      -5.433   3.050  13.980  1.00  0.00     0.226 A 
HETATM   18  C14 UNL     1      -6.199   3.963  14.833  1.00  0.00     0.038 A 
HETATM   19  C15 UNL     1      -5.592   2.648  15.412  1.00  0.00     0.038 A 
ENDBRANCH  10  17
TORSDOF 3
ENDMDL
