MODEL 1
REMARK VINA RESULT: -6.690537293      0.000      0.000
REMARK  2 active torsions:
REMARK  status: ('A' for Active; 'I' for Inactive)
REMARK    1  A    between atoms: C3_3  and  C4_4 
REMARK    2  A    between atoms: C4_4  and  O1_5 
ROOT
HETATM    1  C1  UNL     1      -2.119   2.098  10.806  1.00  0.00     0.012 C 
HETATM    2  C2  UNL     1      -2.491   3.163  11.227  1.00  0.00    -0.114 C 
HETATM    3  C3  UNL     1      -2.972   4.465  11.749  1.00  0.00     0.131 C 
ENDROOT
BRANCH   3   4
HETATM    4  C4  UNL     1      -3.945   4.155  12.845  1.00  0.00     0.077 C 
HETATM    5  C5  UNL     1      -4.704   5.345  13.334  1.00  0.00     0.083 C 
HETATM    6  C6  UNL     1      -5.837   4.777  14.162  1.00  0.00     0.061 C 
HETATM    7  N1  UNL     1      -5.450   3.904  15.187  1.00  0.00    -0.388 N 
HETATM    8  C7  UNL     1      -6.549   3.051  15.566  1.00  0.00     0.126 C 
HETATM    9  C12 UNL     1      -4.184   3.325  15.187  1.00  0.00     0.090 C 
HETATM   10  C8  UNL     1      -6.299   2.266  16.816  1.00  0.00    -0.001 C 
HETATM   11  C9  UNL     1      -7.370   1.199  16.914  1.00  0.00     0.011 C 
HETATM   12  C10 UNL     1      -4.961   1.565  16.785  1.00  0.00     0.008 C 
HETATM   13  C11 UNL     1      -4.345   1.816  15.427  1.00  0.00     0.026 C 
HETATM   14  C13 UNL     1      -3.295   3.507  14.030  1.00  0.00     0.040 C 
HETATM   15  C14 UNL     1      -2.058   4.341  14.391  1.00  0.00     0.015 C 
BRANCH   4  16
HETATM   16  O1  UNL     1      -4.875   3.232  12.331  1.00  0.00    -0.388 OA
ATOM     17  H1  UNL     1      -5.453   2.986  13.044  1.00  0.00     0.210 HD
ENDBRANCH   4  16
ENDBRANCH   3   4
TORSDOF 2
ENDMDL
MODEL 2
REMARK VINA RESULT: -6.485922161      0.879      1.393
REMARK  2 active torsions:
REMARK  status: ('A' for Active; 'I' for Inactive)
REMARK    1  A    between atoms: C3_3  and  C4_4 
REMARK    2  A    between atoms: C4_4  and  O1_5 
ROOT
HETATM    1  C1  UNL     1      -4.765   5.998  10.003  1.00  0.00     0.012 C 
HETATM    2  C2  UNL     1      -4.069   5.397  10.781  1.00  0.00    -0.114 C 
HETATM    3  C3  UNL     1      -3.227   4.668  11.759  1.00  0.00     0.131 C 
ENDROOT
BRANCH   3   4
HETATM    4  C4  UNL     1      -4.124   4.280  12.895  1.00  0.00     0.077 C 
HETATM    5  C5  UNL     1      -4.844   5.433  13.516  1.00  0.00     0.083 C 
HETATM    6  C6  UNL     1      -5.919   4.806  14.378  1.00  0.00     0.061 C 
HETATM    7  N1  UNL     1      -5.467   3.865  15.311  1.00  0.00    -0.388 N 
HETATM    8  C7  UNL     1      -6.539   2.985  15.703  1.00  0.00     0.126 C 
HETATM    9  C12 UNL     1      -4.205   3.289  15.184  1.00  0.00     0.090 C 
HETATM   10  C8  UNL     1      -6.208   2.116  16.876  1.00  0.00    -0.001 C 
HETATM   11  C9  UNL     1      -7.274   1.043  16.971  1.00  0.00     0.011 C 
HETATM   12  C10 UNL     1      -4.878   1.420  16.704  1.00  0.00     0.008 C 
HETATM   13  C11 UNL     1      -4.355   1.766  15.328  1.00  0.00     0.026 C 
HETATM   14  C13 UNL     1      -3.397   3.553  13.984  1.00  0.00     0.040 C 
HETATM   15  C14 UNL     1      -2.135   4.360  14.318  1.00  0.00     0.015 C 
BRANCH   4  16
HETATM   16  O1  UNL     1      -5.089   3.395  12.382  1.00  0.00    -0.388 OA
ATOM     17  H1  UNL     1      -4.956   2.555  12.806  1.00  0.00     0.210 HD
ENDBRANCH   4  16
ENDBRANCH   3   4
TORSDOF 2
ENDMDL
MODEL 3
REMARK VINA RESULT: -6.218038438      1.916      4.851
REMARK  2 active torsions:
REMARK  status: ('A' for Active; 'I' for Inactive)
REMARK    1  A    between atoms: C3_3  and  C4_4 
REMARK    2  A    between atoms: C4_4  and  O1_5 
ROOT
HETATM    1  C1  UNL     1      -6.154   0.473  17.363  1.00  0.00     0.012 C 
HETATM    2  C2  UNL     1      -5.503   0.609  16.359  1.00  0.00    -0.114 C 
HETATM    3  C3  UNL     1      -4.714   0.797  15.117  1.00  0.00     0.131 C 
ENDROOT
BRANCH   3   4
HETATM    4  C4  UNL     1      -4.533   2.274  14.944  1.00  0.00     0.077 C 
HETATM    5  C5  UNL     1      -5.796   3.005  14.624  1.00  0.00     0.083 C 
HETATM    6  C6  UNL     1      -5.467   4.469  14.827  1.00  0.00     0.061 C 
HETATM    7  N1  UNL     1      -4.357   4.937  14.113  1.00  0.00    -0.388 N 
HETATM    8  C7  UNL     1      -3.826   6.128  14.728  1.00  0.00     0.126 C 
HETATM    9  C12 UNL     1      -3.429   4.048  13.578  1.00  0.00     0.090 C 
HETATM   10  C8  UNL     1      -2.802   6.833  13.894  1.00  0.00    -0.001 C 
HETATM   11  C9  UNL     1      -2.111   7.854  14.775  1.00  0.00     0.011 C 
HETATM   12  C10 UNL     1      -1.743   5.885  13.381  1.00  0.00     0.008 C 
HETATM   13  C11 UNL     1      -2.022   4.523  13.976  1.00  0.00     0.026 C 
HETATM   14  C13 UNL     1      -3.526   2.614  13.887  1.00  0.00     0.040 C 
HETATM   15  C14 UNL     1      -3.870   1.787  12.640  1.00  0.00     0.015 C 
BRANCH   4  16
HETATM   16  O1  UNL     1      -4.038   2.781  16.159  1.00  0.00    -0.388 OA
ATOM     17  H1  UNL     1      -3.090   2.771  16.105  1.00  0.00     0.210 HD
ENDBRANCH   4  16
ENDBRANCH   3   4
TORSDOF 2
ENDMDL
MODEL 4
REMARK VINA RESULT: -6.214801154      2.273      4.183
REMARK  2 active torsions:
REMARK  status: ('A' for Active; 'I' for Inactive)
REMARK    1  A    between atoms: C3_3  and  C4_4 
REMARK    2  A    between atoms: C4_4  and  O1_5 
ROOT
HETATM    1  C1  UNL     1      -2.125   7.581  14.031  1.00  0.00     0.012 C 
HETATM    2  C2  UNL     1      -2.943   6.775  14.394  1.00  0.00    -0.114 C 
HETATM    3  C3  UNL     1      -3.956   5.778  14.817  1.00  0.00     0.131 C 
ENDROOT
BRANCH   3   4
HETATM    4  C4  UNL     1      -3.928   4.679  13.799  1.00  0.00     0.077 C 
HETATM    5  C5  UNL     1      -4.441   5.086  12.456  1.00  0.00     0.083 C 
HETATM    6  C6  UNL     1      -4.017   3.975  11.519  1.00  0.00     0.061 C 
HETATM    7  N1  UNL     1      -4.413   2.687  11.899  1.00  0.00    -0.388 N 
HETATM    8  C7  UNL     1      -3.573   1.695  11.276  1.00  0.00     0.126 C 
HETATM    9  C12 UNL     1      -4.820   2.425  13.205  1.00  0.00     0.090 C 
HETATM   10  C8  UNL     1      -4.081   0.295  11.426  1.00  0.00    -0.001 C 
HETATM   11  C9  UNL     1      -2.966  -0.647  11.020  1.00  0.00     0.011 C 
HETATM   12  C10 UNL     1      -4.443  -0.023  12.858  1.00  0.00     0.008 C 
HETATM   13  C11 UNL     1      -4.073   1.177  13.701  1.00  0.00     0.026 C 
HETATM   14  C13 UNL     1      -4.694   3.467  14.234  1.00  0.00     0.040 C 
HETATM   15  C14 UNL     1      -6.066   3.942  14.732  1.00  0.00     0.015 C 
BRANCH   4  16
HETATM   16  O1  UNL     1      -2.586   4.284  13.646  1.00  0.00    -0.388 OA
ATOM     17  H1  UNL     1      -2.206   4.231  14.515  1.00  0.00     0.210 HD
ENDBRANCH   4  16
ENDBRANCH   3   4
TORSDOF 2
ENDMDL
MODEL 5
REMARK VINA RESULT: -6.208555882      2.020      5.208
REMARK  2 active torsions:
REMARK  status: ('A' for Active; 'I' for Inactive)
REMARK    1  A    between atoms: C3_3  and  C4_4 
REMARK    2  A    between atoms: C4_4  and  O1_5 
ROOT
HETATM    1  C1  UNL     1      -6.258   1.954  18.797  1.00  0.00     0.012 C 
HETATM    2  C2  UNL     1      -6.465   2.533  17.762  1.00  0.00    -0.114 C 
HETATM    3  C3  UNL     1      -6.693   3.244  16.480  1.00  0.00     0.131 C 
ENDROOT
BRANCH   3   4
HETATM    4  C4  UNL     1      -5.754   2.640  15.481  1.00  0.00     0.077 C 
HETATM    5  C5  UNL     1      -4.336   2.573  15.947  1.00  0.00     0.083 C 
HETATM    6  C6  UNL     1      -3.643   1.648  14.969  1.00  0.00     0.061 C 
HETATM    7  N1  UNL     1      -3.769   2.001  13.619  1.00  0.00    -0.388 N 
HETATM    8  C7  UNL     1      -3.544   0.855  12.774  1.00  0.00     0.126 C 
HETATM    9  C12 UNL     1      -4.756   2.893  13.207  1.00  0.00     0.090 C 
HETATM   10  C8  UNL     1      -3.411   1.194  11.322  1.00  0.00    -0.001 C 
HETATM   11  C9  UNL     1      -3.503  -0.098  10.535  1.00  0.00     0.011 C 
HETATM   12  C10 UNL     1      -4.530   2.093  10.848  1.00  0.00     0.008 C 
HETATM   13  C11 UNL     1      -5.488   2.278  12.003  1.00  0.00     0.026 C 
HETATM   14  C13 UNL     1      -5.771   3.356  14.165  1.00  0.00     0.040 C 
HETATM   15  C14 UNL     1      -5.633   4.857  14.454  1.00  0.00     0.015 C 
BRANCH   4  16
HETATM   16  O1  UNL     1      -6.191   1.325  15.238  1.00  0.00    -0.388 OA
ATOM     17  H1  UNL     1      -5.985   1.121  14.333  1.00  0.00     0.210 HD
ENDBRANCH   4  16
ENDBRANCH   3   4
TORSDOF 2
ENDMDL
