MODEL 1
REMARK VINA RESULT: -7.431474365      0.000      0.000
REMARK  16 active torsions:
REMARK  status: ('A' for Active; 'I' for Inactive)
REMARK    1  A    between atoms: C2_2  and  C3_3 
REMARK    2  A    between atoms: C3_3  and  C4_4 
REMARK    3  A    between atoms: C4_4  and  C5_5 
REMARK    4  A    between atoms: C5_5  and  C6_6 
REMARK    5  A    between atoms: C6_6  and  C7_7 
REMARK    6  A    between atoms: C7_7  and  C8_8 
REMARK    7  A    between atoms: C8_8  and  C9_9 
REMARK    8  A    between atoms: C9_9  and  C10_10 
REMARK    9  A    between atoms: C10_10  and  N1_11 
REMARK   10  A    between atoms: N1_11  and  C11_13 
REMARK   11  A    between atoms: C12_16  and  N3_17 
REMARK   12  A    between atoms: N3_17  and  C13_19 
REMARK   13  A    between atoms: C13_19  and  C14_20 
REMARK   14  A    between atoms: C14_20  and  N4_21 
REMARK   15  A    between atoms: C19_29  and  N6_30 
REMARK   16  A    between atoms: N6_30  and  N7_32 
REMARK       I    between atoms: N7_32  and  C20_34 
ROOT
HETATM    1  C11 UNL     1      12.713 -38.802   8.625  1.00  0.00     0.707 A 
HETATM    2  N2  UNL     1      12.453 -40.131   8.769  1.00  0.00    -0.022 N 
ATOM      3  H2  UNL     1      12.580 -40.587   9.672  1.00  0.00     0.203 HD
HETATM    4  C12 UNL     1      12.026 -40.838   7.700  1.00  0.00     0.707 A 
HETATM    5  N5  UNL     1      11.853 -40.244   6.502  1.00  0.00    -0.020 N 
ATOM      6  H5  UNL     1      11.529 -40.793   5.707  1.00  0.00     0.203 HD
HETATM    7  C19 UNL     1      12.105 -38.934   6.348  1.00  0.00     0.726 A 
HETATM    8  N10 UNL     1      12.530 -38.255   7.425  1.00  0.00    -0.020 N 
ATOM      9  H10 UNL     1      12.724 -37.260   7.317  1.00  0.00     0.203 HD
ENDROOT
BRANCH   1  10
HETATM   10  N1  UNL     1      13.118 -38.183   9.681  1.00  0.00    -0.225 N 
ATOM     11  H1  UNL     1      12.633 -38.285  10.573  1.00  0.00     0.177 HD
BRANCH  10  12
HETATM   12  C10 UNL     1      14.287 -37.337   9.556  1.00  0.00     0.138 C 
BRANCH  12  13
HETATM   13  C9  UNL     1      14.632 -36.699  10.911  1.00  0.00     0.020 C 
BRANCH  13  14
HETATM   14  C8  UNL     1      13.390 -36.721  11.774  1.00  0.00     0.002 C 
BRANCH  14  15
HETATM   15  C7  UNL     1      13.352 -35.633  12.779  1.00  0.00     0.000 C 
BRANCH  15  16
HETATM   16  C6  UNL     1      13.443 -36.077  14.206  1.00  0.00     0.000 C 
BRANCH  16  17
HETATM   17  C5  UNL     1      14.804 -36.432  14.664  1.00  0.00     0.000 C 
BRANCH  17  18
HETATM   18  C4  UNL     1      14.860 -37.864  15.139  1.00  0.00     0.000 C 
BRANCH  18  19
HETATM   19  C3  UNL     1      15.355 -38.834  14.112  1.00  0.00    -0.000 C 
BRANCH  19  20
HETATM   20  C2  UNL     1      14.219 -39.798  13.826  1.00  0.00    -0.005 C 
HETATM   21  C1  UNL     1      14.271 -40.281  12.394  1.00  0.00     0.005 C 
ENDBRANCH  19  20
ENDBRANCH  18  19
ENDBRANCH  17  18
ENDBRANCH  16  17
ENDBRANCH  15  16
ENDBRANCH  14  15
ENDBRANCH  13  14
ENDBRANCH  12  13
ENDBRANCH  10  12
ENDBRANCH   1  10
BRANCH   4  22
HETATM   22  N3  UNL     1      11.802 -42.072   7.893  1.00  0.00    -0.224 N 
ATOM     23  H3  UNL     1      10.845 -42.382   7.723  1.00  0.00     0.177 HD
BRANCH  22  24
HETATM   24  C13 UNL     1      12.713 -43.083   8.317  1.00  0.00     0.157 C 
BRANCH  24  25
HETATM   25  C14 UNL     1      13.860 -43.193   7.374  1.00  0.00     0.137 C 
BRANCH  25  26
HETATM   26  N4  UNL     1      15.143 -43.169   7.994  1.00  0.00    -0.407 N 
HETATM   27  C15 UNL     1      15.793 -44.443   8.053  1.00  0.00     0.143 C 
HETATM   28  C16 UNL     1      17.216 -44.288   8.558  1.00  0.00     0.187 C 
HETATM   29  O1  UNL     1      17.252 -43.598   9.768  1.00  0.00    -0.388 OA
HETATM   30  C17 UNL     1      16.010 -43.228  10.222  1.00  0.00     0.187 C 
HETATM   31  C18 UNL     1      15.240 -42.401   9.185  1.00  0.00     0.143 C 
ENDBRANCH  25  26
ENDBRANCH  24  25
ENDBRANCH  22  24
ENDBRANCH   4  22
BRANCH   7  32
HETATM   32  N6  UNL     1      11.937 -38.377   5.199  1.00  0.00    -0.129 N 
ATOM     33  H6  UNL     1      12.363 -37.464   5.039  1.00  0.00     0.205 HD
BRANCH  32  34
HETATM   34  N7  UNL     1      11.216 -38.946   4.176  1.00  0.00    -0.260 N 
HETATM   35  C20 UNL     1      10.049 -38.302   3.711  1.00  0.00     0.201 C 
HETATM   36  N8  UNL     1      10.096 -37.673   2.590  1.00  0.00    -0.372 N 
HETATM   37  N9  UNL     1       8.843 -38.330   4.438  1.00  0.00    -0.062 NA
ATOM     38  H82 UNL     1      10.969 -37.653   2.063  1.00  0.00     0.158 HD
ATOM     39  H81 UNL     1       9.253 -37.207   2.253  1.00  0.00     0.158 HD
ATOM     40  H7  UNL     1      11.521 -39.825   3.758  1.00  0.00     0.190 HD
ENDBRANCH  32  34
ENDBRANCH   7  32
TORSDOF 16
ENDMDL
MODEL 2
REMARK VINA RESULT: -7.394375550      2.041      6.075
REMARK  16 active torsions:
REMARK  status: ('A' for Active; 'I' for Inactive)
REMARK    1  A    between atoms: C2_2  and  C3_3 
REMARK    2  A    between atoms: C3_3  and  C4_4 
REMARK    3  A    between atoms: C4_4  and  C5_5 
REMARK    4  A    between atoms: C5_5  and  C6_6 
REMARK    5  A    between atoms: C6_6  and  C7_7 
REMARK    6  A    between atoms: C7_7  and  C8_8 
REMARK    7  A    between atoms: C8_8  and  C9_9 
REMARK    8  A    between atoms: C9_9  and  C10_10 
REMARK    9  A    between atoms: C10_10  and  N1_11 
REMARK   10  A    between atoms: N1_11  and  C11_13 
REMARK   11  A    between atoms: C12_16  and  N3_17 
REMARK   12  A    between atoms: N3_17  and  C13_19 
REMARK   13  A    between atoms: C13_19  and  C14_20 
REMARK   14  A    between atoms: C14_20  and  N4_21 
REMARK   15  A    between atoms: C19_29  and  N6_30 
REMARK   16  A    between atoms: N6_30  and  N7_32 
REMARK       I    between atoms: N7_32  and  C20_34 
ROOT
HETATM    1  C11 UNL     1      11.869 -40.283   8.158  1.00  0.00     0.707 A 
HETATM    2  N2  UNL     1      12.872 -39.742   8.903  1.00  0.00    -0.022 N 
ATOM      3  H2  UNL     1      13.135 -40.159   9.796  1.00  0.00     0.203 HD
HETATM    4  C12 UNL     1      13.516 -38.645   8.444  1.00  0.00     0.707 A 
HETATM    5  N5  UNL     1      13.177 -38.088   7.265  1.00  0.00    -0.020 N 
ATOM      6  H5  UNL     1      13.674 -37.262   6.935  1.00  0.00     0.203 HD
HETATM    7  C19 UNL     1      12.190 -38.612   6.521  1.00  0.00     0.726 A 
HETATM    8  N10 UNL     1      11.567 -39.700   6.999  1.00  0.00    -0.020 N 
ATOM      9  H10 UNL     1      10.816 -40.105   6.441  1.00  0.00     0.203 HD
ENDROOT
BRANCH   1  10
HETATM   10  N1  UNL     1      11.293 -41.327   8.649  1.00  0.00    -0.225 N 
ATOM     11  H1  UNL     1      10.866 -41.308   9.575  1.00  0.00     0.177 HD
BRANCH  10  12
HETATM   12  C10 UNL     1      11.276 -42.527   7.839  1.00  0.00     0.138 C 
BRANCH  12  13
HETATM   13  C9  UNL     1      11.453 -43.771   8.723  1.00  0.00     0.020 C 
BRANCH  13  14
HETATM   14  C8  UNL     1      12.928 -43.935   9.018  1.00  0.00     0.002 C 
BRANCH  14  15
HETATM   15  C7  UNL     1      13.761 -44.080   7.802  1.00  0.00     0.000 C 
BRANCH  15  16
HETATM   16  C6  UNL     1      14.992 -43.229   7.762  1.00  0.00     0.000 C 
BRANCH  16  17
HETATM   17  C5  UNL     1      16.166 -43.798   8.461  1.00  0.00     0.000 C 
BRANCH  17  18
HETATM   18  C4  UNL     1      16.556 -42.946   9.645  1.00  0.00     0.000 C 
BRANCH  18  19
HETATM   19  C3  UNL     1      15.843 -41.631   9.719  1.00  0.00    -0.000 C 
BRANCH  19  20
HETATM   20  C2  UNL     1      15.648 -41.313  11.190  1.00  0.00    -0.005 C 
HETATM   21  C1  UNL     1      14.223 -41.585  11.615  1.00  0.00     0.005 C 
ENDBRANCH  19  20
ENDBRANCH  18  19
ENDBRANCH  17  18
ENDBRANCH  16  17
ENDBRANCH  15  16
ENDBRANCH  14  15
ENDBRANCH  13  14
ENDBRANCH  12  13
ENDBRANCH  10  12
ENDBRANCH   1  10
BRANCH   4  22
HETATM   22  N3  UNL     1      14.440 -38.185   9.182  1.00  0.00    -0.224 N 
ATOM     23  H3  UNL     1      15.334 -38.673   9.130  1.00  0.00     0.177 HD
BRANCH  22  24
HETATM   24  C13 UNL     1      14.392 -37.074  10.074  1.00  0.00     0.157 C 
BRANCH  24  25
HETATM   25  C14 UNL     1      13.258 -37.209  11.030  1.00  0.00     0.137 C 
BRANCH  25  26
HETATM   26  N4  UNL     1      13.633 -37.179  12.405  1.00  0.00    -0.407 N 
HETATM   27  C15 UNL     1      13.425 -35.918  13.047  1.00  0.00     0.143 C 
HETATM   28  C16 UNL     1      13.677 -36.035  14.539  1.00  0.00     0.187 C 
HETATM   29  O1  UNL     1      14.932 -36.580  14.799  1.00  0.00    -0.388 OA
HETATM   30  C17 UNL     1      15.644 -36.876  13.662  1.00  0.00     0.187 C 
HETATM   31  C18 UNL     1      14.869 -37.806  12.721  1.00  0.00     0.143 C 
ENDBRANCH  25  26
ENDBRANCH  24  25
ENDBRANCH  22  24
ENDBRANCH   4  22
BRANCH   7  32
HETATM   32  N6  UNL     1      11.876 -38.071   5.396  1.00  0.00    -0.129 N 
ATOM     33  H6  UNL     1      12.089 -37.083   5.260  1.00  0.00     0.205 HD
BRANCH  32  34
HETATM   34  N7  UNL     1      11.267 -38.752   4.368  1.00  0.00    -0.260 N 
HETATM   35  C20 UNL     1      10.083 -38.234   3.799  1.00  0.00     0.201 C 
HETATM   36  N8  UNL     1      10.149 -37.664   2.648  1.00  0.00    -0.372 N 
HETATM   37  N9  UNL     1       8.841 -38.324   4.457  1.00  0.00    -0.062 NA
ATOM     38  H82 UNL     1      11.049 -37.599   2.172  1.00  0.00     0.158 HD
ATOM     39  H81 UNL     1       9.294 -37.289   2.237  1.00  0.00     0.158 HD
ATOM     40  H7  UNL     1      11.667 -39.623   4.020  1.00  0.00     0.190 HD
ENDBRANCH  32  34
ENDBRANCH   7  32
TORSDOF 16
ENDMDL
MODEL 3
REMARK VINA RESULT: -7.391669693      1.125      1.360
REMARK  16 active torsions:
REMARK  status: ('A' for Active; 'I' for Inactive)
REMARK    1  A    between atoms: C2_2  and  C3_3 
REMARK    2  A    between atoms: C3_3  and  C4_4 
REMARK    3  A    between atoms: C4_4  and  C5_5 
REMARK    4  A    between atoms: C5_5  and  C6_6 
REMARK    5  A    between atoms: C6_6  and  C7_7 
REMARK    6  A    between atoms: C7_7  and  C8_8 
REMARK    7  A    between atoms: C8_8  and  C9_9 
REMARK    8  A    between atoms: C9_9  and  C10_10 
REMARK    9  A    between atoms: C10_10  and  N1_11 
REMARK   10  A    between atoms: N1_11  and  C11_13 
REMARK   11  A    between atoms: C12_16  and  N3_17 
REMARK   12  A    between atoms: N3_17  and  C13_19 
REMARK   13  A    between atoms: C13_19  and  C14_20 
REMARK   14  A    between atoms: C14_20  and  N4_21 
REMARK   15  A    between atoms: C19_29  and  N6_30 
REMARK   16  A    between atoms: N6_30  and  N7_32 
REMARK       I    between atoms: N7_32  and  C20_34 
ROOT
HETATM    1  C11 UNL     1      13.537 -38.508   8.511  1.00  0.00     0.707 A 
HETATM    2  N2  UNL     1      12.905 -39.617   8.988  1.00  0.00    -0.022 N 
ATOM      3  H2  UNL     1      13.134 -39.985   9.910  1.00  0.00     0.203 HD
HETATM    4  C12 UNL     1      11.969 -40.221   8.222  1.00  0.00     0.707 A 
HETATM    5  N5  UNL     1      11.659 -39.740   7.002  1.00  0.00    -0.020 N 
ATOM      6  H5  UNL     1      10.950 -40.209   6.439  1.00  0.00     0.203 HD
HETATM    7  C19 UNL     1      12.274 -38.648   6.522  1.00  0.00     0.726 A 
HETATM    8  N10 UNL     1      13.199 -38.067   7.301  1.00  0.00    -0.020 N 
ATOM      9  H10 UNL     1      13.673 -37.238   6.945  1.00  0.00     0.203 HD
ENDROOT
BRANCH   1  10
HETATM   10  N1  UNL     1      14.419 -37.978   9.288  1.00  0.00    -0.225 N 
ATOM     11  H1  UNL     1      15.416 -38.131   9.138  1.00  0.00     0.177 HD
BRANCH  10  12
HETATM   12  C10 UNL     1      13.943 -37.156  10.381  1.00  0.00     0.138 C 
BRANCH  12  13
HETATM   13  C9  UNL     1      15.091 -36.312  10.955  1.00  0.00     0.020 C 
BRANCH  13  14
HETATM   14  C8  UNL     1      14.516 -35.375  11.994  1.00  0.00     0.002 C 
BRANCH  14  15
HETATM   15  C7  UNL     1      13.300 -35.903  12.655  1.00  0.00     0.000 C 
BRANCH  15  16
HETATM   16  C6  UNL     1      13.442 -36.202  14.115  1.00  0.00     0.000 C 
BRANCH  16  17
HETATM   17  C5  UNL     1      14.834 -36.390  14.581  1.00  0.00     0.000 C 
BRANCH  17  18
HETATM   18  C4  UNL     1      15.054 -37.800  15.075  1.00  0.00     0.000 C 
BRANCH  18  19
HETATM   19  C3  UNL     1      14.223 -38.832  14.378  1.00  0.00    -0.000 C 
BRANCH  19  20
HETATM   20  C2  UNL     1      15.057 -39.377  13.233  1.00  0.00    -0.005 C 
HETATM   21  C1  UNL     1      14.223 -40.260  12.333  1.00  0.00     0.005 C 
ENDBRANCH  19  20
ENDBRANCH  18  19
ENDBRANCH  17  18
ENDBRANCH  16  17
ENDBRANCH  15  16
ENDBRANCH  14  15
ENDBRANCH  13  14
ENDBRANCH  12  13
ENDBRANCH  10  12
ENDBRANCH   1  10
BRANCH   4  22
HETATM   22  N3  UNL     1      11.415 -41.251   8.717  1.00  0.00    -0.224 N 
ATOM     23  H3  UNL     1      10.406 -41.191   8.848  1.00  0.00     0.177 HD
BRANCH  22  24
HETATM   24  C13 UNL     1      12.020 -42.479   9.112  1.00  0.00     0.157 C 
BRANCH  24  25
HETATM   25  C14 UNL     1      11.926 -43.492   8.024  1.00  0.00     0.137 C 
BRANCH  25  26
HETATM   26  N4  UNL     1      13.170 -44.075   7.647  1.00  0.00    -0.407 N 
HETATM   27  C15 UNL     1      13.614 -45.128   8.508  1.00  0.00     0.143 C 
HETATM   28  C16 UNL     1      14.842 -45.805   7.928  1.00  0.00     0.187 C 
HETATM   29  O1  UNL     1      15.841 -44.879   7.637  1.00  0.00    -0.388 OA
HETATM   30  C17 UNL     1      15.492 -43.586   7.943  1.00  0.00     0.187 C 
HETATM   31  C18 UNL     1      14.187 -43.162   7.257  1.00  0.00     0.143 C 
ENDBRANCH  25  26
ENDBRANCH  24  25
ENDBRANCH  22  24
ENDBRANCH   4  22
BRANCH   7  32
HETATM   32  N6  UNL     1      11.969 -38.198   5.355  1.00  0.00    -0.129 N 
ATOM     33  H6  UNL     1      12.248 -37.246   5.117  1.00  0.00     0.205 HD
BRANCH  32  34
HETATM   34  N7  UNL     1      11.287 -38.930   4.411  1.00  0.00    -0.260 N 
HETATM   35  C20 UNL     1      10.134 -38.381   3.810  1.00  0.00     0.201 C 
HETATM   36  N8  UNL     1      10.217 -37.937   2.606  1.00  0.00    -0.372 N 
HETATM   37  N9  UNL     1       8.903 -38.307   4.492  1.00  0.00    -0.062 NA
ATOM     38  H82 UNL     1      11.107 -37.991   2.112  1.00  0.00     0.158 HD
ATOM     39  H81 UNL     1       9.383 -37.540   2.172  1.00  0.00     0.158 HD
ATOM     40  H7  UNL     1      11.612 -39.860   4.148  1.00  0.00     0.190 HD
ENDBRANCH  32  34
ENDBRANCH   7  32
TORSDOF 16
ENDMDL
MODEL 4
REMARK VINA RESULT: -7.271937811      2.111      5.677
REMARK  16 active torsions:
REMARK  status: ('A' for Active; 'I' for Inactive)
REMARK    1  A    between atoms: C2_2  and  C3_3 
REMARK    2  A    between atoms: C3_3  and  C4_4 
REMARK    3  A    between atoms: C4_4  and  C5_5 
REMARK    4  A    between atoms: C5_5  and  C6_6 
REMARK    5  A    between atoms: C6_6  and  C7_7 
REMARK    6  A    between atoms: C7_7  and  C8_8 
REMARK    7  A    between atoms: C8_8  and  C9_9 
REMARK    8  A    between atoms: C9_9  and  C10_10 
REMARK    9  A    between atoms: C10_10  and  N1_11 
REMARK   10  A    between atoms: N1_11  and  C11_13 
REMARK   11  A    between atoms: C12_16  and  N3_17 
REMARK   12  A    between atoms: N3_17  and  C13_19 
REMARK   13  A    between atoms: C13_19  and  C14_20 
REMARK   14  A    between atoms: C14_20  and  N4_21 
REMARK   15  A    between atoms: C19_29  and  N6_30 
REMARK   16  A    between atoms: N6_30  and  N7_32 
REMARK       I    between atoms: N7_32  and  C20_34 
ROOT
HETATM    1  C11 UNL     1      12.092 -40.611   7.134  1.00  0.00     0.707 A 
HETATM    2  N2  UNL     1      12.901 -39.848   7.921  1.00  0.00    -0.022 N 
ATOM      3  H2  UNL     1      13.308 -40.234   8.772  1.00  0.00     0.203 HD
HETATM    4  C12 UNL     1      13.157 -38.571   7.558  1.00  0.00     0.707 A 
HETATM    5  N5  UNL     1      12.625 -38.052   6.433  1.00  0.00    -0.020 N 
ATOM      6  H5  UNL     1      12.830 -37.087   6.176  1.00  0.00     0.203 HD
HETATM    7  C19 UNL     1      11.827 -38.795   5.650  1.00  0.00     0.726 A 
HETATM    8  N10 UNL     1      11.587 -40.058   6.033  1.00  0.00    -0.020 N 
ATOM      9  H10 UNL     1      10.982 -40.630   5.445  1.00  0.00     0.203 HD
ENDROOT
BRANCH   1  10
HETATM   10  N1  UNL     1      11.885 -41.820   7.534  1.00  0.00    -0.225 N 
ATOM     11  H1  UNL     1      12.116 -42.618   6.943  1.00  0.00     0.177 HD
BRANCH  10  12
HETATM   12  C10 UNL     1      11.313 -42.002   8.852  1.00  0.00     0.138 C 
BRANCH  12  13
HETATM   13  C9  UNL     1      11.840 -43.297   9.489  1.00  0.00     0.020 C 
BRANCH  13  14
HETATM   14  C8  UNL     1      11.987 -43.066  10.977  1.00  0.00     0.002 C 
BRANCH  14  15
HETATM   15  C7  UNL     1      13.394 -42.908  11.413  1.00  0.00     0.000 C 
BRANCH  15  16
HETATM   16  C6  UNL     1      13.921 -41.507  11.380  1.00  0.00     0.000 C 
BRANCH  16  17
HETATM   17  C5  UNL     1      15.305 -41.373  10.873  1.00  0.00     0.000 C 
BRANCH  17  18
HETATM   18  C4  UNL     1      15.450 -42.023   9.518  1.00  0.00     0.000 C 
BRANCH  18  19
HETATM   19  C3  UNL     1      16.566 -43.018   9.429  1.00  0.00    -0.000 C 
BRANCH  19  20
HETATM   20  C2  UNL     1      16.249 -43.940   8.266  1.00  0.00    -0.005 C 
HETATM   21  C1  UNL     1      15.010 -43.475   7.535  1.00  0.00     0.005 C 
ENDBRANCH  19  20
ENDBRANCH  18  19
ENDBRANCH  17  18
ENDBRANCH  16  17
ENDBRANCH  15  16
ENDBRANCH  14  15
ENDBRANCH  13  14
ENDBRANCH  12  13
ENDBRANCH  10  12
ENDBRANCH   1  10
BRANCH   4  22
HETATM   22  N3  UNL     1      13.915 -37.907   8.329  1.00  0.00    -0.224 N 
ATOM     23  H3  UNL     1      14.385 -37.106   7.909  1.00  0.00     0.177 HD
BRANCH  22  24
HETATM   24  C13 UNL     1      14.196 -38.136   9.708  1.00  0.00     0.157 C 
BRANCH  24  25
HETATM   25  C14 UNL     1      13.170 -37.492  10.573  1.00  0.00     0.137 C 
BRANCH  25  26
HETATM   26  N4  UNL     1      13.558 -37.328  11.935  1.00  0.00    -0.407 N 
HETATM   27  C15 UNL     1      13.292 -36.029  12.472  1.00  0.00     0.143 C 
HETATM   28  C16 UNL     1      13.567 -36.006  13.965  1.00  0.00     0.187 C 
HETATM   29  O1  UNL     1      14.852 -36.464  14.249  1.00  0.00    -0.388 OA
HETATM   30  C17 UNL     1      15.565 -36.818  13.131  1.00  0.00     0.187 C 
HETATM   31  C18 UNL     1      14.828 -37.862  12.283  1.00  0.00     0.143 C 
ENDBRANCH  25  26
ENDBRANCH  24  25
ENDBRANCH  22  24
ENDBRANCH   4  22
BRANCH   7  32
HETATM   32  N6  UNL     1      11.324 -38.288   4.579  1.00  0.00    -0.129 N 
ATOM     33  H6  UNL     1      11.111 -37.291   4.571  1.00  0.00     0.205 HD
BRANCH  32  34
HETATM   34  N7  UNL     1      11.058 -39.018   3.444  1.00  0.00    -0.260 N 
HETATM   35  C20 UNL     1      10.211 -38.475   2.454  1.00  0.00     0.201 C 
HETATM   36  N8  UNL     1      10.738 -38.020   1.372  1.00  0.00    -0.372 N 
HETATM   37  N9  UNL     1       8.814 -38.418   2.620  1.00  0.00    -0.062 NA
ATOM     38  H82 UNL     1      11.750 -38.062   1.252  1.00  0.00     0.158 HD
ATOM     39  H81 UNL     1      10.127 -37.627   0.657  1.00  0.00     0.158 HD
ATOM     40  H7  UNL     1      11.469 -39.943   3.320  1.00  0.00     0.190 HD
ENDBRANCH  32  34
ENDBRANCH   7  32
TORSDOF 16
ENDMDL
MODEL 5
REMARK VINA RESULT: -7.265037865      1.025      1.268
REMARK  16 active torsions:
REMARK  status: ('A' for Active; 'I' for Inactive)
REMARK    1  A    between atoms: C2_2  and  C3_3 
REMARK    2  A    between atoms: C3_3  and  C4_4 
REMARK    3  A    between atoms: C4_4  and  C5_5 
REMARK    4  A    between atoms: C5_5  and  C6_6 
REMARK    5  A    between atoms: C6_6  and  C7_7 
REMARK    6  A    between atoms: C7_7  and  C8_8 
REMARK    7  A    between atoms: C8_8  and  C9_9 
REMARK    8  A    between atoms: C9_9  and  C10_10 
REMARK    9  A    between atoms: C10_10  and  N1_11 
REMARK   10  A    between atoms: N1_11  and  C11_13 
REMARK   11  A    between atoms: C12_16  and  N3_17 
REMARK   12  A    between atoms: N3_17  and  C13_19 
REMARK   13  A    between atoms: C13_19  and  C14_20 
REMARK   14  A    between atoms: C14_20  and  N4_21 
REMARK   15  A    between atoms: C19_29  and  N6_30 
REMARK   16  A    between atoms: N6_30  and  N7_32 
REMARK       I    between atoms: N7_32  and  C20_34 
ROOT
HETATM    1  C11 UNL     1      12.510 -38.940   8.356  1.00  0.00     0.707 A 
HETATM    2  N2  UNL     1      12.105 -40.238   8.429  1.00  0.00    -0.022 N 
ATOM      3  H2  UNL     1      12.179 -40.754   9.305  1.00  0.00     0.203 HD
HETATM    4  C12 UNL     1      11.602 -40.834   7.324  1.00  0.00     0.707 A 
HETATM    5  N5  UNL     1      11.498 -40.160   6.162  1.00  0.00    -0.020 N 
ATOM      6  H5  UNL     1      11.116 -40.625   5.340  1.00  0.00     0.203 HD
HETATM    7  C19 UNL     1      11.895 -38.880   6.078  1.00  0.00     0.726 A 
HETATM    8  N10 UNL     1      12.391 -38.312   7.188  1.00  0.00    -0.020 N 
ATOM      9  H10 UNL     1      12.695 -37.340   7.133  1.00  0.00     0.203 HD
ENDROOT
BRANCH   1  10
HETATM   10  N1  UNL     1      12.981 -38.428   9.442  1.00  0.00    -0.225 N 
ATOM     11  H1  UNL     1      12.457 -38.470  10.316  1.00  0.00     0.177 HD
BRANCH  10  12
HETATM   12  C10 UNL     1      14.281 -37.794   9.376  1.00  0.00     0.138 C 
BRANCH  12  13
HETATM   13  C9  UNL     1      14.464 -36.828  10.557  1.00  0.00     0.020 C 
BRANCH  13  14
HETATM   14  C8  UNL     1      13.209 -36.870  11.402  1.00  0.00     0.002 C 
BRANCH  14  15
HETATM   15  C7  UNL     1      13.286 -36.023  12.614  1.00  0.00     0.000 C 
BRANCH  15  16
HETATM   16  C6  UNL     1      14.472 -36.271  13.494  1.00  0.00     0.000 C 
BRANCH  16  17
HETATM   17  C5  UNL     1      14.211 -37.138  14.664  1.00  0.00     0.000 C 
BRANCH  17  18
HETATM   18  C4  UNL     1      14.537 -38.579  14.354  1.00  0.00     0.000 C 
BRANCH  18  19
HETATM   19  C3  UNL     1      15.827 -38.773  13.618  1.00  0.00    -0.000 C 
BRANCH  19  20
HETATM   20  C2  UNL     1      15.561 -39.778  12.512  1.00  0.00    -0.005 C 
HETATM   21  C1  UNL     1      14.125 -40.248  12.547  1.00  0.00     0.005 C 
ENDBRANCH  19  20
ENDBRANCH  18  19
ENDBRANCH  17  18
ENDBRANCH  16  17
ENDBRANCH  15  16
ENDBRANCH  14  15
ENDBRANCH  13  14
ENDBRANCH  12  13
ENDBRANCH  10  12
ENDBRANCH   1  10
BRANCH   4  22
HETATM   22  N3  UNL     1      11.242 -42.044   7.452  1.00  0.00    -0.224 N 
ATOM     23  H3  UNL     1      10.739 -42.444   6.659  1.00  0.00     0.177 HD
BRANCH  22  24
HETATM   24  C13 UNL     1      11.448 -42.919   8.558  1.00  0.00     0.157 C 
BRANCH  24  25
HETATM   25  C14 UNL     1      12.490 -43.936   8.245  1.00  0.00     0.137 C 
BRANCH  25  26
HETATM   26  N4  UNL     1      13.716 -43.766   8.950  1.00  0.00    -0.407 N 
HETATM   27  C15 UNL     1      13.563 -43.544  10.356  1.00  0.00     0.143 C 
HETATM   28  C16 UNL     1      14.915 -43.559  11.045  1.00  0.00     0.187 C 
HETATM   29  O1  UNL     1      15.801 -42.668  10.443  1.00  0.00    -0.388 OA
HETATM   30  C17 UNL     1      15.253 -41.986   9.384  1.00  0.00     0.187 C 
HETATM   31  C18 UNL     1      14.681 -42.933   8.322  1.00  0.00     0.143 C 
ENDBRANCH  25  26
ENDBRANCH  24  25
ENDBRANCH  22  24
ENDBRANCH   4  22
BRANCH   7  32
HETATM   32  N6  UNL     1      11.791 -38.246   4.962  1.00  0.00    -0.129 N 
ATOM     33  H6  UNL     1      12.218 -37.322   4.891  1.00  0.00     0.205 HD
BRANCH  32  34
HETATM   34  N7  UNL     1      11.136 -38.746   3.861  1.00  0.00    -0.260 N 
HETATM   35  C20 UNL     1       9.967 -38.103   3.399  1.00  0.00     0.201 C 
HETATM   36  N8  UNL     1      10.039 -37.375   2.341  1.00  0.00    -0.372 N 
HETATM   37  N9  UNL     1       8.733 -38.235   4.065  1.00  0.00    -0.062 NA
ATOM     38  H82 UNL     1      10.933 -37.280   1.859  1.00  0.00     0.158 HD
ATOM     39  H81 UNL     1       9.195 -36.910   2.007  1.00  0.00     0.158 HD
ATOM     40  H7  UNL     1      11.492 -39.574   3.382  1.00  0.00     0.190 HD
ENDBRANCH  32  34
ENDBRANCH   7  32
TORSDOF 16
ENDMDL
