MODEL 1
REMARK VINA RESULT: -8.233626290      0.000      0.000
REMARK  10 active torsions:
REMARK  status: ('A' for Active; 'I' for Inactive)
REMARK    1  A    between atoms: C2_2  and  C3_3 
REMARK    2  A    between atoms: C3_3  and  C4_4 
REMARK    3  A    between atoms: C4_4  and  N1_5 
REMARK    4  A    between atoms: N1_5  and  C5_7 
REMARK    5  A    between atoms: C7_12  and  S1_13 
REMARK    6  A    between atoms: S1_13  and  C8_14 
REMARK    7  A    between atoms: C8_14  and  C9_15 
REMARK    8  A    between atoms: N5_22  and  C13_24 
REMARK    9  A    between atoms: C13_24  and  C14_25 
REMARK   10  A    between atoms: C14_25  and  N6_26 
REMARK       I    between atoms: N6_26  and  C15_28 
ROOT
HETATM    1  C5  UNL     1      11.467  38.684  -5.118  1.00  0.00     0.681 A 
HETATM    2  N2  UNL     1      11.173  39.959  -5.394  1.00  0.00    -0.177 N 
ATOM      3  H2  UNL     1      10.619  40.486  -4.718  1.00  0.00     0.185 HD
HETATM    4  C6  UNL     1      11.576  40.589  -6.536  1.00  0.00     0.152 A 
HETATM    5  N3  UNL     1      11.223  41.948  -6.756  1.00  0.00    -0.081 NA
HETATM    6  C7  UNL     1      12.321  39.923  -7.471  1.00  0.00     0.086 A 
HETATM    7  C12 UNL     1      12.635  38.581  -7.186  1.00  0.00     0.137 A 
HETATM    8  N5  UNL     1      13.309  37.838  -7.934  1.00  0.00    -0.373 N 
ATOM      9  H5  UNL     1      13.425  36.902  -7.546  1.00  0.00     0.161 HD
HETATM   10  N9  UNL     1      12.191  38.019  -6.015  1.00  0.00    -0.176 N 
ATOM     11  H9  UNL     1      12.426  37.045  -5.824  1.00  0.00     0.186 HD
ENDROOT
BRANCH   6  12
HETATM   12  S1  UNL     1      12.880  40.650  -8.962  1.00  0.00    -0.121 SA
BRANCH  12  13
HETATM   13  C8  UNL     1      14.197  41.826  -8.808  1.00  0.00     0.112 C 
BRANCH  13  14
HETATM   14  C9  UNL     1      15.115  41.749 -10.050  1.00  0.00     0.197 C 
HETATM   15  C10 UNL     1      14.470  41.001 -11.214  1.00  0.00     0.061 C 
HETATM   16  C11 UNL     1      15.874  40.451 -11.398  1.00  0.00     0.235 C 
HETATM   17  N4  UNL     1      16.033  40.622  -9.956  1.00  0.00    -0.070 N 
ATOM     18  H42 UNL     1      16.956  40.729  -9.537  1.00  0.00     0.277 HD
ATOM     19  H41 UNL     1      15.854  39.852  -9.312  1.00  0.00     0.277 HD
ENDBRANCH  13  14
ENDBRANCH  12  13
ENDBRANCH   6  12
BRANCH   8  20
HETATM   20  C13 UNL     1      13.937  37.979  -9.163  1.00  0.00     0.141 C 
BRANCH  20  21
HETATM   21  C14 UNL     1      13.084  37.404 -10.315  1.00  0.00     0.142 C 
BRANCH  21  22
HETATM   22  N6  UNL     1      13.949  36.575 -11.099  1.00  0.00    -0.363 N 
HETATM   23  C15 UNL     1      13.556  35.925 -12.293  1.00  0.00     0.183 C 
HETATM   24  N7  UNL     1      13.106  34.582 -12.295  1.00  0.00    -0.064 NA
HETATM   25  N8  UNL     1      13.607  36.562 -13.399  1.00  0.00    -0.369 N 
HETATM   26  C16 UNL     1      14.065  37.932 -13.408  1.00  0.00     0.148 C 
ATOM     27  H8  UNL     1      13.328  36.107 -14.269  1.00  0.00     0.161 HD
ATOM     28  H6  UNL     1      14.908  36.445 -10.776  1.00  0.00     0.162 HD
ENDBRANCH  21  22
ENDBRANCH  20  21
ENDBRANCH   8  20
BRANCH   1  29
HETATM   29  N1  UNL     1      11.048  38.149  -4.018  1.00  0.00    -0.226 N 
ATOM     30  H1  UNL     1      11.475  37.262  -3.751  1.00  0.00     0.177 HD
BRANCH  29  31
HETATM   31  C4  UNL     1      10.057  38.663  -3.144  1.00  0.00     0.138 C 
BRANCH  31  32
HETATM   32  C3  UNL     1      10.409  38.532  -1.680  1.00  0.00     0.020 C 
BRANCH  32  33
HETATM   33  C2  UNL     1       9.403  37.696  -0.931  1.00  0.00    -0.003 C 
HETATM   34  C1  UNL     1       9.609  36.217  -1.166  1.00  0.00     0.005 C 
ENDBRANCH  32  33
ENDBRANCH  31  32
ENDBRANCH  29  31
ENDBRANCH   1  29
TORSDOF 10
ENDMDL
MODEL 2
REMARK VINA RESULT: -8.217200904      1.005      1.233
REMARK  10 active torsions:
REMARK  status: ('A' for Active; 'I' for Inactive)
REMARK    1  A    between atoms: C2_2  and  C3_3 
REMARK    2  A    between atoms: C3_3  and  C4_4 
REMARK    3  A    between atoms: C4_4  and  N1_5 
REMARK    4  A    between atoms: N1_5  and  C5_7 
REMARK    5  A    between atoms: C7_12  and  S1_13 
REMARK    6  A    between atoms: S1_13  and  C8_14 
REMARK    7  A    between atoms: C8_14  and  C9_15 
REMARK    8  A    between atoms: N5_22  and  C13_24 
REMARK    9  A    between atoms: C13_24  and  C14_25 
REMARK   10  A    between atoms: C14_25  and  N6_26 
REMARK       I    between atoms: N6_26  and  C15_28 
ROOT
HETATM    1  C5  UNL     1      11.179  38.625  -4.799  1.00  0.00     0.681 A 
HETATM    2  N2  UNL     1      10.807  39.879  -5.074  1.00  0.00    -0.177 N 
ATOM      3  H2  UNL     1      10.204  40.363  -4.408  1.00  0.00     0.185 HD
HETATM    4  C6  UNL     1      11.195  40.544  -6.202  1.00  0.00     0.152 A 
HETATM    5  N3  UNL     1      10.758  41.878  -6.421  1.00  0.00    -0.081 NA
HETATM    6  C7  UNL     1      12.003  39.935  -7.122  1.00  0.00     0.086 A 
HETATM    7  C12 UNL     1      12.399  38.614  -6.839  1.00  0.00     0.137 A 
HETATM    8  N5  UNL     1      13.138  37.924  -7.574  1.00  0.00    -0.373 N 
ATOM      9  H5  UNL     1      13.306  36.994  -7.190  1.00  0.00     0.161 HD
HETATM   10  N9  UNL     1      11.965  38.016  -5.682  1.00  0.00    -0.176 N 
ATOM     11  H9  UNL     1      12.260  37.058  -5.491  1.00  0.00     0.186 HD
ENDROOT
BRANCH   6  12
HETATM   12  S1  UNL     1      12.548  40.709  -8.595  1.00  0.00    -0.121 SA
BRANCH  12  13
HETATM   13  C8  UNL     1      13.706  42.035  -8.394  1.00  0.00     0.112 C 
BRANCH  13  14
HETATM   14  C9  UNL     1      14.892  41.848  -9.369  1.00  0.00     0.197 C 
HETATM   15  C10 UNL     1      16.001  42.874  -9.153  1.00  0.00     0.061 C 
HETATM   16  C11 UNL     1      16.066  42.852 -10.670  1.00  0.00     0.235 C 
HETATM   17  N4  UNL     1      14.643  42.522 -10.635  1.00  0.00    -0.070 N 
ATOM     18  H42 UNL     1      14.197  42.035 -11.412  1.00  0.00     0.277 HD
ATOM     19  H41 UNL     1      13.932  43.249 -10.712  1.00  0.00     0.277 HD
ENDBRANCH  13  14
ENDBRANCH  12  13
ENDBRANCH   6  12
BRANCH   8  20
HETATM   20  C13 UNL     1      13.784  38.115  -8.787  1.00  0.00     0.141 C 
BRANCH  20  21
HETATM   21  C14 UNL     1      12.954  37.577  -9.974  1.00  0.00     0.142 C 
BRANCH  21  22
HETATM   22  N6  UNL     1      13.847  36.813 -10.793  1.00  0.00    -0.363 N 
HETATM   23  C15 UNL     1      13.524  36.333 -12.084  1.00  0.00     0.183 C 
HETATM   24  N7  UNL     1      13.029  35.022 -12.288  1.00  0.00    -0.064 NA
HETATM   25  N8  UNL     1      13.682  37.099 -13.094  1.00  0.00    -0.369 N 
HETATM   26  C16 UNL     1      14.186  38.439 -12.897  1.00  0.00     0.148 C 
ATOM     27  H8  UNL     1      13.453  36.769 -14.032  1.00  0.00     0.161 HD
ATOM     28  H6  UNL     1      14.774  36.602 -10.421  1.00  0.00     0.162 HD
ENDBRANCH  21  22
ENDBRANCH  20  21
ENDBRANCH   8  20
BRANCH   1  29
HETATM   29  N1  UNL     1      10.770  38.054  -3.713  1.00  0.00    -0.226 N 
ATOM     30  H1  UNL     1      11.471  37.551  -3.170  1.00  0.00     0.177 HD
BRANCH  29  31
HETATM   31  C4  UNL     1       9.449  38.052  -3.196  1.00  0.00     0.138 C 
BRANCH  31  32
HETATM   32  C3  UNL     1       9.320  37.364  -1.857  1.00  0.00     0.020 C 
BRANCH  32  33
HETATM   33  C2  UNL     1      10.324  37.882  -0.858  1.00  0.00    -0.003 C 
HETATM   34  C1  UNL     1       9.660  38.630   0.276  1.00  0.00     0.005 C 
ENDBRANCH  32  33
ENDBRANCH  31  32
ENDBRANCH  29  31
ENDBRANCH   1  29
TORSDOF 10
ENDMDL
MODEL 3
REMARK VINA RESULT: -8.175353171      1.256      1.849
REMARK  10 active torsions:
REMARK  status: ('A' for Active; 'I' for Inactive)
REMARK    1  A    between atoms: C2_2  and  C3_3 
REMARK    2  A    between atoms: C3_3  and  C4_4 
REMARK    3  A    between atoms: C4_4  and  N1_5 
REMARK    4  A    between atoms: N1_5  and  C5_7 
REMARK    5  A    between atoms: C7_12  and  S1_13 
REMARK    6  A    between atoms: S1_13  and  C8_14 
REMARK    7  A    between atoms: C8_14  and  C9_15 
REMARK    8  A    between atoms: N5_22  and  C13_24 
REMARK    9  A    between atoms: C13_24  and  C14_25 
REMARK   10  A    between atoms: C14_25  and  N6_26 
REMARK       I    between atoms: N6_26  and  C15_28 
ROOT
HETATM    1  C5  UNL     1      11.453  38.789  -4.987  1.00  0.00     0.681 A 
HETATM    2  N2  UNL     1      11.076  40.029  -5.314  1.00  0.00    -0.177 N 
ATOM      3  H2  UNL     1      10.505  40.554  -4.650  1.00  0.00     0.185 HD
HETATM    4  C6  UNL     1      11.417  40.628  -6.493  1.00  0.00     0.152 A 
HETATM    5  N3  UNL     1      10.978  41.952  -6.766  1.00  0.00    -0.081 NA
HETATM    6  C7  UNL     1      12.181  39.964  -7.413  1.00  0.00     0.086 A 
HETATM    7  C12 UNL     1      12.582  38.657  -7.075  1.00  0.00     0.137 A 
HETATM    8  N5  UNL     1      13.284  37.922  -7.803  1.00  0.00    -0.373 N 
ATOM      9  H5  UNL     1      13.465  37.013  -7.375  1.00  0.00     0.161 HD
HETATM   10  N9  UNL     1      12.197  38.126  -5.869  1.00  0.00    -0.176 N 
ATOM     11  H9  UNL     1      12.495  37.178  -5.638  1.00  0.00     0.186 HD
ENDROOT
BRANCH   6  12
HETATM   12  S1  UNL     1      12.664  40.651  -8.949  1.00  0.00    -0.121 SA
BRANCH  12  13
HETATM   13  C8  UNL     1      14.282  41.373  -9.003  1.00  0.00     0.112 C 
BRANCH  13  14
HETATM   14  C9  UNL     1      14.171  42.914  -8.921  1.00  0.00     0.197 C 
HETATM   15  C10 UNL     1      14.415  43.448  -7.512  1.00  0.00     0.061 C 
HETATM   16  C11 UNL     1      13.288  44.399  -7.876  1.00  0.00     0.235 C 
HETATM   17  N4  UNL     1      12.788  43.332  -8.740  1.00  0.00    -0.070 N 
ATOM     18  H42 UNL     1      12.192  43.539  -9.540  1.00  0.00     0.277 HD
ATOM     19  H41 UNL     1      12.080  42.676  -8.410  1.00  0.00     0.277 HD
ENDBRANCH  13  14
ENDBRANCH  12  13
ENDBRANCH   6  12
BRANCH   8  20
HETATM   20  C13 UNL     1      13.877  38.042  -9.051  1.00  0.00     0.141 C 
BRANCH  20  21
HETATM   21  C14 UNL     1      13.017  37.398 -10.162  1.00  0.00     0.142 C 
BRANCH  21  22
HETATM   22  N6  UNL     1      13.905  36.632 -10.984  1.00  0.00    -0.363 N 
HETATM   23  C15 UNL     1      13.547  36.079 -12.236  1.00  0.00     0.183 C 
HETATM   24  N7  UNL     1      13.098  34.742 -12.358  1.00  0.00    -0.064 NA
HETATM   25  N8  UNL     1      13.629  36.802 -13.286  1.00  0.00    -0.369 N 
HETATM   26  C16 UNL     1      14.086  38.168 -13.174  1.00  0.00     0.148 C 
ATOM     27  H8  UNL     1      13.375  36.418 -14.197  1.00  0.00     0.161 HD
ATOM     28  H6  UNL     1      14.854  36.475 -10.645  1.00  0.00     0.162 HD
ENDBRANCH  21  22
ENDBRANCH  20  21
ENDBRANCH   8  20
BRANCH   1  29
HETATM   29  N1  UNL     1      11.089  38.282  -3.854  1.00  0.00    -0.226 N 
ATOM     30  H1  UNL     1      11.837  38.010  -3.215  1.00  0.00     0.177 HD
BRANCH  29  31
HETATM   31  C4  UNL     1       9.763  38.063  -3.405  1.00  0.00     0.138 C 
BRANCH  31  32
HETATM   32  C3  UNL     1       9.679  37.420  -2.040  1.00  0.00     0.020 C 
BRANCH  32  33
HETATM   33  C2  UNL     1      10.469  38.184  -1.007  1.00  0.00    -0.003 C 
HETATM   34  C1  UNL     1       9.662  38.439   0.246  1.00  0.00     0.005 C 
ENDBRANCH  32  33
ENDBRANCH  31  32
ENDBRANCH  29  31
ENDBRANCH   1  29
TORSDOF 10
ENDMDL
MODEL 4
REMARK VINA RESULT: -8.053960349      1.321      1.679
REMARK  10 active torsions:
REMARK  status: ('A' for Active; 'I' for Inactive)
REMARK    1  A    between atoms: C2_2  and  C3_3 
REMARK    2  A    between atoms: C3_3  and  C4_4 
REMARK    3  A    between atoms: C4_4  and  N1_5 
REMARK    4  A    between atoms: N1_5  and  C5_7 
REMARK    5  A    between atoms: C7_12  and  S1_13 
REMARK    6  A    between atoms: S1_13  and  C8_14 
REMARK    7  A    between atoms: C8_14  and  C9_15 
REMARK    8  A    between atoms: N5_22  and  C13_24 
REMARK    9  A    between atoms: C13_24  and  C14_25 
REMARK   10  A    between atoms: C14_25  and  N6_26 
REMARK       I    between atoms: N6_26  and  C15_28 
ROOT
HETATM    1  C5  UNL     1      11.200  38.608  -4.803  1.00  0.00     0.681 A 
HETATM    2  N2  UNL     1      10.826  39.861  -5.080  1.00  0.00    -0.177 N 
ATOM      3  H2  UNL     1      10.225  40.347  -4.413  1.00  0.00     0.185 HD
HETATM    4  C6  UNL     1      11.208  40.523  -6.211  1.00  0.00     0.152 A 
HETATM    5  N3  UNL     1      10.769  41.856  -6.433  1.00  0.00    -0.081 NA
HETATM    6  C7  UNL     1      12.014  39.913  -7.133  1.00  0.00     0.086 A 
HETATM    7  C12 UNL     1      12.413  38.593  -6.847  1.00  0.00     0.137 A 
HETATM    8  N5  UNL     1      13.150  37.901  -7.584  1.00  0.00    -0.373 N 
ATOM      9  H5  UNL     1      13.321  36.973  -7.197  1.00  0.00     0.161 HD
HETATM   10  N9  UNL     1      11.984  37.997  -5.687  1.00  0.00    -0.176 N 
ATOM     11  H9  UNL     1      12.281  37.040  -5.494  1.00  0.00     0.186 HD
ENDROOT
BRANCH   6  12
HETATM   12  S1  UNL     1      12.552  40.683  -8.611  1.00  0.00    -0.121 SA
BRANCH  12  13
HETATM   13  C8  UNL     1      13.709  42.012  -8.418  1.00  0.00     0.112 C 
BRANCH  13  14
HETATM   14  C9  UNL     1      13.198  43.263  -9.171  1.00  0.00     0.197 C 
HETATM   15  C10 UNL     1      11.814  43.059  -9.781  1.00  0.00     0.061 C 
HETATM   16  C11 UNL     1      12.405  43.856 -10.931  1.00  0.00     0.235 C 
HETATM   17  N4  UNL     1      13.695  43.292 -10.539  1.00  0.00    -0.070 N 
ATOM     18  H42 UNL     1      14.568  43.765 -10.771  1.00  0.00     0.277 HD
ATOM     19  H41 UNL     1      14.058  42.450 -10.984  1.00  0.00     0.277 HD
ENDBRANCH  13  14
ENDBRANCH  12  13
ENDBRANCH   6  12
BRANCH   8  20
HETATM   20  C13 UNL     1      13.791  38.090  -8.799  1.00  0.00     0.141 C 
BRANCH  20  21
HETATM   21  C14 UNL     1      12.957  37.546  -9.981  1.00  0.00     0.142 C 
BRANCH  21  22
HETATM   22  N6  UNL     1      13.851  36.788 -10.806  1.00  0.00    -0.363 N 
HETATM   23  C15 UNL     1      13.521  36.301 -12.093  1.00  0.00     0.183 C 
HETATM   24  N7  UNL     1      13.037  34.984 -12.288  1.00  0.00    -0.064 NA
HETATM   25  N8  UNL     1      13.661  37.065 -13.107  1.00  0.00    -0.369 N 
HETATM   26  C16 UNL     1      14.153  38.411 -12.919  1.00  0.00     0.148 C 
ATOM     27  H8  UNL     1      13.427  36.729 -14.041  1.00  0.00     0.161 HD
ATOM     28  H6  UNL     1      14.783  36.588 -10.442  1.00  0.00     0.162 HD
ENDBRANCH  21  22
ENDBRANCH  20  21
ENDBRANCH   8  20
BRANCH   1  29
HETATM   29  N1  UNL     1      10.796  38.040  -3.713  1.00  0.00    -0.226 N 
ATOM     30  H1  UNL     1      11.506  37.566  -3.156  1.00  0.00     0.177 HD
BRANCH  29  31
HETATM   31  C4  UNL     1       9.470  38.006  -3.211  1.00  0.00     0.138 C 
BRANCH  31  32
HETATM   32  C3  UNL     1       9.360  37.424  -1.821  1.00  0.00     0.020 C 
BRANCH  32  33
HETATM   33  C2  UNL     1      10.365  38.030  -0.875  1.00  0.00    -0.003 C 
HETATM   34  C1  UNL     1       9.702  38.644   0.337  1.00  0.00     0.005 C 
ENDBRANCH  32  33
ENDBRANCH  31  32
ENDBRANCH  29  31
ENDBRANCH   1  29
TORSDOF 10
ENDMDL
MODEL 5
REMARK VINA RESULT: -7.950204139      1.176      1.671
REMARK  10 active torsions:
REMARK  status: ('A' for Active; 'I' for Inactive)
REMARK    1  A    between atoms: C2_2  and  C3_3 
REMARK    2  A    between atoms: C3_3  and  C4_4 
REMARK    3  A    between atoms: C4_4  and  N1_5 
REMARK    4  A    between atoms: N1_5  and  C5_7 
REMARK    5  A    between atoms: C7_12  and  S1_13 
REMARK    6  A    between atoms: S1_13  and  C8_14 
REMARK    7  A    between atoms: C8_14  and  C9_15 
REMARK    8  A    between atoms: N5_22  and  C13_24 
REMARK    9  A    between atoms: C13_24  and  C14_25 
REMARK   10  A    between atoms: C14_25  and  N6_26 
REMARK       I    between atoms: N6_26  and  C15_28 
ROOT
HETATM    1  C5  UNL     1      11.213  38.617  -4.873  1.00  0.00     0.681 A 
HETATM    2  N2  UNL     1      10.805  39.855  -5.171  1.00  0.00    -0.177 N 
ATOM      3  H2  UNL     1      10.155  40.318  -4.536  1.00  0.00     0.185 HD
HETATM    4  C6  UNL     1      11.215  40.529  -6.286  1.00  0.00     0.152 A 
HETATM    5  N3  UNL     1      10.737  41.844  -6.532  1.00  0.00    -0.081 NA
HETATM    6  C7  UNL     1      12.086  39.949  -7.167  1.00  0.00     0.086 A 
HETATM    7  C12 UNL     1      12.520  38.645  -6.858  1.00  0.00     0.137 A 
HETATM    8  N5  UNL     1      13.317  37.981  -7.556  1.00  0.00    -0.373 N 
ATOM      9  H5  UNL     1      13.505  37.060  -7.159  1.00  0.00     0.161 HD
HETATM   10  N9  UNL     1      12.060  38.036  -5.717  1.00  0.00    -0.176 N 
ATOM     11  H9  UNL     1      12.383  37.091  -5.508  1.00  0.00     0.186 HD
ENDROOT
BRANCH   6  12
HETATM   12  S1  UNL     1      12.665  40.736  -8.619  1.00  0.00    -0.121 SA
BRANCH  12  13
HETATM   13  C8  UNL     1      13.882  42.003  -8.385  1.00  0.00     0.112 C 
BRANCH  13  14
HETATM   14  C9  UNL     1      15.094  41.740  -9.309  1.00  0.00     0.197 C 
HETATM   15  C10 UNL     1      16.135  42.855  -9.245  1.00  0.00     0.061 C 
HETATM   16  C11 UNL     1      16.229  42.602 -10.740  1.00  0.00     0.235 C 
HETATM   17  N4  UNL     1      14.828  42.192 -10.667  1.00  0.00    -0.070 N 
ATOM     18  H42 UNL     1      14.427  41.563 -11.362  1.00  0.00     0.277 HD
ATOM     19  H41 UNL     1      14.076  42.853 -10.863  1.00  0.00     0.277 HD
ENDBRANCH  13  14
ENDBRANCH  12  13
ENDBRANCH   6  12
BRANCH   8  20
HETATM   20  C13 UNL     1      14.007  38.192  -8.741  1.00  0.00     0.141 C 
BRANCH  20  21
HETATM   21  C14 UNL     1      13.734  37.076  -9.774  1.00  0.00     0.142 C 
BRANCH  21  22
HETATM   22  N6  UNL     1      13.059  37.688 -10.879  1.00  0.00    -0.363 N 
HETATM   23  C15 UNL     1      13.704  38.112 -12.065  1.00  0.00     0.183 C 
HETATM   24  N7  UNL     1      14.132  39.451 -12.241  1.00  0.00    -0.064 NA
HETATM   25  N8  UNL     1      13.907  37.269 -13.003  1.00  0.00    -0.369 N 
HETATM   26  C16 UNL     1      13.475  35.901 -12.833  1.00  0.00     0.148 C 
ATOM     27  H8  UNL     1      14.371  37.559 -13.864  1.00  0.00     0.161 HD
ATOM     28  H6  UNL     1      12.051  37.828 -10.805  1.00  0.00     0.162 HD
ENDBRANCH  21  22
ENDBRANCH  20  21
ENDBRANCH   8  20
BRANCH   1  29
HETATM   29  N1  UNL     1      10.779  38.036  -3.802  1.00  0.00    -0.226 N 
ATOM     30  H1  UNL     1      11.466  37.518  -3.255  1.00  0.00     0.177 HD
BRANCH  29  31
HETATM   31  C4  UNL     1       9.451  38.042  -3.307  1.00  0.00     0.138 C 
BRANCH  31  32
HETATM   32  C3  UNL     1       9.317  37.477  -1.912  1.00  0.00     0.020 C 
BRANCH  32  33
HETATM   33  C2  UNL     1      10.348  38.047  -0.971  1.00  0.00    -0.003 C 
HETATM   34  C1  UNL     1       9.717  38.623   0.276  1.00  0.00     0.005 C 
ENDBRANCH  32  33
ENDBRANCH  31  32
ENDBRANCH  29  31
ENDBRANCH   1  29
TORSDOF 10
ENDMDL
