MODEL 1
REMARK VINA RESULT: -5.799865232      0.000      0.000
REMARK  2 active torsions:
REMARK  status: ('A' for Active; 'I' for Inactive)
REMARK    1  A    between atoms: C2_2  and  C3_3 
REMARK    2  A    between atoms: C3_3  and  C4_4 
ROOT
HETATM    1  C4  UNL     1     -28.733 -12.805  27.887  1.00  0.00     0.026 C 
HETATM    2  C5  UNL     1     -28.414 -13.625  29.113  1.00  0.00     0.087 C 
HETATM    3  S1  UNL     1     -27.051 -14.766  28.850  1.00  0.00    -0.167 SA
HETATM    4  C6  UNL     1     -25.477 -14.036  28.573  1.00  0.00     0.104 C 
HETATM    5  C7  UNL     1     -25.404 -12.550  28.636  1.00  0.00     0.286 C 
HETATM    6  N1  UNL     1     -26.641 -11.974  28.336  1.00  0.00     0.131 N 
HETATM    7  C8  UNL     1     -26.722 -10.629  27.996  1.00  0.00     0.481 C 
HETATM    8  C9  UNL     1     -26.276  -9.487  28.765  1.00  0.00     0.239 C 
HETATM    9  O1  UNL     1     -26.727  -8.366  28.061  1.00  0.00    -0.358 OA
HETATM   10  C10 UNL     1     -26.468  -8.334  26.711  1.00  0.00     0.171 C 
HETATM   11  C11 UNL     1     -26.864  -6.942  26.264  1.00  0.00     0.059 C 
HETATM   12  C12 UNL     1     -26.049  -6.524  25.107  1.00  0.00     0.014 C 
HETATM   13  C13 UNL     1     -24.604  -6.805  25.345  1.00  0.00     0.077 C 
HETATM   14  S2  UNL     1     -24.715  -8.359  26.310  1.00  0.00    -0.123 SA
HETATM   15  C14 UNL     1     -27.278  -9.286  25.901  1.00  0.00     0.205 C 
HETATM   16  O2  UNL     1     -27.223  -9.077  24.710  1.00  0.00    -0.291 OA
HETATM   17  C15 UNL     1     -28.151 -10.454  26.232  1.00  0.00     0.301 C 
HETATM   18  C16 UNL     1     -27.478 -11.802  25.986  1.00  0.00     0.080 C 
HETATM   19  C17 UNL     1     -27.351 -12.647  27.223  1.00  0.00     0.239 C 
HETATM   20  N2  UNL     1     -28.145 -10.410  27.706  1.00  0.00     0.137 N 
HETATM   21  C18 UNL     1     -29.023 -11.348  28.306  1.00  0.00     0.288 C 
ENDROOT
BRANCH   1  22
HETATM   22  C3  UNL     1     -29.752 -13.344  26.983  1.00  0.00     0.014 C 
BRANCH  22  23
HETATM   23  C2  UNL     1     -31.040 -12.594  27.117  1.00  0.00    -0.004 C 
HETATM   24  C1  UNL     1     -31.962 -12.939  25.928  1.00  0.00     0.005 C 
ENDBRANCH  22  23
ENDBRANCH   1  22
TORSDOF 2
ENDMDL
MODEL 2
REMARK VINA RESULT: -5.657415417      1.796      3.570
REMARK  2 active torsions:
REMARK  status: ('A' for Active; 'I' for Inactive)
REMARK    1  A    between atoms: C2_2  and  C3_3 
REMARK    2  A    between atoms: C3_3  and  C4_4 
ROOT
HETATM    1  C4  UNL     1     -27.099 -13.130  28.939  1.00  0.00     0.026 C 
HETATM    2  C5  UNL     1     -28.453 -13.785  29.053  1.00  0.00     0.087 C 
HETATM    3  S1  UNL     1     -29.494 -13.013  30.297  1.00  0.00    -0.167 SA
HETATM    4  C6  UNL     1     -29.999 -11.363  29.964  1.00  0.00     0.104 C 
HETATM    5  C7  UNL     1     -29.567 -10.776  28.665  1.00  0.00     0.286 C 
HETATM    6  N1  UNL     1     -28.399 -11.387  28.203  1.00  0.00     0.131 N 
HETATM    7  C8  UNL     1     -27.635 -10.779  27.214  1.00  0.00     0.481 C 
HETATM    8  C9  UNL     1     -28.053 -10.372  25.890  1.00  0.00     0.239 C 
HETATM    9  O1  UNL     1     -26.884  -9.963  25.240  1.00  0.00    -0.358 OA
HETATM   10  C10 UNL     1     -26.069  -9.088  25.921  1.00  0.00     0.171 C 
HETATM   11  C11 UNL     1     -25.022  -8.659  24.915  1.00  0.00     0.059 C 
HETATM   12  C12 UNL     1     -24.546  -7.295  25.221  1.00  0.00     0.014 C 
HETATM   13  C13 UNL     1     -25.694  -6.378  25.482  1.00  0.00     0.077 C 
HETATM   14  S2  UNL     1     -26.858  -7.521  26.315  1.00  0.00    -0.123 SA
HETATM   15  C14 UNL     1     -25.334  -9.690  27.067  1.00  0.00     0.205 C 
HETATM   16  O2  UNL     1     -24.445  -8.988  27.496  1.00  0.00    -0.291 OA
HETATM   17  C15 UNL     1     -25.449 -10.980  27.817  1.00  0.00     0.301 C 
HETATM   18  C16 UNL     1     -26.156 -10.837  29.162  1.00  0.00     0.080 C 
HETATM   19  C17 UNL     1     -27.411 -11.658  29.274  1.00  0.00     0.239 C 
HETATM   20  N2  UNL     1     -26.486 -11.676  27.034  1.00  0.00     0.137 N 
HETATM   21  C18 UNL     1     -26.709 -13.014  27.450  1.00  0.00     0.288 C 
ENDROOT
BRANCH   1  22
HETATM   22  C3  UNL     1     -26.024 -13.695  29.759  1.00  0.00     0.014 C 
BRANCH  22  23
HETATM   23  C2  UNL     1     -25.052 -14.461  28.918  1.00  0.00    -0.004 C 
HETATM   24  C1  UNL     1     -25.117 -15.958  29.290  1.00  0.00     0.005 C 
ENDBRANCH  22  23
ENDBRANCH   1  22
TORSDOF 2
ENDMDL
MODEL 3
REMARK VINA RESULT: -5.403069307      1.978      6.159
REMARK  2 active torsions:
REMARK  status: ('A' for Active; 'I' for Inactive)
REMARK    1  A    between atoms: C2_2  and  C3_3 
REMARK    2  A    between atoms: C3_3  and  C4_4 
ROOT
HETATM    1  C4  UNL     1     -27.437  -6.820  26.020  1.00  0.00     0.026 C 
HETATM    2  C5  UNL     1     -26.670  -6.339  24.813  1.00  0.00     0.087 C 
HETATM    3  S1  UNL     1     -24.913  -6.147  25.139  1.00  0.00    -0.167 SA
HETATM    4  C6  UNL     1     -24.026  -7.625  25.475  1.00  0.00     0.104 C 
HETATM    5  C7  UNL     1     -24.791  -8.901  25.407  1.00  0.00     0.286 C 
HETATM    6  N1  UNL     1     -26.149  -8.684  25.653  1.00  0.00     0.131 N 
HETATM    7  C8  UNL     1     -26.980  -9.749  25.982  1.00  0.00     0.481 C 
HETATM    8  C9  UNL     1     -27.218 -10.959  25.225  1.00  0.00     0.239 C 
HETATM    9  O1  UNL     1     -28.244 -11.626  25.903  1.00  0.00    -0.358 OA
HETATM   10  C10 UNL     1     -28.096 -11.773  27.263  1.00  0.00     0.171 C 
HETATM   11  C11 UNL     1     -29.218 -12.699  27.685  1.00  0.00     0.059 C 
HETATM   12  C12 UNL     1     -28.818 -13.479  28.872  1.00  0.00     0.014 C 
HETATM   13  C13 UNL     1     -27.454 -14.056  28.695  1.00  0.00     0.077 C 
HETATM   14  S2  UNL     1     -26.644 -12.722  27.735  1.00  0.00    -0.123 SA
HETATM   15  C14 UNL     1     -28.267 -10.516  28.044  1.00  0.00     0.205 C 
HETATM   16  O2  UNL     1     -28.383 -10.699  29.235  1.00  0.00    -0.291 OA
HETATM   17  C15 UNL     1     -28.328  -9.066  27.684  1.00  0.00     0.301 C 
HETATM   18  C16 UNL     1     -27.026  -8.318  27.966  1.00  0.00     0.080 C 
HETATM   19  C17 UNL     1     -26.404  -7.709  26.739  1.00  0.00     0.239 C 
HETATM   20  N2  UNL     1     -28.292  -9.133  26.212  1.00  0.00     0.137 N 
HETATM   21  C18 UNL     1     -28.475  -7.875  25.582  1.00  0.00     0.288 C 
ENDROOT
BRANCH   1  22
HETATM   22  C3  UNL     1     -28.015  -5.788  26.886  1.00  0.00     0.014 C 
BRANCH  22  23
HETATM   23  C2  UNL     1     -27.601  -4.421  26.442  1.00  0.00    -0.004 C 
HETATM   24  C1  UNL     1     -28.396  -3.360  27.234  1.00  0.00     0.005 C 
ENDBRANCH  22  23
ENDBRANCH   1  22
TORSDOF 2
ENDMDL
MODEL 4
REMARK VINA RESULT: -5.388215828      2.540      5.792
REMARK  2 active torsions:
REMARK  status: ('A' for Active; 'I' for Inactive)
REMARK    1  A    between atoms: C2_2  and  C3_3 
REMARK    2  A    between atoms: C3_3  and  C4_4 
ROOT
HETATM    1  C4  UNL     1     -27.691  -8.227  27.472  1.00  0.00     0.026 C 
HETATM    2  C5  UNL     1     -28.165  -7.114  28.374  1.00  0.00     0.087 C 
HETATM    3  S1  UNL     1     -29.922  -7.214  28.735  1.00  0.00    -0.167 SA
HETATM    4  C6  UNL     1     -30.436  -8.596  29.690  1.00  0.00     0.104 C 
HETATM    5  C7  UNL     1     -29.369  -9.525  30.157  1.00  0.00     0.286 C 
HETATM    6  N1  UNL     1     -28.257  -9.477  29.312  1.00  0.00     0.131 N 
HETATM    7  C8  UNL     1     -27.307 -10.491  29.349  1.00  0.00     0.481 C 
HETATM    8  C9  UNL     1     -26.536 -10.949  30.485  1.00  0.00     0.239 C 
HETATM    9  O1  UNL     1     -25.619 -11.867  29.965  1.00  0.00    -0.358 OA
HETATM   10  C10 UNL     1     -26.118 -12.840  29.131  1.00  0.00     0.171 C 
HETATM   11  C11 UNL     1     -24.966 -13.797  28.905  1.00  0.00     0.059 C 
HETATM   12  C12 UNL     1     -25.474 -15.161  28.656  1.00  0.00     0.014 C 
HETATM   13  C13 UNL     1     -26.514 -15.531  29.658  1.00  0.00     0.077 C 
HETATM   14  S2  UNL     1     -27.332 -13.912  29.914  1.00  0.00    -0.123 SA
HETATM   15  C14 UNL     1     -26.533 -12.351  27.787  1.00  0.00     0.205 C 
HETATM   16  O2  UNL     1     -26.732 -13.239  26.989  1.00  0.00    -0.291 OA
HETATM   17  C15 UNL     1     -26.763 -10.996  27.197  1.00  0.00     0.301 C 
HETATM   18  C16 UNL     1     -28.240 -10.625  27.091  1.00  0.00     0.080 C 
HETATM   19  C17 UNL     1     -28.611  -9.397  27.876  1.00  0.00     0.239 C 
HETATM   20  N2  UNL     1     -26.340 -10.123  28.306  1.00  0.00     0.137 N 
HETATM   21  C18 UNL     1     -26.326  -8.745  27.971  1.00  0.00     0.288 C 
ENDROOT
BRANCH   1  22
HETATM   22  C3  UNL     1     -27.698  -7.955  26.033  1.00  0.00     0.014 C 
BRANCH  22  23
HETATM   23  C2  UNL     1     -26.330  -7.594  25.548  1.00  0.00    -0.004 C 
HETATM   24  C1  UNL     1     -26.225  -6.061  25.398  1.00  0.00     0.005 C 
ENDBRANCH  22  23
ENDBRANCH   1  22
TORSDOF 2
ENDMDL
MODEL 5
REMARK VINA RESULT: -5.340151847      2.817      5.766
REMARK  2 active torsions:
REMARK  status: ('A' for Active; 'I' for Inactive)
REMARK    1  A    between atoms: C2_2  and  C3_3 
REMARK    2  A    between atoms: C3_3  and  C4_4 
ROOT
HETATM    1  C4  UNL     1     -26.148  -9.218  26.697  1.00  0.00     0.026 C 
HETATM    2  C5  UNL     1     -27.166  -9.647  25.669  1.00  0.00     0.087 C 
HETATM    3  S1  UNL     1     -26.950 -11.353  25.150  1.00  0.00    -0.167 SA
HETATM    4  C6  UNL     1     -27.247 -12.576  26.376  1.00  0.00     0.104 C 
HETATM    5  C7  UNL     1     -27.700 -12.094  27.711  1.00  0.00     0.286 C 
HETATM    6  N1  UNL     1     -27.273 -10.785  27.943  1.00  0.00     0.131 N 
HETATM    7  C8  UNL     1     -27.275 -10.265  29.232  1.00  0.00     0.481 C 
HETATM    8  C9  UNL     1     -28.391 -10.159  30.147  1.00  0.00     0.239 C 
HETATM    9  O1  UNL     1     -27.909  -9.429  31.238  1.00  0.00    -0.358 OA
HETATM   10  C10 UNL     1     -26.711  -9.836  31.778  1.00  0.00     0.171 C 
HETATM   11  C11 UNL     1     -26.551  -9.024  33.046  1.00  0.00     0.059 C 
HETATM   12  C12 UNL     1     -25.763  -9.778  34.041  1.00  0.00     0.014 C 
HETATM   13  C13 UNL     1     -26.256 -11.180  34.157  1.00  0.00     0.077 C 
HETATM   14  S2  UNL     1     -26.741 -11.515  32.423  1.00  0.00    -0.123 SA
HETATM   15  C14 UNL     1     -25.520  -9.544  30.934  1.00  0.00     0.205 C 
HETATM   16  O2  UNL     1     -24.467  -9.676  31.518  1.00  0.00    -0.291 OA
HETATM   17  C15 UNL     1     -25.328  -9.119  29.512  1.00  0.00     0.301 C 
HETATM   18  C16 UNL     1     -24.914 -10.263  28.590  1.00  0.00     0.080 C 
HETATM   19  C17 UNL     1     -25.891 -10.523  27.476  1.00  0.00     0.239 C 
HETATM   20  N2  UNL     1     -26.723  -8.913  29.084  1.00  0.00     0.137 N 
HETATM   21  C18 UNL     1     -26.841  -8.365  27.780  1.00  0.00     0.288 C 
ENDROOT
BRANCH   1  22
HETATM   22  C3  UNL     1     -24.923  -8.595  26.190  1.00  0.00     0.014 C 
BRANCH  22  23
HETATM   23  C2  UNL     1     -25.224  -7.305  25.495  1.00  0.00    -0.004 C 
HETATM   24  C1  UNL     1     -23.902  -6.594  25.135  1.00  0.00     0.005 C 
ENDBRANCH  22  23
ENDBRANCH   1  22
TORSDOF 2
ENDMDL
