MODEL 1
REMARK VINA RESULT: -6.435210501      0.000      0.000
REMARK  1 active torsions:
REMARK  status: ('A' for Active; 'I' for Inactive)
REMARK    1  A    between atoms: C8_12  and  N1_13 
ROOT
HETATM    1  N1  UNL     1     -27.450  -9.718  27.401  1.00  0.00    -0.351 N 
HETATM    2  C9  UNL     1     -28.526 -10.465  26.915  1.00  0.00     0.065 C 
HETATM    3  C10 UNL     1     -29.297 -11.237  27.965  1.00  0.00     0.046 C 
HETATM    4  C11 UNL     1     -29.613 -12.636  27.583  1.00  0.00     0.016 C 
HETATM    5  C12 UNL     1     -28.500 -13.591  27.532  1.00  0.00    -0.018 C 
HETATM    6  C13 UNL     1     -28.912 -14.852  28.301  1.00  0.00     0.012 C 
HETATM    7  C14 UNL     1     -28.272 -16.005  27.602  1.00  0.00     0.001 C 
HETATM    8  C15 UNL     1     -27.552 -15.471  26.396  1.00  0.00     0.001 C 
HETATM    9  C16 UNL     1     -28.248 -14.164  26.151  1.00  0.00     0.012 C 
HETATM   10  C17 UNL     1     -27.199 -13.140  28.109  1.00  0.00     0.177 C 
HETATM   11  O4  UNL     1     -26.449 -12.472  27.162  1.00  0.00    -0.385 OA
HETATM   12  C18 UNL     1     -25.696 -11.434  27.642  1.00  0.00     0.212 C 
HETATM   13  C19 UNL     1     -26.489 -10.292  28.216  1.00  0.00     0.090 C 
ENDROOT
BRANCH   1  14
HETATM   14  C8  UNL     1     -27.362  -8.355  27.061  1.00  0.00     0.238 C 
HETATM   15  S1  UNL     1     -27.007  -8.180  25.346  1.00  0.00     0.287 S 
HETATM   16  O1  UNL     1     -26.435  -9.501  24.841  1.00  0.00    -0.196 OA
HETATM   17  O2  UNL     1     -28.290  -7.983  24.549  1.00  0.00    -0.196 OA
HETATM   18  O3  UNL     1     -25.888  -7.019  24.997  1.00  0.00    -0.274 OA
HETATM   19  C1  UNL     1     -25.926  -5.904  25.790  1.00  0.00     0.190 C 
HETATM   20  C2  UNL     1     -27.104  -5.003  25.507  1.00  0.00     0.028 C 
HETATM   21  C3  UNL     1     -27.637  -4.336  26.757  1.00  0.00     0.002 C 
HETATM   22  C4  UNL     1     -29.055  -4.706  27.055  1.00  0.00     0.000 C 
HETATM   23  C5  UNL     1     -29.257  -5.373  28.376  1.00  0.00     0.000 C 
HETATM   24  C6  UNL     1     -28.432  -6.621  28.547  1.00  0.00     0.003 C 
HETATM   25  C7  UNL     1     -28.627  -7.626  27.469  1.00  0.00     0.044 C 
ENDBRANCH   1  14
TORSDOF 1
ENDMDL
MODEL 2
REMARK VINA RESULT: -6.408330978      1.588      1.817
REMARK  1 active torsions:
REMARK  status: ('A' for Active; 'I' for Inactive)
REMARK    1  A    between atoms: C8_12  and  N1_13 
ROOT
HETATM    1  N1  UNL     1     -26.543 -10.755  28.003  1.00  0.00    -0.351 N 
HETATM    2  C9  UNL     1     -27.509 -11.688  27.621  1.00  0.00     0.065 C 
HETATM    3  C10 UNL     1     -28.292 -12.305  28.761  1.00  0.00     0.046 C 
HETATM    4  C11 UNL     1     -28.455 -13.777  28.662  1.00  0.00     0.016 C 
HETATM    5  C12 UNL     1     -27.264 -14.606  28.879  1.00  0.00    -0.018 C 
HETATM    6  C13 UNL     1     -27.626 -15.720  29.868  1.00  0.00     0.012 C 
HETATM    7  C14 UNL     1     -26.837 -16.921  29.466  1.00  0.00     0.001 C 
HETATM    8  C15 UNL     1     -26.072 -16.573  28.220  1.00  0.00     0.001 C 
HETATM    9  C16 UNL     1     -26.856 -15.419  27.666  1.00  0.00     0.012 C 
HETATM   10  C17 UNL     1     -26.057 -13.919  29.425  1.00  0.00     0.177 C 
HETATM   11  O4  UNL     1     -25.294 -13.386  28.406  1.00  0.00    -0.385 OA
HETATM   12  C18 UNL     1     -24.673 -12.202  28.702  1.00  0.00     0.212 C 
HETATM   13  C19 UNL     1     -25.604 -11.053  28.977  1.00  0.00     0.090 C 
ENDROOT
BRANCH   1  14
HETATM   14  C8  UNL     1     -26.545  -9.487  27.392  1.00  0.00     0.238 C 
HETATM   15  S1  UNL     1     -26.085  -9.630  25.699  1.00  0.00     0.287 S 
HETATM   16  O1  UNL     1     -25.369 -10.964  25.511  1.00  0.00    -0.196 OA
HETATM   17  O2  UNL     1     -27.320  -9.724  24.813  1.00  0.00    -0.196 OA
HETATM   18  O3  UNL     1     -25.045  -8.461  25.175  1.00  0.00    -0.274 OA
HETATM   19  C1  UNL     1     -25.232  -7.218  25.715  1.00  0.00     0.190 C 
HETATM   20  C2  UNL     1     -26.458  -6.511  25.189  1.00  0.00     0.028 C 
HETATM   21  C3  UNL     1     -27.134  -5.659  26.242  1.00  0.00     0.002 C 
HETATM   22  C4  UNL     1     -28.533  -6.096  26.536  1.00  0.00     0.000 C 
HETATM   23  C5  UNL     1     -28.773  -6.498  27.954  1.00  0.00     0.000 C 
HETATM   24  C6  UNL     1     -27.861  -7.599  28.425  1.00  0.00     0.003 C 
HETATM   25  C7  UNL     1     -27.892  -8.816  27.571  1.00  0.00     0.044 C 
ENDBRANCH   1  14
TORSDOF 1
ENDMDL
MODEL 3
REMARK VINA RESULT: -6.346646063      2.134      7.954
REMARK  1 active torsions:
REMARK  status: ('A' for Active; 'I' for Inactive)
REMARK    1  A    between atoms: C8_12  and  N1_13 
ROOT
HETATM    1  N1  UNL     1     -27.597  -6.717  26.690  1.00  0.00    -0.351 N 
HETATM    2  C9  UNL     1     -28.426  -5.943  27.503  1.00  0.00     0.065 C 
HETATM    3  C10 UNL     1     -29.525  -5.198  26.775  1.00  0.00     0.046 C 
HETATM    4  C11 UNL     1     -29.684  -3.783  27.196  1.00  0.00     0.016 C 
HETATM    5  C12 UNL     1     -28.628  -2.839  26.809  1.00  0.00    -0.018 C 
HETATM    6  C13 UNL     1     -29.291  -1.600  26.196  1.00  0.00     0.012 C 
HETATM    7  C14 UNL     1     -28.445  -0.432  26.577  1.00  0.00     0.001 C 
HETATM    8  C15 UNL     1     -27.337  -0.934  27.461  1.00  0.00     0.001 C 
HETATM    9  C16 UNL     1     -27.897  -2.223  27.985  1.00  0.00     0.012 C 
HETATM   10  C17 UNL     1     -27.622  -3.325  25.819  1.00  0.00     0.177 C 
HETATM   11  O4  UNL     1     -26.580  -3.968  26.455  1.00  0.00    -0.385 OA
HETATM   12  C18 UNL     1     -26.049  -5.031  25.773  1.00  0.00     0.212 C 
HETATM   13  C19 UNL     1     -26.995  -6.182  25.563  1.00  0.00     0.090 C 
ENDROOT
BRANCH   1  14
HETATM   14  C8  UNL     1     -27.391  -8.070  27.022  1.00  0.00     0.238 C 
HETATM   15  S1  UNL     1     -27.883  -9.104  25.685  1.00  0.00     0.287 S 
HETATM   16  O1  UNL     1     -28.811  -8.300  24.778  1.00  0.00    -0.196 OA
HETATM   17  O2  UNL     1     -26.688  -9.451  24.807  1.00  0.00    -0.196 OA
HETATM   18  O3  UNL     1     -28.720 -10.450  26.139  1.00  0.00    -0.274 OA
HETATM   19  C1  UNL     1     -28.325 -11.023  27.317  1.00  0.00     0.190 C 
HETATM   20  C2  UNL     1     -27.004 -11.747  27.223  1.00  0.00     0.028 C 
HETATM   21  C3  UNL     1     -26.188 -11.635  28.493  1.00  0.00     0.002 C 
HETATM   22  C4  UNL     1     -24.878 -10.946  28.285  1.00  0.00     0.000 C 
HETATM   23  C5  UNL     1     -24.696  -9.702  29.091  1.00  0.00     0.000 C 
HETATM   24  C6  UNL     1     -25.773  -8.677  28.859  1.00  0.00     0.003 C 
HETATM   25  C7  UNL     1     -25.950  -8.299  27.432  1.00  0.00     0.044 C 
ENDBRANCH   1  14
TORSDOF 1
ENDMDL
MODEL 4
REMARK VINA RESULT: -6.309328634      2.271      7.160
REMARK  1 active torsions:
REMARK  status: ('A' for Active; 'I' for Inactive)
REMARK    1  A    between atoms: C8_12  and  N1_13 
ROOT
HETATM    1  N1  UNL     1     -27.877 -11.337  26.945  1.00  0.00    -0.351 N 
HETATM    2  C9  UNL     1     -27.445 -10.247  27.703  1.00  0.00     0.065 C 
HETATM    3  C10 UNL     1     -28.060  -8.917  27.322  1.00  0.00     0.046 C 
HETATM    4  C11 UNL     1     -27.086  -7.800  27.231  1.00  0.00     0.016 C 
HETATM    5  C12 UNL     1     -26.140  -7.816  26.109  1.00  0.00    -0.018 C 
HETATM    6  C13 UNL     1     -26.148  -6.430  25.453  1.00  0.00     0.012 C 
HETATM    7  C14 UNL     1     -24.757  -6.178  24.974  1.00  0.00     0.001 C 
HETATM    8  C15 UNL     1     -23.907  -7.344  25.393  1.00  0.00     0.001 C 
HETATM    9  C16 UNL     1     -24.690  -7.926  26.533  1.00  0.00     0.012 C 
HETATM   10  C17 UNL     1     -26.401  -8.808  25.024  1.00  0.00     0.177 C 
HETATM   11  O4  UNL     1     -25.812 -10.021  25.319  1.00  0.00    -0.385 OA
HETATM   12  C18 UNL     1     -26.511 -11.123  24.904  1.00  0.00     0.212 C 
HETATM   13  C19 UNL     1     -27.852 -11.304  25.561  1.00  0.00     0.090 C 
ENDROOT
BRANCH   1  14
HETATM   14  C8  UNL     1     -28.360 -12.479  27.613  1.00  0.00     0.238 C 
HETATM   15  S1  UNL     1     -27.033 -13.325  28.402  1.00  0.00     0.287 S 
HETATM   16  O1  UNL     1     -25.727 -12.872  27.755  1.00  0.00    -0.196 OA
HETATM   17  O2  UNL     1     -26.914 -12.897  29.858  1.00  0.00    -0.196 OA
HETATM   18  O3  UNL     1     -27.087 -14.967  28.250  1.00  0.00    -0.274 OA
HETATM   19  C1  UNL     1     -28.337 -15.522  28.266  1.00  0.00     0.190 C 
HETATM   20  C2  UNL     1     -28.980 -15.521  29.632  1.00  0.00     0.028 C 
HETATM   21  C3  UNL     1     -30.478 -15.309  29.569  1.00  0.00     0.002 C 
HETATM   22  C4  UNL     1     -30.921 -14.068  30.276  1.00  0.00     0.000 C 
HETATM   23  C5  UNL     1     -31.621 -13.075  29.407  1.00  0.00     0.000 C 
HETATM   24  C6  UNL     1     -30.802 -12.637  28.223  1.00  0.00     0.003 C 
HETATM   25  C7  UNL     1     -29.462 -12.099  28.580  1.00  0.00     0.044 C 
ENDBRANCH   1  14
TORSDOF 1
ENDMDL
MODEL 5
REMARK VINA RESULT: -6.290171056      2.421      7.506
REMARK  1 active torsions:
REMARK  status: ('A' for Active; 'I' for Inactive)
REMARK    1  A    between atoms: C8_12  and  N1_13 
ROOT
HETATM    1  N1  UNL     1     -27.331 -11.402  27.339  1.00  0.00    -0.351 N 
HETATM    2  C9  UNL     1     -27.366 -10.885  26.042  1.00  0.00     0.065 C 
HETATM    3  C10 UNL     1     -26.011 -10.622  25.420  1.00  0.00     0.046 C 
HETATM    4  C11 UNL     1     -25.902  -9.313  24.728  1.00  0.00     0.016 C 
HETATM    5  C12 UNL     1     -25.881  -8.106  25.564  1.00  0.00    -0.018 C 
HETATM    6  C13 UNL     1     -24.715  -7.223  25.105  1.00  0.00     0.012 C 
HETATM    7  C14 UNL     1     -25.155  -5.809  25.285  1.00  0.00     0.001 C 
HETATM    8  C15 UNL     1     -26.577  -5.827  25.770  1.00  0.00     0.001 C 
HETATM    9  C16 UNL     1     -27.056  -7.178  25.327  1.00  0.00     0.012 C 
HETATM   10  C17 UNL     1     -25.717  -8.308  27.034  1.00  0.00     0.177 C 
HETATM   11  O4  UNL     1     -26.942  -8.503  27.640  1.00  0.00    -0.385 OA
HETATM   12  C18 UNL     1     -26.937  -9.380  28.692  1.00  0.00     0.212 C 
HETATM   13  C19 UNL     1     -26.581 -10.796  28.333  1.00  0.00     0.090 C 
ENDROOT
BRANCH   1  14
HETATM   14  C8  UNL     1     -28.063 -12.570  27.624  1.00  0.00     0.238 C 
HETATM   15  S1  UNL     1     -29.764 -12.178  27.855  1.00  0.00     0.287 S 
HETATM   16  O1  UNL     1     -29.871 -10.685  28.155  1.00  0.00    -0.196 OA
HETATM   17  O2  UNL     1     -30.541 -12.370  26.560  1.00  0.00    -0.196 OA
HETATM   18  O3  UNL     1     -30.478 -12.962  29.118  1.00  0.00    -0.274 OA
HETATM   19  C1  UNL     1     -30.052 -14.245  29.334  1.00  0.00     0.190 C 
HETATM   20  C2  UNL     1     -30.552 -15.228  28.303  1.00  0.00     0.028 C 
HETATM   21  C3  UNL     1     -29.540 -16.312  27.997  1.00  0.00     0.002 C 
HETATM   22  C4  UNL     1     -29.100 -16.311  26.567  1.00  0.00     0.000 C 
HETATM   23  C5  UNL     1     -27.635 -16.100  26.370  1.00  0.00     0.000 C 
HETATM   24  C6  UNL     1     -27.127 -14.824  26.987  1.00  0.00     0.003 C 
HETATM   25  C7  UNL     1     -27.851 -13.605  26.537  1.00  0.00     0.044 C 
ENDBRANCH   1  14
TORSDOF 1
ENDMDL
