MODEL 1
REMARK VINA RESULT: -7.065055500      0.000      0.000
REMARK  7 active torsions:
REMARK  status: ('A' for Active; 'I' for Inactive)
REMARK    1  A    between atoms: N1_7  and  C7_8 
REMARK    2  A    between atoms: C7_8  and  C8_9 
REMARK    3  A    between atoms: C8_9  and  C9_10 
REMARK    4  A    between atoms: C9_10  and  O1_11 
REMARK    5  A    between atoms: O1_11  and  C10_12 
REMARK    6  A    between atoms: C15_18  and  N2_19 
REMARK    7  A    between atoms: C16_24  and  N4_25 
ROOT
HETATM    1  C10 UNL     1      17.291 -24.012 -40.731  1.00  0.00     0.098 A 
HETATM    2  C11 UNL     1      17.097 -23.480 -39.473  1.00  0.00     0.058 A 
HETATM    3  C12 UNL     1      15.957 -23.771 -38.768  1.00  0.00     0.014 A 
HETATM    4 BR1  UNL     1      15.710 -23.024 -37.026  1.00  0.00    -0.051 Br
HETATM    5  C13 UNL     1      14.967 -24.591 -39.264  1.00  0.00     0.036 A 
HETATM    6  C14 UNL     1      15.127 -25.141 -40.525  1.00  0.00     0.039 A 
HETATM    7  C15 UNL     1      14.141 -25.966 -41.041  1.00  0.00     0.127 A 
HETATM    8  N3  UNL     1      14.368 -26.474 -42.289  1.00  0.00    -0.176 N 
ATOM      9  H3  UNL     1      13.675 -27.089 -42.717  1.00  0.00     0.186 HD
HETATM   10  C16 UNL     1      15.491 -26.174 -42.959  1.00  0.00     0.678 A 
HETATM   11  N5  UNL     1      16.436 -25.371 -42.442  1.00  0.00    -0.188 N 
ATOM     12  H5  UNL     1      17.280 -25.162 -42.976  1.00  0.00     0.184 HD
HETATM   13  C17 UNL     1      16.261 -24.844 -41.212  1.00  0.00     0.096 A 
ENDROOT
BRANCH   1  14
HETATM   14  O1  UNL     1      18.385 -23.781 -41.509  1.00  0.00    -0.349 OA
BRANCH  14  15
HETATM   15  C9  UNL     1      19.502 -23.038 -41.283  1.00  0.00     0.177 C 
BRANCH  15  16
HETATM   16  C8  UNL     1      19.678 -21.775 -42.090  1.00  0.00     0.057 C 
BRANCH  16  17
HETATM   17  C7  UNL     1      21.139 -21.751 -42.519  1.00  0.00     0.275 C 
BRANCH  17  18
HETATM   18  N1  UNL     1      21.560 -20.441 -42.958  1.00  0.00     0.092 N 
HETATM   19  C2  UNL     1      22.999 -20.271 -42.938  1.00  0.00     0.219 C 
HETATM   20  C1  UNL     1      23.340 -19.035 -43.752  1.00  0.00     0.043 C 
HETATM   21  C3  UNL     1      23.696 -21.438 -43.599  1.00  0.00     0.035 C 
HETATM   22  C4  UNL     1      23.203 -21.675 -45.004  1.00  0.00     0.004 C 
HETATM   23  C5  UNL     1      21.750 -21.437 -45.193  1.00  0.00     0.030 C 
HETATM   24  C6  UNL     1      21.165 -20.341 -44.361  1.00  0.00     0.273 C 
ENDBRANCH  17  18
ENDBRANCH  16  17
ENDBRANCH  15  16
ENDBRANCH  14  15
ENDBRANCH   1  14
BRANCH   7  25
HETATM   25  N2  UNL     1      13.075 -26.259 -40.420  1.00  0.00    -0.384 N 
ATOM     26  H22 UNL     1      12.190 -25.834 -40.696  1.00  0.00     0.157 HD
ATOM     27  H21 UNL     1      13.039 -26.913 -39.638  1.00  0.00     0.157 HD
ENDBRANCH   7  25
BRANCH  10  28
HETATM   28  N4  UNL     1      15.612 -26.708 -44.142  1.00  0.00    -0.234 N 
ATOM     29  H42 UNL     1      14.939 -27.386 -44.499  1.00  0.00     0.174 HD
ATOM     30  H41 UNL     1      16.419 -26.407 -44.689  1.00  0.00     0.174 HD
ENDBRANCH  10  28
TORSDOF 7
ENDMDL
MODEL 2
REMARK VINA RESULT: -7.040690148      2.980      3.994
REMARK  7 active torsions:
REMARK  status: ('A' for Active; 'I' for Inactive)
REMARK    1  A    between atoms: N1_7  and  C7_8 
REMARK    2  A    between atoms: C7_8  and  C8_9 
REMARK    3  A    between atoms: C8_9  and  C9_10 
REMARK    4  A    between atoms: C9_10  and  O1_11 
REMARK    5  A    between atoms: O1_11  and  C10_12 
REMARK    6  A    between atoms: C15_18  and  N2_19 
REMARK    7  A    between atoms: C16_24  and  N4_25 
ROOT
HETATM    1  C10 UNL     1      18.252 -24.553 -43.548  1.00  0.00     0.098 A 
HETATM    2  C11 UNL     1      18.925 -24.239 -44.710  1.00  0.00     0.058 A 
HETATM    3  C12 UNL     1      18.630 -24.895 -45.879  1.00  0.00     0.014 A 
HETATM    4 BR1  UNL     1      19.575 -24.442 -47.477  1.00  0.00    -0.051 Br
HETATM    5  C13 UNL     1      17.669 -25.878 -45.954  1.00  0.00     0.036 A 
HETATM    6  C14 UNL     1      16.974 -26.221 -44.806  1.00  0.00     0.039 A 
HETATM    7  C15 UNL     1      16.004 -27.209 -44.863  1.00  0.00     0.127 A 
HETATM    8  N3  UNL     1      15.358 -27.493 -43.693  1.00  0.00    -0.176 N 
ATOM      9  H3  UNL     1      14.635 -28.211 -43.678  1.00  0.00     0.186 HD
HETATM   10  C16 UNL     1      15.666 -26.838 -42.563  1.00  0.00     0.678 A 
HETATM   11  N5  UNL     1      16.610 -25.882 -42.527  1.00  0.00    -0.188 N 
ATOM     12  H5  UNL     1      16.820 -25.401 -41.653  1.00  0.00     0.184 HD
HETATM   13  C17 UNL     1      17.277 -25.563 -43.657  1.00  0.00     0.096 A 
ENDROOT
BRANCH   1  14
HETATM   14  O1  UNL     1      18.475 -23.962 -42.341  1.00  0.00    -0.349 OA
BRANCH  14  15
HETATM   15  C9  UNL     1      19.592 -23.389 -41.819  1.00  0.00     0.177 C 
BRANCH  15  16
HETATM   16  C8  UNL     1      19.824 -21.924 -42.100  1.00  0.00     0.057 C 
BRANCH  16  17
HETATM   17  C7  UNL     1      21.280 -21.805 -42.527  1.00  0.00     0.275 C 
BRANCH  17  18
HETATM   18  N1  UNL     1      21.612 -20.472 -42.975  1.00  0.00     0.092 N 
HETATM   19  C2  UNL     1      23.040 -20.220 -43.002  1.00  0.00     0.219 C 
HETATM   20  C1  UNL     1      23.283 -18.966 -43.823  1.00  0.00     0.043 C 
HETATM   21  C3  UNL     1      23.779 -21.345 -43.689  1.00  0.00     0.035 C 
HETATM   22  C4  UNL     1      23.255 -21.608 -45.078  1.00  0.00     0.004 C 
HETATM   23  C5  UNL     1      21.784 -21.453 -45.219  1.00  0.00     0.030 C 
HETATM   24  C6  UNL     1      21.166 -20.393 -44.365  1.00  0.00     0.273 C 
ENDBRANCH  17  18
ENDBRANCH  16  17
ENDBRANCH  15  16
ENDBRANCH  14  15
ENDBRANCH   1  14
BRANCH   7  25
HETATM   25  N2  UNL     1      15.703 -27.836 -45.924  1.00  0.00    -0.384 N 
ATOM     26  H22 UNL     1      16.326 -28.559 -46.284  1.00  0.00     0.157 HD
ATOM     27  H21 UNL     1      14.852 -27.664 -46.459  1.00  0.00     0.157 HD
ENDBRANCH   7  25
BRANCH  10  28
HETATM   28  N4  UNL     1      14.994 -27.183 -41.501  1.00  0.00    -0.234 N 
ATOM     29  H42 UNL     1      14.917 -28.155 -41.204  1.00  0.00     0.174 HD
ATOM     30  H41 UNL     1      14.551 -26.423 -40.984  1.00  0.00     0.174 HD
ENDBRANCH  10  28
TORSDOF 7
ENDMDL
MODEL 3
REMARK VINA RESULT: -7.007460561      1.026      1.582
REMARK  7 active torsions:
REMARK  status: ('A' for Active; 'I' for Inactive)
REMARK    1  A    between atoms: N1_7  and  C7_8 
REMARK    2  A    between atoms: C7_8  and  C8_9 
REMARK    3  A    between atoms: C8_9  and  C9_10 
REMARK    4  A    between atoms: C9_10  and  O1_11 
REMARK    5  A    between atoms: O1_11  and  C10_12 
REMARK    6  A    between atoms: C15_18  and  N2_19 
REMARK    7  A    between atoms: C16_24  and  N4_25 
ROOT
HETATM    1  C10 UNL     1      18.048 -23.653 -40.972  1.00  0.00     0.098 A 
HETATM    2  C11 UNL     1      17.514 -23.261 -39.763  1.00  0.00     0.058 A 
HETATM    3  C12 UNL     1      16.278 -23.713 -39.374  1.00  0.00     0.014 A 
HETATM    4 BR1  UNL     1      15.558 -23.156 -37.693  1.00  0.00    -0.051 Br
HETATM    5  C13 UNL     1      15.522 -24.563 -40.149  1.00  0.00     0.036 A 
HETATM    6  C14 UNL     1      16.026 -24.977 -41.371  1.00  0.00     0.039 A 
HETATM    7  C15 UNL     1      15.279 -25.832 -42.165  1.00  0.00     0.127 A 
HETATM    8  N3  UNL     1      15.840 -26.199 -43.356  1.00  0.00    -0.176 N 
ATOM      9  H3  UNL     1      15.334 -26.828 -43.979  1.00  0.00     0.186 HD
HETATM   10  C16 UNL     1      17.049 -25.743 -43.715  1.00  0.00     0.678 A 
HETATM   11  N5  UNL     1      17.760 -24.914 -42.931  1.00  0.00    -0.188 N 
ATOM     12  H5  UNL     1      18.678 -24.585 -43.231  1.00  0.00     0.184 HD
HETATM   13  C17 UNL     1      17.251 -24.521 -41.744  1.00  0.00     0.096 A 
ENDROOT
BRANCH   1  14
HETATM   14  O1  UNL     1      19.262 -23.258 -41.448  1.00  0.00    -0.349 OA
BRANCH  14  15
HETATM   15  C9  UNL     1      19.685 -22.059 -41.931  1.00  0.00     0.177 C 
BRANCH  15  16
HETATM   16  C8  UNL     1      19.705 -21.876 -43.429  1.00  0.00     0.057 C 
BRANCH  16  17
HETATM   17  C7  UNL     1      20.748 -20.803 -43.707  1.00  0.00     0.275 C 
BRANCH  17  18
HETATM   18  N1  UNL     1      21.930 -20.964 -42.891  1.00  0.00     0.092 N 
HETATM   19  C2  UNL     1      22.869 -21.924 -43.435  1.00  0.00     0.219 C 
HETATM   20  C1  UNL     1      24.199 -21.739 -42.725  1.00  0.00     0.043 C 
HETATM   21  C3  UNL     1      23.118 -21.673 -44.905  1.00  0.00     0.035 C 
HETATM   22  C4  UNL     1      23.577 -20.263 -45.173  1.00  0.00     0.004 C 
HETATM   23  C5  UNL     1      22.938 -19.235 -44.311  1.00  0.00     0.030 C 
HETATM   24  C6  UNL     1      22.615 -19.673 -42.920  1.00  0.00     0.273 C 
ENDBRANCH  17  18
ENDBRANCH  16  17
ENDBRANCH  15  16
ENDBRANCH  14  15
ENDBRANCH   1  14
BRANCH   7  25
HETATM   25  N2  UNL     1      14.135 -26.272 -41.839  1.00  0.00    -0.384 N 
ATOM     26  H22 UNL     1      13.746 -26.054 -40.922  1.00  0.00     0.157 HD
ATOM     27  H21 UNL     1      13.556 -26.846 -42.451  1.00  0.00     0.157 HD
ENDBRANCH   7  25
BRANCH  10  28
HETATM   28  N4  UNL     1      17.496 -26.151 -44.869  1.00  0.00    -0.234 N 
ATOM     29  H42 UNL     1      17.982 -27.041 -44.974  1.00  0.00     0.174 HD
ATOM     30  H41 UNL     1      17.331 -25.528 -45.659  1.00  0.00     0.174 HD
ENDBRANCH  10  28
TORSDOF 7
ENDMDL
MODEL 4
REMARK VINA RESULT: -6.959143693      3.204      7.562
REMARK  7 active torsions:
REMARK  status: ('A' for Active; 'I' for Inactive)
REMARK    1  A    between atoms: N1_7  and  C7_8 
REMARK    2  A    between atoms: C7_8  and  C8_9 
REMARK    3  A    between atoms: C8_9  and  C9_10 
REMARK    4  A    between atoms: C9_10  and  O1_11 
REMARK    5  A    between atoms: O1_11  and  C10_12 
REMARK    6  A    between atoms: C15_18  and  N2_19 
REMARK    7  A    between atoms: C16_24  and  N4_25 
ROOT
HETATM    1  C10 UNL     1      19.482 -23.002 -42.364  1.00  0.00     0.098 A 
HETATM    2  C11 UNL     1      20.281 -21.909 -42.629  1.00  0.00     0.058 A 
HETATM    3  C12 UNL     1      20.596 -21.581 -43.923  1.00  0.00     0.014 A 
HETATM    4 BR1  UNL     1      21.704 -20.062 -44.266  1.00  0.00    -0.051 Br
HETATM    5  C13 UNL     1      20.143 -22.305 -45.003  1.00  0.00     0.036 A 
HETATM    6  C14 UNL     1      19.339 -23.410 -44.775  1.00  0.00     0.039 A 
HETATM    7  C15 UNL     1      18.875 -24.151 -45.850  1.00  0.00     0.127 A 
HETATM    8  N3  UNL     1      18.086 -25.226 -45.549  1.00  0.00    -0.176 N 
ATOM      9  H3  UNL     1      17.716 -25.806 -46.302  1.00  0.00     0.186 HD
HETATM   10  C16 UNL     1      17.793 -25.528 -44.275  1.00  0.00     0.678 A 
HETATM   11  N5  UNL     1      18.252 -24.797 -43.246  1.00  0.00    -0.188 N 
ATOM     12  H5  UNL     1      18.011 -25.050 -42.288  1.00  0.00     0.184 HD
HETATM   13  C17 UNL     1      19.035 -23.724 -43.489  1.00  0.00     0.096 A 
ENDROOT
BRANCH   1  14
HETATM   14  O1  UNL     1      19.116 -23.410 -41.117  1.00  0.00    -0.349 OA
BRANCH  14  15
HETATM   15  C9  UNL     1      18.168 -22.937 -40.265  1.00  0.00     0.177 C 
BRANCH  15  16
HETATM   16  C8  UNL     1      16.939 -23.785 -40.044  1.00  0.00     0.057 C 
BRANCH  16  17
HETATM   17  C7  UNL     1      16.708 -23.806 -38.539  1.00  0.00     0.275 C 
BRANCH  17  18
HETATM   18  N1  UNL     1      15.582 -22.991 -38.146  1.00  0.00     0.092 N 
HETATM   19  C2  UNL     1      14.311 -23.526 -38.594  1.00  0.00     0.219 C 
HETATM   20  C1  UNL     1      13.205 -22.821 -37.827  1.00  0.00     0.043 C 
HETATM   21  C3  UNL     1      14.196 -24.999 -38.275  1.00  0.00     0.035 C 
HETATM   22  C4  UNL     1      14.413 -25.285 -36.811  1.00  0.00     0.004 C 
HETATM   23  C5  UNL     1      15.445 -24.434 -36.166  1.00  0.00     0.030 C 
HETATM   24  C6  UNL     1      15.543 -23.037 -36.686  1.00  0.00     0.273 C 
ENDBRANCH  17  18
ENDBRANCH  16  17
ENDBRANCH  15  16
ENDBRANCH  14  15
ENDBRANCH   1  14
BRANCH   7  25
HETATM   25  N2  UNL     1      19.143 -23.879 -47.059  1.00  0.00    -0.384 N 
ATOM     26  H22 UNL     1      19.403 -24.624 -47.705  1.00  0.00     0.157 HD
ATOM     27  H21 UNL     1      19.115 -22.935 -47.444  1.00  0.00     0.157 HD
ENDBRANCH   7  25
BRANCH  10  28
HETATM   28  N4  UNL     1      17.034 -26.572 -44.094  1.00  0.00    -0.234 N 
ATOM     29  H42 UNL     1      16.678 -27.121 -44.875  1.00  0.00     0.174 HD
ATOM     30  H41 UNL     1      16.820 -26.807 -43.125  1.00  0.00     0.174 HD
ENDBRANCH  10  28
TORSDOF 7
ENDMDL
MODEL 5
REMARK VINA RESULT: -6.953419636      4.331      5.732
REMARK  7 active torsions:
REMARK  status: ('A' for Active; 'I' for Inactive)
REMARK    1  A    between atoms: N1_7  and  C7_8 
REMARK    2  A    between atoms: C7_8  and  C8_9 
REMARK    3  A    between atoms: C8_9  and  C9_10 
REMARK    4  A    between atoms: C9_10  and  O1_11 
REMARK    5  A    between atoms: O1_11  and  C10_12 
REMARK    6  A    between atoms: C15_18  and  N2_19 
REMARK    7  A    between atoms: C16_24  and  N4_25 
ROOT
HETATM    1  C10 UNL     1      19.016 -24.166 -46.214  1.00  0.00     0.098 A 
HETATM    2  C11 UNL     1      19.802 -24.197 -47.346  1.00  0.00     0.058 A 
HETATM    3  C12 UNL     1      19.736 -25.266 -48.204  1.00  0.00     0.014 A 
HETATM    4 BR1  UNL     1      20.836 -25.288 -49.767  1.00  0.00    -0.051 Br
HETATM    5  C13 UNL     1      18.901 -26.340 -47.987  1.00  0.00     0.036 A 
HETATM    6  C14 UNL     1      18.098 -26.343 -46.859  1.00  0.00     0.039 A 
HETATM    7  C15 UNL     1      17.252 -27.415 -46.625  1.00  0.00     0.127 A 
HETATM    8  N3  UNL     1      16.488 -27.349 -45.494  1.00  0.00    -0.176 N 
ATOM      9  H3  UNL     1      15.847 -28.111 -45.273  1.00  0.00     0.186 HD
HETATM   10  C16 UNL     1      16.571 -26.293 -44.670  1.00  0.00     0.678 A 
HETATM   11  N5  UNL     1      17.398 -25.262 -44.914  1.00  0.00    -0.188 N 
ATOM     12  H5  UNL     1      17.438 -24.472 -44.269  1.00  0.00     0.184 HD
HETATM   13  C17 UNL     1      18.174 -25.278 -46.019  1.00  0.00     0.096 A 
ENDROOT
BRANCH   1  14
HETATM   14  O1  UNL     1      19.011 -23.153 -45.302  1.00  0.00    -0.349 OA
BRANCH  14  15
HETATM   15  C9  UNL     1      19.996 -22.672 -44.496  1.00  0.00     0.177 C 
BRANCH  15  16
HETATM   16  C8  UNL     1      20.155 -21.174 -44.402  1.00  0.00     0.057 C 
BRANCH  16  17
HETATM   17  C7  UNL     1      21.622 -20.889 -44.694  1.00  0.00     0.275 C 
BRANCH  17  18
HETATM   18  N1  UNL     1      22.444 -20.987 -43.510  1.00  0.00     0.092 N 
HETATM   19  C2  UNL     1      23.733 -21.599 -43.763  1.00  0.00     0.219 C 
HETATM   20  C1  UNL     1      24.634 -21.314 -42.574  1.00  0.00     0.043 C 
HETATM   21  C3  UNL     1      24.400 -20.988 -44.974  1.00  0.00     0.035 C 
HETATM   22  C4  UNL     1      24.530 -19.490 -44.859  1.00  0.00     0.004 C 
HETATM   23  C5  UNL     1      23.384 -18.824 -44.190  1.00  0.00     0.030 C 
HETATM   24  C6  UNL     1      22.727 -19.612 -43.103  1.00  0.00     0.273 C 
ENDBRANCH  17  18
ENDBRANCH  16  17
ENDBRANCH  15  16
ENDBRANCH  14  15
ENDBRANCH   1  14
BRANCH   7  25
HETATM   25  N2  UNL     1      17.163 -28.419 -47.394  1.00  0.00    -0.384 N 
ATOM     26  H22 UNL     1      16.500 -29.166 -47.184  1.00  0.00     0.157 HD
ATOM     27  H21 UNL     1      17.724 -28.536 -48.237  1.00  0.00     0.157 HD
ENDBRANCH   7  25
BRANCH  10  28
HETATM   28  N4  UNL     1      15.802 -26.325 -43.618  1.00  0.00    -0.234 N 
ATOM     29  H42 UNL     1      14.975 -26.919 -43.574  1.00  0.00     0.174 HD
ATOM     30  H41 UNL     1      16.078 -25.723 -42.843  1.00  0.00     0.174 HD
ENDBRANCH  10  28
TORSDOF 7
ENDMDL
