MODEL 1
REMARK VINA RESULT: -8.763232544      0.000      0.000
REMARK  8 active torsions:
REMARK  status: ('A' for Active; 'I' for Inactive)
REMARK    1  A    between atoms: S1_2  and  O2_6 
REMARK    2  A    between atoms: O2_6  and  N2_7 
REMARK    3  A    between atoms: N2_7  and  C3_9 
REMARK    4  A    between atoms: C4_12  and  C5_13 
REMARK    5  A    between atoms: C5_13  and  S2_14 
REMARK    6  A    between atoms: S2_14  and  C6_15 
REMARK    7  A    between atoms: C9_25  and  N7_26 
REMARK    8  A    between atoms: C11_33  and  N9_34 
ROOT
HETATM    1  C1  UNL     1      -2.309  -4.473  49.238  1.00  0.00     0.162 C 
HETATM    2  S1  UNL     1      -1.258  -3.185  50.125  1.00  0.00     0.172 S 
HETATM    3  O1  UNL     1      -0.134  -2.162  50.545  1.00  0.00    -0.227 OA
HETATM    4  C2  UNL     1      -2.838  -1.938  50.444  1.00  0.00     0.180 C 
HETATM    5  N1  UNL     1      -3.742  -1.220  50.651  1.00  0.00    -0.180 NA
ENDROOT
BRANCH   2   6
HETATM    6  O2  UNL     1      -0.836  -4.194  51.303  1.00  0.00    -0.159 OA
BRANCH   6   7
HETATM    7  N2  UNL     1       0.108  -4.685  52.102  1.00  0.00    -0.081 N 
ATOM      8  H2  UNL     1       0.375  -5.666  52.020  1.00  0.00     0.214 HD
BRANCH   7   9
HETATM    9  C3  UNL     1       0.690  -3.942  52.977  1.00  0.00     0.719 A 
HETATM   10  N3  UNL     1       1.600  -3.010  52.638  1.00  0.00    -0.177 N 
HETATM   11  C4  UNL     1       2.167  -2.272  53.594  1.00  0.00     0.123 A 
ATOM     12  H3  UNL     1       1.853  -2.869  51.660  1.00  0.00     0.185 HD
HETATM   13  N8  UNL     1       1.842  -2.448  54.885  1.00  0.00    -0.179 N 
HETATM   14  C11 UNL     1       0.946  -3.359  55.266  1.00  0.00     0.691 A 
ATOM     15  H8  UNL     1       2.294  -1.870  55.592  1.00  0.00     0.185 HD
HETATM   16  N10 UNL     1       0.380  -4.101  54.276  1.00  0.00    -0.021 N 
ATOM     17  H10 UNL     1      -0.309  -4.809  54.530  1.00  0.00     0.203 HD
BRANCH  11  18
HETATM   18  C5  UNL     1       3.182  -1.227  53.285  1.00  0.00     0.159 C 
BRANCH  18  19
HETATM   19  S2  UNL     1       2.528   0.087  52.262  1.00  0.00    -0.097 SA
BRANCH  19  20
HETATM   20  C6  UNL     1       2.929  -0.146  50.522  1.00  0.00     0.114 A 
HETATM   21  N4  UNL     1       2.650  -1.167  49.731  1.00  0.00    -0.330 N 
HETATM   22  C7  UNL     1       3.024  -1.161  48.490  1.00  0.00     0.131 A 
ATOM     23  H4  UNL     1       2.137  -1.968  50.101  1.00  0.00     0.168 HD
HETATM   24  N5  UNL     1       2.809  -2.143  47.550  1.00  0.00    -0.293 N 
HETATM   25  C10 UNL     1       3.713  -0.064  48.040  1.00  0.00     0.095 A 
HETATM   26  C8  UNL     1       3.248  -2.009  46.312  1.00  0.00     0.327 A 
ATOM     27  H5  UNL     1       2.303  -2.988  47.815  1.00  0.00     0.172 HD
HETATM   28  O3  UNL     1       3.011  -2.959  45.497  1.00  0.00    -0.247 OA
HETATM   29  N6  UNL     1       3.921  -0.957  45.839  1.00  0.00    -0.294 N 
HETATM   30  C9  UNL     1       4.160   0.032  46.708  1.00  0.00     0.124 A 
ATOM     31  H6  UNL     1       4.234  -0.911  44.870  1.00  0.00     0.172 HD
HETATM   32  S3  UNL     1       3.779   0.901  49.451  1.00  0.00    -0.058 SA
BRANCH  30  33
HETATM   33  N7  UNL     1       4.792   1.103  46.407  1.00  0.00    -0.384 N 
ATOM     34  H72 UNL     1       5.098   1.182  45.437  1.00  0.00     0.157 HD
ATOM     35  H71 UNL     1       4.992   1.848  47.074  1.00  0.00     0.157 HD
ENDBRANCH  30  33
ENDBRANCH  19  20
ENDBRANCH  18  19
ENDBRANCH  11  18
BRANCH  14  36
HETATM   36  N9  UNL     1       0.644  -3.520  56.496  1.00  0.00    -0.234 N 
ATOM     37  H92 UNL     1      -0.278  -3.287  56.866  1.00  0.00     0.174 HD
ATOM     38  H91 UNL     1       1.318  -3.892  57.164  1.00  0.00     0.174 HD
ENDBRANCH  14  36
ENDBRANCH   7   9
ENDBRANCH   6   7
ENDBRANCH   2   6
TORSDOF 8
ENDMDL
MODEL 2
REMARK VINA RESULT: -8.736598351      1.856      2.488
REMARK  8 active torsions:
REMARK  status: ('A' for Active; 'I' for Inactive)
REMARK    1  A    between atoms: S1_2  and  O2_6 
REMARK    2  A    between atoms: O2_6  and  N2_7 
REMARK    3  A    between atoms: N2_7  and  C3_9 
REMARK    4  A    between atoms: C4_12  and  C5_13 
REMARK    5  A    between atoms: C5_13  and  S2_14 
REMARK    6  A    between atoms: S2_14  and  C6_15 
REMARK    7  A    between atoms: C9_25  and  N7_26 
REMARK    8  A    between atoms: C11_33  and  N9_34 
ROOT
HETATM    1  C1  UNL     1      -2.225  -2.465  48.600  1.00  0.00     0.162 C 
HETATM    2  S1  UNL     1      -3.588  -3.445  49.456  1.00  0.00     0.172 S 
HETATM    3  O1  UNL     1      -4.964  -3.969  50.021  1.00  0.00    -0.227 OA
HETATM    4  C2  UNL     1      -2.958  -5.225  48.691  1.00  0.00     0.180 C 
HETATM    5  N1  UNL     1      -2.594  -6.259  48.272  1.00  0.00    -0.180 NA
ENDROOT
BRANCH   2   6
HETATM    6  O2  UNL     1      -3.095  -3.034  50.931  1.00  0.00    -0.159 OA
BRANCH   6   7
HETATM    7  N2  UNL     1      -2.536  -2.136  51.738  1.00  0.00    -0.081 N 
ATOM      8  H2  UNL     1      -3.091  -1.351  52.076  1.00  0.00     0.214 HD
BRANCH   7   9
HETATM    9  C3  UNL     1      -1.306  -2.243  52.100  1.00  0.00     0.719 A 
HETATM   10  N3  UNL     1      -0.566  -1.175  52.454  1.00  0.00    -0.177 N 
HETATM   11  C4  UNL     1       0.705  -1.353  52.819  1.00  0.00     0.123 A 
ATOM     12  H3  UNL     1      -0.973  -0.239  52.443  1.00  0.00     0.185 HD
HETATM   13  N8  UNL     1       1.252  -2.579  52.837  1.00  0.00    -0.179 N 
HETATM   14  C11 UNL     1       0.557  -3.664  52.495  1.00  0.00     0.691 A 
ATOM     15  H8  UNL     1       2.226  -2.682  53.119  1.00  0.00     0.185 HD
HETATM   16  N10 UNL     1      -0.737  -3.460  52.125  1.00  0.00    -0.021 N 
ATOM     17  H10 UNL     1      -1.300  -4.267  51.855  1.00  0.00     0.203 HD
BRANCH  11  18
HETATM   18  C5  UNL     1       1.577  -0.214  53.219  1.00  0.00     0.159 C 
BRANCH  18  19
HETATM   19  S2  UNL     1       3.276  -0.432  52.701  1.00  0.00    -0.097 SA
BRANCH  19  20
HETATM   20  C6  UNL     1       3.449  -0.388  50.910  1.00  0.00     0.114 A 
HETATM   21  N4  UNL     1       3.079  -1.287  50.013  1.00  0.00    -0.330 N 
HETATM   22  C7  UNL     1       3.288  -1.082  48.750  1.00  0.00     0.131 A 
ATOM     23  H4  UNL     1       2.625  -2.148  50.318  1.00  0.00     0.168 HD
HETATM   24  N5  UNL     1       2.961  -1.918  47.707  1.00  0.00    -0.293 N 
HETATM   25  C10 UNL     1       3.903   0.089  48.390  1.00  0.00     0.095 A 
HETATM   26  C8  UNL     1       3.234  -1.586  46.457  1.00  0.00     0.327 A 
ATOM     27  H5  UNL     1       2.501  -2.807  47.901  1.00  0.00     0.172 HD
HETATM   28  O3  UNL     1       2.901  -2.409  45.544  1.00  0.00    -0.247 OA
HETATM   29  N6  UNL     1       3.830  -0.457  46.070  1.00  0.00    -0.294 N 
HETATM   30  C9  UNL     1       4.173   0.397  47.043  1.00  0.00     0.124 A 
ATOM     31  H6  UNL     1       4.015  -0.256  45.087  1.00  0.00     0.172 HD
HETATM   32  S3  UNL     1       4.144   0.832  49.912  1.00  0.00    -0.058 SA
BRANCH  30  33
HETATM   33  N7  UNL     1       4.751   1.519  46.830  1.00  0.00    -0.384 N 
ATOM     34  H72 UNL     1       5.263   1.597  45.951  1.00  0.00     0.157 HD
ATOM     35  H71 UNL     1       4.719   2.303  47.482  1.00  0.00     0.157 HD
ENDBRANCH  30  33
ENDBRANCH  19  20
ENDBRANCH  18  19
ENDBRANCH  11  18
BRANCH  14  36
HETATM   36  N9  UNL     1       1.086  -4.825  52.515  1.00  0.00    -0.234 N 
ATOM     37  H92 UNL     1       1.702  -5.131  53.268  1.00  0.00     0.174 HD
ATOM     38  H91 UNL     1       0.910  -5.502  51.772  1.00  0.00     0.174 HD
ENDBRANCH  14  36
ENDBRANCH   7   9
ENDBRANCH   6   7
ENDBRANCH   2   6
TORSDOF 8
ENDMDL
MODEL 3
REMARK VINA RESULT: -8.631830962      2.834      4.399
REMARK  8 active torsions:
REMARK  status: ('A' for Active; 'I' for Inactive)
REMARK    1  A    between atoms: S1_2  and  O2_6 
REMARK    2  A    between atoms: O2_6  and  N2_7 
REMARK    3  A    between atoms: N2_7  and  C3_9 
REMARK    4  A    between atoms: C4_12  and  C5_13 
REMARK    5  A    between atoms: C5_13  and  S2_14 
REMARK    6  A    between atoms: S2_14  and  C6_15 
REMARK    7  A    between atoms: C9_25  and  N7_26 
REMARK    8  A    between atoms: C11_33  and  N9_34 
ROOT
HETATM    1  C1  UNL     1      -0.715   1.345  51.983  1.00  0.00     0.162 C 
HETATM    2  S1  UNL     1      -2.526   1.731  51.631  1.00  0.00     0.172 S 
HETATM    3  O1  UNL     1      -4.049   2.124  51.738  1.00  0.00    -0.227 OA
HETATM    4  C2  UNL     1      -2.090   2.923  50.037  1.00  0.00     0.180 C 
HETATM    5  N1  UNL     1      -1.852   3.597  49.106  1.00  0.00    -0.180 NA
ENDROOT
BRANCH   2   6
HETATM    6  O2  UNL     1      -2.902   0.192  51.349  1.00  0.00    -0.159 OA
BRANCH   6   7
HETATM    7  N2  UNL     1      -3.377  -0.733  50.520  1.00  0.00    -0.081 N 
ATOM      8  H2  UNL     1      -4.261  -0.569  50.038  1.00  0.00     0.214 HD
BRANCH   7   9
HETATM    9  C3  UNL     1      -2.739  -1.831  50.314  1.00  0.00     0.719 A 
HETATM   10  N3  UNL     1      -1.569  -2.107  50.921  1.00  0.00    -0.177 N 
HETATM   11  C4  UNL     1      -0.958  -3.265  50.665  1.00  0.00     0.123 A 
ATOM     12  H3  UNL     1      -1.155  -1.438  51.570  1.00  0.00     0.185 HD
HETATM   13  N8  UNL     1      -1.493  -4.153  49.813  1.00  0.00    -0.179 N 
HETATM   14  C11 UNL     1      -2.649  -3.923  49.191  1.00  0.00     0.691 A 
ATOM     15  H8  UNL     1      -1.001  -5.029  49.637  1.00  0.00     0.185 HD
HETATM   16  N10 UNL     1      -3.256  -2.736  49.465  1.00  0.00    -0.021 N 
ATOM     17  H10 UNL     1      -4.142  -2.523  49.006  1.00  0.00     0.203 HD
BRANCH  11  18
HETATM   18  C5  UNL     1       0.339  -3.629  51.301  1.00  0.00     0.159 C 
BRANCH  18  19
HETATM   19  S2  UNL     1       1.338  -2.197  51.696  1.00  0.00    -0.097 SA
BRANCH  19  20
HETATM   20  C6  UNL     1       2.146  -1.512  50.241  1.00  0.00     0.114 A 
HETATM   21  N4  UNL     1       2.214  -2.004  49.015  1.00  0.00    -0.330 N 
HETATM   22  C7  UNL     1       2.847  -1.363  48.083  1.00  0.00     0.131 A 
ATOM     23  H4  UNL     1       1.764  -2.894  48.802  1.00  0.00     0.168 HD
HETATM   24  N5  UNL     1       3.003  -1.744  46.770  1.00  0.00    -0.293 N 
HETATM   25  C10 UNL     1       3.438  -0.172  48.419  1.00  0.00     0.095 A 
HETATM   26  C8  UNL     1       3.679  -0.994  45.918  1.00  0.00     0.327 A 
ATOM     27  H5  UNL     1       2.591  -2.620  46.449  1.00  0.00     0.172 HD
HETATM   28  O3  UNL     1       3.782  -1.410  44.719  1.00  0.00    -0.247 OA
HETATM   29  N6  UNL     1       4.266   0.170  46.210  1.00  0.00    -0.294 N 
HETATM   30  C9  UNL     1       4.148   0.592  47.474  1.00  0.00     0.124 A 
ATOM     31  H6  UNL     1       4.775   0.706  45.507  1.00  0.00     0.172 HD
HETATM   32  S3  UNL     1       3.036  -0.047  50.078  1.00  0.00    -0.058 SA
BRANCH  30  33
HETATM   33  N7  UNL     1       4.655   1.686  47.906  1.00  0.00    -0.384 N 
ATOM     34  H72 UNL     1       4.329   2.538  47.450  1.00  0.00     0.157 HD
ATOM     35  H71 UNL     1       5.342   1.731  48.658  1.00  0.00     0.157 HD
ENDBRANCH  30  33
ENDBRANCH  19  20
ENDBRANCH  18  19
ENDBRANCH  11  18
BRANCH  14  36
HETATM   36  N9  UNL     1      -3.150  -4.773  48.382  1.00  0.00    -0.234 N 
ATOM     37  H92 UNL     1      -2.571  -5.357  47.777  1.00  0.00     0.174 HD
ATOM     38  H91 UNL     1      -4.158  -4.907  48.309  1.00  0.00     0.174 HD
ENDBRANCH  14  36
ENDBRANCH   7   9
ENDBRANCH   6   7
ENDBRANCH   2   6
TORSDOF 8
ENDMDL
MODEL 4
REMARK VINA RESULT: -8.578995797      2.346      3.448
REMARK  8 active torsions:
REMARK  status: ('A' for Active; 'I' for Inactive)
REMARK    1  A    between atoms: S1_2  and  O2_6 
REMARK    2  A    between atoms: O2_6  and  N2_7 
REMARK    3  A    between atoms: N2_7  and  C3_9 
REMARK    4  A    between atoms: C4_12  and  C5_13 
REMARK    5  A    between atoms: C5_13  and  S2_14 
REMARK    6  A    between atoms: S2_14  and  C6_15 
REMARK    7  A    between atoms: C9_25  and  N7_26 
REMARK    8  A    between atoms: C11_33  and  N9_34 
ROOT
HETATM    1  C1  UNL     1      -0.733  -4.328  50.635  1.00  0.00     0.162 C 
HETATM    2  S1  UNL     1      -1.919  -3.539  49.402  1.00  0.00     0.172 S 
HETATM    3  O1  UNL     1      -2.586  -2.648  48.286  1.00  0.00    -0.227 OA
HETATM    4  C2  UNL     1      -2.550  -5.334  48.674  1.00  0.00     0.180 C 
HETATM    5  N1  UNL     1      -2.936  -6.362  48.259  1.00  0.00    -0.180 NA
ENDROOT
BRANCH   2   6
HETATM    6  O2  UNL     1      -2.798  -2.831  50.548  1.00  0.00    -0.159 OA
BRANCH   6   7
HETATM    7  N2  UNL     1      -2.850  -2.101  51.659  1.00  0.00    -0.081 N 
ATOM      8  H2  UNL     1      -3.471  -2.385  52.416  1.00  0.00     0.214 HD
BRANCH   7   9
HETATM    9  C3  UNL     1      -2.129  -1.044  51.794  1.00  0.00     0.719 A 
HETATM   10  N3  UNL     1      -0.870  -1.089  52.269  1.00  0.00    -0.177 N 
HETATM   11  C4  UNL     1      -0.175   0.044  52.385  1.00  0.00     0.123 A 
ATOM     12  H3  UNL     1      -0.452  -1.979  52.538  1.00  0.00     0.185 HD
HETATM   13  N8  UNL     1      -0.715   1.222  52.035  1.00  0.00    -0.179 N 
HETATM   14  C11 UNL     1      -1.957   1.314  51.560  1.00  0.00     0.691 A 
ATOM     15  H8  UNL     1      -0.159   2.071  52.137  1.00  0.00     0.185 HD
HETATM   16  N10 UNL     1      -2.648   0.147  51.450  1.00  0.00    -0.021 N 
ATOM     17  H10 UNL     1      -3.603   0.177  51.091  1.00  0.00     0.203 HD
BRANCH  11  18
HETATM   18  C5  UNL     1       1.220   0.063  52.906  1.00  0.00     0.159 C 
BRANCH  18  19
HETATM   19  S2  UNL     1       2.232  -1.238  52.210  1.00  0.00    -0.097 SA
BRANCH  19  20
HETATM   20  C6  UNL     1       2.763  -0.860  50.532  1.00  0.00     0.114 A 
HETATM   21  N4  UNL     1       2.659  -1.596  49.438  1.00  0.00    -0.330 N 
HETATM   22  C7  UNL     1       3.103  -1.154  48.303  1.00  0.00     0.131 A 
ATOM     23  H4  UNL     1       2.227  -2.518  49.489  1.00  0.00     0.168 HD
HETATM   24  N5  UNL     1       3.067  -1.799  47.088  1.00  0.00    -0.293 N 
HETATM   25  C10 UNL     1       3.679   0.090  48.287  1.00  0.00     0.095 A 
HETATM   26  C8  UNL     1       3.560  -1.232  46.001  1.00  0.00     0.327 A 
ATOM     27  H5  UNL     1       2.654  -2.729  47.025  1.00  0.00     0.172 HD
HETATM   28  O3  UNL     1       3.491  -1.889  44.912  1.00  0.00    -0.247 OA
HETATM   29  N6  UNL     1       4.126  -0.025  45.948  1.00  0.00    -0.294 N 
HETATM   30  C9  UNL     1       4.191   0.651  47.101  1.00  0.00     0.124 A 
ATOM     31  H6  UNL     1       4.490   0.361  45.076  1.00  0.00     0.172 HD
HETATM   32  S3  UNL     1       3.541   0.553  49.928  1.00  0.00    -0.058 SA
BRANCH  30  33
HETATM   33  N7  UNL     1       4.703   1.819  47.211  1.00  0.00    -0.384 N 
ATOM     34  H72 UNL     1       5.469   1.908  47.878  1.00  0.00     0.157 HD
ATOM     35  H71 UNL     1       4.385   2.628  46.677  1.00  0.00     0.157 HD
ENDBRANCH  30  33
ENDBRANCH  19  20
ENDBRANCH  18  19
ENDBRANCH  11  18
BRANCH  14  36
HETATM   36  N9  UNL     1      -2.461   2.439  51.230  1.00  0.00    -0.234 N 
ATOM     37  H92 UNL     1      -2.130   2.970  50.425  1.00  0.00     0.174 HD
ATOM     38  H91 UNL     1      -3.225   2.855  51.763  1.00  0.00     0.174 HD
ENDBRANCH  14  36
ENDBRANCH   7   9
ENDBRANCH   6   7
ENDBRANCH   2   6
TORSDOF 8
ENDMDL
MODEL 5
REMARK VINA RESULT: -8.472347809      1.898      2.083
REMARK  8 active torsions:
REMARK  status: ('A' for Active; 'I' for Inactive)
REMARK    1  A    between atoms: S1_2  and  O2_6 
REMARK    2  A    between atoms: O2_6  and  N2_7 
REMARK    3  A    between atoms: N2_7  and  C3_9 
REMARK    4  A    between atoms: C4_12  and  C5_13 
REMARK    5  A    between atoms: C5_13  and  S2_14 
REMARK    6  A    between atoms: S2_14  and  C6_15 
REMARK    7  A    between atoms: C9_25  and  N7_26 
REMARK    8  A    between atoms: C11_33  and  N9_34 
ROOT
HETATM    1  C1  UNL     1      -0.612  -3.965  50.201  1.00  0.00     0.162 C 
HETATM    2  S1  UNL     1      -2.064  -2.840  49.778  1.00  0.00     0.172 S 
HETATM    3  O1  UNL     1      -2.980  -1.633  49.344  1.00  0.00    -0.227 OA
HETATM    4  C2  UNL     1      -2.989  -4.255  48.642  1.00  0.00     0.180 C 
HETATM    5  N1  UNL     1      -3.541  -5.068  48.000  1.00  0.00    -0.180 NA
ENDROOT
BRANCH   2   6
HETATM    6  O2  UNL     1      -2.517  -2.682  51.314  1.00  0.00    -0.159 OA
BRANCH   6   7
HETATM    7  N2  UNL     1      -2.606  -1.926  52.405  1.00  0.00    -0.081 N 
ATOM      8  H2  UNL     1      -3.522  -1.611  52.723  1.00  0.00     0.214 HD
BRANCH   7   9
HETATM    9  C3  UNL     1      -1.556  -1.587  53.066  1.00  0.00     0.719 A 
HETATM   10  N3  UNL     1      -0.644  -0.726  52.575  1.00  0.00    -0.177 N 
HETATM   11  C4  UNL     1       0.424  -0.415  53.311  1.00  0.00     0.123 A 
ATOM     12  H3  UNL     1      -0.769  -0.317  51.649  1.00  0.00     0.185 HD
HETATM   13  N8  UNL     1       0.599  -0.948  54.531  1.00  0.00    -0.179 N 
HETATM   14  C11 UNL     1      -0.278  -1.803  55.057  1.00  0.00     0.691 A 
ATOM     15  H8  UNL     1       1.426  -0.691  55.069  1.00  0.00     0.185 HD
HETATM   16  N10 UNL     1      -1.360  -2.107  54.290  1.00  0.00    -0.021 N 
ATOM     17  H10 UNL     1      -2.052  -2.760  54.658  1.00  0.00     0.203 HD
BRANCH  11  18
HETATM   18  C5  UNL     1       1.469   0.527  52.824  1.00  0.00     0.159 C 
BRANCH  18  19
HETATM   19  S2  UNL     1       3.000  -0.300  52.404  1.00  0.00    -0.097 SA
BRANCH  19  20
HETATM   20  C6  UNL     1       3.266  -0.369  50.625  1.00  0.00     0.114 A 
HETATM   21  N4  UNL     1       2.968  -1.336  49.774  1.00  0.00    -0.330 N 
HETATM   22  C7  UNL     1       3.237  -1.210  48.512  1.00  0.00     0.131 A 
ATOM     23  H4  UNL     1       2.522  -2.189  50.113  1.00  0.00     0.168 HD
HETATM   24  N5  UNL     1       2.989  -2.122  47.512  1.00  0.00    -0.293 N 
HETATM   25  C10 UNL     1       3.839  -0.046  48.105  1.00  0.00     0.095 A 
HETATM   26  C8  UNL     1       3.318  -1.865  46.259  1.00  0.00     0.327 A 
ATOM     27  H5  UNL     1       2.544  -3.010  47.743  1.00  0.00     0.172 HD
HETATM   28  O3  UNL     1       3.057  -2.757  45.387  1.00  0.00    -0.247 OA
HETATM   29  N6  UNL     1       3.903  -0.746  45.827  1.00  0.00    -0.294 N 
HETATM   30  C9  UNL     1       4.171   0.180  46.756  1.00  0.00     0.124 A 
ATOM     31  H6  UNL     1       4.134  -0.605  44.843  1.00  0.00     0.172 HD
HETATM   32  S3  UNL     1       3.979   0.803  49.584  1.00  0.00    -0.058 SA
BRANCH  30  33
HETATM   33  N7  UNL     1       4.728   1.302  46.497  1.00  0.00    -0.384 N 
ATOM     34  H72 UNL     1       5.092   1.412  45.551  1.00  0.00     0.157 HD
ATOM     35  H71 UNL     1       4.818   2.058  47.177  1.00  0.00     0.157 HD
ENDBRANCH  30  33
ENDBRANCH  19  20
ENDBRANCH  18  19
ENDBRANCH  11  18
BRANCH  14  36
HETATM   36  N9  UNL     1      -0.102  -2.305  56.217  1.00  0.00    -0.234 N 
ATOM     37  H92 UNL     1      -0.414  -1.835  57.068  1.00  0.00     0.174 HD
ATOM     38  H91 UNL     1       0.360  -3.205  56.343  1.00  0.00     0.174 HD
ENDBRANCH  14  36
ENDBRANCH   7   9
ENDBRANCH   6   7
ENDBRANCH   2   6
TORSDOF 8
ENDMDL
