MODEL 1
REMARK VINA RESULT: -5.752852320      0.000      0.000
REMARK  11 active torsions:
REMARK  status: ('A' for Active; 'I' for Inactive)
REMARK    1  A    between atoms: C2_2  and  C3_3 
REMARK    2  A    between atoms: C3_3  and  O1_4 
REMARK    3  A    between atoms: C5_6  and  O2_7 
REMARK    4  A    between atoms: C6_9  and  O3_10 
REMARK    5  A    between atoms: O3_10  and  C7_11 
REMARK    6  A    between atoms: C13_19  and  C14_20 
REMARK    7  A    between atoms: C13_19  and  C20_28 
REMARK    8  A    between atoms: C14_20  and  C15_21 
REMARK    9  A    between atoms: C15_21  and  C16_22 
REMARK   10  A    between atoms: C16_22  and  C18_24 
REMARK   11  A    between atoms: C18_24  and  C19_25 
ROOT
HETATM    1  C3  UNL     1       4.925  -1.425  28.926  1.00  0.00     0.099 C 
HETATM    2  C5  UNL     1       3.971  -0.817  29.942  1.00  0.00     0.184 C 
HETATM    3  C6  UNL     1       2.639  -0.390  29.361  1.00  0.00     0.178 C 
HETATM    4  C9  UNL     1       2.959   0.670  28.406  1.00  0.00     0.095 C 
HETATM    5 BR1  UNL     1       3.690   2.150  29.447  1.00  0.00    -0.088 Br
HETATM    6  C10 UNL     1       3.919   0.263  27.313  1.00  0.00     0.022 C 
HETATM    7  C11 UNL     1       4.177   1.494  26.528  1.00  0.00     0.046 C 
HETATM    8  C12 UNL     1       5.577   1.814  26.196  1.00  0.00    -0.044 C 
HETATM    9  C13 UNL     1       5.904   2.701  25.247  1.00  0.00    -0.008 C 
HETATM   10  C23 UNL     1       6.584   1.223  27.051  1.00  0.00     0.005 C 
HETATM   11  C24 UNL     1       6.300   0.131  27.692  1.00  0.00    -0.013 C 
HETATM   12  C25 UNL     1       5.025  -0.634  27.675  1.00  0.00     0.013 C 
HETATM   13  C26 UNL     1       5.295  -1.539  26.435  1.00  0.00     0.023 C 
ENDROOT
BRANCH   9  14
HETATM   14  C14 UNL     1       4.916   3.400  24.514  1.00  0.00    -0.147 C 
BRANCH  14  15
HETATM   15  C15 UNL     1       4.066   4.001  23.885  1.00  0.00     0.090 C 
BRANCH  15  16
HETATM   16  C16 UNL     1       4.066   4.395  22.421  1.00  0.00     0.002 C 
HETATM   17  C17 UNL     1       2.791   5.231  22.242  1.00  0.00     0.011 C 
BRANCH  16  18
HETATM   18  C18 UNL     1       5.275   5.159  22.022  1.00  0.00     0.118 C 
BRANCH  18  19
HETATM   19  C19 UNL     1       5.849   4.888  20.715  1.00  0.00     0.172 C 
HETATM   20  O5  UNL     1       6.990   4.459  20.518  1.00  0.00    -0.648 OA
HETATM   21  O6  UNL     1       5.056   5.126  19.556  1.00  0.00    -0.648 OA
ENDBRANCH  18  19
ENDBRANCH  16  18
ENDBRANCH  15  16
ENDBRANCH  14  15
ENDBRANCH   9  14
BRANCH   9  22
HETATM   22  C20 UNL     1       7.373   2.875  24.934  1.00  0.00     0.019 C 
HETATM   23  C21 UNL     1       7.798   4.316  25.071  1.00  0.00     0.015 C 
HETATM   24  C22 UNL     1       7.587   2.511  23.443  1.00  0.00     0.015 C 
ENDBRANCH   9  22
BRANCH   3  25
HETATM   25  O3  UNL     1       1.901  -1.486  29.033  1.00  0.00    -0.312 OA
BRANCH  25  26
HETATM   26  C7  UNL     1       0.569  -1.633  29.261  1.00  0.00     0.255 C 
HETATM   27  C8  UNL     1      -0.237  -0.625  29.944  1.00  0.00     0.126 C 
HETATM   28  O4  UNL     1       0.084  -2.688  28.844  1.00  0.00    -0.266 OA
ENDBRANCH  25  26
ENDBRANCH   3  25
BRANCH   1  29
HETATM   29  C2  UNL     1       4.616  -2.878  28.834  1.00  0.00     0.037 C 
HETATM   30  C1  UNL     1       5.676  -3.840  29.236  1.00  0.00     0.008 C 
ENDBRANCH   1  29
BRANCH   1  31
HETATM   31  O1  UNL     1       6.160  -1.370  29.588  1.00  0.00    -0.381 OA
HETATM   32  C4  UNL     1       6.322  -0.564  30.641  1.00  0.00     0.202 C 
ENDBRANCH   1  31
BRANCH   2  33
HETATM   33  O2  UNL     1       3.615  -1.737  30.926  1.00  0.00    -0.390 OA
ATOM     34  H2  UNL     1       2.769  -1.533  31.306  1.00  0.00     0.210 HD
ENDBRANCH   2  33
TORSDOF 11
ENDMDL
MODEL 2
REMARK VINA RESULT: -5.645689513      2.570      8.418
REMARK  11 active torsions:
REMARK  status: ('A' for Active; 'I' for Inactive)
REMARK    1  A    between atoms: C2_2  and  C3_3 
REMARK    2  A    between atoms: C3_3  and  O1_4 
REMARK    3  A    between atoms: C5_6  and  O2_7 
REMARK    4  A    between atoms: C6_9  and  O3_10 
REMARK    5  A    between atoms: O3_10  and  C7_11 
REMARK    6  A    between atoms: C13_19  and  C14_20 
REMARK    7  A    between atoms: C13_19  and  C20_28 
REMARK    8  A    between atoms: C14_20  and  C15_21 
REMARK    9  A    between atoms: C15_21  and  C16_22 
REMARK   10  A    between atoms: C16_22  and  C18_24 
REMARK   11  A    between atoms: C18_24  and  C19_25 
ROOT
HETATM    1  C3  UNL     1       5.569   5.971  25.103  1.00  0.00     0.099 C 
HETATM    2  C5  UNL     1       6.777   5.486  24.319  1.00  0.00     0.184 C 
HETATM    3  C6  UNL     1       6.461   4.413  23.297  1.00  0.00     0.178 C 
HETATM    4  C9  UNL     1       5.986   3.270  24.076  1.00  0.00     0.095 C 
HETATM    5 BR1  UNL     1       7.495   2.674  25.161  1.00  0.00    -0.088 Br
HETATM    6  C10 UNL     1       4.785   3.558  24.945  1.00  0.00     0.022 C 
HETATM    7  C11 UNL     1       4.535   2.311  25.708  1.00  0.00     0.046 C 
HETATM    8  C12 UNL     1       4.302   2.430  27.159  1.00  0.00    -0.044 C 
HETATM    9  C13 UNL     1       3.763   1.439  27.883  1.00  0.00    -0.008 C 
HETATM   10  C23 UNL     1       4.818   3.625  27.789  1.00  0.00     0.005 C 
HETATM   11  C24 UNL     1       4.991   4.690  27.068  1.00  0.00    -0.013 C 
HETATM   12  C25 UNL     1       4.724   4.864  25.616  1.00  0.00     0.013 C 
HETATM   13  C26 UNL     1       3.220   5.266  25.685  1.00  0.00     0.023 C 
ENDROOT
BRANCH   9  14
HETATM   14  C14 UNL     1       3.401   0.205  27.293  1.00  0.00    -0.147 C 
BRANCH  14  15
HETATM   15  C15 UNL     1       3.088  -0.857  26.787  1.00  0.00     0.090 C 
BRANCH  15  16
HETATM   16  C16 UNL     1       3.713  -2.224  26.982  1.00  0.00     0.002 C 
HETATM   17  C17 UNL     1       2.712  -3.203  26.353  1.00  0.00     0.011 C 
BRANCH  16  18
HETATM   18  C18 UNL     1       5.055  -2.347  26.359  1.00  0.00     0.118 C 
BRANCH  18  19
HETATM   19  C19 UNL     1       6.218  -2.186  27.214  1.00  0.00     0.172 C 
HETATM   20  O5  UNL     1       6.201  -1.702  28.350  1.00  0.00    -0.648 OA
HETATM   21  O6  UNL     1       7.489  -2.611  26.729  1.00  0.00    -0.648 OA
ENDBRANCH  18  19
ENDBRANCH  16  18
ENDBRANCH  15  16
ENDBRANCH  14  15
ENDBRANCH   9  14
BRANCH   9  22
HETATM   22  C20 UNL     1       3.488   1.715  29.343  1.00  0.00     0.019 C 
HETATM   23  C21 UNL     1       3.952   0.576  30.215  1.00  0.00     0.015 C 
HETATM   24  C22 UNL     1       1.952   1.792  29.530  1.00  0.00     0.015 C 
ENDBRANCH   9  22
BRANCH   3  25
HETATM   25  O3  UNL     1       5.759   4.949  22.261  1.00  0.00    -0.312 OA
BRANCH  25  26
HETATM   26  C7  UNL     1       6.074   4.813  20.946  1.00  0.00     0.255 C 
HETATM   27  C8  UNL     1       7.437   4.584  20.473  1.00  0.00     0.126 C 
HETATM   28  O4  UNL     1       5.117   4.895  20.172  1.00  0.00    -0.266 OA
ENDBRANCH  25  26
ENDBRANCH   3  25
BRANCH   1  29
HETATM   29  C2  UNL     1       4.927   7.057  24.313  1.00  0.00     0.037 C 
HETATM   30  C1  UNL     1       4.787   8.391  24.954  1.00  0.00     0.008 C 
ENDBRANCH   1  29
BRANCH   1  31
HETATM   31  O1  UNL     1       6.152   6.629  26.195  1.00  0.00    -0.381 OA
HETATM   32  C4  UNL     1       7.428   6.396  26.517  1.00  0.00     0.202 C 
ENDBRANCH   1  31
BRANCH   2  33
HETATM   33  O2  UNL     1       7.336   6.507  23.552  1.00  0.00    -0.390 OA
ATOM     34  H2  UNL     1       6.672   6.987  23.072  1.00  0.00     0.210 HD
ENDBRANCH   2  33
TORSDOF 11
ENDMDL
MODEL 3
REMARK VINA RESULT: -5.632272095      3.051      9.283
REMARK  11 active torsions:
REMARK  status: ('A' for Active; 'I' for Inactive)
REMARK    1  A    between atoms: C2_2  and  C3_3 
REMARK    2  A    between atoms: C3_3  and  O1_4 
REMARK    3  A    between atoms: C5_6  and  O2_7 
REMARK    4  A    between atoms: C6_9  and  O3_10 
REMARK    5  A    between atoms: O3_10  and  C7_11 
REMARK    6  A    between atoms: C13_19  and  C14_20 
REMARK    7  A    between atoms: C13_19  and  C20_28 
REMARK    8  A    between atoms: C14_20  and  C15_21 
REMARK    9  A    between atoms: C15_21  and  C16_22 
REMARK   10  A    between atoms: C16_22  and  C18_24 
REMARK   11  A    between atoms: C18_24  and  C19_25 
ROOT
HETATM    1  C3  UNL     1       3.376   6.685  22.393  1.00  0.00     0.099 C 
HETATM    2  C5  UNL     1       4.553   7.647  22.350  1.00  0.00     0.184 C 
HETATM    3  C6  UNL     1       5.838   7.029  21.838  1.00  0.00     0.178 C 
HETATM    4  C9  UNL     1       6.182   5.996  22.813  1.00  0.00     0.095 C 
HETATM    5 BR1  UNL     1       6.558   6.921  24.491  1.00  0.00    -0.088 Br
HETATM    6  C10 UNL     1       5.119   4.942  23.014  1.00  0.00     0.022 C 
HETATM    7  C11 UNL     1       5.625   4.064  24.097  1.00  0.00     0.046 C 
HETATM    8  C12 UNL     1       4.695   3.713  25.185  1.00  0.00    -0.044 C 
HETATM    9  C13 UNL     1       4.928   2.698  26.029  1.00  0.00    -0.008 C 
HETATM   10  C23 UNL     1       3.582   4.615  25.385  1.00  0.00     0.005 C 
HETATM   11  C24 UNL     1       3.173   5.338  24.388  1.00  0.00    -0.013 C 
HETATM   12  C25 UNL     1       3.716   5.376  23.004  1.00  0.00     0.013 C 
HETATM   13  C26 UNL     1       2.887   4.212  22.381  1.00  0.00     0.023 C 
ENDROOT
BRANCH   9  14
HETATM   14  C14 UNL     1       6.099   1.910  25.933  1.00  0.00    -0.147 C 
BRANCH  14  15
HETATM   15  C15 UNL     1       7.106   1.232  25.851  1.00  0.00     0.090 C 
BRANCH  15  16
HETATM   16  C16 UNL     1       7.783   0.401  26.924  1.00  0.00     0.002 C 
HETATM   17  C17 UNL     1       8.149   1.408  28.023  1.00  0.00     0.011 C 
BRANCH  16  18
HETATM   18  C18 UNL     1       6.922  -0.687  27.450  1.00  0.00     0.118 C 
BRANCH  18  19
HETATM   19  C19 UNL     1       7.074  -2.013  26.875  1.00  0.00     0.172 C 
HETATM   20  O5  UNL     1       8.142  -2.623  26.775  1.00  0.00    -0.648 OA
HETATM   21  O6  UNL     1       5.917  -2.682  26.381  1.00  0.00    -0.648 OA
ENDBRANCH  18  19
ENDBRANCH  16  18
ENDBRANCH  15  16
ENDBRANCH  14  15
ENDBRANCH   9  14
BRANCH   9  22
HETATM   22  C20 UNL     1       3.856   2.379  27.046  1.00  0.00     0.019 C 
HETATM   23  C21 UNL     1       4.326   2.665  28.450  1.00  0.00     0.015 C 
HETATM   24  C22 UNL     1       3.590   0.853  26.991  1.00  0.00     0.015 C 
ENDBRANCH   9  22
BRANCH   3  25
HETATM   25  O3  UNL     1       5.737   6.785  20.502  1.00  0.00    -0.312 OA
BRANCH  25  26
HETATM   26  C7  UNL     1       6.125   5.639  19.882  1.00  0.00     0.255 C 
HETATM   27  C8  UNL     1       7.525   5.289  19.660  1.00  0.00     0.126 C 
HETATM   28  O4  UNL     1       5.200   4.907  19.519  1.00  0.00    -0.266 OA
ENDBRANCH  25  26
ENDBRANCH   3  25
BRANCH   1  29
HETATM   29  C2  UNL     1       2.731   6.705  21.052  1.00  0.00     0.037 C 
HETATM   30  C1  UNL     1       1.297   7.092  20.977  1.00  0.00     0.008 C 
ENDBRANCH   1  29
BRANCH   1  31
HETATM   31  O1  UNL     1       2.466   7.345  23.230  1.00  0.00    -0.381 OA
HETATM   32  C4  UNL     1       2.881   8.335  24.025  1.00  0.00     0.202 C 
ENDBRANCH   1  31
BRANCH   2  33
HETATM   33  O2  UNL     1       4.324   8.698  21.465  1.00  0.00    -0.390 OA
ATOM     34  H2  UNL     1       3.407   8.946  21.445  1.00  0.00     0.210 HD
ENDBRANCH   2  33
TORSDOF 11
ENDMDL
MODEL 4
REMARK VINA RESULT: -5.604989312      0.908      1.048
REMARK  11 active torsions:
REMARK  status: ('A' for Active; 'I' for Inactive)
REMARK    1  A    between atoms: C2_2  and  C3_3 
REMARK    2  A    between atoms: C3_3  and  O1_4 
REMARK    3  A    between atoms: C5_6  and  O2_7 
REMARK    4  A    between atoms: C6_9  and  O3_10 
REMARK    5  A    between atoms: O3_10  and  C7_11 
REMARK    6  A    between atoms: C13_19  and  C14_20 
REMARK    7  A    between atoms: C13_19  and  C20_28 
REMARK    8  A    between atoms: C14_20  and  C15_21 
REMARK    9  A    between atoms: C15_21  and  C16_22 
REMARK   10  A    between atoms: C16_22  and  C18_24 
REMARK   11  A    between atoms: C18_24  and  C19_25 
ROOT
HETATM    1  C3  UNL     1       5.835  -1.459  28.973  1.00  0.00     0.099 C 
HETATM    2  C5  UNL     1       5.026  -0.856  30.110  1.00  0.00     0.184 C 
HETATM    3  C6  UNL     1       3.614  -0.467  29.726  1.00  0.00     0.178 C 
HETATM    4  C9  UNL     1       3.765   0.585  28.722  1.00  0.00     0.095 C 
HETATM    5 BR1  UNL     1       4.605   2.097  29.627  1.00  0.00    -0.088 Br
HETATM    6  C10 UNL     1       4.564   0.182  27.505  1.00  0.00     0.022 C 
HETATM    7  C11 UNL     1       4.676   1.407  26.676  1.00  0.00     0.046 C 
HETATM    8  C12 UNL     1       6.004   1.752  26.139  1.00  0.00    -0.044 C 
HETATM    9  C13 UNL     1       6.169   2.631  25.141  1.00  0.00    -0.008 C 
HETATM   10  C23 UNL     1       7.139   1.196  26.844  1.00  0.00     0.005 C 
HETATM   11  C24 UNL     1       6.978   0.108  27.533  1.00  0.00    -0.013 C 
HETATM   12  C25 UNL     1       5.732  -0.685  27.711  1.00  0.00     0.013 C 
HETATM   13  C26 UNL     1       5.840  -1.603  26.457  1.00  0.00     0.023 C 
ENDROOT
BRANCH   9  14
HETATM   14  C14 UNL     1       5.067   3.297  24.553  1.00  0.00    -0.147 C 
BRANCH  14  15
HETATM   15  C15 UNL     1       4.121   3.871  24.046  1.00  0.00     0.090 C 
BRANCH  15  16
HETATM   16  C16 UNL     1       3.959   4.364  22.622  1.00  0.00     0.002 C 
HETATM   17  C17 UNL     1       2.649   5.163  22.633  1.00  0.00     0.011 C 
BRANCH  16  18
HETATM   18  C18 UNL     1       5.098   5.196  22.159  1.00  0.00     0.118 C 
BRANCH  18  19
HETATM   19  C19 UNL     1       5.633   4.938  20.833  1.00  0.00     0.172 C 
HETATM   20  O5  UNL     1       6.803   4.627  20.589  1.00  0.00    -0.648 OA
HETATM   21  O6  UNL     1       4.761   5.044  19.710  1.00  0.00    -0.648 OA
ENDBRANCH  18  19
ENDBRANCH  16  18
ENDBRANCH  15  16
ENDBRANCH  14  15
ENDBRANCH   9  14
BRANCH   9  22
HETATM   22  C20 UNL     1       7.571   2.832  24.615  1.00  0.00     0.019 C 
HETATM   23  C21 UNL     1       7.962   4.288  24.632  1.00  0.00     0.015 C 
HETATM   24  C22 UNL     1       7.584   2.407  23.125  1.00  0.00     0.015 C 
ENDBRANCH   9  22
BRANCH   3  25
HETATM   25  O3  UNL     1       2.861  -1.584  29.523  1.00  0.00    -0.312 OA
BRANCH  25  26
HETATM   26  C7  UNL     1       1.913  -1.727  28.559  1.00  0.00     0.255 C 
HETATM   27  C8  UNL     1       2.161  -2.414  27.294  1.00  0.00     0.126 C 
HETATM   28  O4  UNL     1       0.816  -1.233  28.833  1.00  0.00    -0.266 OA
ENDBRANCH  25  26
ENDBRANCH   3  25
BRANCH   1  29
HETATM   29  C2  UNL     1       5.550  -2.919  28.944  1.00  0.00     0.037 C 
HETATM   30  C1  UNL     1       6.662  -3.850  29.274  1.00  0.00     0.008 C 
ENDBRANCH   1  29
BRANCH   1  31
HETATM   31  O1  UNL     1       7.151  -1.367  29.446  1.00  0.00    -0.381 OA
HETATM   32  C4  UNL     1       7.449  -0.533  30.447  1.00  0.00     0.202 C 
ENDBRANCH   1  31
BRANCH   2  33
HETATM   33  O2  UNL     1       4.839  -1.769  31.147  1.00  0.00    -0.390 OA
ATOM     34  H2  UNL     1       3.919  -1.869  31.363  1.00  0.00     0.210 HD
ENDBRANCH   2  33
TORSDOF 11
ENDMDL
MODEL 5
REMARK VINA RESULT: -5.575950930      1.536      1.811
REMARK  11 active torsions:
REMARK  status: ('A' for Active; 'I' for Inactive)
REMARK    1  A    between atoms: C2_2  and  C3_3 
REMARK    2  A    between atoms: C3_3  and  O1_4 
REMARK    3  A    between atoms: C5_6  and  O2_7 
REMARK    4  A    between atoms: C6_9  and  O3_10 
REMARK    5  A    between atoms: O3_10  and  C7_11 
REMARK    6  A    between atoms: C13_19  and  C14_20 
REMARK    7  A    between atoms: C13_19  and  C20_28 
REMARK    8  A    between atoms: C14_20  and  C15_21 
REMARK    9  A    between atoms: C15_21  and  C16_22 
REMARK   10  A    between atoms: C16_22  and  C18_24 
REMARK   11  A    between atoms: C18_24  and  C19_25 
ROOT
HETATM    1  C3  UNL     1       4.889  -1.614  29.042  1.00  0.00     0.099 C 
HETATM    2  C5  UNL     1       3.797  -1.124  29.979  1.00  0.00     0.184 C 
HETATM    3  C6  UNL     1       2.487  -0.805  29.288  1.00  0.00     0.178 C 
HETATM    4  C9  UNL     1       2.789   0.305  28.386  1.00  0.00     0.095 C 
HETATM    5 BR1  UNL     1       3.283   1.817  29.517  1.00  0.00    -0.088 Br
HETATM    6  C10 UNL     1       3.875   0.018  27.377  1.00  0.00     0.022 C 
HETATM    7  C11 UNL     1       4.085   1.289  26.642  1.00  0.00     0.046 C 
HETATM    8  C12 UNL     1       5.473   1.745  26.444  1.00  0.00    -0.044 C 
HETATM    9  C13 UNL     1       5.798   2.683  25.545  1.00  0.00    -0.008 C 
HETATM   10  C23 UNL     1       6.451   1.226  27.375  1.00  0.00     0.005 C 
HETATM   11  C24 UNL     1       6.216   0.095  27.967  1.00  0.00    -0.013 C 
HETATM   12  C25 UNL     1       5.025  -0.783  27.820  1.00  0.00     0.013 C 
HETATM   13  C26 UNL     1       5.487  -1.626  26.593  1.00  0.00     0.023 C 
ENDROOT
BRANCH   9  14
HETATM   14  C14 UNL     1       4.817   3.308  24.739  1.00  0.00    -0.147 C 
BRANCH  14  15
HETATM   15  C15 UNL     1       3.974   3.846  24.046  1.00  0.00     0.090 C 
BRANCH  15  16
HETATM   16  C16 UNL     1       4.164   4.831  22.909  1.00  0.00     0.002 C 
HETATM   17  C17 UNL     1       5.409   4.330  22.164  1.00  0.00     0.011 C 
BRANCH  16  18
HETATM   18  C18 UNL     1       2.989   4.915  22.006  1.00  0.00     0.118 C 
BRANCH  18  19
HETATM   19  C19 UNL     1       1.697   5.212  22.598  1.00  0.00     0.172 C 
HETATM   20  O5  UNL     1       1.501   6.046  23.488  1.00  0.00    -0.648 OA
HETATM   21  O6  UNL     1       0.551   4.504  22.135  1.00  0.00    -0.648 OA
ENDBRANCH  18  19
ENDBRANCH  16  18
ENDBRANCH  15  16
ENDBRANCH  14  15
ENDBRANCH   9  14
BRANCH   9  22
HETATM   22  C20 UNL     1       7.266   3.000  25.369  1.00  0.00     0.019 C 
HETATM   23  C21 UNL     1       7.490   4.479  25.178  1.00  0.00     0.015 C 
HETATM   24  C22 UNL     1       7.743   2.326  24.059  1.00  0.00     0.015 C 
ENDBRANCH   9  22
BRANCH   3  25
HETATM   25  O3  UNL     1       1.887  -1.956  28.874  1.00  0.00    -0.312 OA
BRANCH  25  26
HETATM   26  C7  UNL     1       0.591  -2.292  29.105  1.00  0.00     0.255 C 
HETATM   27  C8  UNL     1      -0.442  -1.310  29.426  1.00  0.00     0.126 C 
HETATM   28  O4  UNL     1       0.345  -3.499  29.022  1.00  0.00    -0.266 OA
ENDBRANCH  25  26
ENDBRANCH   3  25
BRANCH   1  29
HETATM   29  C2  UNL     1       4.728  -3.086  28.895  1.00  0.00     0.037 C 
HETATM   30  C1  UNL     1       5.825  -3.958  29.392  1.00  0.00     0.008 C 
ENDBRANCH   1  29
BRANCH   1  31
HETATM   31  O1  UNL     1       6.050  -1.464  29.814  1.00  0.00    -0.381 OA
HETATM   32  C4  UNL     1       6.042  -0.677  30.893  1.00  0.00     0.202 C 
ENDBRANCH   1  31
BRANCH   2  33
HETATM   33  O2  UNL     1       3.443  -2.099  30.909  1.00  0.00    -0.390 OA
ATOM     34  H2  UNL     1       3.763  -1.887  31.778  1.00  0.00     0.210 HD
ENDBRANCH   2  33
TORSDOF 11
ENDMDL
