MODEL 1
REMARK VINA RESULT: -8.807502340      0.000      0.000
REMARK  7 active torsions:
REMARK  status: ('A' for Active; 'I' for Inactive)
REMARK    1  A    between atoms: C1_2  and  C2_3 
REMARK    2  A    between atoms: C1_2  and  C10_12 
REMARK    3  A    between atoms: C2_3  and  C3_4 
REMARK    4  A    between atoms: C3_4  and  C4_6 
REMARK    5  A    between atoms: C12_14  and  O3_15 
REMARK    6  A    between atoms: C15_19  and  O4_20 
REMARK    7  A    between atoms: C16_22  and  O5_23 
ROOT
HETATM    1  C10 UNL     1       0.829  35.303  47.227  1.00  0.00     0.046 A 
HETATM    2  C11 UNL     1       1.286  34.181  47.943  1.00  0.00     0.055 A 
HETATM    3  C12 UNL     1       1.618  34.268  49.273  1.00  0.00     0.073 A 
HETATM    4  C13 UNL     1       1.526  35.444  49.978  1.00  0.00    -0.013 A 
HETATM    5  C14 UNL     1       1.087  36.545  49.305  1.00  0.00     0.013 A 
HETATM    6  C15 UNL     1       0.736  36.482  47.928  1.00  0.00     0.089 A 
HETATM    7  C16 UNL     1       1.063  37.705  50.238  1.00  0.00     0.154 C 
HETATM    8  C17 UNL     1       0.931  37.052  51.585  1.00  0.00     0.041 C 
HETATM    9  C18 UNL     1       1.814  35.817  51.406  1.00  0.00     0.045 C 
ENDROOT
BRANCH   1  10
HETATM   10  C1  UNL     1       0.488  35.168  45.822  1.00  0.00     0.169 C 
HETATM   11  O1  UNL     1       1.209  35.567  44.911  1.00  0.00    -0.292 OA
BRANCH  10  12
HETATM   12  C2  UNL     1      -0.817  34.504  45.498  1.00  0.00     0.162 C 
BRANCH  12  13
HETATM   13  C3  UNL     1      -1.851  35.486  45.098  1.00  0.00     0.138 C 
HETATM   14  O2  UNL     1      -2.232  36.390  45.828  1.00  0.00    -0.297 OA
BRANCH  13  15
HETATM   15  C4  UNL     1      -2.460  35.388  43.766  1.00  0.00     0.056 C 
HETATM   16  C5  UNL     1      -1.887  36.403  42.793  1.00  0.00     0.012 C 
HETATM   17  C6  UNL     1      -2.123  35.913  41.405  1.00  0.00     0.001 C 
HETATM   18  C7  UNL     1      -3.321  35.016  41.279  1.00  0.00     0.000 C 
HETATM   19  C8  UNL     1      -3.235  33.784  42.118  1.00  0.00     0.001 C 
HETATM   20  C9  UNL     1      -2.149  34.030  43.178  1.00  0.00     0.012 C 
ENDBRANCH  13  15
ENDBRANCH  12  13
ENDBRANCH  10  12
ENDBRANCH   1  10
BRANCH   6  21
HETATM   21  O4  UNL     1       0.308  37.656  47.368  1.00  0.00    -0.359 OA
ATOM     22  H4  UNL     1      -0.592  37.811  47.109  1.00  0.00     0.217 HD
ENDBRANCH   6  21
BRANCH   3  23
HETATM   23  O3  UNL     1       2.065  33.137  49.943  1.00  0.00    -0.360 OA
ATOM     24  H3  UNL     1       1.928  33.062  50.881  1.00  0.00     0.217 HD
ENDBRANCH   3  23
BRANCH   7  25
HETATM   25  O5  UNL     1       2.254  38.430  50.183  1.00  0.00    -0.391 OA
ATOM     26  H5  UNL     1       2.292  38.980  49.409  1.00  0.00     0.210 HD
ENDBRANCH   7  25
TORSDOF 7
ENDMDL
MODEL 2
REMARK VINA RESULT: -8.757343726      2.062      3.354
REMARK  7 active torsions:
REMARK  status: ('A' for Active; 'I' for Inactive)
REMARK    1  A    between atoms: C1_2  and  C2_3 
REMARK    2  A    between atoms: C1_2  and  C10_12 
REMARK    3  A    between atoms: C2_3  and  C3_4 
REMARK    4  A    between atoms: C3_4  and  C4_6 
REMARK    5  A    between atoms: C12_14  and  O3_15 
REMARK    6  A    between atoms: C15_19  and  O4_20 
REMARK    7  A    between atoms: C16_22  and  O5_23 
ROOT
HETATM    1  C10 UNL     1       0.927  36.054  48.327  1.00  0.00     0.046 A 
HETATM    2  C11 UNL     1       0.427  37.349  48.093  1.00  0.00     0.055 A 
HETATM    3  C12 UNL     1       0.367  38.285  49.096  1.00  0.00     0.073 A 
HETATM    4  C13 UNL     1       0.787  38.017  50.377  1.00  0.00    -0.013 A 
HETATM    5  C14 UNL     1       1.274  36.770  50.629  1.00  0.00     0.013 A 
HETATM    6  C15 UNL     1       1.348  35.782  49.607  1.00  0.00     0.089 A 
HETATM    7  C16 UNL     1       1.668  36.684  52.062  1.00  0.00     0.154 C 
HETATM    8  C17 UNL     1       1.934  38.118  52.425  1.00  0.00     0.041 C 
HETATM    9  C18 UNL     1       0.836  38.834  51.638  1.00  0.00     0.045 C 
ENDROOT
BRANCH   1  10
HETATM   10  C1  UNL     1       0.973  35.094  47.239  1.00  0.00     0.169 C 
HETATM   11  O1  UNL     1       0.717  33.902  47.380  1.00  0.00    -0.292 OA
BRANCH  10  12
HETATM   12  C2  UNL     1       1.358  35.616  45.886  1.00  0.00     0.162 C 
BRANCH  12  13
HETATM   13  C3  UNL     1       0.463  35.103  44.823  1.00  0.00     0.138 C 
HETATM   14  O2  UNL     1       0.484  33.944  44.434  1.00  0.00    -0.297 OA
BRANCH  13  15
HETATM   15  C4  UNL     1      -0.501  36.012  44.193  1.00  0.00     0.056 C 
HETATM   16  C5  UNL     1      -1.710  36.272  45.073  1.00  0.00     0.012 C 
HETATM   17  C6  UNL     1      -2.338  37.555  44.647  1.00  0.00     0.001 C 
HETATM   18  C7  UNL     1      -2.097  37.894  43.205  1.00  0.00     0.000 C 
HETATM   19  C8  UNL     1      -0.652  38.033  42.857  1.00  0.00     0.001 C 
HETATM   20  C9  UNL     1       0.153  37.358  43.980  1.00  0.00     0.012 C 
ENDBRANCH  13  15
ENDBRANCH  12  13
ENDBRANCH  10  12
ENDBRANCH   1  10
BRANCH   6  21
HETATM   21  O4  UNL     1       1.858  34.570  49.987  1.00  0.00    -0.359 OA
ATOM     22  H4  UNL     1       1.580  33.746  49.605  1.00  0.00     0.217 HD
ENDBRANCH   6  21
BRANCH   3  23
HETATM   23  O3  UNL     1      -0.134  39.551  48.823  1.00  0.00    -0.360 OA
ATOM     24  H3  UNL     1      -0.179  40.198  49.518  1.00  0.00     0.217 HD
ENDBRANCH   3  23
BRANCH   7  25
HETATM   25  O5  UNL     1       0.628  36.187  52.849  1.00  0.00    -0.391 OA
ATOM     26  H5  UNL     1       0.885  35.394  53.306  1.00  0.00     0.210 HD
ENDBRANCH   7  25
TORSDOF 7
ENDMDL
MODEL 3
REMARK VINA RESULT: -8.730793289      1.586      2.285
REMARK  7 active torsions:
REMARK  status: ('A' for Active; 'I' for Inactive)
REMARK    1  A    between atoms: C1_2  and  C2_3 
REMARK    2  A    between atoms: C1_2  and  C10_12 
REMARK    3  A    between atoms: C2_3  and  C3_4 
REMARK    4  A    between atoms: C3_4  and  C4_6 
REMARK    5  A    between atoms: C12_14  and  O3_15 
REMARK    6  A    between atoms: C15_19  and  O4_20 
REMARK    7  A    between atoms: C16_22  and  O5_23 
ROOT
HETATM    1  C10 UNL     1       0.433  36.218  47.418  1.00  0.00     0.046 A 
HETATM    2  C11 UNL     1       0.978  34.971  47.776  1.00  0.00     0.055 A 
HETATM    3  C12 UNL     1       1.492  34.748  49.030  1.00  0.00     0.073 A 
HETATM    4  C13 UNL     1       1.506  35.720  50.001  1.00  0.00    -0.013 A 
HETATM    5  C14 UNL     1       0.985  36.937  49.678  1.00  0.00     0.013 A 
HETATM    6  C15 UNL     1       0.446  37.194  48.386  1.00  0.00     0.089 A 
HETATM    7  C16 UNL     1       1.099  37.841  50.855  1.00  0.00     0.154 C 
HETATM    8  C17 UNL     1       1.151  36.883  52.012  1.00  0.00     0.041 C 
HETATM    9  C18 UNL     1       1.992  35.750  51.424  1.00  0.00     0.045 C 
ENDROOT
BRANCH   1  10
HETATM   10  C1  UNL     1      -0.099  36.412  46.081  1.00  0.00     0.169 C 
HETATM   11  O1  UNL     1      -1.161  36.986  45.854  1.00  0.00    -0.292 OA
BRANCH  10  12
HETATM   12  C2  UNL     1       0.711  35.871  44.940  1.00  0.00     0.162 C 
BRANCH  12  13
HETATM   13  C3  UNL     1      -0.147  35.441  43.811  1.00  0.00     0.138 C 
HETATM   14  O2  UNL     1      -0.583  36.215  42.971  1.00  0.00    -0.297 OA
BRANCH  13  15
HETATM   15  C4  UNL     1      -0.500  34.023  43.675  1.00  0.00     0.056 C 
HETATM   16  C5  UNL     1       0.395  33.123  44.508  1.00  0.00     0.012 C 
HETATM   17  C6  UNL     1      -0.321  31.839  44.753  1.00  0.00     0.001 C 
HETATM   18  C7  UNL     1      -1.322  31.495  43.688  1.00  0.00     0.000 C 
HETATM   19  C8  UNL     1      -2.398  32.518  43.527  1.00  0.00     0.001 C 
HETATM   20  C9  UNL     1      -1.902  33.809  44.198  1.00  0.00     0.012 C 
ENDBRANCH  13  15
ENDBRANCH  12  13
ENDBRANCH  10  12
ENDBRANCH   1  10
BRANCH   6  21
HETATM   21  O4  UNL     1      -0.047  38.455  48.187  1.00  0.00    -0.359 OA
ATOM     22  H4  UNL     1       0.464  39.160  47.808  1.00  0.00     0.217 HD
ENDBRANCH   6  21
BRANCH   3  23
HETATM   23  O3  UNL     1       2.020  33.502  49.343  1.00  0.00    -0.360 OA
ATOM     24  H3  UNL     1       1.447  32.820  49.673  1.00  0.00     0.217 HD
ENDBRANCH   3  23
BRANCH   7  25
HETATM   25  O5  UNL     1       2.276  38.589  50.814  1.00  0.00    -0.391 OA
ATOM     26  H5  UNL     1       2.853  38.293  50.119  1.00  0.00     0.210 HD
ENDBRANCH   7  25
TORSDOF 7
ENDMDL
MODEL 4
REMARK VINA RESULT: -8.568768163      0.992      1.638
REMARK  7 active torsions:
REMARK  status: ('A' for Active; 'I' for Inactive)
REMARK    1  A    between atoms: C1_2  and  C2_3 
REMARK    2  A    between atoms: C1_2  and  C10_12 
REMARK    3  A    between atoms: C2_3  and  C3_4 
REMARK    4  A    between atoms: C3_4  and  C4_6 
REMARK    5  A    between atoms: C12_14  and  O3_15 
REMARK    6  A    between atoms: C15_19  and  O4_20 
REMARK    7  A    between atoms: C16_22  and  O5_23 
ROOT
HETATM    1  C10 UNL     1       0.793  35.260  47.030  1.00  0.00     0.046 A 
HETATM    2  C11 UNL     1       1.034  34.310  48.040  1.00  0.00     0.055 A 
HETATM    3  C12 UNL     1       1.424  34.691  49.301  1.00  0.00     0.073 A 
HETATM    4  C13 UNL     1       1.600  36.008  49.650  1.00  0.00    -0.013 A 
HETATM    5  C14 UNL     1       1.374  36.947  48.688  1.00  0.00     0.013 A 
HETATM    6  C15 UNL     1       0.969  36.579  47.374  1.00  0.00     0.089 A 
HETATM    7  C16 UNL     1       1.621  38.297  49.261  1.00  0.00     0.154 C 
HETATM    8  C17 UNL     1       1.405  38.085  50.733  1.00  0.00     0.041 C 
HETATM    9  C18 UNL     1       2.009  36.693  50.925  1.00  0.00     0.045 C 
ENDROOT
BRANCH   1  10
HETATM   10  C1  UNL     1       0.383  34.815  45.710  1.00  0.00     0.169 C 
HETATM   11  O1  UNL     1       1.169  34.635  44.784  1.00  0.00    -0.292 OA
BRANCH  10  12
HETATM   12  C2  UNL     1      -1.083  34.575  45.497  1.00  0.00     0.162 C 
BRANCH  12  13
HETATM   13  C3  UNL     1      -1.774  35.787  45.000  1.00  0.00     0.138 C 
HETATM   14  O2  UNL     1      -2.619  36.387  45.648  1.00  0.00    -0.297 OA
BRANCH  13  15
HETATM   15  C4  UNL     1      -1.442  36.310  43.670  1.00  0.00     0.056 C 
HETATM   16  C5  UNL     1      -1.863  35.366  42.558  1.00  0.00     0.012 C 
HETATM   17  C6  UNL     1      -2.002  36.151  41.298  1.00  0.00     0.001 C 
HETATM   18  C7  UNL     1      -1.137  37.378  41.255  1.00  0.00     0.000 C 
HETATM   19  C8  UNL     1      -1.421  38.349  42.353  1.00  0.00     0.001 C 
HETATM   20  C9  UNL     1      -2.208  37.592  43.435  1.00  0.00     0.012 C 
ENDBRANCH  13  15
ENDBRANCH  12  13
ENDBRANCH  10  12
ENDBRANCH   1  10
BRANCH   6  21
HETATM   21  O4  UNL     1       0.772  37.615  46.500  1.00  0.00    -0.359 OA
ATOM     22  H4  UNL     1       0.670  37.493  45.564  1.00  0.00     0.217 HD
ENDBRANCH   6  21
BRANCH   3  23
HETATM   23  O3  UNL     1       1.652  33.722  50.270  1.00  0.00    -0.360 OA
ATOM     24  H3  UNL     1       0.915  33.338  50.731  1.00  0.00     0.217 HD
ENDBRANCH   3  23
BRANCH   7  25
HETATM   25  O5  UNL     1       2.934  38.716  49.036  1.00  0.00    -0.391 OA
ATOM     26  H5  UNL     1       3.354  38.195  48.361  1.00  0.00     0.210 HD
ENDBRANCH   7  25
TORSDOF 7
ENDMDL
MODEL 5
REMARK VINA RESULT: -8.550358823      1.124      1.841
REMARK  7 active torsions:
REMARK  status: ('A' for Active; 'I' for Inactive)
REMARK    1  A    between atoms: C1_2  and  C2_3 
REMARK    2  A    between atoms: C1_2  and  C10_12 
REMARK    3  A    between atoms: C2_3  and  C3_4 
REMARK    4  A    between atoms: C3_4  and  C4_6 
REMARK    5  A    between atoms: C12_14  and  O3_15 
REMARK    6  A    between atoms: C15_19  and  O4_20 
REMARK    7  A    between atoms: C16_22  and  O5_23 
ROOT
HETATM    1  C10 UNL     1       0.935  35.410  47.177  1.00  0.00     0.046 A 
HETATM    2  C11 UNL     1       1.085  34.490  48.231  1.00  0.00     0.055 A 
HETATM    3  C12 UNL     1       1.343  34.908  49.514  1.00  0.00     0.073 A 
HETATM    4  C13 UNL     1       1.470  36.237  49.842  1.00  0.00    -0.013 A 
HETATM    5  C14 UNL     1       1.331  37.147  48.838  1.00  0.00     0.013 A 
HETATM    6  C15 UNL     1       1.062  36.740  47.501  1.00  0.00     0.089 A 
HETATM    7  C16 UNL     1       1.506  38.515  49.397  1.00  0.00     0.154 C 
HETATM    8  C17 UNL     1       1.147  38.337  50.845  1.00  0.00     0.041 C 
HETATM    9  C18 UNL     1       1.743  36.959  51.133  1.00  0.00     0.045 C 
ENDROOT
BRANCH   1  10
HETATM   10  C1  UNL     1       0.663  34.927  45.835  1.00  0.00     0.169 C 
HETATM   11  O1  UNL     1       1.292  35.291  44.845  1.00  0.00    -0.292 OA
BRANCH  10  12
HETATM   12  C2  UNL     1      -0.451  33.933  45.682  1.00  0.00     0.162 C 
BRANCH  12  13
HETATM   13  C3  UNL     1      -0.429  33.282  44.351  1.00  0.00     0.138 C 
HETATM   14  O2  UNL     1       0.308  32.345  44.078  1.00  0.00    -0.297 OA
BRANCH  13  15
HETATM   15  C4  UNL     1      -1.327  33.769  43.298  1.00  0.00     0.056 C 
HETATM   16  C5  UNL     1      -2.368  32.736  42.904  1.00  0.00     0.012 C 
HETATM   17  C6  UNL     1      -3.521  33.443  42.276  1.00  0.00     0.001 C 
HETATM   18  C7  UNL     1      -3.148  34.743  41.624  1.00  0.00     0.000 C 
HETATM   19  C8  UNL     1      -2.550  35.734  42.567  1.00  0.00     0.001 C 
HETATM   20  C9  UNL     1      -2.101  34.959  43.817  1.00  0.00     0.012 C 
ENDBRANCH  13  15
ENDBRANCH  12  13
ENDBRANCH  10  12
ENDBRANCH   1  10
BRANCH   6  21
HETATM   21  O4  UNL     1       0.943  37.750  46.584  1.00  0.00    -0.359 OA
ATOM     22  H4  UNL     1       1.665  38.314  46.334  1.00  0.00     0.217 HD
ENDBRANCH   6  21
BRANCH   3  23
HETATM   23  O3  UNL     1       1.484  33.967  50.526  1.00  0.00    -0.360 OA
ATOM     24  H3  UNL     1       1.028  34.094  51.350  1.00  0.00     0.217 HD
ENDBRANCH   3  23
BRANCH   7  25
HETATM   25  O5  UNL     1       2.830  38.944  49.291  1.00  0.00    -0.391 OA
ATOM     26  H5  UNL     1       2.904  39.710  48.733  1.00  0.00     0.210 HD
ENDBRANCH   7  25
TORSDOF 7
ENDMDL
