MODEL 1
REMARK VINA RESULT: -8.253533832      0.000      0.000
REMARK  6 active torsions:
REMARK  status: ('A' for Active; 'I' for Inactive)
REMARK    1  A    between atoms: C2_2  and  C3_3 
REMARK    2  A    between atoms: N1_4  and  O1_6 
REMARK    3  A    between atoms: O1_6  and  C4_7 
REMARK    4  A    between atoms: C15_20  and  O2_21 
REMARK    5  A    between atoms: O2_21  and  S1_22 
REMARK    6  A    between atoms: S1_22  and  N3_23 
ROOT
HETATM    1  C4  UNL     1      26.987  11.278 -11.305  1.00  0.00     0.324 C 
HETATM    2  C5  UNL     1      27.019  11.752 -12.671  1.00  0.00     0.087 C 
HETATM    3  N2  UNL     1      27.042  12.112 -13.771  1.00  0.00    -0.195 NA
ENDROOT
BRANCH   1   4
HETATM    4  O1  UNL     1      26.801  12.330 -10.376  1.00  0.00    -0.267 OA
BRANCH   4   5
HETATM    5  N1  UNL     1      27.854  12.994  -9.820  1.00  0.00    -0.280 N 
HETATM    6  C3  UNL     1      28.936  12.368  -9.526  1.00  0.00     0.097 C 
ATOM      7  H1  UNL     1      27.782  13.994  -9.636  1.00  0.00     0.193 HD
BRANCH   6   8
HETATM    8  C2  UNL     1      30.056  13.114  -8.926  1.00  0.00    -0.002 C 
HETATM    9  C1  UNL     1      29.992  14.539  -9.384  1.00  0.00     0.021 C 
HETATM   10  C6  UNL     1      29.880  13.119  -7.401  1.00  0.00     0.016 C 
HETATM   11  C7  UNL     1      31.273  13.040  -6.811  1.00  0.00     0.007 C 
HETATM   12  C8  UNL     1      32.167  13.193  -7.964  1.00  0.00    -0.001 C 
HETATM   13  C9  UNL     1      33.502  12.522  -7.894  1.00  0.00    -0.005 C 
HETATM   14  C19 UNL     1      31.381  12.466  -9.067  1.00  0.00    -0.028 C 
HETATM   15  C10 UNL     1      34.179  12.613  -6.583  1.00  0.00     0.006 C 
HETATM   16  C16 UNL     1      34.279  13.010  -9.076  1.00  0.00     0.002 C 
HETATM   17  C11 UNL     1      35.436  13.410  -6.540  1.00  0.00     0.017 C 
HETATM   18  C12 UNL     1      35.179  14.654  -7.404  1.00  0.00     0.069 C 
HETATM   19 BR1  UNL     1      36.432  16.041  -7.078  1.00  0.00    -0.090 Br
HETATM   20  C13 UNL     1      35.202  14.151  -8.822  1.00  0.00     0.007 A 
HETATM   21  C14 UNL     1      35.438  15.114  -9.936  1.00  0.00     0.048 A 
HETATM   22  C15 UNL     1      36.504  14.166  -9.563  1.00  0.00     0.155 A 
HETATM   23  C17 UNL     1      33.398  13.395 -10.234  1.00  0.00     0.007 C 
HETATM   24  C18 UNL     1      32.115  12.648 -10.328  1.00  0.00     0.011 C 
HETATM   25  C20 UNL     1      31.228  10.997  -8.721  1.00  0.00     0.016 C 
BRANCH  22  26
HETATM   26  O2  UNL     1      37.644  14.694  -9.021  1.00  0.00    -0.253 OA
BRANCH  26  27
HETATM   27  S1  UNL     1      38.714  15.286 -10.167  1.00  0.00     0.355 S 
HETATM   28  O3  UNL     1      38.648  16.787 -10.131  1.00  0.00    -0.176 OA
HETATM   29  O4  UNL     1      40.080  14.774  -9.856  1.00  0.00    -0.176 OA
BRANCH  27  30
HETATM   30  N3  UNL     1      38.293  14.784 -11.760  1.00  0.00    -0.306 N 
ATOM     31  H32 UNL     1      37.607  14.054 -11.952  1.00  0.00     0.171 HD
ATOM     32  H31 UNL     1      38.808  15.302 -12.471  1.00  0.00     0.171 HD
ENDBRANCH  27  30
ENDBRANCH  26  27
ENDBRANCH  22  26
ENDBRANCH   6   8
ENDBRANCH   4   5
ENDBRANCH   1   4
TORSDOF 6
ENDMDL
MODEL 2
REMARK VINA RESULT: -7.612995978      4.053      8.168
REMARK  6 active torsions:
REMARK  status: ('A' for Active; 'I' for Inactive)
REMARK    1  A    between atoms: C2_2  and  C3_3 
REMARK    2  A    between atoms: N1_4  and  O1_6 
REMARK    3  A    between atoms: O1_6  and  C4_7 
REMARK    4  A    between atoms: C15_20  and  O2_21 
REMARK    5  A    between atoms: O2_21  and  S1_22 
REMARK    6  A    between atoms: S1_22  and  N3_23 
ROOT
HETATM    1  C4  UNL     1      36.561  14.617  -6.911  1.00  0.00     0.324 C 
HETATM    2  C5  UNL     1      36.792  14.197  -8.276  1.00  0.00     0.087 C 
HETATM    3  N2  UNL     1      36.995  13.872  -9.369  1.00  0.00    -0.195 NA
ENDROOT
BRANCH   1   4
HETATM    4  O1  UNL     1      35.566  13.839  -6.272  1.00  0.00    -0.267 OA
BRANCH   4   5
HETATM    5  N1  UNL     1      34.299  13.741  -6.767  1.00  0.00    -0.280 N 
HETATM    6  C3  UNL     1      33.712  12.602  -6.833  1.00  0.00     0.097 C 
ATOM      7  H1  UNL     1      33.815  14.580  -7.088  1.00  0.00     0.193 HD
BRANCH   6   8
HETATM    8  C2  UNL     1      32.343  12.530  -7.373  1.00  0.00    -0.002 C 
HETATM    9  C1  UNL     1      31.672  11.303  -6.835  1.00  0.00     0.021 C 
HETATM   10  C6  UNL     1      31.551  13.742  -6.862  1.00  0.00     0.016 C 
HETATM   11  C7  UNL     1      30.617  14.145  -7.985  1.00  0.00     0.007 C 
HETATM   12  C8  UNL     1      30.756  13.073  -8.977  1.00  0.00    -0.001 C 
HETATM   13  C9  UNL     1      30.545  13.433 -10.414  1.00  0.00    -0.005 C 
HETATM   14  C19 UNL     1      32.243  12.710  -8.840  1.00  0.00    -0.028 C 
HETATM   15  C10 UNL     1      29.420  14.356 -10.668  1.00  0.00     0.006 C 
HETATM   16  C16 UNL     1      30.529  12.143 -11.172  1.00  0.00     0.002 C 
HETATM   17  C11 UNL     1      28.270  13.803 -11.437  1.00  0.00     0.017 C 
HETATM   18  C12 UNL     1      28.044  12.383 -10.899  1.00  0.00     0.069 C 
HETATM   19 BR1  UNL     1      26.336  11.692 -11.355  1.00  0.00    -0.090 Br
HETATM   20  C13 UNL     1      29.183  11.572 -11.455  1.00  0.00     0.007 A 
HETATM   21  C14 UNL     1      29.059  10.087 -11.524  1.00  0.00     0.048 A 
HETATM   22  C15 UNL     1      28.988  10.877 -12.768  1.00  0.00     0.155 A 
HETATM   23  C17 UNL     1      31.341  11.065 -10.505  1.00  0.00     0.007 C 
HETATM   24  C18 UNL     1      32.498  11.549  -9.705  1.00  0.00     0.011 C 
HETATM   25  C20 UNL     1      33.109  13.894  -9.230  1.00  0.00     0.016 C 
BRANCH  22  26
HETATM   26  O2  UNL     1      27.790  10.891 -13.429  1.00  0.00    -0.253 OA
BRANCH  26  27
HETATM   27  S1  UNL     1      27.771  11.923 -14.750  1.00  0.00     0.355 S 
HETATM   28  O3  UNL     1      28.137  11.123 -15.968  1.00  0.00    -0.176 OA
HETATM   29  O4  UNL     1      26.415  12.533 -14.861  1.00  0.00    -0.176 OA
BRANCH  27  30
HETATM   30  N3  UNL     1      28.928  13.190 -14.592  1.00  0.00    -0.306 N 
ATOM     31  H32 UNL     1      29.728  13.296 -15.216  1.00  0.00     0.171 HD
ATOM     32  H31 UNL     1      28.713  13.806 -13.809  1.00  0.00     0.171 HD
ENDBRANCH  27  30
ENDBRANCH  26  27
ENDBRANCH  22  26
ENDBRANCH   6   8
ENDBRANCH   4   5
ENDBRANCH   1   4
TORSDOF 6
ENDMDL
MODEL 3
REMARK VINA RESULT: -6.305614665      1.183      1.254
REMARK  6 active torsions:
REMARK  status: ('A' for Active; 'I' for Inactive)
REMARK    1  A    between atoms: C2_2  and  C3_3 
REMARK    2  A    between atoms: N1_4  and  O1_6 
REMARK    3  A    between atoms: O1_6  and  C4_7 
REMARK    4  A    between atoms: C15_20  and  O2_21 
REMARK    5  A    between atoms: O2_21  and  S1_22 
REMARK    6  A    between atoms: S1_22  and  N3_23 
ROOT
HETATM    1  C4  UNL     1      27.707  11.068 -11.820  1.00  0.00     0.324 C 
HETATM    2  C5  UNL     1      27.327  11.844 -12.980  1.00  0.00     0.087 C 
HETATM    3  N2  UNL     1      27.019  12.448 -13.919  1.00  0.00    -0.195 NA
ENDROOT
BRANCH   1   4
HETATM    4  O1  UNL     1      27.665  11.828 -10.627  1.00  0.00    -0.267 OA
BRANCH   4   5
HETATM    5  N1  UNL     1      28.723  12.585 -10.218  1.00  0.00    -0.280 N 
HETATM    6  C3  UNL     1      29.392  12.256  -9.173  1.00  0.00     0.097 C 
ATOM      7  H1  UNL     1      28.984  13.418 -10.745  1.00  0.00     0.193 HD
BRANCH   6   8
HETATM    8  C2  UNL     1      30.531  13.095  -8.757  1.00  0.00    -0.002 C 
HETATM    9  C1  UNL     1      30.189  14.533  -8.998  1.00  0.00     0.021 C 
HETATM   10  C6  UNL     1      30.736  12.924  -7.245  1.00  0.00     0.016 C 
HETATM   11  C7  UNL     1      32.231  12.990  -7.008  1.00  0.00     0.007 C 
HETATM   12  C8  UNL     1      32.789  13.384  -8.307  1.00  0.00    -0.001 C 
HETATM   13  C9  UNL     1      34.170  12.911  -8.635  1.00  0.00    -0.005 C 
HETATM   14  C19 UNL     1      31.846  12.663  -9.283  1.00  0.00    -0.028 C 
HETATM   15  C10 UNL     1      35.133  12.970  -7.515  1.00  0.00     0.006 C 
HETATM   16  C16 UNL     1      34.569  13.620  -9.891  1.00  0.00     0.002 C 
HETATM   17  C11 UNL     1      36.259  13.933  -7.660  1.00  0.00     0.017 C 
HETATM   18  C12 UNL     1      35.654  15.205  -8.273  1.00  0.00     0.069 C 
HETATM   19 BR1  UNL     1      36.776  16.721  -8.067  1.00  0.00    -0.090 Br
HETATM   20  C13 UNL     1      35.385  14.853  -9.710  1.00  0.00     0.007 A 
HETATM   21  C14 UNL     1      35.224  15.944 -10.714  1.00  0.00     0.048 A 
HETATM   22  C15 UNL     1      36.453  15.129 -10.724  1.00  0.00     0.155 A 
HETATM   23  C17 UNL     1      33.391  13.985 -10.753  1.00  0.00     0.007 C 
HETATM   24  C18 UNL     1      32.221  13.072 -10.645  1.00  0.00     0.011 C 
HETATM   25  C20 UNL     1      31.957  11.160  -9.105  1.00  0.00     0.016 C 
BRANCH  22  26
HETATM   26  O2  UNL     1      37.622  15.761 -10.396  1.00  0.00    -0.253 OA
BRANCH  26  27
HETATM   27  S1  UNL     1      38.631  16.020 -11.710  1.00  0.00     0.355 S 
HETATM   28  O3  UNL     1      39.895  16.657 -11.204  1.00  0.00    -0.176 OA
HETATM   29  O4  UNL     1      38.887  14.712 -12.380  1.00  0.00    -0.176 OA
BRANCH  27  30
HETATM   30  N3  UNL     1      37.928  17.094 -12.857  1.00  0.00    -0.306 N 
ATOM     31  H32 UNL     1      36.940  17.347 -12.854  1.00  0.00     0.171 HD
ATOM     32  H31 UNL     1      38.616  17.437 -13.528  1.00  0.00     0.171 HD
ENDBRANCH  27  30
ENDBRANCH  26  27
ENDBRANCH  22  26
ENDBRANCH   6   8
ENDBRANCH   4   5
ENDBRANCH   1   4
TORSDOF 6
ENDMDL
MODEL 4
REMARK VINA RESULT: -6.285771854      2.243      3.175
REMARK  6 active torsions:
REMARK  status: ('A' for Active; 'I' for Inactive)
REMARK    1  A    between atoms: C2_2  and  C3_3 
REMARK    2  A    between atoms: N1_4  and  O1_6 
REMARK    3  A    between atoms: O1_6  and  C4_7 
REMARK    4  A    between atoms: C15_20  and  O2_21 
REMARK    5  A    between atoms: O2_21  and  S1_22 
REMARK    6  A    between atoms: S1_22  and  N3_23 
ROOT
HETATM    1  C4  UNL     1      27.059  12.453 -15.365  1.00  0.00     0.324 C 
HETATM    2  C5  UNL     1      28.227  11.659 -15.053  1.00  0.00     0.087 C 
HETATM    3  N2  UNL     1      29.164  11.019 -14.823  1.00  0.00    -0.195 NA
ENDROOT
BRANCH   1   4
HETATM    4  O1  UNL     1      26.688  13.306 -14.298  1.00  0.00    -0.267 OA
BRANCH   4   5
HETATM    5  N1  UNL     1      27.528  13.558 -13.253  1.00  0.00    -0.280 N 
HETATM    6  C3  UNL     1      27.150  13.336 -12.047  1.00  0.00     0.097 C 
ATOM      7  H1  UNL     1      28.462  13.926 -13.432  1.00  0.00     0.193 HD
BRANCH   6   8
HETATM    8  C2  UNL     1      28.080  13.618 -10.940  1.00  0.00    -0.002 C 
HETATM    9  C1  UNL     1      28.528  15.044 -11.034  1.00  0.00     0.021 C 
HETATM   10  C6  UNL     1      27.322  13.467  -9.613  1.00  0.00     0.016 C 
HETATM   11  C7  UNL     1      28.311  12.890  -8.621  1.00  0.00     0.007 C 
HETATM   12  C8  UNL     1      29.597  12.922  -9.327  1.00  0.00    -0.001 C 
HETATM   13  C9  UNL     1      30.605  11.876  -8.969  1.00  0.00    -0.005 C 
HETATM   14  C19 UNL     1      29.168  12.626 -10.772  1.00  0.00    -0.028 C 
HETATM   15  C10 UNL     1      30.710  11.577  -7.526  1.00  0.00     0.006 C 
HETATM   16  C16 UNL     1      31.875  12.264  -9.660  1.00  0.00     0.002 C 
HETATM   17  C11 UNL     1      31.994  11.944  -6.865  1.00  0.00     0.017 C 
HETATM   18  C12 UNL     1      32.390  13.313  -7.437  1.00  0.00     0.069 C 
HETATM   19 BR1  UNL     1      33.692  14.198  -6.379  1.00  0.00    -0.090 Br
HETATM   20  C13 UNL     1      32.855  13.027  -8.839  1.00  0.00     0.007 A 
HETATM   21  C14 UNL     1      33.725  14.016  -9.539  1.00  0.00     0.048 A 
HETATM   22  C15 UNL     1      34.311  12.749  -9.065  1.00  0.00     0.155 A 
HETATM   23  C17 UNL     1      31.635  13.052 -10.919  1.00  0.00     0.007 C 
HETATM   24  C18 UNL     1      30.360  12.748 -11.623  1.00  0.00     0.011 C 
HETATM   25  C20 UNL     1      28.559  11.238 -10.865  1.00  0.00     0.016 C 
BRANCH  22  26
HETATM   26  O2  UNL     1      35.231  12.827  -8.056  1.00  0.00    -0.253 OA
BRANCH  26  27
HETATM   27  S1  UNL     1      36.401  14.000  -8.312  1.00  0.00     0.355 S 
HETATM   28  O3  UNL     1      37.075  14.277  -6.997  1.00  0.00    -0.176 OA
HETATM   29  O4  UNL     1      37.358  13.504  -9.343  1.00  0.00    -0.176 OA
BRANCH  27  30
HETATM   30  N3  UNL     1      35.716  15.480  -8.868  1.00  0.00    -0.306 N 
ATOM     31  H32 UNL     1      34.770  15.551  -9.242  1.00  0.00     0.171 HD
ATOM     32  H31 UNL     1      36.369  16.258  -8.777  1.00  0.00     0.171 HD
ENDBRANCH  27  30
ENDBRANCH  26  27
ENDBRANCH  22  26
ENDBRANCH   6   8
ENDBRANCH   4   5
ENDBRANCH   1   4
TORSDOF 6
ENDMDL
MODEL 5
REMARK VINA RESULT: -5.449172204      3.766      5.517
REMARK  6 active torsions:
REMARK  status: ('A' for Active; 'I' for Inactive)
REMARK    1  A    between atoms: C2_2  and  C3_3 
REMARK    2  A    between atoms: N1_4  and  O1_6 
REMARK    3  A    between atoms: O1_6  and  C4_7 
REMARK    4  A    between atoms: C15_20  and  O2_21 
REMARK    5  A    between atoms: O2_21  and  S1_22 
REMARK    6  A    between atoms: S1_22  and  N3_23 
ROOT
HETATM    1  C4  UNL     1      28.856  13.783 -17.500  1.00  0.00     0.324 C 
HETATM    2  C5  UNL     1      28.812  14.920 -18.392  1.00  0.00     0.087 C 
HETATM    3  N2  UNL     1      28.789  15.820 -19.120  1.00  0.00    -0.195 NA
ENDROOT
BRANCH   1   4
HETATM    4  O1  UNL     1      27.891  13.872 -16.469  1.00  0.00    -0.267 OA
BRANCH   4   5
HETATM    5  N1  UNL     1      28.160  13.468 -15.194  1.00  0.00    -0.280 N 
HETATM    6  C3  UNL     1      27.220  13.397 -14.323  1.00  0.00     0.097 C 
ATOM      7  H1  UNL     1      29.114  13.222 -14.931  1.00  0.00     0.193 HD
BRANCH   6   8
HETATM    8  C2  UNL     1      27.543  12.958 -12.954  1.00  0.00    -0.002 C 
HETATM    9  C1  UNL     1      26.743  13.769 -11.982  1.00  0.00     0.021 C 
HETATM   10  C6  UNL     1      27.105  11.495 -12.793  1.00  0.00     0.016 C 
HETATM   11  C7  UNL     1      28.129  10.840 -11.889  1.00  0.00     0.007 C 
HETATM   12  C8  UNL     1      28.966  11.952 -11.420  1.00  0.00    -0.001 C 
HETATM   13  C9  UNL     1      30.394  11.649 -11.096  1.00  0.00    -0.005 C 
HETATM   14  C19 UNL     1      28.991  12.866 -12.655  1.00  0.00    -0.028 C 
HETATM   15  C10 UNL     1      30.616  10.375 -10.379  1.00  0.00     0.006 C 
HETATM   16  C16 UNL     1      30.947  12.879 -10.448  1.00  0.00     0.002 C 
HETATM   17  C11 UNL     1      31.124  10.481  -8.983  1.00  0.00     0.017 C 
HETATM   18  C12 UNL     1      30.359  11.647  -8.340  1.00  0.00     0.069 C 
HETATM   19 BR1  UNL     1      30.462  11.631  -6.445  1.00  0.00    -0.090 Br
HETATM   20  C13 UNL     1      30.949  12.885  -8.959  1.00  0.00     0.007 A 
HETATM   21  C14 UNL     1      30.784  14.197  -8.269  1.00  0.00     0.048 A 
HETATM   22  C15 UNL     1      32.106  13.544  -8.271  1.00  0.00     0.155 A 
HETATM   23  C17 UNL     1      30.254  14.137 -10.900  1.00  0.00     0.007 C 
HETATM   24  C18 UNL     1      29.706  14.095 -12.282  1.00  0.00     0.011 C 
HETATM   25  C20 UNL     1      29.669  12.160 -13.816  1.00  0.00     0.016 C 
BRANCH  22  26
HETATM   26  O2  UNL     1      32.584  13.103  -7.067  1.00  0.00    -0.253 OA
BRANCH  26  27
HETATM   27  S1  UNL     1      34.255  13.165  -6.951  1.00  0.00     0.355 S 
HETATM   28  O3  UNL     1      34.635  14.535  -6.462  1.00  0.00    -0.176 OA
HETATM   29  O4  UNL     1      34.711  12.088  -6.025  1.00  0.00    -0.176 OA
BRANCH  27  30
HETATM   30  N3  UNL     1      35.014  12.929  -8.479  1.00  0.00    -0.306 N 
ATOM     31  H32 UNL     1      34.692  13.376  -9.337  1.00  0.00     0.171 HD
ATOM     32  H31 UNL     1      35.811  12.296  -8.414  1.00  0.00     0.171 HD
ENDBRANCH  27  30
ENDBRANCH  26  27
ENDBRANCH  22  26
ENDBRANCH   6   8
ENDBRANCH   4   5
ENDBRANCH   1   4
TORSDOF 6
ENDMDL
