MODEL 1
REMARK VINA RESULT: -4.737954506      0.000      0.000
REMARK  4 active torsions:
REMARK  status: ('A' for Active; 'I' for Inactive)
REMARK    1  A    between atoms: C3_5  and  N2_6 
REMARK    2  A    between atoms: N2_6  and  N3_8 
REMARK    3  A    between atoms: C5_15  and  S1_16 
REMARK    4  A    between atoms: S1_16  and  N5_17 
ROOT
HETATM    1  C1  UNL     1     -49.507 -23.435   9.717  1.00  0.00     0.070 C 
HETATM    2  C2  UNL     1     -49.208 -22.250  10.556  1.00  0.00     0.051 A 
HETATM    3  N1  UNL     1     -49.761 -22.108  11.750  1.00  0.00    -0.193 N 
ATOM      4  H1  UNL     1     -50.398 -22.832  12.081  1.00  0.00     0.184 HD
HETATM    5  C3  UNL     1     -49.520 -21.051  12.547  1.00  0.00     0.699 A 
HETATM    6  N4  UNL     1     -48.680 -20.106  12.100  1.00  0.00    -0.153 N 
ATOM      7  H4  UNL     1     -48.478 -19.293  12.682  1.00  0.00     0.187 HD
HETATM    8  C4  UNL     1     -48.103 -20.219  10.896  1.00  0.00     0.285 A 
HETATM    9  O1  UNL     1     -47.300 -19.343  10.437  1.00  0.00    -0.266 OA
HETATM   10  C5  UNL     1     -48.342 -21.300  10.067  1.00  0.00     0.170 A 
ENDROOT
BRANCH  10  11
HETATM   11  S1  UNL     1     -47.608 -21.475   8.499  1.00  0.00     0.264 S 
HETATM   12  O2  UNL     1     -48.701 -21.918   7.557  1.00  0.00    -0.200 OA
HETATM   13  O3  UNL     1     -46.567 -22.558   8.477  1.00  0.00    -0.200 OA
BRANCH  11  14
HETATM   14  N5  UNL     1     -46.975 -20.012   7.887  1.00  0.00    -0.324 N 
ATOM     15  H52 UNL     1     -47.061 -19.126   8.384  1.00  0.00     0.169 HD
ATOM     16  H51 UNL     1     -46.510 -20.122   6.986  1.00  0.00     0.169 HD
ENDBRANCH  11  14
ENDBRANCH  10  11
BRANCH   5  17
HETATM   17  N2  UNL     1     -50.095 -20.974  13.706  1.00  0.00    -0.138 N 
ATOM     18  H2  UNL     1     -49.509 -20.965  14.541  1.00  0.00     0.205 HD
BRANCH  17  19
HETATM   19  N3  UNL     1     -51.473 -20.900  13.862  1.00  0.00    -0.331 N 
ATOM     20  H32 UNL     1     -52.004 -20.422  13.135  1.00  0.00     0.177 HD
ATOM     21  H31 UNL     1     -51.963 -21.300  14.663  1.00  0.00     0.177 HD
ENDBRANCH  17  19
ENDBRANCH   5  17
TORSDOF 4
ENDMDL
MODEL 2
REMARK VINA RESULT: -4.246716066      2.584      4.617
REMARK  4 active torsions:
REMARK  status: ('A' for Active; 'I' for Inactive)
REMARK    1  A    between atoms: C3_5  and  N2_6 
REMARK    2  A    between atoms: N2_6  and  N3_8 
REMARK    3  A    between atoms: C5_15  and  S1_16 
REMARK    4  A    between atoms: S1_16  and  N5_17 
ROOT
HETATM    1  C1  UNL     1     -50.796 -22.709   9.412  1.00  0.00     0.070 C 
HETATM    2  C2  UNL     1     -49.596 -21.851   9.554  1.00  0.00     0.051 A 
HETATM    3  N1  UNL     1     -48.698 -21.775   8.585  1.00  0.00    -0.193 N 
ATOM      4  H1  UNL     1     -48.850 -22.321   7.736  1.00  0.00     0.184 HD
HETATM    5  C3  UNL     1     -47.594 -21.010   8.668  1.00  0.00     0.699 A 
HETATM    6  N4  UNL     1     -47.407 -20.298   9.789  1.00  0.00    -0.153 N 
ATOM      7  H4  UNL     1     -46.579 -19.709   9.880  1.00  0.00     0.187 HD
HETATM    8  C4  UNL     1     -48.296 -20.352  10.790  1.00  0.00     0.285 A 
HETATM    9  O1  UNL     1     -48.153 -19.690  11.869  1.00  0.00    -0.266 OA
HETATM   10  C5  UNL     1     -49.434 -21.134  10.717  1.00  0.00     0.170 A 
ENDROOT
BRANCH  10  11
HETATM   11  S1  UNL     1     -50.608 -21.225  11.998  1.00  0.00     0.264 S 
HETATM   12  O2  UNL     1     -51.138 -22.637  12.000  1.00  0.00    -0.200 OA
HETATM   13  O3  UNL     1     -51.790 -20.331  11.752  1.00  0.00    -0.200 OA
BRANCH  11  14
HETATM   14  N5  UNL     1     -49.939 -20.934  13.543  1.00  0.00    -0.324 N 
ATOM     15  H52 UNL     1     -50.473 -20.512  14.302  1.00  0.00     0.169 HD
ATOM     16  H51 UNL     1     -48.965 -21.226  13.619  1.00  0.00     0.169 HD
ENDBRANCH  11  14
ENDBRANCH  10  11
BRANCH   5  17
HETATM   17  N2  UNL     1     -46.755 -20.981   7.681  1.00  0.00    -0.138 N 
ATOM     18  H2  UNL     1     -46.379 -21.864   7.334  1.00  0.00     0.205 HD
BRANCH  17  19
HETATM   19  N3  UNL     1     -46.343 -19.801   7.074  1.00  0.00    -0.331 N 
ATOM     20  H32 UNL     1     -46.832 -19.513   6.227  1.00  0.00     0.177 HD
ATOM     21  H31 UNL     1     -45.584 -19.225   7.438  1.00  0.00     0.177 HD
ENDBRANCH  17  19
ENDBRANCH   5  17
TORSDOF 4
ENDMDL
MODEL 3
REMARK VINA RESULT: -4.160017480      6.826      8.042
REMARK  4 active torsions:
REMARK  status: ('A' for Active; 'I' for Inactive)
REMARK    1  A    between atoms: C3_5  and  N2_6 
REMARK    2  A    between atoms: N2_6  and  N3_8 
REMARK    3  A    between atoms: C5_15  and  S1_16 
REMARK    4  A    between atoms: S1_16  and  N5_17 
ROOT
HETATM    1  C1  UNL     1     -45.504 -15.222   5.470  1.00  0.00     0.070 C 
HETATM    2  C2  UNL     1     -45.906 -16.648   5.496  1.00  0.00     0.051 A 
HETATM    3  N1  UNL     1     -45.061 -17.583   5.900  1.00  0.00    -0.193 N 
ATOM      4  H1  UNL     1     -44.126 -17.301   6.193  1.00  0.00     0.184 HD
HETATM    5  C3  UNL     1     -45.380 -18.889   5.941  1.00  0.00     0.699 A 
HETATM    6  N4  UNL     1     -46.613 -19.247   5.553  1.00  0.00    -0.153 N 
ATOM      7  H4  UNL     1     -46.883 -20.231   5.573  1.00  0.00     0.187 HD
HETATM    8  C4  UNL     1     -47.493 -18.326   5.138  1.00  0.00     0.285 A 
HETATM    9  O1  UNL     1     -48.673 -18.627   4.762  1.00  0.00    -0.266 OA
HETATM   10  C5  UNL     1     -47.178 -16.981   5.091  1.00  0.00     0.170 A 
ENDROOT
BRANCH  10  11
HETATM   11  S1  UNL     1     -48.298 -15.760   4.558  1.00  0.00     0.264 S 
HETATM   12  O2  UNL     1     -48.038 -15.547   3.087  1.00  0.00    -0.200 OA
HETATM   13  O3  UNL     1     -48.058 -14.437   5.226  1.00  0.00    -0.200 OA
BRANCH  11  14
HETATM   14  N5  UNL     1     -49.932 -16.233   4.718  1.00  0.00    -0.324 N 
ATOM     15  H52 UNL     1     -50.245 -17.189   4.552  1.00  0.00     0.169 HD
ATOM     16  H51 UNL     1     -50.545 -15.467   4.994  1.00  0.00     0.169 HD
ENDBRANCH  11  14
ENDBRANCH  10  11
BRANCH   5  17
HETATM   17  N2  UNL     1     -44.505 -19.754   6.348  1.00  0.00    -0.138 N 
ATOM     18  H2  UNL     1     -44.769 -20.739   6.376  1.00  0.00     0.205 HD
BRANCH  17  19
HETATM   19  N3  UNL     1     -43.222 -19.400   6.747  1.00  0.00    -0.331 N 
ATOM     20  H32 UNL     1     -42.589 -19.042   6.033  1.00  0.00     0.177 HD
ATOM     21  H31 UNL     1     -42.898 -19.484   7.711  1.00  0.00     0.177 HD
ENDBRANCH  17  19
ENDBRANCH   5  17
TORSDOF 4
ENDMDL
MODEL 4
REMARK VINA RESULT: -4.095128583      7.260      7.925
REMARK  4 active torsions:
REMARK  status: ('A' for Active; 'I' for Inactive)
REMARK    1  A    between atoms: C3_5  and  N2_6 
REMARK    2  A    between atoms: N2_6  and  N3_8 
REMARK    3  A    between atoms: C5_15  and  S1_16 
REMARK    4  A    between atoms: S1_16  and  N5_17 
ROOT
HETATM    1  C1  UNL     1     -48.732 -18.888   3.890  1.00  0.00     0.070 C 
HETATM    2  C2  UNL     1     -48.007 -17.818   4.615  1.00  0.00     0.051 A 
HETATM    3  N1  UNL     1     -46.898 -18.086   5.288  1.00  0.00    -0.193 N 
ATOM      4  H1  UNL     1     -46.554 -19.046   5.296  1.00  0.00     0.184 HD
HETATM    5  C3  UNL     1     -46.206 -17.149   5.960  1.00  0.00     0.699 A 
HETATM    6  N4  UNL     1     -46.670 -15.891   5.941  1.00  0.00    -0.153 N 
ATOM      7  H4  UNL     1     -46.166 -15.159   6.442  1.00  0.00     0.187 HD
HETATM    8  C4  UNL     1     -47.789 -15.585   5.270  1.00  0.00     0.285 A 
HETATM    9  O1  UNL     1     -48.260 -14.402   5.228  1.00  0.00    -0.266 OA
HETATM   10  C5  UNL     1     -48.510 -16.538   4.575  1.00  0.00     0.170 A 
ENDROOT
BRANCH  10  11
HETATM   11  S1  UNL     1     -49.965 -16.173   3.694  1.00  0.00     0.264 S 
HETATM   12  O2  UNL     1     -51.103 -16.263   4.681  1.00  0.00    -0.200 OA
HETATM   13  O3  UNL     1     -50.253 -17.189   2.625  1.00  0.00    -0.200 OA
BRANCH  11  14
HETATM   14  N5  UNL     1     -49.981 -14.592   3.048  1.00  0.00    -0.324 N 
ATOM     15  H52 UNL     1     -49.734 -14.392   2.079  1.00  0.00     0.169 HD
ATOM     16  H51 UNL     1     -50.258 -13.884   3.728  1.00  0.00     0.169 HD
ENDBRANCH  11  14
ENDBRANCH  10  11
BRANCH   5  17
HETATM   17  N2  UNL     1     -45.128 -17.479   6.599  1.00  0.00    -0.138 N 
ATOM     18  H2  UNL     1     -44.247 -17.506   6.085  1.00  0.00     0.205 HD
BRANCH  17  19
HETATM   19  N3  UNL     1     -45.118 -17.796   7.951  1.00  0.00    -0.331 N 
ATOM     20  H32 UNL     1     -45.466 -18.715   8.221  1.00  0.00     0.177 HD
ATOM     21  H31 UNL     1     -44.781 -17.154   8.669  1.00  0.00     0.177 HD
ENDBRANCH  17  19
ENDBRANCH   5  17
TORSDOF 4
ENDMDL
MODEL 5
REMARK VINA RESULT: -4.082256573      2.777      4.993
REMARK  4 active torsions:
REMARK  status: ('A' for Active; 'I' for Inactive)
REMARK    1  A    between atoms: C3_5  and  N2_6 
REMARK    2  A    between atoms: N2_6  and  N3_8 
REMARK    3  A    between atoms: C5_15  and  S1_16 
REMARK    4  A    between atoms: S1_16  and  N5_17 
ROOT
HETATM    1  C1  UNL     1     -47.652 -20.610  12.355  1.00  0.00     0.070 C 
HETATM    2  C2  UNL     1     -48.062 -21.063  11.005  1.00  0.00     0.051 A 
HETATM    3  N1  UNL     1     -47.292 -20.839   9.951  1.00  0.00    -0.193 N 
ATOM      4  H1  UNL     1     -46.408 -20.348  10.090  1.00  0.00     0.184 HD
HETATM    5  C3  UNL     1     -47.621 -21.231   8.708  1.00  0.00     0.699 A 
HETATM    6  N4  UNL     1     -48.785 -21.876   8.540  1.00  0.00    -0.153 N 
ATOM      7  H4  UNL     1     -49.062 -22.185   7.608  1.00  0.00     0.187 HD
HETATM    8  C4  UNL     1     -49.589 -22.119   9.584  1.00  0.00     0.285 A 
HETATM    9  O1  UNL     1     -50.701 -22.728   9.465  1.00  0.00    -0.266 OA
HETATM   10  C5  UNL     1     -49.262 -21.721  10.868  1.00  0.00     0.170 A 
ENDROOT
BRANCH  10  11
HETATM   11  S1  UNL     1     -50.283 -22.021  12.244  1.00  0.00     0.264 S 
HETATM   12  O2  UNL     1     -51.281 -20.891  12.297  1.00  0.00    -0.200 OA
HETATM   13  O3  UNL     1     -49.522 -21.972  13.539  1.00  0.00    -0.200 OA
BRANCH  11  14
HETATM   14  N5  UNL     1     -51.172 -23.475  12.117  1.00  0.00    -0.324 N 
ATOM     15  H52 UNL     1     -52.098 -23.516  11.693  1.00  0.00     0.169 HD
ATOM     16  H51 UNL     1     -50.681 -24.279  12.505  1.00  0.00     0.169 HD
ENDBRANCH  11  14
ENDBRANCH  10  11
BRANCH   5  17
HETATM   17  N2  UNL     1     -46.821 -20.981   7.720  1.00  0.00    -0.138 N 
ATOM     18  H2  UNL     1     -46.426 -21.766   7.201  1.00  0.00     0.205 HD
BRANCH  17  19
HETATM   19  N3  UNL     1     -46.477 -19.691   7.334  1.00  0.00    -0.331 N 
ATOM     20  H32 UNL     1     -47.231 -19.012   7.239  1.00  0.00     0.177 HD
ATOM     21  H31 UNL     1     -45.515 -19.406   7.146  1.00  0.00     0.177 HD
ENDBRANCH  17  19
ENDBRANCH   5  17
TORSDOF 4
ENDMDL
