MODEL 1
REMARK VINA RESULT: -6.314543951      0.000      0.000
REMARK  5 active torsions:
REMARK  status: ('A' for Active; 'I' for Inactive)
REMARK    1  A    between atoms: C4_5  and  N2_6 
REMARK    2  A    between atoms: N2_6  and  C5_8 
REMARK    3  A    between atoms: C5_8  and  O2_13 
REMARK    4  A    between atoms: N3_9  and  C6_11 
REMARK    5  A    between atoms: O2_13  and  C7_14 
ROOT
HETATM    1  C5  UNL     1      -4.285   1.424  15.772  1.00  0.00     0.222 C 
HETATM    2  N3  UNL     1      -4.651   0.407  15.073  1.00  0.00    -0.300 N 
ATOM      3  H3  UNL     1      -5.349  -0.215  15.482  1.00  0.00     0.171 HD
ENDROOT
BRANCH   1   4
HETATM    4  N2  UNL     1      -3.314   2.304  15.220  1.00  0.00    -0.351 N 
ATOM      5  H2  UNL     1      -2.398   1.923  14.980  1.00  0.00     0.163 HD
BRANCH   4   6
HETATM    6  C4  UNL     1      -3.555   3.702  14.981  1.00  0.00     0.088 C 
HETATM    7  C3  UNL     1      -4.425   3.830  13.761  1.00  0.00     0.055 C 
HETATM    8  C2  UNL     1      -4.682   5.271  13.386  1.00  0.00     0.274 C 
HETATM    9  N1  UNL     1      -3.419   5.969  13.362  1.00  0.00     0.084 N 
HETATM   10  C1  UNL     1      -3.371   7.006  12.351  1.00  0.00     0.309 C 
HETATM   11  C12 UNL     1      -2.286   5.091  13.316  1.00  0.00     0.274 C 
HETATM   12  C11 UNL     1      -2.212   4.361  14.649  1.00  0.00     0.055 C 
ENDBRANCH   4   6
ENDBRANCH   1   4
BRANCH   1  13
HETATM   13  O2  UNL     1      -4.862   1.588  17.011  1.00  0.00    -0.312 OA
BRANCH  13  14
HETATM   14  C7  UNL     1      -6.189   1.922  17.261  1.00  0.00     0.060 C 
HETATM   15  C8  UNL     1      -6.289   2.309  18.742  1.00  0.00     0.046 C 
HETATM   16  C9  UNL     1      -7.144   0.759  17.067  1.00  0.00     0.046 C 
HETATM   17  C10 UNL     1      -6.708   3.081  16.473  1.00  0.00     0.046 C 
ENDBRANCH  13  14
ENDBRANCH   1  13
BRANCH   2  18
HETATM   18  C6  UNL     1      -4.173   0.086  13.804  1.00  0.00     0.355 C 
HETATM   19  O1  UNL     1      -4.734   0.548  12.783  1.00  0.00    -0.283 OA
ENDBRANCH   2  18
TORSDOF 5
ENDMDL
MODEL 2
REMARK VINA RESULT: -6.168898379      1.715      3.857
REMARK  5 active torsions:
REMARK  status: ('A' for Active; 'I' for Inactive)
REMARK    1  A    between atoms: C4_5  and  N2_6 
REMARK    2  A    between atoms: N2_6  and  C5_8 
REMARK    3  A    between atoms: C5_8  and  O2_13 
REMARK    4  A    between atoms: N3_9  and  C6_11 
REMARK    5  A    between atoms: O2_13  and  C7_14 
ROOT
HETATM    1  C5  UNL     1      -4.429   1.489  14.177  1.00  0.00     0.222 C 
HETATM    2  N3  UNL     1      -4.533   0.616  15.115  1.00  0.00    -0.300 N 
ATOM      3  H3  UNL     1      -3.956  -0.223  15.040  1.00  0.00     0.171 HD
ENDROOT
BRANCH   1   4
HETATM    4  N2  UNL     1      -5.224   2.666  14.264  1.00  0.00    -0.351 N 
ATOM      5  H2  UNL     1      -6.236   2.572  14.180  1.00  0.00     0.163 HD
BRANCH   4   6
HETATM    6  C4  UNL     1      -4.676   3.981  14.463  1.00  0.00     0.088 C 
HETATM    7  C3  UNL     1      -4.549   4.648  13.122  1.00  0.00     0.055 C 
HETATM    8  C2  UNL     1      -3.916   6.017  13.218  1.00  0.00     0.274 C 
HETATM    9  N1  UNL     1      -2.714   5.911  14.008  1.00  0.00     0.084 N 
HETATM   10  C1  UNL     1      -1.674   6.820  13.572  1.00  0.00     0.309 C 
HETATM   11  C12 UNL     1      -2.251   4.562  14.158  1.00  0.00     0.274 C 
HETATM   12  C11 UNL     1      -3.258   3.820  15.024  1.00  0.00     0.055 C 
ENDBRANCH   4   6
ENDBRANCH   1   4
BRANCH   1  13
HETATM   13  O2  UNL     1      -3.552   1.222  13.151  1.00  0.00    -0.312 OA
BRANCH  13  14
HETATM   14  C7  UNL     1      -3.873   0.649  11.925  1.00  0.00     0.060 C 
HETATM   15  C8  UNL     1      -2.662   0.840  11.002  1.00  0.00     0.046 C 
HETATM   16  C9  UNL     1      -5.038   1.332  11.234  1.00  0.00     0.046 C 
HETATM   17  C10 UNL     1      -4.158  -0.817  11.969  1.00  0.00     0.046 C 
ENDBRANCH  13  14
ENDBRANCH   1  13
BRANCH   2  18
HETATM   18  C6  UNL     1      -5.368   0.720  16.227  1.00  0.00     0.355 C 
HETATM   19  O1  UNL     1      -5.785  -0.312  16.801  1.00  0.00    -0.283 OA
ENDBRANCH   2  18
TORSDOF 5
ENDMDL
MODEL 3
REMARK VINA RESULT: -6.035953854      1.782      4.059
REMARK  5 active torsions:
REMARK  status: ('A' for Active; 'I' for Inactive)
REMARK    1  A    between atoms: C4_5  and  N2_6 
REMARK    2  A    between atoms: N2_6  and  C5_8 
REMARK    3  A    between atoms: C5_8  and  O2_13 
REMARK    4  A    between atoms: N3_9  and  C6_11 
REMARK    5  A    between atoms: O2_13  and  C7_14 
ROOT
HETATM    1  C5  UNL     1      -4.275   1.262  13.629  1.00  0.00     0.222 C 
HETATM    2  N3  UNL     1      -4.675   0.713  14.722  1.00  0.00    -0.300 N 
ATOM      3  H3  UNL     1      -5.310  -0.081  14.642  1.00  0.00     0.171 HD
ENDROOT
BRANCH   1   4
HETATM    4  N2  UNL     1      -3.390   2.371  13.720  1.00  0.00    -0.351 N 
ATOM      5  H2  UNL     1      -2.431   2.201  14.023  1.00  0.00     0.163 HD
BRANCH   4   6
HETATM    6  C4  UNL     1      -3.775   3.722  13.406  1.00  0.00     0.088 C 
HETATM    7  C3  UNL     1      -3.082   4.127  12.135  1.00  0.00     0.055 C 
HETATM    8  C2  UNL     1      -3.371   5.561  11.754  1.00  0.00     0.274 C 
HETATM    9  N1  UNL     1      -3.150   6.395  12.910  1.00  0.00     0.084 N 
HETATM   10  C1  UNL     1      -2.637   7.705  12.567  1.00  0.00     0.309 C 
HETATM   11  C12 UNL     1      -2.389   5.748  13.939  1.00  0.00     0.274 C 
HETATM   12  C11 UNL     1      -3.247   4.633  14.519  1.00  0.00     0.055 C 
ENDBRANCH   4   6
ENDBRANCH   1   4
BRANCH   1  13
HETATM   13  O2  UNL     1      -4.736   0.734  12.444  1.00  0.00    -0.312 OA
BRANCH  13  14
HETATM   14  C7  UNL     1      -3.989   0.004  11.526  1.00  0.00     0.060 C 
HETATM   15  C8  UNL     1      -4.739   0.052  10.188  1.00  0.00     0.046 C 
HETATM   16  C9  UNL     1      -3.872  -1.465  11.887  1.00  0.00     0.046 C 
HETATM   17  C10 UNL     1      -2.613   0.528  11.271  1.00  0.00     0.046 C 
ENDBRANCH  13  14
ENDBRANCH   1  13
BRANCH   2  18
HETATM   18  C6  UNL     1      -4.313   1.115  16.007  1.00  0.00     0.355 C 
HETATM   19  O1  UNL     1      -3.108   1.312  16.290  1.00  0.00    -0.283 OA
ENDBRANCH   2  18
TORSDOF 5
ENDMDL
MODEL 4
REMARK VINA RESULT: -6.025774271      1.806      4.092
REMARK  5 active torsions:
REMARK  status: ('A' for Active; 'I' for Inactive)
REMARK    1  A    between atoms: C4_5  and  N2_6 
REMARK    2  A    between atoms: N2_6  and  C5_8 
REMARK    3  A    between atoms: C5_8  and  O2_13 
REMARK    4  A    between atoms: N3_9  and  C6_11 
REMARK    5  A    between atoms: O2_13  and  C7_14 
ROOT
HETATM    1  C5  UNL     1      -4.212   1.414  14.039  1.00  0.00     0.222 C 
HETATM    2  N3  UNL     1      -4.492   0.558  14.957  1.00  0.00    -0.300 N 
ATOM      3  H3  UNL     1      -4.102  -0.379  14.858  1.00  0.00     0.171 HD
ENDROOT
BRANCH   1   4
HETATM    4  N2  UNL     1      -4.746   2.727  14.160  1.00  0.00    -0.351 N 
ATOM      5  H2  UNL     1      -5.661   2.838  14.597  1.00  0.00     0.163 HD
BRANCH   4   6
HETATM    6  C4  UNL     1      -4.064   3.907  13.698  1.00  0.00     0.088 C 
HETATM    7  C3  UNL     1      -2.762   4.021  14.443  1.00  0.00     0.055 C 
HETATM    8  C2  UNL     1      -1.997   5.272  14.075  1.00  0.00     0.274 C 
HETATM    9  N1  UNL     1      -2.895   6.398  14.157  1.00  0.00     0.084 N 
HETATM   10  C1  UNL     1      -2.235   7.611  14.595  1.00  0.00     0.309 C 
HETATM   11  C12 UNL     1      -4.093   6.116  14.894  1.00  0.00     0.274 C 
HETATM   12  C11 UNL     1      -4.913   5.123  14.083  1.00  0.00     0.055 C 
ENDBRANCH   4   6
ENDBRANCH   1   4
BRANCH   1  13
HETATM   13  O2  UNL     1      -3.412   0.998  13.000  1.00  0.00    -0.312 OA
BRANCH  13  14
HETATM   14  C7  UNL     1      -3.847   0.471  11.789  1.00  0.00     0.060 C 
HETATM   15  C8  UNL     1      -2.710   0.661  10.775  1.00  0.00     0.046 C 
HETATM   16  C9  UNL     1      -5.045   1.205  11.216  1.00  0.00     0.046 C 
HETATM   17  C10 UNL     1      -4.168  -0.988  11.812  1.00  0.00     0.046 C 
ENDBRANCH  13  14
ENDBRANCH   1  13
BRANCH   2  18
HETATM   18  C6  UNL     1      -5.285   0.805  16.077  1.00  0.00     0.355 C 
HETATM   19  O1  UNL     1      -5.802  -0.147  16.706  1.00  0.00    -0.283 OA
ENDBRANCH   2  18
TORSDOF 5
ENDMDL
MODEL 5
REMARK VINA RESULT: -5.904508713      2.372      5.662
REMARK  5 active torsions:
REMARK  status: ('A' for Active; 'I' for Inactive)
REMARK    1  A    between atoms: C4_5  and  N2_6 
REMARK    2  A    between atoms: N2_6  and  C5_8 
REMARK    3  A    between atoms: C5_8  and  O2_13 
REMARK    4  A    between atoms: N3_9  and  C6_11 
REMARK    5  A    between atoms: O2_13  and  C7_14 
ROOT
HETATM    1  C5  UNL     1      -3.251   2.430  12.107  1.00  0.00     0.222 C 
HETATM    2  N3  UNL     1      -3.672   1.572  11.246  1.00  0.00    -0.300 N 
ATOM      3  H3  UNL     1      -2.982   1.163  10.616  1.00  0.00     0.171 HD
ENDROOT
BRANCH   1   4
HETATM    4  N2  UNL     1      -4.198   3.010  12.995  1.00  0.00    -0.351 N 
ATOM      5  H2  UNL     1      -4.942   3.586  12.600  1.00  0.00     0.163 HD
BRANCH   4   6
HETATM    6  C4  UNL     1      -4.164   2.828  14.422  1.00  0.00     0.088 C 
HETATM    7  C3  UNL     1      -4.381   1.370  14.716  1.00  0.00     0.055 C 
HETATM    8  C2  UNL     1      -4.429   1.083  16.200  1.00  0.00     0.274 C 
HETATM    9  N1  UNL     1      -5.341   2.016  16.816  1.00  0.00     0.084 N 
HETATM   10  C1  UNL     1      -6.057   1.442  17.937  1.00  0.00     0.309 C 
HETATM   11  C12 UNL     1      -6.205   2.670  15.877  1.00  0.00     0.274 C 
HETATM   12  C11 UNL     1      -5.348   3.592  15.023  1.00  0.00     0.055 C 
ENDBRANCH   4   6
ENDBRANCH   1   4
BRANCH   1  13
HETATM   13  O2  UNL     1      -1.907   2.727  12.107  1.00  0.00    -0.312 OA
BRANCH  13  14
HETATM   14  C7  UNL     1      -1.337   3.948  11.766  1.00  0.00     0.060 C 
HETATM   15  C8  UNL     1       0.094   3.665  11.289  1.00  0.00     0.046 C 
HETATM   16  C9  UNL     1      -1.205   4.895  12.943  1.00  0.00     0.046 C 
HETATM   17  C10 UNL     1      -2.026   4.681  10.660  1.00  0.00     0.046 C 
ENDBRANCH  13  14
ENDBRANCH   1  13
BRANCH   2  18
HETATM   18  C6  UNL     1      -4.994   1.153  11.103  1.00  0.00     0.355 C 
HETATM   19  O1  UNL     1      -5.919   1.996  11.036  1.00  0.00    -0.283 OA
ENDBRANCH   2  18
TORSDOF 5
ENDMDL
