MODEL 1
REMARK VINA RESULT: -6.868279265      0.000      0.000
REMARK  6 active torsions:
REMARK  status: ('A' for Active; 'I' for Inactive)
REMARK    1  A    between atoms: C3_7  and  N3_8 
REMARK    2  A    between atoms: N3_8  and  C4_10 
REMARK    3  A    between atoms: C4_10  and  C5_11 
REMARK    4  A    between atoms: C5_11  and  S1_12 
REMARK    5  A    between atoms: S1_12  and  N4_13 
REMARK    6  A    between atoms: N5_18  and  O3_19 
ROOT
HETATM    1  C1  UNL     1      -3.863 -22.010 -31.842  1.00  0.00     0.093 C 
HETATM    2  C2  UNL     1      -4.755 -23.016 -32.447  1.00  0.00     0.139 A 
HETATM    3  N1  UNL     1      -5.639 -22.759 -33.421  1.00  0.00    -0.273 N 
ATOM      4  H1  UNL     1      -5.795 -21.848 -33.854  1.00  0.00     0.189 HD
HETATM    5  N2  UNL     1      -6.279 -23.886 -33.731  1.00  0.00    -0.129 N 
ATOM      6  H2  UNL     1      -7.007 -24.003 -34.436  1.00  0.00     0.205 HD
HETATM    7  C3  UNL     1      -5.770 -24.837 -32.928  1.00  0.00     0.720 A 
HETATM    8  N5  UNL     1      -4.824 -24.319 -32.122  1.00  0.00    -0.038 N 
ENDROOT
BRANCH   7   9
HETATM    9  N3  UNL     1      -6.129 -26.074 -32.919  1.00  0.00    -0.222 N 
ATOM     10  H3  UNL     1      -5.397 -26.780 -32.997  1.00  0.00     0.177 HD
BRANCH   9  11
HETATM   11  C4  UNL     1      -7.477 -26.527 -32.809  1.00  0.00     0.155 C 
BRANCH  11  12
HETATM   12  C5  UNL     1      -7.678 -27.200 -31.448  1.00  0.00     0.183 C 
BRANCH  12  13
HETATM   13  S1  UNL     1      -7.933 -25.891 -30.270  1.00  0.00     0.226 S 
HETATM   14  O1  UNL     1      -8.153 -24.602 -31.009  1.00  0.00    -0.206 OA
HETATM   15  O2  UNL     1      -9.106 -26.143 -29.398  1.00  0.00    -0.206 OA
BRANCH  13  16
HETATM   16  N4  UNL     1      -6.540 -25.684 -29.280  1.00  0.00    -0.328 N 
ATOM     17  H42 UNL     1      -6.088 -26.443 -28.770  1.00  0.00     0.168 HD
ATOM     18  H41 UNL     1      -6.239 -24.709 -29.281  1.00  0.00     0.168 HD
ENDBRANCH  13  16
ENDBRANCH  12  13
ENDBRANCH  11  12
ENDBRANCH   9  11
ENDBRANCH   7   9
BRANCH   8  19
HETATM   19  O3  UNL     1      -4.075 -24.982 -31.162  1.00  0.00    -0.268 OA
ATOM     20  H3  UNL     1      -4.246 -25.840 -30.793  1.00  0.00     0.246 HD
ENDBRANCH   8  19
TORSDOF 6
ENDMDL
MODEL 2
REMARK VINA RESULT: -6.813568872      2.156      2.539
REMARK  6 active torsions:
REMARK  status: ('A' for Active; 'I' for Inactive)
REMARK    1  A    between atoms: C3_7  and  N3_8 
REMARK    2  A    between atoms: N3_8  and  C4_10 
REMARK    3  A    between atoms: C4_10  and  C5_11 
REMARK    4  A    between atoms: C5_11  and  S1_12 
REMARK    5  A    between atoms: S1_12  and  N4_13 
REMARK    6  A    between atoms: N5_18  and  O3_19 
ROOT
HETATM    1  C1  UNL     1      -3.838 -23.837 -32.274  1.00  0.00     0.093 C 
HETATM    2  C2  UNL     1      -5.210 -23.317 -32.421  1.00  0.00     0.139 A 
HETATM    3  N1  UNL     1      -5.660 -22.192 -31.848  1.00  0.00    -0.273 N 
ATOM      4  H1  UNL     1      -5.113 -21.570 -31.252  1.00  0.00     0.189 HD
HETATM    5  N2  UNL     1      -6.938 -22.018 -32.185  1.00  0.00    -0.129 N 
ATOM      6  H2  UNL     1      -7.548 -21.251 -31.903  1.00  0.00     0.205 HD
HETATM    7  C3  UNL     1      -7.260 -23.059 -32.974  1.00  0.00     0.720 A 
HETATM    8  N5  UNL     1      -6.203 -23.878 -33.133  1.00  0.00    -0.038 N 
ENDROOT
BRANCH   7   9
HETATM    9  N3  UNL     1      -8.415 -23.257 -33.509  1.00  0.00    -0.222 N 
ATOM     10  H3  UNL     1      -8.637 -22.741 -34.360  1.00  0.00     0.177 HD
BRANCH   9  11
HETATM   11  C4  UNL     1      -9.405 -24.147 -32.997  1.00  0.00     0.155 C 
BRANCH  11  12
HETATM   12  C5  UNL     1      -9.257 -24.249 -31.475  1.00  0.00     0.183 C 
BRANCH  12  13
HETATM   13  S1  UNL     1      -9.180 -25.985 -31.091  1.00  0.00     0.226 S 
HETATM   14  O1  UNL     1      -9.036 -26.154 -29.606  1.00  0.00    -0.206 OA
HETATM   15  O2  UNL     1     -10.395 -26.712 -31.535  1.00  0.00    -0.206 OA
BRANCH  13  16
HETATM   16  N4  UNL     1      -7.802 -26.709 -31.827  1.00  0.00    -0.328 N 
ATOM     17  H42 UNL     1      -6.869 -26.704 -31.413  1.00  0.00     0.168 HD
ATOM     18  H41 UNL     1      -8.052 -27.134 -32.720  1.00  0.00     0.168 HD
ENDBRANCH  13  16
ENDBRANCH  12  13
ENDBRANCH  11  12
ENDBRANCH   9  11
ENDBRANCH   7   9
BRANCH   8  19
HETATM   19  O3  UNL     1      -6.143 -25.049 -33.872  1.00  0.00    -0.268 OA
ATOM     20  H3  UNL     1      -6.127 -25.129 -34.818  1.00  0.00     0.246 HD
ENDBRANCH   8  19
TORSDOF 6
ENDMDL
MODEL 3
REMARK VINA RESULT: -6.747636612      2.461      2.668
REMARK  6 active torsions:
REMARK  status: ('A' for Active; 'I' for Inactive)
REMARK    1  A    between atoms: C3_7  and  N3_8 
REMARK    2  A    between atoms: N3_8  and  C4_10 
REMARK    3  A    between atoms: C4_10  and  C5_11 
REMARK    4  A    between atoms: C5_11  and  S1_12 
REMARK    5  A    between atoms: S1_12  and  N4_13 
REMARK    6  A    between atoms: N5_18  and  O3_19 
ROOT
HETATM    1  C1  UNL     1      -3.980 -23.968 -32.296  1.00  0.00     0.093 C 
HETATM    2  C2  UNL     1      -5.353 -23.540 -32.620  1.00  0.00     0.139 A 
HETATM    3  N1  UNL     1      -5.669 -22.693 -33.609  1.00  0.00    -0.273 N 
ATOM      4  H1  UNL     1      -5.006 -22.251 -34.246  1.00  0.00     0.189 HD
HETATM    5  N2  UNL     1      -6.991 -22.522 -33.624  1.00  0.00    -0.129 N 
ATOM      6  H2  UNL     1      -7.527 -21.935 -34.263  1.00  0.00     0.205 HD
HETATM    7  C3  UNL     1      -7.476 -23.280 -32.624  1.00  0.00     0.720 A 
HETATM    8  N5  UNL     1      -6.477 -23.920 -31.988  1.00  0.00    -0.038 N 
ENDROOT
BRANCH   7   9
HETATM    9  N3  UNL     1      -8.721 -23.388 -32.309  1.00  0.00    -0.222 N 
ATOM     10  H3  UNL     1      -9.011 -23.027 -31.400  1.00  0.00     0.177 HD
BRANCH   9  11
HETATM   11  C4  UNL     1      -9.720 -23.976 -33.139  1.00  0.00     0.155 C 
BRANCH  11  12
HETATM   12  C5  UNL     1     -10.715 -24.749 -32.267  1.00  0.00     0.183 C 
BRANCH  12  13
HETATM   13  S1  UNL     1      -9.788 -26.044 -31.472  1.00  0.00     0.226 S 
HETATM   14  O1  UNL     1      -8.618 -26.412 -32.338  1.00  0.00    -0.206 OA
HETATM   15  O2  UNL     1      -9.280 -25.633 -30.141  1.00  0.00    -0.206 OA
BRANCH  13  16
HETATM   16  N4  UNL     1     -10.755 -27.456 -31.286  1.00  0.00    -0.328 N 
ATOM     17  H42 UNL     1     -10.482 -28.261 -30.722  1.00  0.00     0.168 HD
ATOM     18  H41 UNL     1     -11.624 -27.369 -31.813  1.00  0.00     0.168 HD
ENDBRANCH  13  16
ENDBRANCH  12  13
ENDBRANCH  11  12
ENDBRANCH   9  11
ENDBRANCH   7   9
BRANCH   8  19
HETATM   19  O3  UNL     1      -6.578 -24.788 -30.911  1.00  0.00    -0.268 OA
ATOM     20  H3  UNL     1      -7.242 -24.784 -30.233  1.00  0.00     0.246 HD
ENDBRANCH   8  19
TORSDOF 6
ENDMDL
MODEL 4
REMARK VINA RESULT: -6.719339033      2.583      4.595
REMARK  6 active torsions:
REMARK  status: ('A' for Active; 'I' for Inactive)
REMARK    1  A    between atoms: C3_7  and  N3_8 
REMARK    2  A    between atoms: N3_8  and  C4_10 
REMARK    3  A    between atoms: C4_10  and  C5_11 
REMARK    4  A    between atoms: C5_11  and  S1_12 
REMARK    5  A    between atoms: S1_12  and  N4_13 
REMARK    6  A    between atoms: N5_18  and  O3_19 
ROOT
HETATM    1  C1  UNL     1     -10.197 -27.042 -31.181  1.00  0.00     0.093 C 
HETATM    2  C2  UNL     1      -8.888 -26.546 -30.716  1.00  0.00     0.139 A 
HETATM    3  N1  UNL     1      -8.708 -25.791 -29.624  1.00  0.00    -0.273 N 
ATOM      4  H1  UNL     1      -9.446 -25.475 -28.993  1.00  0.00     0.189 HD
HETATM    5  N2  UNL     1      -7.410 -25.521 -29.496  1.00  0.00    -0.129 N 
ATOM      6  H2  UNL     1      -6.968 -24.968 -28.761  1.00  0.00     0.205 HD
HETATM    7  C3  UNL     1      -6.800 -26.125 -30.532  1.00  0.00     0.720 A 
HETATM    8  N5  UNL     1      -7.698 -26.766 -31.302  1.00  0.00    -0.038 N 
ENDROOT
BRANCH   7   9
HETATM    9  N3  UNL     1      -5.533 -26.100 -30.766  1.00  0.00    -0.222 N 
ATOM     10  H3  UNL     1      -4.997 -26.943 -30.559  1.00  0.00     0.177 HD
BRANCH   9  11
HETATM   11  C4  UNL     1      -4.827 -24.979 -31.294  1.00  0.00     0.155 C 
BRANCH  11  12
HETATM   12  C5  UNL     1      -5.331 -24.682 -32.710  1.00  0.00     0.183 C 
BRANCH  12  13
HETATM   13  S1  UNL     1      -6.250 -23.161 -32.610  1.00  0.00     0.226 S 
HETATM   14  O1  UNL     1      -6.436 -22.608 -33.993  1.00  0.00    -0.206 OA
HETATM   15  O2  UNL     1      -7.585 -23.354 -31.994  1.00  0.00    -0.206 OA
BRANCH  13  16
HETATM   16  N4  UNL     1      -5.382 -21.987 -31.698  1.00  0.00    -0.328 N 
ATOM     17  H42 UNL     1      -4.403 -22.085 -31.432  1.00  0.00     0.168 HD
ATOM     18  H41 UNL     1      -5.983 -21.194 -31.469  1.00  0.00     0.168 HD
ENDBRANCH  13  16
ENDBRANCH  12  13
ENDBRANCH  11  12
ENDBRANCH   9  11
ENDBRANCH   7   9
BRANCH   8  19
HETATM   19  O3  UNL     1      -7.456 -27.500 -32.453  1.00  0.00    -0.268 OA
ATOM     20  H3  UNL     1      -8.080 -27.718 -33.135  1.00  0.00     0.246 HD
ENDBRANCH   8  19
TORSDOF 6
ENDMDL
MODEL 5
REMARK VINA RESULT: -6.659296019      2.289      2.868
REMARK  6 active torsions:
REMARK  status: ('A' for Active; 'I' for Inactive)
REMARK    1  A    between atoms: C3_7  and  N3_8 
REMARK    2  A    between atoms: N3_8  and  C4_10 
REMARK    3  A    between atoms: C4_10  and  C5_11 
REMARK    4  A    between atoms: C5_11  and  S1_12 
REMARK    5  A    between atoms: S1_12  and  N4_13 
REMARK    6  A    between atoms: N5_18  and  O3_19 
ROOT
HETATM    1  C1  UNL     1      -3.878 -22.569 -32.548  1.00  0.00     0.093 C 
HETATM    2  C2  UNL     1      -4.533 -23.659 -31.802  1.00  0.00     0.139 A 
HETATM    3  N1  UNL     1      -4.403 -23.860 -30.483  1.00  0.00    -0.273 N 
ATOM      4  H1  UNL     1      -3.843 -23.289 -29.849  1.00  0.00     0.189 HD
HETATM    5  N2  UNL     1      -5.123 -24.926 -30.137  1.00  0.00    -0.129 N 
ATOM      6  H2  UNL     1      -5.221 -25.323 -29.202  1.00  0.00     0.205 HD
HETATM    7  C3  UNL     1      -5.695 -25.374 -31.269  1.00  0.00     0.720 A 
HETATM    8  N5  UNL     1      -5.342 -24.603 -32.314  1.00  0.00    -0.038 N 
ENDROOT
BRANCH   7   9
HETATM    9  N3  UNL     1      -6.474 -26.396 -31.355  1.00  0.00    -0.222 N 
ATOM     10  H3  UNL     1      -6.059 -27.319 -31.226  1.00  0.00     0.177 HD
BRANCH   9  11
HETATM   11  C4  UNL     1      -7.874 -26.330 -31.618  1.00  0.00     0.155 C 
BRANCH  11  12
HETATM   12  C5  UNL     1      -8.454 -25.070 -30.968  1.00  0.00     0.183 C 
BRANCH  12  13
HETATM   13  S1  UNL     1      -9.128 -24.086 -32.289  1.00  0.00     0.226 S 
HETATM   14  O1  UNL     1      -8.765 -22.646 -32.063  1.00  0.00    -0.206 OA
HETATM   15  O2  UNL     1      -8.611 -24.501 -33.616  1.00  0.00    -0.206 OA
BRANCH  13  16
HETATM   16  N4  UNL     1     -10.846 -24.187 -32.306  1.00  0.00    -0.328 N 
ATOM     17  H42 UNL     1     -11.368 -24.895 -32.821  1.00  0.00     0.168 HD
ATOM     18  H41 UNL     1     -11.255 -23.447 -31.736  1.00  0.00     0.168 HD
ENDBRANCH  13  16
ENDBRANCH  12  13
ENDBRANCH  11  12
ENDBRANCH   9  11
ENDBRANCH   7   9
BRANCH   8  19
HETATM   19  O3  UNL     1      -5.728 -24.744 -33.639  1.00  0.00    -0.268 OA
ATOM     20  H3  UNL     1      -6.346 -25.372 -33.991  1.00  0.00     0.246 HD
ENDBRANCH   8  19
TORSDOF 6
ENDMDL
