MODEL 1
REMARK VINA RESULT: -8.058229337      0.000      0.000
REMARK  3 active torsions:
REMARK  status: ('A' for Active; 'I' for Inactive)
REMARK    1  A    between atoms: C3_5  and  C4_6 
REMARK    2  A    between atoms: C4_6  and  C5_7 
REMARK    3  A    between atoms: C9_18  and  C10_19 
ROOT
HETATM    1  C1  UNL     1      -4.596 -25.671 -30.709  1.00  0.00     0.044 C 
HETATM    2  C2  UNL     1      -5.889 -25.474 -30.760  1.00  0.00     0.040 A 
HETATM    3  N1  UNL     1      -6.307 -24.362 -31.456  1.00  0.00    -0.345 N 
ATOM      4  H1  UNL     1      -5.606 -23.760 -31.888  1.00  0.00     0.167 HD
HETATM    5  C3  UNL     1      -7.596 -24.044 -31.586  1.00  0.00     0.090 A 
HETATM    6  N4  UNL     1      -8.507 -24.853 -31.007  1.00  0.00    -0.312 N 
ATOM      7  H4  UNL     1      -9.495 -24.616 -31.102  1.00  0.00     0.170 HD
HETATM    8  C8  UNL     1      -8.186 -25.938 -30.323  1.00  0.00     0.260 A 
HETATM    9  O1  UNL     1      -9.004 -26.711 -29.773  1.00  0.00    -0.267 OA
HETATM   10  C9  UNL     1      -6.835 -26.276 -30.184  1.00  0.00     0.071 A 
ENDROOT
BRANCH   5  11
HETATM   11  C4  UNL     1      -8.047 -22.844 -32.339  1.00  0.00     0.135 C 
BRANCH  11  12
HETATM   12  C5  UNL     1      -9.188 -23.212 -33.207  1.00  0.00     0.032 A 
HETATM   13  C6  UNL     1     -10.392 -23.744 -32.810  1.00  0.00     0.114 A 
HETATM   14  N2  UNL     1     -11.182 -23.944 -33.900  1.00  0.00    -0.360 N 
HETATM   15  C7  UNL     1     -10.448 -23.530 -34.943  1.00  0.00     0.180 A 
ATOM     16  H2  UNL     1     -12.128 -24.326 -33.919  1.00  0.00     0.166 HD
HETATM   17  N3  UNL     1      -9.238 -23.084 -34.532  1.00  0.00    -0.354 N 
ATOM     18  H3  UNL     1      -8.497 -22.717 -35.129  1.00  0.00     0.166 HD
ENDBRANCH  11  12
ENDBRANCH   5  11
BRANCH  10  19
HETATM   19  C10 UNL     1      -6.487 -27.347 -29.510  1.00  0.00     0.119 C 
HETATM   20  N5  UNL     1      -6.173 -27.263 -28.128  1.00  0.00    -0.114 NA
ENDBRANCH  10  19
TORSDOF 3
ENDMDL
MODEL 2
REMARK VINA RESULT: -7.413653804      0.765      1.084
REMARK  3 active torsions:
REMARK  status: ('A' for Active; 'I' for Inactive)
REMARK    1  A    between atoms: C3_5  and  C4_6 
REMARK    2  A    between atoms: C4_6  and  C5_7 
REMARK    3  A    between atoms: C9_18  and  C10_19 
ROOT
HETATM    1  C1  UNL     1      -4.457 -25.234 -31.074  1.00  0.00     0.044 C 
HETATM    2  C2  UNL     1      -5.761 -25.187 -30.975  1.00  0.00     0.040 A 
HETATM    3  N1  UNL     1      -6.389 -24.194 -31.693  1.00  0.00    -0.345 N 
ATOM      4  H1  UNL     1      -5.822 -23.558 -32.253  1.00  0.00     0.167 HD
HETATM    5  C3  UNL     1      -7.714 -24.034 -31.682  1.00  0.00     0.090 A 
HETATM    6  N4  UNL     1      -8.446 -24.885 -30.935  1.00  0.00    -0.312 N 
ATOM      7  H4  UNL     1      -9.460 -24.769 -30.921  1.00  0.00     0.170 HD
HETATM    8  C8  UNL     1      -7.918 -25.863 -30.219  1.00  0.00     0.260 A 
HETATM    9  O1  UNL     1      -8.566 -26.671 -29.514  1.00  0.00    -0.267 OA
HETATM   10  C9  UNL     1      -6.529 -26.036 -30.227  1.00  0.00     0.071 A 
ENDROOT
BRANCH   5  11
HETATM   11  C4  UNL     1      -8.392 -22.962 -32.458  1.00  0.00     0.135 C 
BRANCH  11  12
HETATM   12  C5  UNL     1      -9.685 -23.471 -32.968  1.00  0.00     0.032 A 
HETATM   13  C6  UNL     1     -10.154 -23.395 -34.258  1.00  0.00     0.114 A 
HETATM   14  N2  UNL     1     -11.382 -23.976 -34.331  1.00  0.00    -0.360 N 
HETATM   15  C7  UNL     1     -11.643 -24.396 -33.084  1.00  0.00     0.180 A 
ATOM     16  H2  UNL     1     -11.976 -24.070 -35.155  1.00  0.00     0.166 HD
HETATM   17  N3  UNL     1     -10.619 -24.095 -32.251  1.00  0.00    -0.354 N 
ATOM     18  H3  UNL     1     -10.572 -24.307 -31.255  1.00  0.00     0.166 HD
ENDBRANCH  11  12
ENDBRANCH   5  11
BRANCH  10  19
HETATM   19  C10 UNL     1      -5.978 -26.997 -29.525  1.00  0.00     0.119 C 
HETATM   20  N5  UNL     1      -5.630 -26.794 -28.164  1.00  0.00    -0.114 NA
ENDBRANCH  10  19
TORSDOF 3
ENDMDL
MODEL 3
REMARK VINA RESULT: -7.007163648      2.046      5.795
REMARK  3 active torsions:
REMARK  status: ('A' for Active; 'I' for Inactive)
REMARK    1  A    between atoms: C3_5  and  C4_6 
REMARK    2  A    between atoms: C4_6  and  C5_7 
REMARK    3  A    between atoms: C9_18  and  C10_19 
ROOT
HETATM    1  C1  UNL     1      -9.763 -25.392 -31.910  1.00  0.00     0.044 C 
HETATM    2  C2  UNL     1      -8.660 -24.758 -32.219  1.00  0.00     0.040 A 
HETATM    3  N1  UNL     1      -7.503 -25.234 -31.642  1.00  0.00    -0.345 N 
ATOM      4  H1  UNL     1      -7.561 -26.038 -31.017  1.00  0.00     0.167 HD
HETATM    5  C3  UNL     1      -6.311 -24.682 -31.872  1.00  0.00     0.090 A 
HETATM    6  N4  UNL     1      -6.257 -23.619 -32.701  1.00  0.00    -0.312 N 
ATOM      7  H4  UNL     1      -5.349 -23.192 -32.882  1.00  0.00     0.170 HD
HETATM    8  C8  UNL     1      -7.321 -23.104 -33.293  1.00  0.00     0.260 A 
HETATM    9  O1  UNL     1      -7.308 -22.120 -34.068  1.00  0.00    -0.267 OA
HETATM   10  C9  UNL     1      -8.575 -23.680 -33.056  1.00  0.00     0.071 A 
ENDROOT
BRANCH   5  11
HETATM   11  C4  UNL     1      -5.063 -25.197 -31.250  1.00  0.00     0.135 C 
BRANCH  11  12
HETATM   12  C5  UNL     1      -5.411 -26.144 -30.166  1.00  0.00     0.032 A 
HETATM   13  C6  UNL     1      -6.426 -27.071 -30.171  1.00  0.00     0.114 A 
HETATM   14  N2  UNL     1      -6.425 -27.753 -28.994  1.00  0.00    -0.360 N 
HETATM   15  C7  UNL     1      -5.410 -27.231 -28.290  1.00  0.00     0.180 A 
ATOM     16  H2  UNL     1      -7.060 -28.500 -28.709  1.00  0.00     0.166 HD
HETATM   17  N3  UNL     1      -4.789 -26.255 -28.993  1.00  0.00    -0.354 N 
ATOM     18  H3  UNL     1      -3.990 -25.704 -28.681  1.00  0.00     0.166 HD
ENDBRANCH  11  12
ENDBRANCH   5  11
BRANCH  10  19
HETATM   19  C10 UNL     1      -9.647 -23.189 -33.629  1.00  0.00     0.119 C 
HETATM   20  N5  UNL     1      -9.890 -23.396 -35.012  1.00  0.00    -0.114 NA
ENDBRANCH  10  19
TORSDOF 3
ENDMDL
MODEL 4
REMARK VINA RESULT: -6.953280804      1.358      2.063
REMARK  3 active torsions:
REMARK  status: ('A' for Active; 'I' for Inactive)
REMARK    1  A    between atoms: C3_5  and  C4_6 
REMARK    2  A    between atoms: C4_6  and  C5_7 
REMARK    3  A    between atoms: C9_18  and  C10_19 
ROOT
HETATM    1  C1  UNL     1      -8.658 -26.547 -29.987  1.00  0.00     0.044 C 
HETATM    2  C2  UNL     1      -7.703 -25.819 -30.508  1.00  0.00     0.040 A 
HETATM    3  N1  UNL     1      -8.105 -24.766 -31.299  1.00  0.00    -0.345 N 
ATOM      4  H1  UNL     1      -9.104 -24.609 -31.439  1.00  0.00     0.167 HD
HETATM    5  C3  UNL     1      -7.236 -23.945 -31.891  1.00  0.00     0.090 A 
HETATM    6  N4  UNL     1      -5.921 -24.169 -31.694  1.00  0.00    -0.312 N 
ATOM      7  H4  UNL     1      -5.251 -23.545 -32.143  1.00  0.00     0.170 HD
HETATM    8  C8  UNL     1      -5.456 -25.157 -30.949  1.00  0.00     0.260 A 
HETATM    9  O1  UNL     1      -4.243 -25.396 -30.744  1.00  0.00    -0.267 OA
HETATM   10  C9  UNL     1      -6.363 -26.022 -30.326  1.00  0.00     0.071 A 
ENDROOT
BRANCH   5  11
HETATM   11  C4  UNL     1      -7.671 -22.808 -32.745  1.00  0.00     0.135 C 
BRANCH  11  12
HETATM   12  C5  UNL     1      -8.957 -23.148 -33.394  1.00  0.00     0.032 A 
HETATM   13  C6  UNL     1     -10.099 -23.608 -32.781  1.00  0.00     0.114 A 
HETATM   14  N2  UNL     1     -11.069 -23.806 -33.714  1.00  0.00    -0.360 N 
HETATM   15  C7  UNL     1     -10.503 -23.463 -34.881  1.00  0.00     0.180 A 
ATOM     16  H2  UNL     1     -12.020 -24.141 -33.559  1.00  0.00     0.166 HD
HETATM   17  N3  UNL     1      -9.224 -23.063 -34.697  1.00  0.00    -0.354 N 
ATOM     18  H3  UNL     1      -8.580 -22.753 -35.423  1.00  0.00     0.166 HD
ENDBRANCH  11  12
ENDBRANCH   5  11
BRANCH  10  19
HETATM   19  C10 UNL     1      -5.930 -27.011 -29.581  1.00  0.00     0.119 C 
HETATM   20  N5  UNL     1      -5.681 -26.821 -28.196  1.00  0.00    -0.114 NA
ENDBRANCH  10  19
TORSDOF 3
ENDMDL
MODEL 5
REMARK VINA RESULT: -6.878887438      1.907      5.981
REMARK  3 active torsions:
REMARK  status: ('A' for Active; 'I' for Inactive)
REMARK    1  A    between atoms: C3_5  and  C4_6 
REMARK    2  A    between atoms: C4_6  and  C5_7 
REMARK    3  A    between atoms: C9_18  and  C10_19 
ROOT
HETATM    1  C1  UNL     1     -10.958 -24.681 -32.351  1.00  0.00     0.044 C 
HETATM    2  C2  UNL     1      -9.670 -24.901 -32.441  1.00  0.00     0.040 A 
HETATM    3  N1  UNL     1      -9.200 -26.027 -31.801  1.00  0.00    -0.345 N 
ATOM      4  H1  UNL     1      -9.862 -26.620 -31.301  1.00  0.00     0.167 HD
HETATM    5  C3  UNL     1      -7.911 -26.368 -31.813  1.00  0.00     0.090 A 
HETATM    6  N4  UNL     1      -7.052 -25.570 -32.480  1.00  0.00    -0.312 N 
ATOM      7  H4  UNL     1      -6.065 -25.825 -32.494  1.00  0.00     0.170 HD
HETATM    8  C8  UNL     1      -7.425 -24.474 -33.118  1.00  0.00     0.260 A 
HETATM    9  O1  UNL     1      -6.657 -23.710 -33.747  1.00  0.00    -0.267 OA
HETATM   10  C9  UNL     1      -8.777 -24.111 -33.109  1.00  0.00     0.071 A 
ENDROOT
BRANCH   5  11
HETATM   11  C4  UNL     1      -7.404 -27.584 -31.123  1.00  0.00     0.135 C 
BRANCH  11  12
HETATM   12  C5  UNL     1      -6.449 -27.183 -30.066  1.00  0.00     0.032 A 
HETATM   13  C6  UNL     1      -5.609 -26.095 -30.077  1.00  0.00     0.114 A 
HETATM   14  N2  UNL     1      -4.885 -26.066 -28.926  1.00  0.00    -0.360 N 
HETATM   15  C7  UNL     1      -5.295 -27.137 -28.230  1.00  0.00     0.180 A 
ATOM     16  H2  UNL     1      -4.183 -25.378 -28.651  1.00  0.00     0.166 HD
HETATM   17  N3  UNL     1      -6.243 -27.820 -28.914  1.00  0.00    -0.354 N 
ATOM     18  H3  UNL     1      -6.714 -28.669 -28.603  1.00  0.00     0.166 HD
ENDBRANCH  11  12
ENDBRANCH   5  11
BRANCH  10  19
HETATM   19  C10 UNL     1      -9.176 -23.028 -33.734  1.00  0.00     0.119 C 
HETATM   20  N5  UNL     1      -9.705 -23.102 -35.049  1.00  0.00    -0.114 NA
ENDBRANCH  10  19
TORSDOF 3
ENDMDL
