MODEL 1
REMARK VINA RESULT: -6.826351218      0.000      0.000
REMARK  4 active torsions:
REMARK  status: ('A' for Active; 'I' for Inactive)
REMARK    1  A    between atoms: C2_2  and  O1_3 
REMARK    2  A    between atoms: C2_2  and  C3_5 
REMARK    3  A    between atoms: C9_13  and  O2_14 
REMARK    4  A    between atoms: O2_14  and  S1_15 
ROOT
HETATM    1  C3  UNL     1      -4.286   2.005  12.300  1.00  0.00     0.287 C 
HETATM    2  C4  UNL     1      -4.548   2.785  13.562  1.00  0.00     0.227 C 
HETATM    3  C5  UNL     1      -3.688   2.351  14.663  1.00  0.00     0.087 C 
HETATM    4  N1  UNL     1      -3.021   2.019  15.541  1.00  0.00    -0.195 NA
HETATM    5  N2  UNL     1      -4.437   4.199  13.337  1.00  0.00    -0.368 N 
HETATM    6  C6  UNL     1      -4.379   5.145  14.428  1.00  0.00     0.151 C 
HETATM    7  C7  UNL     1      -4.389   4.691  12.028  1.00  0.00     0.040 C 
HETATM    8  C8  UNL     1      -4.812   5.902  11.680  1.00  0.00     0.033 C 
HETATM    9  C9  UNL     1      -4.698   6.283  10.253  1.00  0.00     0.165 C 
HETATM   10  C11 UNL     1      -3.389   5.915   9.658  1.00  0.00     0.040 C 
HETATM   11  C12 UNL     1      -2.767   4.699  10.291  1.00  0.00     0.045 C 
HETATM   12  C13 UNL     1      -3.835   3.869  10.928  1.00  0.00     0.272 C 
HETATM   13  N3  UNL     1      -3.301   2.639  11.461  1.00  0.00     0.104 N 
HETATM   14  C14 UNL     1      -2.029   2.874  12.030  1.00  0.00     0.311 C 
ENDROOT
BRANCH   1  15
HETATM   15  C2  UNL     1      -4.086   0.548  12.497  1.00  0.00     0.150 C 
HETATM   16  C1  UNL     1      -4.474  -0.199  11.222  1.00  0.00     0.041 C 
BRANCH  15  17
HETATM   17  O1  UNL     1      -4.664  -0.036  13.580  1.00  0.00    -0.394 OA
ATOM     18  H1  UNL     1      -4.759   0.596  14.283  1.00  0.00     0.210 HD
ENDBRANCH  15  17
ENDBRANCH   1  15
BRANCH   9  19
HETATM   19  O2  UNL     1      -5.790   5.720   9.606  1.00  0.00    -0.289 OA
BRANCH  19  20
HETATM   20  S1  UNL     1      -6.748   6.824   8.825  1.00  0.00     0.120 S 
HETATM   21  C10 UNL     1      -7.413   7.939  10.038  1.00  0.00     0.157 C 
HETATM   22  O3  UNL     1      -7.920   6.088   8.226  1.00  0.00    -0.232 OA
HETATM   23  S2  UNL     1      -5.924   7.745   7.669  1.00  0.00     0.036 SA
ENDBRANCH  19  20
ENDBRANCH   9  19
TORSDOF 4
ENDMDL
MODEL 2
REMARK VINA RESULT: -6.492187384      3.627      6.425
REMARK  4 active torsions:
REMARK  status: ('A' for Active; 'I' for Inactive)
REMARK    1  A    between atoms: C2_2  and  O1_3 
REMARK    2  A    between atoms: C2_2  and  C3_5 
REMARK    3  A    between atoms: C9_13  and  O2_14 
REMARK    4  A    between atoms: O2_14  and  S1_15 
ROOT
HETATM    1  C3  UNL     1      -5.223   6.027  10.698  1.00  0.00     0.287 C 
HETATM    2  C4  UNL     1      -4.302   5.184   9.855  1.00  0.00     0.227 C 
HETATM    3  C5  UNL     1      -3.774   5.926   8.710  1.00  0.00     0.087 C 
HETATM    4  N1  UNL     1      -3.352   6.495   7.802  1.00  0.00    -0.195 NA
HETATM    5  N2  UNL     1      -3.245   4.615  10.643  1.00  0.00    -0.368 N 
HETATM    6  C6  UNL     1      -2.089   3.992  10.038  1.00  0.00     0.151 C 
HETATM    7  C7  UNL     1      -3.324   4.651  12.039  1.00  0.00     0.040 C 
HETATM    8  C8  UNL     1      -2.749   3.754  12.834  1.00  0.00     0.033 C 
HETATM    9  C9  UNL     1      -2.922   3.924  14.295  1.00  0.00     0.165 C 
HETATM   10  C11 UNL     1      -2.728   5.325  14.743  1.00  0.00     0.040 C 
HETATM   11  C12 UNL     1      -3.097   6.341  13.695  1.00  0.00     0.045 C 
HETATM   12  C13 UNL     1      -4.063   5.732  12.730  1.00  0.00     0.272 C 
HETATM   13  N3  UNL     1      -4.524   6.700  11.763  1.00  0.00     0.104 N 
HETATM   14  C14 UNL     1      -3.463   7.556  11.394  1.00  0.00     0.311 C 
ENDROOT
BRANCH   1  15
HETATM   15  C2  UNL     1      -6.158   6.886   9.931  1.00  0.00     0.150 C 
HETATM   16  C1  UNL     1      -6.884   7.833  10.886  1.00  0.00     0.041 C 
BRANCH  15  17
HETATM   17  O1  UNL     1      -7.049   6.279   9.101  1.00  0.00    -0.394 OA
ATOM     18  H1  UNL     1      -7.791   5.954   9.596  1.00  0.00     0.210 HD
ENDBRANCH  15  17
ENDBRANCH   1  15
BRANCH   9  19
HETATM   19  O2  UNL     1      -4.168   3.398  14.609  1.00  0.00    -0.289 OA
BRANCH  19  20
HETATM   20  S1  UNL     1      -4.106   1.896  15.307  1.00  0.00     0.120 S 
HETATM   21  C10 UNL     1      -5.403   1.792  16.518  1.00  0.00     0.157 C 
HETATM   22  O3  UNL     1      -2.804   1.781  16.057  1.00  0.00    -0.232 OA
HETATM   23  S2  UNL     1      -4.318   0.625  14.210  1.00  0.00     0.036 SA
ENDBRANCH  19  20
ENDBRANCH   9  19
TORSDOF 4
ENDMDL
MODEL 3
REMARK VINA RESULT: -6.483526972      1.024      1.197
REMARK  4 active torsions:
REMARK  status: ('A' for Active; 'I' for Inactive)
REMARK    1  A    between atoms: C2_2  and  O1_3 
REMARK    2  A    between atoms: C2_2  and  C3_5 
REMARK    3  A    between atoms: C9_13  and  O2_14 
REMARK    4  A    between atoms: O2_14  and  S1_15 
ROOT
HETATM    1  C3  UNL     1      -4.326   2.158  12.177  1.00  0.00     0.287 C 
HETATM    2  C4  UNL     1      -4.603   2.866  13.477  1.00  0.00     0.227 C 
HETATM    3  C5  UNL     1      -3.763   2.363  14.565  1.00  0.00     0.087 C 
HETATM    4  N1  UNL     1      -3.112   1.977  15.432  1.00  0.00    -0.195 NA
HETATM    5  N2  UNL     1      -4.480   4.289  13.336  1.00  0.00    -0.368 N 
HETATM    6  C6  UNL     1      -4.433   5.171  14.480  1.00  0.00     0.151 C 
HETATM    7  C7  UNL     1      -4.409   4.855  12.058  1.00  0.00     0.040 C 
HETATM    8  C8  UNL     1      -4.818   6.088  11.774  1.00  0.00     0.033 C 
HETATM    9  C9  UNL     1      -4.679   6.549  10.373  1.00  0.00     0.165 C 
HETATM   10  C11 UNL     1      -3.363   6.207   9.778  1.00  0.00     0.040 C 
HETATM   11  C12 UNL     1      -2.759   4.952  10.349  1.00  0.00     0.045 C 
HETATM   12  C13 UNL     1      -3.842   4.095  10.921  1.00  0.00     0.272 C 
HETATM   13  N3  UNL     1      -3.324   2.832  11.391  1.00  0.00     0.104 N 
HETATM   14  C14 UNL     1      -2.060   3.025  11.992  1.00  0.00     0.311 C 
ENDROOT
BRANCH   1  15
HETATM   15  C2  UNL     1      -4.138   0.691  12.292  1.00  0.00     0.150 C 
HETATM   16  C1  UNL     1      -4.600   0.012  11.004  1.00  0.00     0.041 C 
BRANCH  15  17
HETATM   17  O1  UNL     1      -4.670   0.062  13.374  1.00  0.00    -0.394 OA
ATOM     18  H1  UNL     1      -4.350  -0.831  13.425  1.00  0.00     0.210 HD
ENDBRANCH  15  17
ENDBRANCH   1  15
BRANCH   9  19
HETATM   19  O2  UNL     1      -5.764   6.032   9.677  1.00  0.00    -0.289 OA
BRANCH  19  20
HETATM   20  S1  UNL     1      -6.341   7.036   8.492  1.00  0.00     0.120 S 
HETATM   21  C10 UNL     1      -5.644   6.523   6.940  1.00  0.00     0.157 C 
HETATM   22  O3  UNL     1      -5.822   8.426   8.761  1.00  0.00    -0.232 OA
HETATM   23  S2  UNL     1      -8.027   7.011   8.338  1.00  0.00     0.036 SA
ENDBRANCH  19  20
ENDBRANCH   9  19
TORSDOF 4
ENDMDL
MODEL 4
REMARK VINA RESULT: -6.328384303      3.489      6.385
REMARK  4 active torsions:
REMARK  status: ('A' for Active; 'I' for Inactive)
REMARK    1  A    between atoms: C2_2  and  O1_3 
REMARK    2  A    between atoms: C2_2  and  C3_5 
REMARK    3  A    between atoms: C9_13  and  O2_14 
REMARK    4  A    between atoms: O2_14  and  S1_15 
ROOT
HETATM    1  C3  UNL     1      -4.380   4.385  11.494  1.00  0.00     0.287 C 
HETATM    2  C4  UNL     1      -3.884   3.197  10.711  1.00  0.00     0.227 C 
HETATM    3  C5  UNL     1      -2.790   3.555   9.807  1.00  0.00     0.087 C 
HETATM    4  N1  UNL     1      -1.931   3.820   9.088  1.00  0.00    -0.195 NA
HETATM    5  N2  UNL     1      -3.514   2.115  11.579  1.00  0.00    -0.368 N 
HETATM    6  C6  UNL     1      -2.765   0.974  11.102  1.00  0.00     0.151 C 
HETATM    7  C7  UNL     1      -3.886   2.149  12.927  1.00  0.00     0.040 C 
HETATM    8  C8  UNL     1      -4.084   1.061  13.664  1.00  0.00     0.033 C 
HETATM    9  C9  UNL     1      -4.476   1.255  15.080  1.00  0.00     0.165 C 
HETATM   10  C11 UNL     1      -3.676   2.300  15.764  1.00  0.00     0.040 C 
HETATM   11  C12 UNL     1      -3.187   3.380  14.836  1.00  0.00     0.045 C 
HETATM   12  C13 UNL     1      -4.071   3.438  13.632  1.00  0.00     0.272 C 
HETATM   13  N3  UNL     1      -3.703   4.527  12.758  1.00  0.00     0.104 N 
HETATM   14  C14 UNL     1      -2.297   4.660  12.722  1.00  0.00     0.311 C 
ENDROOT
BRANCH   1  15
HETATM   15  C2  UNL     1      -4.502   5.640  10.713  1.00  0.00     0.150 C 
HETATM   16  C1  UNL     1      -4.667   6.823  11.667  1.00  0.00     0.041 C 
BRANCH  15  17
HETATM   17  O1  UNL     1      -5.440   5.693   9.730  1.00  0.00    -0.394 OA
ATOM     18  H1  UNL     1      -5.251   6.407   9.133  1.00  0.00     0.210 HD
ENDBRANCH  15  17
ENDBRANCH   1  15
BRANCH   9  19
HETATM   19  O2  UNL     1      -5.843   1.501  15.080  1.00  0.00    -0.289 OA
BRANCH  19  20
HETATM   20  S1  UNL     1      -6.543   1.395  16.580  1.00  0.00     0.120 S 
HETATM   21  C10 UNL     1      -5.423   0.531  17.655  1.00  0.00     0.157 C 
HETATM   22  O3  UNL     1      -7.778   0.539  16.462  1.00  0.00    -0.232 OA
HETATM   23  S2  UNL     1      -6.880   2.898  17.281  1.00  0.00     0.036 SA
ENDBRANCH  19  20
ENDBRANCH   9  19
TORSDOF 4
ENDMDL
MODEL 5
REMARK VINA RESULT: -6.309898170      1.638      1.910
REMARK  4 active torsions:
REMARK  status: ('A' for Active; 'I' for Inactive)
REMARK    1  A    between atoms: C2_2  and  O1_3 
REMARK    2  A    between atoms: C2_2  and  C3_5 
REMARK    3  A    between atoms: C9_13  and  O2_14 
REMARK    4  A    between atoms: O2_14  and  S1_15 
ROOT
HETATM    1  C3  UNL     1      -4.577   1.965  13.698  1.00  0.00     0.287 C 
HETATM    2  C4  UNL     1      -5.617   2.448  14.675  1.00  0.00     0.227 C 
HETATM    3  C5  UNL     1      -5.362   1.963  16.032  1.00  0.00     0.087 C 
HETATM    4  N1  UNL     1      -5.177   1.586  17.104  1.00  0.00    -0.195 NA
HETATM    5  N2  UNL     1      -5.740   3.879  14.646  1.00  0.00    -0.368 N 
HETATM    6  C6  UNL     1      -6.465   4.606  15.662  1.00  0.00     0.151 C 
HETATM    7  C7  UNL     1      -5.150   4.603  13.604  1.00  0.00     0.040 C 
HETATM    8  C8  UNL     1      -5.605   5.775  13.171  1.00  0.00     0.033 C 
HETATM    9  C9  UNL     1      -4.874   6.424  12.058  1.00  0.00     0.165 C 
HETATM   10  C11 UNL     1      -3.401   6.385  12.232  1.00  0.00     0.040 C 
HETATM   11  C12 UNL     1      -2.924   5.189  13.011  1.00  0.00     0.045 C 
HETATM   12  C13 UNL     1      -3.940   4.097  12.916  1.00  0.00     0.272 C 
HETATM   13  N3  UNL     1      -3.482   2.891  13.564  1.00  0.00     0.104 N 
HETATM   14  C14 UNL     1      -2.770   3.217  14.740  1.00  0.00     0.311 C 
ENDROOT
BRANCH   1  15
HETATM   15  C2  UNL     1      -4.173   0.548  13.867  1.00  0.00     0.150 C 
HETATM   16  C1  UNL     1      -4.020  -0.109  12.496  1.00  0.00     0.041 C 
BRANCH  15  17
HETATM   17  O1  UNL     1      -4.923  -0.238  14.686  1.00  0.00    -0.394 OA
ATOM     18  H1  UNL     1      -5.831   0.039  14.666  1.00  0.00     0.210 HD
ENDBRANCH  15  17
ENDBRANCH   1  15
BRANCH   9  19
HETATM   19  O2  UNL     1      -5.320   5.822  10.889  1.00  0.00    -0.289 OA
BRANCH  19  20
HETATM   20  S1  UNL     1      -5.930   6.888   9.776  1.00  0.00     0.120 S 
HETATM   21  C10 UNL     1      -6.480   8.340  10.642  1.00  0.00     0.157 C 
HETATM   22  O3  UNL     1      -7.154   6.267   9.153  1.00  0.00    -0.232 OA
HETATM   23  S2  UNL     1      -4.805   7.375   8.610  1.00  0.00     0.036 SA
ENDBRANCH  19  20
ENDBRANCH   9  19
TORSDOF 4
ENDMDL
