MODEL 1
REMARK VINA RESULT: -3.966975758      0.000      0.000
REMARK  1 active torsions:
REMARK  status: ('A' for Active; 'I' for Inactive)
REMARK       I    between atoms: C2_2  and  N1_4 
REMARK    1  A    between atoms: N1_4  and  C3_6 
ROOT
HETATM    1  C3  UNL     1       2.105  15.669  -4.611  1.00  0.00     0.111 C 
HETATM    2  C4  UNL     1       1.993  14.158  -4.420  1.00  0.00     0.194 C 
HETATM    3  O2  UNL     1       2.575  14.029  -3.159  1.00  0.00    -0.379 OA
HETATM    4  C5  UNL     1       2.089  15.036  -2.365  1.00  0.00     0.055 C 
HETATM    5  C6  UNL     1       0.970  14.513  -1.507  1.00  0.00     0.045 C 
HETATM    6  C7  UNL     1       3.227  15.603  -1.549  1.00  0.00     0.045 C 
HETATM    7  C8  UNL     1       1.533  16.115  -3.258  1.00  0.00     0.064 C 
ENDROOT
BRANCH   1   8
HETATM    8  N1  UNL     1       1.278  16.156  -5.660  1.00  0.00    -0.355 N 
HETATM    9  C2  UNL     1       1.855  16.417  -6.927  1.00  0.00     0.213 C 
HETATM   10  C1  UNL     1       1.036  16.926  -8.060  1.00  0.00     0.117 C 
HETATM   11  O1  UNL     1       3.079  16.231  -7.151  1.00  0.00    -0.274 OA
ATOM     12  H1  UNL     1       0.283  16.314  -5.502  1.00  0.00     0.162 HD
ENDBRANCH   1   8
TORSDOF 1
ENDMDL
MODEL 2
REMARK VINA RESULT: -3.960550740      8.116      9.848
REMARK  1 active torsions:
REMARK  status: ('A' for Active; 'I' for Inactive)
REMARK       I    between atoms: C2_2  and  N1_4 
REMARK    1  A    between atoms: N1_4  and  C3_6 
ROOT
HETATM    1  C3  UNL     1      -0.063  10.521   3.042  1.00  0.00     0.111 C 
HETATM    2  C4  UNL     1      -1.542  10.389   2.686  1.00  0.00     0.194 C 
HETATM    3  O2  UNL     1      -1.625   9.008   2.503  1.00  0.00    -0.379 OA
HETATM    4  C5  UNL     1      -0.926   8.405   3.516  1.00  0.00     0.055 C 
HETATM    5  C6  UNL     1      -1.875   7.957   4.594  1.00  0.00     0.045 C 
HETATM    6  C7  UNL     1      -0.125   7.262   2.939  1.00  0.00     0.045 C 
HETATM    7  C8  UNL     1       0.016   9.420   4.110  1.00  0.00     0.064 C 
ENDROOT
BRANCH   1   8
HETATM    8  N1  UNL     1       0.254  11.776   3.630  1.00  0.00    -0.355 N 
HETATM    9  C2  UNL     1       0.660  12.845   2.794  1.00  0.00     0.213 C 
HETATM   10  C1  UNL     1       1.002  14.179   3.356  1.00  0.00     0.117 C 
HETATM   11  O1  UNL     1       0.749  12.715   1.546  1.00  0.00    -0.274 OA
ATOM     12  H1  UNL     1       0.189  11.905   4.640  1.00  0.00     0.162 HD
ENDBRANCH   1   8
TORSDOF 1
ENDMDL
MODEL 3
REMARK VINA RESULT: -3.873269348      3.111      5.891
REMARK  1 active torsions:
REMARK  status: ('A' for Active; 'I' for Inactive)
REMARK       I    between atoms: C2_2  and  N1_4 
REMARK    1  A    between atoms: N1_4  and  C3_6 
ROOT
HETATM    1  C3  UNL     1       2.077  14.437  -0.747  1.00  0.00     0.111 C 
HETATM    2  C4  UNL     1       3.141  15.391  -1.290  1.00  0.00     0.194 C 
HETATM    3  O2  UNL     1       2.933  15.231  -2.660  1.00  0.00    -0.379 OA
HETATM    4  C5  UNL     1       1.581  15.231  -2.885  1.00  0.00     0.055 C 
HETATM    5  C6  UNL     1       1.140  16.595  -3.341  1.00  0.00     0.045 C 
HETATM    6  C7  UNL     1       1.256  14.152  -3.891  1.00  0.00     0.045 C 
HETATM    7  C8  UNL     1       0.885  14.922  -1.585  1.00  0.00     0.064 C 
ENDROOT
BRANCH   1   8
HETATM    8  N1  UNL     1       1.804  14.642   0.632  1.00  0.00    -0.355 N 
HETATM    9  C2  UNL     1       0.998  13.703   1.321  1.00  0.00     0.213 C 
HETATM   10  C1  UNL     1       0.681  13.869   2.766  1.00  0.00     0.117 C 
HETATM   11  O1  UNL     1       0.516  12.693   0.747  1.00  0.00    -0.274 OA
ATOM     12  H1  UNL     1       2.183  15.454   1.119  1.00  0.00     0.162 HD
ENDBRANCH   1   8
TORSDOF 1
ENDMDL
MODEL 4
REMARK VINA RESULT: -3.729333103      8.824     10.937
REMARK  1 active torsions:
REMARK  status: ('A' for Active; 'I' for Inactive)
REMARK       I    between atoms: C2_2  and  N1_4 
REMARK    1  A    between atoms: N1_4  and  C3_6 
ROOT
HETATM    1  C3  UNL     1      -0.608   9.347   3.877  1.00  0.00     0.111 C 
HETATM    2  C4  UNL     1      -0.786   8.527   5.155  1.00  0.00     0.194 C 
HETATM    3  O2  UNL     1      -1.046   7.272   4.603  1.00  0.00    -0.379 OA
HETATM    4  C5  UNL     1      -0.167   7.076   3.569  1.00  0.00     0.055 C 
HETATM    5  C6  UNL     1       0.989   6.234   4.035  1.00  0.00     0.045 C 
HETATM    6  C7  UNL     1      -0.911   6.448   2.414  1.00  0.00     0.045 C 
HETATM    7  C8  UNL     1       0.369   8.418   3.143  1.00  0.00     0.064 C 
ENDROOT
BRANCH   1   8
HETATM    8  N1  UNL     1       0.014  10.603   4.110  1.00  0.00    -0.355 N 
HETATM    9  C2  UNL     1      -0.126  11.631   3.146  1.00  0.00     0.213 C 
HETATM   10  C1  UNL     1       0.504  12.965   3.339  1.00  0.00     0.117 C 
HETATM   11  O1  UNL     1      -0.787  11.463   2.088  1.00  0.00    -0.274 OA
ATOM     12  H1  UNL     1       0.555  10.763   4.960  1.00  0.00     0.162 HD
ENDBRANCH   1   8
TORSDOF 1
ENDMDL
MODEL 5
REMARK VINA RESULT: -3.618406373      7.614      9.751
REMARK  1 active torsions:
REMARK  status: ('A' for Active; 'I' for Inactive)
REMARK       I    between atoms: C2_2  and  N1_4 
REMARK    1  A    between atoms: N1_4  and  C3_6 
ROOT
HETATM    1  C3  UNL     1      -0.881  10.528   2.692  1.00  0.00     0.111 C 
HETATM    2  C4  UNL     1       0.012   9.404   3.214  1.00  0.00     0.194 C 
HETATM    3  O2  UNL     1      -0.959   8.471   3.578  1.00  0.00    -0.379 OA
HETATM    4  C5  UNL     1      -1.900   8.431   2.582  1.00  0.00     0.055 C 
HETATM    5  C6  UNL     1      -1.630   7.262   1.674  1.00  0.00     0.045 C 
HETATM    6  C7  UNL     1      -3.271   8.370   3.211  1.00  0.00     0.045 C 
HETATM    7  C8  UNL     1      -1.782   9.694   1.769  1.00  0.00     0.064 C 
ENDROOT
BRANCH   1   8
HETATM    8  N1  UNL     1      -0.169  11.487   1.921  1.00  0.00    -0.355 N 
HETATM    9  C2  UNL     1       0.353  12.636   2.563  1.00  0.00     0.213 C 
HETATM   10  C1  UNL     1       1.107  13.670   1.804  1.00  0.00     0.117 C 
HETATM   11  O1  UNL     1       0.205  12.833   3.797  1.00  0.00    -0.274 OA
ATOM     12  H1  UNL     1      -0.036  11.348   0.919  1.00  0.00     0.162 HD
ENDBRANCH   1   8
TORSDOF 1
ENDMDL
