MODEL 1
REMARK VINA RESULT: -8.416198966      0.000      0.000
REMARK  10 active torsions:
REMARK  status: ('A' for Active; 'I' for Inactive)
REMARK    1  A    between atoms: O1_2  and  C2_3 
REMARK    2  A    between atoms: C2_3  and  C3_4 
REMARK    3  A    between atoms: C3_4  and  O2_5 
REMARK    4  A    between atoms: C3_4  and  C27_38 
REMARK    5  A    between atoms: O2_5  and  C4_6 
REMARK    6  A    between atoms: C6_8  and  C7_9 
REMARK    7  A    between atoms: C7_9  and  C10_12 
REMARK    8  A    between atoms: C12_17  and  N1_18 
REMARK    9  A    between atoms: N1_18  and  C13_20 
REMARK   10  A    between atoms: C16_23  and  N2_24 
ROOT
HETATM    1  C4  UNL     1     -28.921   3.722 -13.911  1.00  0.00     0.072 A 
HETATM    2  C5  UNL     1     -27.764   4.466 -13.917  1.00  0.00     0.046 A 
HETATM    3  C6  UNL     1     -27.515   5.644 -14.664  1.00  0.00    -0.024 A 
HETATM    4  C11 UNL     1     -28.600   6.042 -15.468  1.00  0.00     0.026 A 
HETATM    5  C12 UNL     1     -28.530   7.183 -16.304  1.00  0.00     0.068 A 
HETATM    6  C22 UNL     1     -29.630   7.544 -17.097  1.00  0.00     0.087 A 
HETATM    7  C23 UNL     1     -29.687   8.686 -17.955  1.00  0.00     0.103 C 
HETATM    8  N3  UNL     1     -29.781   9.584 -18.648  1.00  0.00    -0.191 NA
HETATM    9  C24 UNL     1     -30.749   6.746 -17.023  1.00  0.00     0.113 A 
HETATM   10  N4  UNL     1     -30.810   5.673 -16.242  1.00  0.00    -0.364 N 
ATOM     11  H4  UNL     1     -31.668   5.120 -16.231  1.00  0.00     0.165 HD
HETATM   12  C25 UNL     1     -29.781   5.290 -15.465  1.00  0.00     0.047 A 
HETATM   13  C26 UNL     1     -29.938   4.146 -14.695  1.00  0.00     0.067 A 
ENDROOT
BRANCH   5  14
HETATM   14  N1  UNL     1     -27.513   7.804 -16.389  1.00  0.00    -0.354 N 
ATOM     15  H1  UNL     1     -26.751   7.213 -16.720  1.00  0.00     0.166 HD
BRANCH  14  16
HETATM   16  C13 UNL     1     -27.073   9.096 -16.167  1.00  0.00     0.038 A 
HETATM   17  C14 UNL     1     -27.657   9.918 -15.185  1.00  0.00     0.032 A 
HETATM   18  C15 UNL     1     -27.207  11.168 -14.883  1.00  0.00     0.031 A 
HETATM   19  C16 UNL     1     -26.129  11.700 -15.543  1.00  0.00     0.030 A 
HETATM   20  C19 UNL     1     -25.553  10.900 -16.506  1.00  0.00     0.038 A 
HETATM   21  C20 UNL     1     -25.984   9.652 -16.824  1.00  0.00    -0.033 A 
HETATM   22  C21 UNL     1     -25.258   8.925 -17.888  1.00  0.00     0.050 C 
BRANCH  19  23
HETATM   23  N2  UNL     1     -25.629  13.012 -15.253  1.00  0.00    -0.390 N 
HETATM   24  C17 UNL     1     -25.032  13.858 -16.258  1.00  0.00     0.149 C 
HETATM   25  C18 UNL     1     -25.740  13.487 -13.887  1.00  0.00     0.149 C 
ENDBRANCH  19  23
ENDBRANCH  14  16
ENDBRANCH   5  14
BRANCH   3  26
HETATM   26  C7  UNL     1     -26.322   6.444 -14.568  1.00  0.00     0.078 C 
HETATM   27  C8  UNL     1     -25.470   5.340 -13.743  1.00  0.00     0.029 C 
HETATM   28  C9  UNL     1     -25.255   6.435 -15.650  1.00  0.00     0.029 C 
BRANCH  26  29
HETATM   29  C10 UNL     1     -26.104   7.442 -13.458  1.00  0.00     0.398 C 
HETATM   30  F1  UNL     1     -25.420   6.931 -12.300  1.00  0.00    -0.170 F 
HETATM   31  F2  UNL     1     -25.202   8.420 -13.778  1.00  0.00    -0.170 F 
HETATM   32  F3  UNL     1     -27.180   7.846 -12.703  1.00  0.00    -0.170 F 
ENDBRANCH  26  29
ENDBRANCH   3  26
BRANCH   1  33
HETATM   33  O2  UNL     1     -28.978   2.608 -13.121  1.00  0.00    -0.343 OA
BRANCH  33  34
HETATM   34  C3  UNL     1     -27.918   1.782 -12.755  1.00  0.00     0.157 C 
BRANCH  34  35
HETATM   35  C2  UNL     1     -28.110   0.437 -13.435  1.00  0.00     0.199 C 
BRANCH  35  36
HETATM   36  O1  UNL     1     -27.113   0.198 -14.377  1.00  0.00    -0.393 OA
HETATM   37  C1  UNL     1     -26.363  -0.888 -13.902  1.00  0.00     0.201 C 
ENDBRANCH  35  36
ENDBRANCH  34  35
BRANCH  34  38
HETATM   38  C27 UNL     1     -27.866   1.525 -11.263  1.00  0.00     0.021 C 
HETATM   39  C28 UNL     1     -26.498   1.161 -10.790  1.00  0.00     0.033 C 
HETATM   40  C29 UNL     1     -26.624   0.315  -9.536  1.00  0.00     0.168 C 
HETATM   41  O3  UNL     1     -27.719   0.724  -8.773  1.00  0.00    -0.391 OA
HETATM   42  C30 UNL     1     -28.897   0.285  -9.390  1.00  0.00     0.168 C 
HETATM   43  C31 UNL     1     -28.798   0.378 -10.888  1.00  0.00     0.033 C 
ENDBRANCH  34  38
ENDBRANCH  33  34
ENDBRANCH   1  33
TORSDOF 10
ENDMDL
MODEL 2
REMARK VINA RESULT: -7.907349703      0.871      2.165
REMARK  10 active torsions:
REMARK  status: ('A' for Active; 'I' for Inactive)
REMARK    1  A    between atoms: O1_2  and  C2_3 
REMARK    2  A    between atoms: C2_3  and  C3_4 
REMARK    3  A    between atoms: C3_4  and  O2_5 
REMARK    4  A    between atoms: C3_4  and  C27_38 
REMARK    5  A    between atoms: O2_5  and  C4_6 
REMARK    6  A    between atoms: C6_8  and  C7_9 
REMARK    7  A    between atoms: C7_9  and  C10_12 
REMARK    8  A    between atoms: C12_17  and  N1_18 
REMARK    9  A    between atoms: N1_18  and  C13_20 
REMARK   10  A    between atoms: C16_23  and  N2_24 
ROOT
HETATM    1  C4  UNL     1     -29.214   3.753 -13.985  1.00  0.00     0.072 A 
HETATM    2  C5  UNL     1     -28.027   4.447 -13.920  1.00  0.00     0.046 A 
HETATM    3  C6  UNL     1     -27.691   5.624 -14.633  1.00  0.00    -0.024 A 
HETATM    4  C11 UNL     1     -28.716   6.081 -15.483  1.00  0.00     0.026 A 
HETATM    5  C12 UNL     1     -28.556   7.230 -16.295  1.00  0.00     0.068 A 
HETATM    6  C22 UNL     1     -29.599   7.650 -17.135  1.00  0.00     0.087 A 
HETATM    7  C23 UNL     1     -29.564   8.807 -17.974  1.00  0.00     0.103 C 
HETATM    8  N3  UNL     1     -29.585   9.719 -18.655  1.00  0.00    -0.191 NA
HETATM    9  C24 UNL     1     -30.753   6.901 -17.129  1.00  0.00     0.113 A 
HETATM   10  N4  UNL     1     -30.899   5.819 -16.371  1.00  0.00    -0.364 N 
ATOM     11  H4  UNL     1     -31.779   5.304 -16.413  1.00  0.00     0.165 HD
HETATM   12  C25 UNL     1     -29.928   5.380 -15.552  1.00  0.00     0.047 A 
HETATM   13  C26 UNL     1     -30.171   4.233 -14.811  1.00  0.00     0.067 A 
ENDROOT
BRANCH   5  14
HETATM   14  N1  UNL     1     -27.510   7.808 -16.318  1.00  0.00    -0.354 N 
ATOM     15  H1  UNL     1     -26.751   7.176 -16.569  1.00  0.00     0.166 HD
BRANCH  14  16
HETATM   16  C13 UNL     1     -27.036   9.089 -16.103  1.00  0.00     0.038 A 
HETATM   17  C14 UNL     1     -27.629   9.949 -15.160  1.00  0.00     0.032 A 
HETATM   18  C15 UNL     1     -27.149  11.189 -14.864  1.00  0.00     0.031 A 
HETATM   19  C16 UNL     1     -26.029  11.672 -15.491  1.00  0.00     0.030 A 
HETATM   20  C19 UNL     1     -25.444  10.834 -16.416  1.00  0.00     0.038 A 
HETATM   21  C20 UNL     1     -25.904   9.595 -16.727  1.00  0.00    -0.033 A 
HETATM   22  C21 UNL     1     -25.164   8.824 -17.749  1.00  0.00     0.050 C 
BRANCH  19  23
HETATM   23  N2  UNL     1     -25.496  12.972 -15.206  1.00  0.00    -0.390 N 
HETATM   24  C17 UNL     1     -24.885  13.802 -16.216  1.00  0.00     0.149 C 
HETATM   25  C18 UNL     1     -25.588  13.452 -13.840  1.00  0.00     0.149 C 
ENDBRANCH  19  23
ENDBRANCH  14  16
ENDBRANCH   5  14
BRANCH   3  26
HETATM   26  C7  UNL     1     -26.471   6.370 -14.464  1.00  0.00     0.078 C 
HETATM   27  C8  UNL     1     -25.728   5.239 -13.574  1.00  0.00     0.029 C 
HETATM   28  C9  UNL     1     -25.336   6.299 -15.472  1.00  0.00     0.029 C 
BRANCH  26  29
HETATM   29  C10 UNL     1     -26.282   7.370 -13.352  1.00  0.00     0.398 C 
HETATM   30  F1  UNL     1     -25.735   6.835 -12.133  1.00  0.00    -0.170 F 
HETATM   31  F2  UNL     1     -25.292   8.281 -13.604  1.00  0.00    -0.170 F 
HETATM   32  F3  UNL     1     -27.389   7.858 -12.697  1.00  0.00    -0.170 F 
ENDBRANCH  26  29
ENDBRANCH   3  26
BRANCH   1  33
HETATM   33  O2  UNL     1     -29.358   2.631 -13.218  1.00  0.00    -0.343 OA
BRANCH  33  34
HETATM   34  C3  UNL     1     -28.364   1.972 -12.498  1.00  0.00     0.157 C 
BRANCH  34  35
HETATM   35  C2  UNL     1     -27.866   2.911 -11.411  1.00  0.00     0.199 C 
BRANCH  35  36
HETATM   36  O1  UNL     1     -28.600   2.763 -10.237  1.00  0.00    -0.393 OA
HETATM   37  C1  UNL     1     -28.441   1.429  -9.831  1.00  0.00     0.201 C 
ENDBRANCH  35  36
ENDBRANCH  34  35
BRANCH  34  38
HETATM   38  C27 UNL     1     -27.169   1.604 -13.352  1.00  0.00     0.021 C 
HETATM   39  C28 UNL     1     -27.330   0.284 -14.029  1.00  0.00     0.033 C 
HETATM   40  C29 UNL     1     -25.955  -0.303 -14.288  1.00  0.00     0.168 C 
HETATM   41  O3  UNL     1     -25.035   0.705 -14.577  1.00  0.00    -0.391 OA
HETATM   42  C30 UNL     1     -24.707   1.379 -13.393  1.00  0.00     0.168 C 
HETATM   43  C31 UNL     1     -25.908   1.527 -12.499  1.00  0.00     0.033 C 
ENDBRANCH  34  38
ENDBRANCH  33  34
ENDBRANCH   1  33
TORSDOF 10
ENDMDL
MODEL 3
REMARK VINA RESULT: -7.726386321      0.436      1.121
REMARK  10 active torsions:
REMARK  status: ('A' for Active; 'I' for Inactive)
REMARK    1  A    between atoms: O1_2  and  C2_3 
REMARK    2  A    between atoms: C2_3  and  C3_4 
REMARK    3  A    between atoms: C3_4  and  O2_5 
REMARK    4  A    between atoms: C3_4  and  C27_38 
REMARK    5  A    between atoms: O2_5  and  C4_6 
REMARK    6  A    between atoms: C6_8  and  C7_9 
REMARK    7  A    between atoms: C7_9  and  C10_12 
REMARK    8  A    between atoms: C12_17  and  N1_18 
REMARK    9  A    between atoms: N1_18  and  C13_20 
REMARK   10  A    between atoms: C16_23  and  N2_24 
ROOT
HETATM    1  C4  UNL     1     -28.956   3.912 -14.127  1.00  0.00     0.072 A 
HETATM    2  C5  UNL     1     -27.780   4.625 -14.124  1.00  0.00     0.046 A 
HETATM    3  C6  UNL     1     -27.501   5.808 -14.853  1.00  0.00    -0.024 A 
HETATM    4  C11 UNL     1     -28.576   6.247 -15.649  1.00  0.00     0.026 A 
HETATM    5  C12 UNL     1     -28.477   7.397 -16.468  1.00  0.00     0.068 A 
HETATM    6  C22 UNL     1     -29.568   7.799 -17.253  1.00  0.00     0.087 A 
HETATM    7  C23 UNL     1     -29.596   8.956 -18.093  1.00  0.00     0.103 C 
HETATM    8  N3  UNL     1     -29.667   9.867 -18.772  1.00  0.00    -0.191 NA
HETATM    9  C24 UNL     1     -30.708   7.031 -17.189  1.00  0.00     0.113 A 
HETATM   10  N4  UNL     1     -30.796   5.947 -16.425  1.00  0.00    -0.364 N 
ATOM     11  H4  UNL     1     -31.668   5.417 -16.421  1.00  0.00     0.165 HD
HETATM   12  C25 UNL     1     -29.777   5.526 -15.656  1.00  0.00     0.047 A 
HETATM   13  C26 UNL     1     -29.963   4.375 -14.903  1.00  0.00     0.067 A 
ENDROOT
BRANCH   5  14
HETATM   14  N1  UNL     1     -27.444   7.993 -16.545  1.00  0.00    -0.354 N 
ATOM     15  H1  UNL     1     -26.704   7.393 -16.907  1.00  0.00     0.166 HD
BRANCH  14  16
HETATM   16  C13 UNL     1     -26.965   9.264 -16.283  1.00  0.00     0.038 A 
HETATM   17  C14 UNL     1     -25.898   9.818 -17.012  1.00  0.00     0.032 A 
HETATM   18  C15 UNL     1     -25.445  11.091 -16.837  1.00  0.00     0.031 A 
HETATM   19  C16 UNL     1     -26.029  11.918 -15.912  1.00  0.00     0.030 A 
HETATM   20  C19 UNL     1     -27.075  11.381 -15.194  1.00  0.00     0.038 A 
HETATM   21  C20 UNL     1     -27.544  10.116 -15.351  1.00  0.00    -0.033 A 
HETATM   22  C21 UNL     1     -28.672   9.690 -14.496  1.00  0.00     0.050 C 
BRANCH  19  23
HETATM   23  N2  UNL     1     -25.578  13.262 -15.699  1.00  0.00    -0.390 N 
HETATM   24  C17 UNL     1     -24.679  13.935 -16.606  1.00  0.00     0.149 C 
HETATM   25  C18 UNL     1     -26.060  13.955 -14.519  1.00  0.00     0.149 C 
ENDBRANCH  19  23
ENDBRANCH  14  16
ENDBRANCH   5  14
BRANCH   3  26
HETATM   26  C7  UNL     1     -26.287   6.575 -14.746  1.00  0.00     0.078 C 
HETATM   27  C8  UNL     1     -25.426   5.392 -14.050  1.00  0.00     0.029 C 
HETATM   28  C9  UNL     1     -25.268   6.632 -15.872  1.00  0.00     0.029 C 
BRANCH  26  29
HETATM   29  C10 UNL     1     -26.000   7.475 -13.572  1.00  0.00     0.398 C 
HETATM   30  F1  UNL     1     -25.131   6.918 -12.569  1.00  0.00    -0.170 F 
HETATM   31  F2  UNL     1     -25.224   8.556 -13.894  1.00  0.00    -0.170 F 
HETATM   32  F3  UNL     1     -26.993   7.708 -12.650  1.00  0.00    -0.170 F 
ENDBRANCH  26  29
ENDBRANCH   3  26
BRANCH   1  33
HETATM   33  O2  UNL     1     -29.042   2.788 -13.354  1.00  0.00    -0.343 OA
BRANCH  33  34
HETATM   34  C3  UNL     1     -27.997   1.951 -12.970  1.00  0.00     0.157 C 
BRANCH  34  35
HETATM   35  C2  UNL     1     -28.173   0.619 -13.681  1.00  0.00     0.199 C 
BRANCH  35  36
HETATM   36  O1  UNL     1     -26.975   0.181 -14.241  1.00  0.00    -0.393 OA
HETATM   37  C1  UNL     1     -27.196  -1.132 -14.682  1.00  0.00     0.201 C 
ENDBRANCH  35  36
ENDBRANCH  34  35
BRANCH  34  38
HETATM   38  C27 UNL     1     -27.993   1.666 -11.482  1.00  0.00     0.021 C 
HETATM   39  C28 UNL     1     -26.622   1.422 -10.947  1.00  0.00     0.033 C 
HETATM   40  C29 UNL     1     -26.727   0.540  -9.717  1.00  0.00     0.168 C 
HETATM   41  O3  UNL     1     -27.892   0.826  -9.003  1.00  0.00    -0.391 OA
HETATM   42  C30 UNL     1     -28.991   0.291  -9.686  1.00  0.00     0.168 C 
HETATM   43  C31 UNL     1     -28.828   0.427 -11.175  1.00  0.00     0.033 C 
ENDBRANCH  34  38
ENDBRANCH  33  34
ENDBRANCH   1  33
TORSDOF 10
ENDMDL
MODEL 4
REMARK VINA RESULT: -6.988372736      0.959      2.462
REMARK  10 active torsions:
REMARK  status: ('A' for Active; 'I' for Inactive)
REMARK    1  A    between atoms: O1_2  and  C2_3 
REMARK    2  A    between atoms: C2_3  and  C3_4 
REMARK    3  A    between atoms: C3_4  and  O2_5 
REMARK    4  A    between atoms: C3_4  and  C27_38 
REMARK    5  A    between atoms: O2_5  and  C4_6 
REMARK    6  A    between atoms: C6_8  and  C7_9 
REMARK    7  A    between atoms: C7_9  and  C10_12 
REMARK    8  A    between atoms: C12_17  and  N1_18 
REMARK    9  A    between atoms: N1_18  and  C13_20 
REMARK   10  A    between atoms: C16_23  and  N2_24 
ROOT
HETATM    1  C4  UNL     1     -29.208   3.891 -14.100  1.00  0.00     0.072 A 
HETATM    2  C5  UNL     1     -28.006   4.557 -14.041  1.00  0.00     0.046 A 
HETATM    3  C6  UNL     1     -27.650   5.734 -14.745  1.00  0.00    -0.024 A 
HETATM    4  C11 UNL     1     -28.674   6.223 -15.580  1.00  0.00     0.026 A 
HETATM    5  C12 UNL     1     -28.496   7.376 -16.381  1.00  0.00     0.068 A 
HETATM    6  C22 UNL     1     -29.537   7.829 -17.206  1.00  0.00     0.087 A 
HETATM    7  C23 UNL     1     -29.485   8.993 -18.033  1.00  0.00     0.103 C 
HETATM    8  N3  UNL     1     -29.493   9.912 -18.705  1.00  0.00    -0.191 NA
HETATM    9  C24 UNL     1     -30.708   7.105 -17.196  1.00  0.00     0.113 A 
HETATM   10  N4  UNL     1     -30.871   6.019 -16.448  1.00  0.00    -0.364 N 
ATOM     11  H4  UNL     1     -31.762   5.524 -16.485  1.00  0.00     0.165 HD
HETATM   12  C25 UNL     1     -29.901   5.550 -15.643  1.00  0.00     0.047 A 
HETATM   13  C26 UNL     1     -30.163   4.401 -14.911  1.00  0.00     0.067 A 
ENDROOT
BRANCH   5  14
HETATM   14  N1  UNL     1     -27.438   7.931 -16.409  1.00  0.00    -0.354 N 
ATOM     15  H1  UNL     1     -26.698   7.290 -16.693  1.00  0.00     0.166 HD
BRANCH  14  16
HETATM   16  C13 UNL     1     -26.930   9.194 -16.167  1.00  0.00     0.038 A 
HETATM   17  C14 UNL     1     -25.822   9.696 -16.875  1.00  0.00     0.032 A 
HETATM   18  C15 UNL     1     -25.337  10.958 -16.721  1.00  0.00     0.031 A 
HETATM   19  C16 UNL     1     -25.926  11.830 -15.840  1.00  0.00     0.030 A 
HETATM   20  C19 UNL     1     -27.012  11.345 -15.144  1.00  0.00     0.038 A 
HETATM   21  C20 UNL     1     -27.513  10.090 -15.281  1.00  0.00    -0.033 A 
HETATM   22  C21 UNL     1     -28.682   9.723 -14.453  1.00  0.00     0.050 C 
BRANCH  19  23
HETATM   23  N2  UNL     1     -25.443  13.166 -15.651  1.00  0.00    -0.390 N 
HETATM   24  C17 UNL     1     -25.965  14.047 -14.635  1.00  0.00     0.149 C 
HETATM   25  C18 UNL     1     -24.384  13.629 -16.528  1.00  0.00     0.149 C 
ENDBRANCH  19  23
ENDBRANCH  14  16
ENDBRANCH   5  14
BRANCH   3  26
HETATM   26  C7  UNL     1     -26.413   6.451 -14.581  1.00  0.00     0.078 C 
HETATM   27  C8  UNL     1     -25.639   5.241 -13.831  1.00  0.00     0.029 C 
HETATM   28  C9  UNL     1     -25.334   6.454 -15.652  1.00  0.00     0.029 C 
BRANCH  26  29
HETATM   29  C10 UNL     1     -26.149   7.351 -13.401  1.00  0.00     0.398 C 
HETATM   30  F1  UNL     1     -25.354   6.770 -12.352  1.00  0.00    -0.170 F 
HETATM   31  F2  UNL     1     -25.318   8.398 -13.692  1.00  0.00    -0.170 F 
HETATM   32  F3  UNL     1     -27.178   7.630 -12.531  1.00  0.00    -0.170 F 
ENDBRANCH  26  29
ENDBRANCH   3  26
BRANCH   1  33
HETATM   33  O2  UNL     1     -29.370   2.764 -13.344  1.00  0.00    -0.343 OA
BRANCH  33  34
HETATM   34  C3  UNL     1     -28.404   2.128 -12.566  1.00  0.00     0.157 C 
BRANCH  34  35
HETATM   35  C2  UNL     1     -27.922   3.113 -11.514  1.00  0.00     0.199 C 
BRANCH  35  36
HETATM   36  O1  UNL     1     -28.556   2.900 -10.292  1.00  0.00    -0.393 OA
HETATM   37  C1  UNL     1     -28.582   1.512 -10.090  1.00  0.00     0.201 C 
ENDBRANCH  35  36
ENDBRANCH  34  35
BRANCH  34  38
HETATM   38  C27 UNL     1     -27.192   1.705 -13.370  1.00  0.00     0.021 C 
HETATM   39  C28 UNL     1     -27.320   0.322 -13.917  1.00  0.00     0.033 C 
HETATM   40  C29 UNL     1     -25.931  -0.259 -14.106  1.00  0.00     0.168 C 
HETATM   41  O3  UNL     1     -25.027   0.736 -14.482  1.00  0.00    -0.391 OA
HETATM   42  C30 UNL     1     -24.727   1.527 -13.366  1.00  0.00     0.168 C 
HETATM   43  C31 UNL     1     -25.940   1.737 -12.502  1.00  0.00     0.033 C 
ENDBRANCH  34  38
ENDBRANCH  33  34
ENDBRANCH   1  33
TORSDOF 10
ENDMDL
MODEL 5
REMARK VINA RESULT: -6.680738270      1.140      2.484
REMARK  10 active torsions:
REMARK  status: ('A' for Active; 'I' for Inactive)
REMARK    1  A    between atoms: O1_2  and  C2_3 
REMARK    2  A    between atoms: C2_3  and  C3_4 
REMARK    3  A    between atoms: C3_4  and  O2_5 
REMARK    4  A    between atoms: C3_4  and  C27_38 
REMARK    5  A    between atoms: O2_5  and  C4_6 
REMARK    6  A    between atoms: C6_8  and  C7_9 
REMARK    7  A    between atoms: C7_9  and  C10_12 
REMARK    8  A    between atoms: C12_17  and  N1_18 
REMARK    9  A    between atoms: N1_18  and  C13_20 
REMARK   10  A    between atoms: C16_23  and  N2_24 
ROOT
HETATM    1  C4  UNL     1     -28.115   3.034 -12.842  1.00  0.00     0.072 A 
HETATM    2  C5  UNL     1     -27.091   3.904 -13.137  1.00  0.00     0.046 A 
HETATM    3  C6  UNL     1     -27.145   5.013 -14.018  1.00  0.00    -0.024 A 
HETATM    4  C11 UNL     1     -28.402   5.189 -14.628  1.00  0.00     0.026 A 
HETATM    5  C12 UNL     1     -28.642   6.229 -15.557  1.00  0.00     0.068 A 
HETATM    6  C22 UNL     1     -29.906   6.368 -16.149  1.00  0.00     0.087 A 
HETATM    7  C23 UNL     1     -30.274   7.393 -17.076  1.00  0.00     0.103 C 
HETATM    8  N3  UNL     1     -30.614   8.191 -17.812  1.00  0.00    -0.191 NA
HETATM    9  C24 UNL     1     -30.873   5.457 -15.790  1.00  0.00     0.113 A 
HETATM   10  N4  UNL     1     -30.645   4.477 -14.922  1.00  0.00    -0.364 N 
ATOM     11  H4  UNL     1     -31.402   3.831 -14.697  1.00  0.00     0.165 HD
HETATM   12  C25 UNL     1     -29.449   4.307 -14.330  1.00  0.00     0.047 A 
HETATM   13  C26 UNL     1     -29.306   3.245 -13.448  1.00  0.00     0.067 A 
ENDROOT
BRANCH   5  14
HETATM   14  N1  UNL     1     -27.752   6.953 -15.891  1.00  0.00    -0.354 N 
ATOM     15  H1  UNL     1     -26.928   6.417 -16.160  1.00  0.00     0.166 HD
BRANCH  14  16
HETATM   16  C13 UNL     1     -27.520   8.310 -16.017  1.00  0.00     0.038 A 
HETATM   17  C14 UNL     1     -28.047   9.240 -15.102  1.00  0.00     0.032 A 
HETATM   18  C15 UNL     1     -27.783  10.575 -15.146  1.00  0.00     0.031 A 
HETATM   19  C16 UNL     1     -26.963  11.093 -16.117  1.00  0.00     0.030 A 
HETATM   20  C19 UNL     1     -26.444  10.188 -17.017  1.00  0.00     0.038 A 
HETATM   21  C20 UNL     1     -26.693   8.852 -16.992  1.00  0.00    -0.033 A 
HETATM   22  C21 UNL     1     -26.062   8.017 -18.036  1.00  0.00     0.050 C 
BRANCH  19  23
HETATM   23  N2  UNL     1     -26.663  12.492 -16.195  1.00  0.00    -0.390 N 
HETATM   24  C17 UNL     1     -25.626  13.112 -15.406  1.00  0.00     0.149 C 
HETATM   25  C18 UNL     1     -27.447  13.298 -17.112  1.00  0.00     0.149 C 
ENDBRANCH  19  23
ENDBRANCH  14  16
ENDBRANCH   5  14
BRANCH   3  26
HETATM   26  C7  UNL     1     -26.076   5.954 -14.225  1.00  0.00     0.078 C 
HETATM   27  C8  UNL     1     -24.946   5.060 -13.483  1.00  0.00     0.029 C 
HETATM   28  C9  UNL     1     -25.229   5.948 -15.487  1.00  0.00     0.029 C 
BRANCH  26  29
HETATM   29  C10 UNL     1     -25.802   7.090 -13.272  1.00  0.00     0.398 C 
HETATM   30  F1  UNL     1     -26.970   7.718 -12.714  1.00  0.00    -0.170 F 
HETATM   31  F2  UNL     1     -25.240   6.684 -12.092  1.00  0.00    -0.170 F 
HETATM   32  F3  UNL     1     -25.340   8.285 -13.773  1.00  0.00    -0.170 F 
ENDBRANCH  26  29
ENDBRANCH   3  26
BRANCH   1  33
HETATM   33  O2  UNL     1     -27.875   2.016 -11.963  1.00  0.00    -0.343 OA
BRANCH  33  34
HETATM   34  C3  UNL     1     -28.441   0.743 -11.976  1.00  0.00     0.157 C 
BRANCH  34  35
HETATM   35  C2  UNL     1     -28.425   0.205 -10.554  1.00  0.00     0.199 C 
BRANCH  35  36
HETATM   36  O1  UNL     1     -27.617   0.981  -9.727  1.00  0.00    -0.393 OA
HETATM   37  C1  UNL     1     -26.618   0.131  -9.231  1.00  0.00     0.201 C 
ENDBRANCH  35  36
ENDBRANCH  34  35
BRANCH  34  38
HETATM   38  C27 UNL     1     -27.663  -0.234 -12.832  1.00  0.00     0.021 C 
HETATM   39  C28 UNL     1     -26.275   0.233 -13.122  1.00  0.00     0.033 C 
HETATM   40  C29 UNL     1     -25.815  -0.384 -14.429  1.00  0.00     0.168 C 
HETATM   41  O3  UNL     1     -26.340  -1.668 -14.580  1.00  0.00    -0.391 OA
HETATM   42  C30 UNL     1     -27.697  -1.572 -14.910  1.00  0.00     0.168 C 
HETATM   43  C31 UNL     1     -28.362  -0.443 -14.171  1.00  0.00     0.033 C 
ENDBRANCH  34  38
ENDBRANCH  33  34
ENDBRANCH   1  33
TORSDOF 10
ENDMDL
