MODEL 1
REMARK VINA RESULT: -8.731523153      0.000      0.000
REMARK  9 active torsions:
REMARK  status: ('A' for Active; 'I' for Inactive)
REMARK    1  A    between atoms: O1_2  and  C2_3 
REMARK    2  A    between atoms: C2_3  and  C3_5 
REMARK    3  A    between atoms: C13_17  and  C14_18 
REMARK    4  A    between atoms: C14_18  and  C15_19 
REMARK    5  A    between atoms: C15_19  and  O5_20 
REMARK    6  A    between atoms: C15_19  and  C16_22 
REMARK    7  A    between atoms: C16_22  and  C18_25 
REMARK    8  A    between atoms: C18_25  and  S1_26 
REMARK    9  A    between atoms: S1_26  and  C19_27 
ROOT
HETATM    1  C3  UNL     1     -28.899   6.289 -15.693  1.00  0.00     0.048 C 
HETATM    2  C4  UNL     1     -29.847   5.195 -15.137  1.00  0.00     0.026 C 
HETATM    3  C5  UNL     1     -29.404   7.646 -15.249  1.00  0.00     0.025 C 
HETATM    4  C6  UNL     1     -29.540   8.694 -16.265  1.00  0.00     0.003 A 
HETATM    5  C7  UNL     1     -29.221  10.137 -15.970  1.00  0.00     0.011 A 
HETATM    6  C8  UNL     1     -28.350  10.593 -14.868  1.00  0.00     0.117 C 
HETATM    7  C9  UNL     1     -26.989  11.031 -15.356  1.00  0.00     0.259 C 
HETATM    8  O3  UNL     1     -26.287  11.867 -14.748  1.00  0.00    -0.265 OA
HETATM    9  O4  UNL     1     -26.547  10.460 -16.521  1.00  0.00    -0.315 OA
HETATM   10  C10 UNL     1     -27.084   9.149 -16.808  1.00  0.00     0.141 C 
HETATM   11  C11 UNL     1     -26.441   8.243 -15.816  1.00  0.00     0.034 C 
HETATM   12  C12 UNL     1     -26.483   6.785 -16.139  1.00  0.00     0.008 C 
HETATM   13  C13 UNL     1     -27.523   5.998 -15.291  1.00  0.00     0.006 C 
HETATM   14  C25 UNL     1     -28.495   9.267 -16.998  1.00  0.00    -0.009 A 
HETATM   15  C26 UNL     1     -28.836   9.768 -18.434  1.00  0.00     0.018 C 
ENDROOT
BRANCH  13  16
HETATM   16  C14 UNL     1     -27.023   6.031 -13.922  1.00  0.00     0.041 C 
BRANCH  16  17
HETATM   17  C15 UNL     1     -26.173   5.039 -13.283  1.00  0.00     0.158 C 
BRANCH  17  18
HETATM   18  O5  UNL     1     -24.961   4.719 -13.846  1.00  0.00    -0.392 OA
ATOM     19  H5  UNL     1     -24.379   4.118 -13.397  1.00  0.00     0.210 HD
ENDBRANCH  17  18
BRANCH  17  20
HETATM   20  C16 UNL     1     -26.861   3.702 -13.035  1.00  0.00     0.134 C 
HETATM   21  C17 UNL     1     -27.892   3.737 -11.974  1.00  0.00     0.055 C 
HETATM   22  F1  UNL     1     -27.416   3.245 -14.214  1.00  0.00    -0.240 F 
BRANCH  20  23
HETATM   23  C18 UNL     1     -25.774   2.733 -12.634  1.00  0.00     0.125 C 
BRANCH  23  24
HETATM   24  S1  UNL     1     -26.339   1.112 -12.175  1.00  0.00    -0.127 SA
BRANCH  24  25
HETATM   25  C19 UNL     1     -26.548   0.056 -13.596  1.00  0.00     0.000 A 
HETATM   26  C20 UNL     1     -27.710  -0.684 -13.775  1.00  0.00     0.020 A 
HETATM   27  C21 UNL     1     -27.831  -1.472 -14.894  1.00  0.00     0.020 A 
HETATM   28  C22 UNL     1     -26.845  -1.566 -15.858  1.00  0.00     0.011 A 
HETATM   29 BR1  UNL     1     -27.031  -2.667 -17.407  1.00  0.00    -0.051 Br
HETATM   30  C23 UNL     1     -25.695  -0.819 -15.659  1.00  0.00     0.020 A 
HETATM   31  C24 UNL     1     -25.564  -0.037 -14.555  1.00  0.00     0.020 A 
ENDBRANCH  24  25
ENDBRANCH  23  24
ENDBRANCH  20  23
ENDBRANCH  17  20
ENDBRANCH  16  17
ENDBRANCH  13  16
BRANCH   1  32
HETATM   32  C2  UNL     1     -29.068   6.051 -17.144  1.00  0.00     0.267 C 
HETATM   33  O2  UNL     1     -28.113   5.942 -17.895  1.00  0.00    -0.264 OA
BRANCH  32  34
HETATM   34  O1  UNL     1     -30.332   5.941 -17.664  1.00  0.00    -0.326 OA
HETATM   35  C1  UNL     1     -30.516   5.789 -19.071  1.00  0.00     0.213 C 
ENDBRANCH  32  34
ENDBRANCH   1  32
TORSDOF 9
ENDMDL
MODEL 2
REMARK VINA RESULT: -8.427127848      1.376      1.808
REMARK  9 active torsions:
REMARK  status: ('A' for Active; 'I' for Inactive)
REMARK    1  A    between atoms: O1_2  and  C2_3 
REMARK    2  A    between atoms: C2_3  and  C3_5 
REMARK    3  A    between atoms: C13_17  and  C14_18 
REMARK    4  A    between atoms: C14_18  and  C15_19 
REMARK    5  A    between atoms: C15_19  and  O5_20 
REMARK    6  A    between atoms: C15_19  and  C16_22 
REMARK    7  A    between atoms: C16_22  and  C18_25 
REMARK    8  A    between atoms: C18_25  and  S1_26 
REMARK    9  A    between atoms: S1_26  and  C19_27 
ROOT
HETATM    1  C3  UNL     1     -28.993   6.236 -16.722  1.00  0.00     0.048 C 
HETATM    2  C4  UNL     1     -29.608   4.963 -16.085  1.00  0.00     0.026 C 
HETATM    3  C5  UNL     1     -29.654   7.455 -16.114  1.00  0.00     0.025 C 
HETATM    4  C6  UNL     1     -30.159   8.487 -17.024  1.00  0.00     0.003 A 
HETATM    5  C7  UNL     1     -30.067   9.956 -16.695  1.00  0.00     0.011 A 
HETATM    6  C8  UNL     1     -29.114  10.538 -15.729  1.00  0.00     0.117 C 
HETATM    7  C9  UNL     1     -27.967  11.246 -16.409  1.00  0.00     0.259 C 
HETATM    8  O3  UNL     1     -27.336  12.183 -15.876  1.00  0.00    -0.265 OA
HETATM    9  O4  UNL     1     -27.639  10.807 -17.666  1.00  0.00    -0.315 OA
HETATM   10  C10 UNL     1     -27.966   9.426 -17.942  1.00  0.00     0.141 C 
HETATM   11  C11 UNL     1     -27.001   8.632 -17.131  1.00  0.00     0.034 C 
HETATM   12  C12 UNL     1     -26.828   7.204 -17.535  1.00  0.00     0.008 C 
HETATM   13  C13 UNL     1     -27.538   6.205 -16.577  1.00  0.00     0.006 C 
HETATM   14  C25 UNL     1     -29.385   9.275 -17.885  1.00  0.00    -0.009 A 
HETATM   15  C26 UNL     1     -30.062   9.744 -19.208  1.00  0.00     0.018 C 
ENDROOT
BRANCH  13  16
HETATM   16  C14 UNL     1     -26.818   6.293 -15.312  1.00  0.00     0.041 C 
BRANCH  16  17
HETATM   17  C15 UNL     1     -27.389   6.204 -13.978  1.00  0.00     0.158 C 
BRANCH  17  18
HETATM   18  O5  UNL     1     -27.344   7.297 -13.146  1.00  0.00    -0.392 OA
ATOM     19  H5  UNL     1     -26.517   7.560 -12.762  1.00  0.00     0.210 HD
ENDBRANCH  17  18
BRANCH  17  20
HETATM   20  C16 UNL     1     -26.844   5.049 -13.146  1.00  0.00     0.134 C 
HETATM   21  C17 UNL     1     -25.506   4.576 -13.566  1.00  0.00     0.055 C 
HETATM   22  F1  UNL     1     -26.816   5.415 -11.814  1.00  0.00    -0.240 F 
BRANCH  20  23
HETATM   23  C18 UNL     1     -27.834   3.918 -13.289  1.00  0.00     0.125 C 
BRANCH  23  24
HETATM   24  S1  UNL     1     -27.496   2.487 -12.291  1.00  0.00    -0.127 SA
BRANCH  24  25
HETATM   25  C19 UNL     1     -27.305   1.019 -13.281  1.00  0.00     0.000 A 
HETATM   26  C20 UNL     1     -26.085   0.703 -13.868  1.00  0.00     0.020 A 
HETATM   27  C21 UNL     1     -25.983  -0.448 -14.610  1.00  0.00     0.020 A 
HETATM   28  C22 UNL     1     -27.041  -1.316 -14.804  1.00  0.00     0.011 A 
HETATM   29 BR1  UNL     1     -26.880  -2.912 -15.840  1.00  0.00    -0.051 Br
HETATM   30  C23 UNL     1     -28.247  -0.981 -14.210  1.00  0.00     0.020 A 
HETATM   31  C24 UNL     1     -28.361   0.155 -13.473  1.00  0.00     0.020 A 
ENDBRANCH  24  25
ENDBRANCH  23  24
ENDBRANCH  20  23
ENDBRANCH  17  20
ENDBRANCH  16  17
ENDBRANCH  13  16
BRANCH   1  32
HETATM   32  C2  UNL     1     -29.369   6.014 -18.137  1.00  0.00     0.267 C 
HETATM   33  O2  UNL     1     -28.534   5.959 -19.024  1.00  0.00    -0.264 OA
BRANCH  32  34
HETATM   34  O1  UNL     1     -30.691   5.856 -18.464  1.00  0.00    -0.326 OA
HETATM   35  C1  UNL     1     -31.058   5.433 -19.776  1.00  0.00     0.213 C 
ENDBRANCH  32  34
ENDBRANCH   1  32
TORSDOF 9
ENDMDL
MODEL 3
REMARK VINA RESULT: -8.221253297      2.247      2.680
REMARK  9 active torsions:
REMARK  status: ('A' for Active; 'I' for Inactive)
REMARK    1  A    between atoms: O1_2  and  C2_3 
REMARK    2  A    between atoms: C2_3  and  C3_5 
REMARK    3  A    between atoms: C13_17  and  C14_18 
REMARK    4  A    between atoms: C14_18  and  C15_19 
REMARK    5  A    between atoms: C15_19  and  O5_20 
REMARK    6  A    between atoms: C15_19  and  C16_22 
REMARK    7  A    between atoms: C16_22  and  C18_25 
REMARK    8  A    between atoms: C18_25  and  S1_26 
REMARK    9  A    between atoms: S1_26  and  C19_27 
ROOT
HETATM    1  C3  UNL     1     -28.767   6.270 -15.672  1.00  0.00     0.048 C 
HETATM    2  C4  UNL     1     -29.685   5.158 -15.103  1.00  0.00     0.026 C 
HETATM    3  C5  UNL     1     -29.268   7.614 -15.187  1.00  0.00     0.025 C 
HETATM    4  C6  UNL     1     -29.448   8.678 -16.180  1.00  0.00     0.003 A 
HETATM    5  C7  UNL     1     -29.133  10.120 -15.871  1.00  0.00     0.011 A 
HETATM    6  C8  UNL     1     -28.227  10.565 -14.792  1.00  0.00     0.117 C 
HETATM    7  C9  UNL     1     -26.889  11.024 -15.319  1.00  0.00     0.259 C 
HETATM    8  O3  UNL     1     -26.173  11.856 -14.721  1.00  0.00    -0.265 OA
HETATM    9  O4  UNL     1     -26.482  10.477 -16.509  1.00  0.00    -0.315 OA
HETATM   10  C10 UNL     1     -27.017   9.166 -16.800  1.00  0.00     0.141 C 
HETATM   11  C11 UNL     1     -26.331   8.249 -15.846  1.00  0.00     0.034 C 
HETATM   12  C12 UNL     1     -26.372   6.797 -16.193  1.00  0.00     0.008 C 
HETATM   13  C13 UNL     1     -27.375   5.986 -15.324  1.00  0.00     0.006 C 
HETATM   14  C25 UNL     1     -28.434   9.274 -16.939  1.00  0.00    -0.009 A 
HETATM   15  C26 UNL     1     -28.830   9.797 -18.353  1.00  0.00     0.018 C 
ENDROOT
BRANCH  13  16
HETATM   16  C14 UNL     1     -26.827   6.000 -13.972  1.00  0.00     0.041 C 
BRANCH  16  17
HETATM   17  C15 UNL     1     -26.056   4.944 -13.335  1.00  0.00     0.158 C 
BRANCH  17  18
HETATM   18  O5  UNL     1     -24.889   4.511 -13.916  1.00  0.00    -0.392 OA
ATOM     19  H5  UNL     1     -24.857   3.653 -14.322  1.00  0.00     0.210 HD
ENDBRANCH  17  18
BRANCH  17  20
HETATM   20  C16 UNL     1     -26.855   3.677 -13.057  1.00  0.00     0.134 C 
HETATM   21  C17 UNL     1     -27.812   3.795 -11.933  1.00  0.00     0.055 C 
HETATM   22  F1  UNL     1     -27.523   3.293 -14.203  1.00  0.00    -0.240 F 
BRANCH  20  23
HETATM   23  C18 UNL     1     -25.846   2.601 -12.734  1.00  0.00     0.125 C 
BRANCH  23  24
HETATM   24  S1  UNL     1     -26.378   0.939 -13.072  1.00  0.00    -0.127 SA
BRANCH  24  25
HETATM   25  C19 UNL     1     -27.131   0.181 -11.647  1.00  0.00     0.000 A 
HETATM   26  C20 UNL     1     -26.409  -0.675 -10.824  1.00  0.00     0.020 A 
HETATM   27  C21 UNL     1     -27.029  -1.224  -9.728  1.00  0.00     0.020 A 
HETATM   28  C22 UNL     1     -28.346  -0.965  -9.400  1.00  0.00     0.011 A 
HETATM   29 BR1  UNL     1     -29.191  -1.738  -7.872  1.00  0.00    -0.051 Br
HETATM   30  C23 UNL     1     -29.047  -0.109 -10.234  1.00  0.00     0.020 A 
HETATM   31  C24 UNL     1     -28.444   0.439 -11.322  1.00  0.00     0.020 A 
ENDBRANCH  24  25
ENDBRANCH  23  24
ENDBRANCH  20  23
ENDBRANCH  17  20
ENDBRANCH  16  17
ENDBRANCH  13  16
BRANCH   1  32
HETATM   32  C2  UNL     1     -28.983   6.055 -17.121  1.00  0.00     0.267 C 
HETATM   33  O2  UNL     1     -28.055   5.985 -17.908  1.00  0.00    -0.264 OA
BRANCH  32  34
HETATM   34  O1  UNL     1     -30.263   5.923 -17.596  1.00  0.00    -0.326 OA
HETATM   35  C1  UNL     1     -30.495   5.781 -18.996  1.00  0.00     0.213 C 
ENDBRANCH  32  34
ENDBRANCH   1  32
TORSDOF 9
ENDMDL
MODEL 4
REMARK VINA RESULT: -8.103110893      1.829      2.731
REMARK  9 active torsions:
REMARK  status: ('A' for Active; 'I' for Inactive)
REMARK    1  A    between atoms: O1_2  and  C2_3 
REMARK    2  A    between atoms: C2_3  and  C3_5 
REMARK    3  A    between atoms: C13_17  and  C14_18 
REMARK    4  A    between atoms: C14_18  and  C15_19 
REMARK    5  A    between atoms: C15_19  and  O5_20 
REMARK    6  A    between atoms: C15_19  and  C16_22 
REMARK    7  A    between atoms: C16_22  and  C18_25 
REMARK    8  A    between atoms: C18_25  and  S1_26 
REMARK    9  A    between atoms: S1_26  and  C19_27 
ROOT
HETATM    1  C3  UNL     1     -28.216   8.851 -16.074  1.00  0.00     0.048 C 
HETATM    2  C4  UNL     1     -29.682   8.349 -16.110  1.00  0.00     0.026 C 
HETATM    3  C5  UNL     1     -28.204  10.296 -15.621  1.00  0.00     0.025 C 
HETATM    4  C6  UNL     1     -27.434  11.258 -16.417  1.00  0.00     0.003 A 
HETATM    5  C7  UNL     1     -26.666  12.387 -15.778  1.00  0.00     0.011 A 
HETATM    6  C8  UNL     1     -26.221  12.405 -14.370  1.00  0.00     0.117 C 
HETATM    7  C9  UNL     1     -24.741  12.136 -14.232  1.00  0.00     0.259 C 
HETATM    8  O3  UNL     1     -24.062  12.555 -13.272  1.00  0.00    -0.265 OA
HETATM    9  O4  UNL     1     -24.161  11.394 -15.229  1.00  0.00    -0.315 OA
HETATM   10  C10 UNL     1     -25.049  10.486 -15.919  1.00  0.00     0.141 C 
HETATM   11  C11 UNL     1     -25.341   9.408 -14.932  1.00  0.00     0.034 C 
HETATM   12  C12 UNL     1     -25.884   8.135 -15.495  1.00  0.00     0.008 C 
HETATM   13  C13 UNL     1     -27.409   7.955 -15.246  1.00  0.00     0.006 C 
HETATM   14  C25 UNL     1     -26.046  11.252 -16.597  1.00  0.00    -0.009 A 
HETATM   15  C26 UNL     1     -25.510  11.818 -17.946  1.00  0.00     0.018 C 
ENDROOT
BRANCH  13  16
HETATM   16  C14 UNL     1     -27.556   7.782 -13.806  1.00  0.00     0.041 C 
BRANCH  16  17
HETATM   17  C15 UNL     1     -27.043   6.681 -13.006  1.00  0.00     0.158 C 
BRANCH  17  18
HETATM   18  O5  UNL     1     -25.750   6.722 -12.543  1.00  0.00    -0.392 OA
ATOM     19  H5  UNL     1     -25.518   7.331 -11.852  1.00  0.00     0.210 HD
ENDBRANCH  17  18
BRANCH  17  20
HETATM   20  C16 UNL     1     -27.184   5.316 -13.669  1.00  0.00     0.134 C 
HETATM   21  C17 UNL     1     -28.507   5.074 -14.287  1.00  0.00     0.055 C 
HETATM   22  F1  UNL     1     -26.189   5.159 -14.613  1.00  0.00    -0.240 F 
BRANCH  20  23
HETATM   23  C18 UNL     1     -26.952   4.291 -12.584  1.00  0.00     0.125 C 
BRANCH  23  24
HETATM   24  S1  UNL     1     -28.134   2.965 -12.531  1.00  0.00    -0.127 SA
BRANCH  24  25
HETATM   25  C19 UNL     1     -27.517   1.494 -13.325  1.00  0.00     0.000 A 
HETATM   26  C20 UNL     1     -26.158   1.320 -13.556  1.00  0.00     0.020 A 
HETATM   27  C21 UNL     1     -25.729   0.162 -14.158  1.00  0.00     0.020 A 
HETATM   28  C22 UNL     1     -26.589  -0.847 -14.547  1.00  0.00     0.011 A 
HETATM   29 BR1  UNL     1     -25.974  -2.450 -15.383  1.00  0.00    -0.051 Br
HETATM   30  C23 UNL     1     -27.940  -0.652 -14.307  1.00  0.00     0.020 A 
HETATM   31  C24 UNL     1     -28.376   0.490 -13.713  1.00  0.00     0.020 A 
ENDBRANCH  24  25
ENDBRANCH  23  24
ENDBRANCH  20  23
ENDBRANCH  17  20
ENDBRANCH  16  17
ENDBRANCH  13  16
BRANCH   1  32
HETATM   32  C2  UNL     1     -27.860   8.685 -17.502  1.00  0.00     0.267 C 
HETATM   33  O2  UNL     1     -28.517   9.195 -18.393  1.00  0.00    -0.264 OA
BRANCH  32  34
HETATM   34  O1  UNL     1     -26.757   7.942 -17.836  1.00  0.00    -0.326 OA
HETATM   35  C1  UNL     1     -26.911   6.703 -18.526  1.00  0.00     0.213 C 
ENDBRANCH  32  34
ENDBRANCH   1  32
TORSDOF 9
ENDMDL
MODEL 5
REMARK VINA RESULT: -8.096732974      1.573      3.837
REMARK  9 active torsions:
REMARK  status: ('A' for Active; 'I' for Inactive)
REMARK    1  A    between atoms: O1_2  and  C2_3 
REMARK    2  A    between atoms: C2_3  and  C3_5 
REMARK    3  A    between atoms: C13_17  and  C14_18 
REMARK    4  A    between atoms: C14_18  and  C15_19 
REMARK    5  A    between atoms: C15_19  and  O5_20 
REMARK    6  A    between atoms: C15_19  and  C16_22 
REMARK    7  A    between atoms: C16_22  and  C18_25 
REMARK    8  A    between atoms: C18_25  and  S1_26 
REMARK    9  A    between atoms: S1_26  and  C19_27 
ROOT
HETATM    1  C3  UNL     1     -26.784   7.140 -14.595  1.00  0.00     0.048 C 
HETATM    2  C4  UNL     1     -25.434   7.052 -13.839  1.00  0.00     0.026 C 
HETATM    3  C5  UNL     1     -26.543   6.858 -16.063  1.00  0.00     0.025 C 
HETATM    4  C6  UNL     1     -27.105   7.792 -17.043  1.00  0.00     0.003 A 
HETATM    5  C7  UNL     1     -27.669   7.323 -18.360  1.00  0.00     0.011 A 
HETATM    6  C8  UNL     1     -28.137   5.948 -18.627  1.00  0.00     0.117 C 
HETATM    7  C9  UNL     1     -29.643   5.847 -18.645  1.00  0.00     0.259 C 
HETATM    8  O3  UNL     1     -30.257   4.972 -19.293  1.00  0.00    -0.265 OA
HETATM    9  O4  UNL     1     -30.326   6.777 -17.904  1.00  0.00    -0.315 OA
HETATM   10  C10 UNL     1     -29.602   7.316 -16.775  1.00  0.00     0.141 C 
HETATM   11  C11 UNL     1     -29.535   6.200 -15.790  1.00  0.00     0.034 C 
HETATM   12  C12 UNL     1     -29.221   6.589 -14.382  1.00  0.00     0.008 C 
HETATM   13  C13 UNL     1     -27.761   6.252 -13.964  1.00  0.00     0.006 C 
HETATM   14  C25 UNL     1     -28.466   8.032 -17.263  1.00  0.00    -0.009 A 
HETATM   15  C26 UNL     1     -28.859   9.461 -17.748  1.00  0.00     0.018 C 
ENDROOT
BRANCH  13  16
HETATM   16  C14 UNL     1     -27.682   4.796 -13.944  1.00  0.00     0.041 C 
BRANCH  16  17
HETATM   17  C15 UNL     1     -27.116   3.971 -12.888  1.00  0.00     0.158 C 
BRANCH  17  18
HETATM   18  O5  UNL     1     -25.873   3.411 -13.057  1.00  0.00    -0.392 OA
ATOM     19  H5  UNL     1     -25.790   2.583 -13.515  1.00  0.00     0.210 HD
ENDBRANCH  17  18
BRANCH  17  20
HETATM   20  C16 UNL     1     -28.015   2.818 -12.455  1.00  0.00     0.134 C 
HETATM   21  C17 UNL     1     -28.399   2.850 -11.026  1.00  0.00     0.055 C 
HETATM   22  F1  UNL     1     -29.148   2.797 -13.246  1.00  0.00    -0.240 F 
BRANCH  20  23
HETATM   23  C18 UNL     1     -27.242   1.550 -12.730  1.00  0.00     0.125 C 
BRANCH  23  24
HETATM   24  S1  UNL     1     -28.139   0.293 -13.608  1.00  0.00    -0.127 SA
BRANCH  24  25
HETATM   25  C19 UNL     1     -27.070  -0.678 -14.651  1.00  0.00     0.000 A 
HETATM   26  C20 UNL     1     -25.829  -0.198 -15.052  1.00  0.00     0.020 A 
HETATM   27  C21 UNL     1     -25.034  -0.990 -15.844  1.00  0.00     0.020 A 
HETATM   28  C22 UNL     1     -25.409  -2.252 -16.265  1.00  0.00     0.011 A 
HETATM   29 BR1  UNL     1     -24.290  -3.339 -17.366  1.00  0.00    -0.051 Br
HETATM   30  C23 UNL     1     -26.650  -2.711 -15.853  1.00  0.00     0.020 A 
HETATM   31  C24 UNL     1     -27.446  -1.936 -15.070  1.00  0.00     0.020 A 
ENDBRANCH  24  25
ENDBRANCH  23  24
ENDBRANCH  20  23
ENDBRANCH  17  20
ENDBRANCH  16  17
ENDBRANCH  13  16
BRANCH   1  32
HETATM   32  C2  UNL     1     -27.131   8.554 -14.323  1.00  0.00     0.267 C 
HETATM   33  O2  UNL     1     -28.232   8.880 -13.911  1.00  0.00    -0.264 OA
BRANCH  32  34
HETATM   34  O1  UNL     1     -26.189   9.528 -14.530  1.00  0.00    -0.326 OA
HETATM   35  C1  UNL     1     -26.588  10.830 -14.955  1.00  0.00     0.213 C 
ENDBRANCH  32  34
ENDBRANCH   1  32
TORSDOF 9
ENDMDL
