MODEL 1
REMARK VINA RESULT: -7.194071361      0.000      0.000
REMARK  3 active torsions:
REMARK  status: ('A' for Active; 'I' for Inactive)
REMARK    1  A    between atoms: C4_6  and  N2_7 
REMARK    2  A    between atoms: C6_16  and  O2_17 
REMARK    3  A    between atoms: C7_19  and  O3_20 
ROOT
HETATM    1  C1  UNL     1     -30.244  85.133  36.785  1.00  0.00     0.146 C 
HETATM    2  N1  UNL     1     -30.357  84.675  35.440  1.00  0.00    -0.390 N 
ATOM      3  H1  UNL     1     -30.062  83.721  35.234  1.00  0.00     0.159 HD
HETATM    4  C2  UNL     1     -30.801  85.379  34.480  1.00  0.00     0.093 A 
HETATM    5  C3  UNL     1     -30.839  84.734  33.173  1.00  0.00     0.081 A 
HETATM    6  C4  UNL     1     -30.434  83.491  33.013  1.00  0.00     0.138 C 
HETATM    7  N4  UNL     1     -31.327  85.477  32.064  1.00  0.00    -0.318 N 
ATOM      8  H4  UNL     1     -31.364  85.048  31.140  1.00  0.00     0.169 HD
HETATM    9  C5  UNL     1     -31.763  86.819  32.240  1.00  0.00     0.282 A 
HETATM   10  O1  UNL     1     -32.191  87.481  31.283  1.00  0.00    -0.265 OA
HETATM   11  C6  UNL     1     -31.706  87.417  33.552  1.00  0.00     0.170 A 
HETATM   12  C7  UNL     1     -31.262  86.780  34.636  1.00  0.00     0.136 A 
ENDROOT
BRANCH   6  13
HETATM   13  N2  UNL     1     -29.933  82.659  34.036  1.00  0.00    -0.316 N 
HETATM   14  N3  UNL     1     -28.701  82.403  34.134  1.00  0.00    -0.345 N 
ATOM     15  H32 UNL     1     -28.067  82.816  33.449  1.00  0.00     0.176 HD
ATOM     16  H31 UNL     1     -28.338  81.802  34.873  1.00  0.00     0.176 HD
ATOM     17  H2  UNL     1     -30.581  82.255  34.713  1.00  0.00     0.185 HD
ENDBRANCH   6  13
BRANCH  12  18
HETATM   18  O3  UNL     1     -31.220  87.372  35.866  1.00  0.00    -0.351 OA
HETATM   19  C8  UNL     1     -30.173  88.018  36.497  1.00  0.00     0.210 C 
ENDBRANCH  12  18
BRANCH  11  20
HETATM   20  O2  UNL     1     -32.129  88.728  33.739  1.00  0.00    -0.354 OA
ATOM     21  H2  UNL     1     -32.058  89.134  34.595  1.00  0.00     0.218 HD
ENDBRANCH  11  20
TORSDOF 3
ENDMDL
MODEL 2
REMARK VINA RESULT: -7.037813176      1.618      3.450
REMARK  3 active torsions:
REMARK  status: ('A' for Active; 'I' for Inactive)
REMARK    1  A    between atoms: C4_6  and  N2_7 
REMARK    2  A    between atoms: C6_16  and  O2_17 
REMARK    3  A    between atoms: C7_19  and  O3_20 
ROOT
HETATM    1  C1  UNL     1     -30.353  82.871  33.704  1.00  0.00     0.146 C 
HETATM    2  N1  UNL     1     -30.366  83.950  34.635  1.00  0.00    -0.390 N 
ATOM      3  H1  UNL     1     -30.066  83.759  35.591  1.00  0.00     0.159 HD
HETATM    4  C2  UNL     1     -30.728  85.135  34.352  1.00  0.00     0.093 A 
HETATM    5  C3  UNL     1     -30.673  86.102  35.441  1.00  0.00     0.081 A 
HETATM    6  C4  UNL     1     -30.268  85.753  36.644  1.00  0.00     0.138 C 
HETATM    7  N4  UNL     1     -31.067  87.443  35.178  1.00  0.00    -0.318 N 
ATOM      8  H4  UNL     1     -31.037  88.138  35.923  1.00  0.00     0.169 HD
HETATM    9  C5  UNL     1     -31.505  87.816  33.878  1.00  0.00     0.282 A 
HETATM   10  O1  UNL     1     -31.852  88.980  33.632  1.00  0.00    -0.265 OA
HETATM   11  C6  UNL     1     -31.544  86.824  32.830  1.00  0.00     0.170 A 
HETATM   12  C7  UNL     1     -31.188  85.551  33.005  1.00  0.00     0.136 A 
ENDROOT
BRANCH   6  13
HETATM   13  N2  UNL     1     -29.853  84.458  37.021  1.00  0.00    -0.316 N 
HETATM   14  N3  UNL     1     -30.578  83.718  37.742  1.00  0.00    -0.345 N 
ATOM     15  H32 UNL     1     -31.482  84.079  38.049  1.00  0.00     0.176 HD
ATOM     16  H31 UNL     1     -30.279  82.782  38.014  1.00  0.00     0.176 HD
ATOM     17  H2  UNL     1     -28.947  84.113  36.705  1.00  0.00     0.185 HD
ENDBRANCH   6  13
BRANCH  12  18
HETATM   18  O3  UNL     1     -31.235  84.634  31.994  1.00  0.00    -0.351 OA
HETATM   19  C8  UNL     1     -32.197  84.449  31.017  1.00  0.00     0.210 C 
ENDBRANCH  12  18
BRANCH  11  20
HETATM   20  O2  UNL     1     -31.969  87.175  31.554  1.00  0.00    -0.354 OA
ATOM     21  H2  UNL     1     -31.738  88.022  31.192  1.00  0.00     0.218 HD
ENDBRANCH  11  20
TORSDOF 3
ENDMDL
MODEL 3
REMARK VINA RESULT: -6.976650981      1.768      2.419
REMARK  3 active torsions:
REMARK  status: ('A' for Active; 'I' for Inactive)
REMARK    1  A    between atoms: C4_6  and  N2_7 
REMARK    2  A    between atoms: C6_16  and  O2_17 
REMARK    3  A    between atoms: C7_19  and  O3_20 
ROOT
HETATM    1  C1  UNL     1     -30.114  87.921  36.677  1.00  0.00     0.146 C 
HETATM    2  N1  UNL     1     -30.494  86.598  36.308  1.00  0.00    -0.390 N 
ATOM      3  H1  UNL     1     -30.450  85.873  37.023  1.00  0.00     0.159 HD
HETATM    4  C2  UNL     1     -30.885  86.264  35.146  1.00  0.00     0.093 A 
HETATM    5  C3  UNL     1     -31.231  84.860  34.963  1.00  0.00     0.081 A 
HETATM    6  C4  UNL     1     -31.140  83.999  35.955  1.00  0.00     0.138 C 
HETATM    7  N4  UNL     1     -31.674  84.432  33.681  1.00  0.00    -0.318 N 
ATOM      8  H4  UNL     1     -31.922  83.455  33.529  1.00  0.00     0.169 HD
HETATM    9  C5  UNL     1     -31.770  85.364  32.612  1.00  0.00     0.282 A 
HETATM   10  O1  UNL     1     -32.154  85.007  31.489  1.00  0.00    -0.265 OA
HETATM   11  C6  UNL     1     -31.416  86.744  32.839  1.00  0.00     0.170 A 
HETATM   12  C7  UNL     1     -30.995  87.215  34.013  1.00  0.00     0.136 A 
ENDROOT
BRANCH   6  13
HETATM   13  N2  UNL     1     -30.715  84.307  37.265  1.00  0.00    -0.316 N 
HETATM   14  N3  UNL     1     -29.522  84.124  37.631  1.00  0.00    -0.345 N 
ATOM     15  H32 UNL     1     -28.861  83.745  36.952  1.00  0.00     0.176 HD
ATOM     16  H31 UNL     1     -29.214  84.347  38.578  1.00  0.00     0.176 HD
ATOM     17  H2  UNL     1     -31.388  84.686  37.931  1.00  0.00     0.185 HD
ENDBRANCH   6  13
BRANCH  12  18
HETATM   18  O3  UNL     1     -30.667  88.528  34.199  1.00  0.00    -0.351 OA
HETATM   19  C8  UNL     1     -29.468  89.178  33.966  1.00  0.00     0.210 C 
ENDBRANCH  12  18
BRANCH  11  20
HETATM   20  O2  UNL     1     -31.506  87.666  31.803  1.00  0.00    -0.354 OA
ATOM     21  H2  UNL     1     -31.955  88.492  31.938  1.00  0.00     0.218 HD
ENDBRANCH  11  20
TORSDOF 3
ENDMDL
MODEL 4
REMARK VINA RESULT: -6.744775323      1.785      3.803
REMARK  3 active torsions:
REMARK  status: ('A' for Active; 'I' for Inactive)
REMARK    1  A    between atoms: C4_6  and  N2_7 
REMARK    2  A    between atoms: C6_16  and  O2_17 
REMARK    3  A    between atoms: C7_19  and  O3_20 
ROOT
HETATM    1  C1  UNL     1     -31.656  87.572  32.736  1.00  0.00     0.146 C 
HETATM    2  N1  UNL     1     -31.556  86.206  33.129  1.00  0.00    -0.390 N 
ATOM      3  H1  UNL     1     -31.904  85.497  32.485  1.00  0.00     0.159 HD
HETATM    4  C2  UNL     1     -31.060  85.814  34.232  1.00  0.00     0.093 A 
HETATM    5  C3  UNL     1     -31.046  84.373  34.454  1.00  0.00     0.081 A 
HETATM    6  C4  UNL     1     -31.522  83.539  33.554  1.00  0.00     0.138 C 
HETATM    7  N4  UNL     1     -30.504  83.881  35.673  1.00  0.00    -0.318 N 
ATOM      8  H4  UNL     1     -30.482  82.877  35.851  1.00  0.00     0.169 HD
HETATM    9  C5  UNL     1     -29.991  84.785  36.643  1.00  0.00     0.282 A 
HETATM   10  O1  UNL     1     -29.515  84.372  37.710  1.00  0.00    -0.265 OA
HETATM   11  C6  UNL     1     -30.027  86.203  36.380  1.00  0.00     0.170 A 
HETATM   12  C7  UNL     1     -30.519  86.735  35.261  1.00  0.00     0.136 A 
ENDROOT
BRANCH   6  13
HETATM   13  N2  UNL     1     -32.082  83.910  32.313  1.00  0.00    -0.316 N 
HETATM   14  N3  UNL     1     -33.324  83.833  32.102  1.00  0.00    -0.345 N 
ATOM     15  H32 UNL     1     -33.922  83.494  32.855  1.00  0.00     0.176 HD
ATOM     16  H31 UNL     1     -33.729  84.102  31.205  1.00  0.00     0.176 HD
ATOM     17  H2  UNL     1     -31.470  84.248  31.571  1.00  0.00     0.185 HD
ENDBRANCH   6  13
BRANCH  12  18
HETATM   18  O3  UNL     1     -30.539  88.082  35.039  1.00  0.00    -0.351 OA
HETATM   19  C8  UNL     1     -29.546  88.908  34.544  1.00  0.00     0.210 C 
ENDBRANCH  12  18
BRANCH  11  20
HETATM   20  O2  UNL     1     -29.529  87.099  37.319  1.00  0.00    -0.354 OA
ATOM     21  H2  UNL     1     -28.719  86.908  37.777  1.00  0.00     0.218 HD
ENDBRANCH  11  20
TORSDOF 3
ENDMDL
MODEL 5
REMARK VINA RESULT: -6.517975658      2.647      4.628
REMARK  3 active torsions:
REMARK  status: ('A' for Active; 'I' for Inactive)
REMARK    1  A    between atoms: C4_6  and  N2_7 
REMARK    2  A    between atoms: C6_16  and  O2_17 
REMARK    3  A    between atoms: C7_19  and  O3_20 
ROOT
HETATM    1  C1  UNL     1     -31.661  83.711  32.622  1.00  0.00     0.146 C 
HETATM    2  N1  UNL     1     -31.638  85.095  32.963  1.00  0.00    -0.390 N 
ATOM      3  H1  UNL     1     -32.072  85.753  32.316  1.00  0.00     0.159 HD
HETATM    4  C2  UNL     1     -31.111  85.562  34.021  1.00  0.00     0.093 A 
HETATM    5  C3  UNL     1     -31.188  87.008  34.193  1.00  0.00     0.081 A 
HETATM    6  C4  UNL     1     -31.774  87.772  33.295  1.00  0.00     0.138 C 
HETATM    7  N4  UNL     1     -30.614  87.582  35.360  1.00  0.00    -0.318 N 
ATOM      8  H4  UNL     1     -30.655  88.591  35.504  1.00  0.00     0.169 HD
HETATM    9  C5  UNL     1     -29.982  86.754  36.327  1.00  0.00     0.282 A 
HETATM   10  O1  UNL     1     -29.476  87.240  37.349  1.00  0.00    -0.265 OA
HETATM   11  C6  UNL     1     -29.929  85.328  36.114  1.00  0.00     0.170 A 
HETATM   12  C7  UNL     1     -30.446  84.721  35.046  1.00  0.00     0.136 A 
ENDROOT
BRANCH   6  13
HETATM   13  N2  UNL     1     -32.376  87.316  32.104  1.00  0.00    -0.316 N 
HETATM   14  N3  UNL     1     -31.817  87.467  30.983  1.00  0.00    -0.345 N 
ATOM     15  H32 UNL     1     -30.909  87.932  30.955  1.00  0.00     0.176 HD
ATOM     16  H31 UNL     1     -32.252  87.137  30.122  1.00  0.00     0.176 HD
ATOM     17  H2  UNL     1     -33.284  86.853  32.150  1.00  0.00     0.185 HD
ENDBRANCH   6  13
BRANCH  12  18
HETATM   18  O3  UNL     1     -30.381  83.368  34.871  1.00  0.00    -0.351 OA
HETATM   19  C8  UNL     1     -29.422  82.608  34.226  1.00  0.00     0.210 C 
ENDBRANCH  12  18
BRANCH  11  20
HETATM   20  O2  UNL     1     -29.314  84.506  37.051  1.00  0.00    -0.354 OA
ATOM     21  H2  UNL     1     -29.819  84.141  37.768  1.00  0.00     0.218 HD
ENDBRANCH  11  20
TORSDOF 3
ENDMDL
