MODEL 1
REMARK VINA RESULT: -7.546499937      0.000      0.000
REMARK  8 active torsions:
REMARK  status: ('A' for Active; 'I' for Inactive)
REMARK    1  A    between atoms: C2_2  and  C3_3 
REMARK    2  A    between atoms: C3_3  and  C4_4 
REMARK    3  A    between atoms: C4_4  and  O1_5 
REMARK    4  A    between atoms: O1_5  and  C5_6 
REMARK    5  A    between atoms: C10_13  and  C11_14 
REMARK    6  A    between atoms: C11_14  and  N1_15 
REMARK    7  A    between atoms: C12_16  and  O2_17 
REMARK    8  A    between atoms: C15_21  and  O3_22 
ROOT
HETATM    1  N1  UNL     1     -87.552 -16.879  11.381  1.00  0.00    -0.303 N 
HETATM    2  C12 UNL     1     -88.500 -15.972  11.694  1.00  0.00     0.161 A 
HETATM    3  C13 UNL     1     -88.056 -15.203  12.748  1.00  0.00     0.095 A 
HETATM    4  C14 UNL     1     -86.812 -15.624  13.110  1.00  0.00     0.035 A 
HETATM    5  C15 UNL     1     -86.535 -16.678  12.221  1.00  0.00     0.154 A 
HETATM    6  C16 UNL     1     -86.269 -14.836  14.250  1.00  0.00     0.119 A 
HETATM    7  C17 UNL     1     -85.033 -14.053  13.831  1.00  0.00     0.037 C 
HETATM    8  N2  UNL     1     -87.322 -13.894  14.521  1.00  0.00    -0.348 N 
ATOM      9  H2  UNL     1     -87.284 -13.184  15.251  1.00  0.00     0.163 HD
HETATM   10  C18 UNL     1     -88.419 -14.080  13.646  1.00  0.00     0.257 A 
HETATM   11  O4  UNL     1     -89.505 -13.457  13.587  1.00  0.00    -0.267 OA
ENDROOT
BRANCH   1  12
HETATM   12  C11 UNL     1     -87.618 -17.780  10.272  1.00  0.00     0.174 C 
BRANCH  12  13
HETATM   13  C10 UNL     1     -87.559 -17.188   8.911  1.00  0.00    -0.004 A 
HETATM   14  C5  UNL     1     -88.618 -16.999   8.089  1.00  0.00     0.094 A 
HETATM   15  C6  UNL     1     -88.319 -16.350   6.830  1.00  0.00     0.046 A 
HETATM   16 BR1  UNL     1     -89.754 -16.048   5.627  1.00  0.00    -0.048 Br
HETATM   17  C7  UNL     1     -87.073 -15.955   6.478  1.00  0.00     0.041 A 
HETATM   18  C8  UNL     1     -86.026 -16.176   7.355  1.00  0.00     0.013 A 
HETATM   19 BR2  UNL     1     -84.240 -15.636   6.903  1.00  0.00    -0.051 Br
HETATM   20  C9  UNL     1     -86.240 -16.776   8.547  1.00  0.00     0.030 A 
BRANCH  14  21
HETATM   21  O1  UNL     1     -89.858 -17.328   8.280  1.00  0.00    -0.349 OA
BRANCH  21  22
HETATM   22  C4  UNL     1     -91.084 -17.655   8.470  1.00  0.00     0.175 C 
BRANCH  22  23
HETATM   23  C3  UNL     1     -91.205 -18.673   9.637  1.00  0.00     0.026 C 
BRANCH  23  24
HETATM   24  C2  UNL     1     -90.872 -20.068   9.180  1.00  0.00    -0.002 C 
HETATM   25  C1  UNL     1     -91.976 -20.629   8.307  1.00  0.00     0.005 C 
ENDBRANCH  23  24
ENDBRANCH  22  23
ENDBRANCH  21  22
ENDBRANCH  14  21
ENDBRANCH  12  13
ENDBRANCH   1  12
BRANCH   2  26
HETATM   26  O2  UNL     1     -89.759 -15.765  11.106  1.00  0.00    -0.345 OA
ATOM     27  H2  UNL     1     -90.618 -16.021  11.421  1.00  0.00     0.219 HD
ENDBRANCH   2  26
BRANCH   5  28
HETATM   28  O3  UNL     1     -85.298 -17.327  12.332  1.00  0.00    -0.345 OA
ATOM     29  H3  UNL     1     -84.829 -17.644  13.095  1.00  0.00     0.219 HD
ENDBRANCH   5  28
TORSDOF 8
ENDMDL
MODEL 2
REMARK VINA RESULT: -7.363748885      3.365      5.517
REMARK  8 active torsions:
REMARK  status: ('A' for Active; 'I' for Inactive)
REMARK    1  A    between atoms: C2_2  and  C3_3 
REMARK    2  A    between atoms: C3_3  and  C4_4 
REMARK    3  A    between atoms: C4_4  and  O1_5 
REMARK    4  A    between atoms: O1_5  and  C5_6 
REMARK    5  A    between atoms: C10_13  and  C11_14 
REMARK    6  A    between atoms: C11_14  and  N1_15 
REMARK    7  A    between atoms: C12_16  and  O2_17 
REMARK    8  A    between atoms: C15_21  and  O3_22 
ROOT
HETATM    1  N1  UNL     1     -87.835 -17.137   9.136  1.00  0.00    -0.303 N 
HETATM    2  C12 UNL     1     -88.443 -16.991   7.942  1.00  0.00     0.161 A 
HETATM    3  C13 UNL     1     -87.612 -16.286   7.097  1.00  0.00     0.095 A 
HETATM    4  C14 UNL     1     -86.463 -15.981   7.761  1.00  0.00     0.035 A 
HETATM    5  C15 UNL     1     -86.646 -16.538   9.039  1.00  0.00     0.154 A 
HETATM    6  C16 UNL     1     -85.515 -15.215   6.906  1.00  0.00     0.119 A 
HETATM    7  C17 UNL     1     -84.241 -16.010   6.657  1.00  0.00     0.037 C 
HETATM    8  N2  UNL     1     -86.223 -15.105   5.659  1.00  0.00    -0.348 N 
ATOM      9  H2  UNL     1     -85.859 -14.636   4.830  1.00  0.00     0.163 HD
HETATM   10  C18 UNL     1     -87.491 -15.731   5.728  1.00  0.00     0.257 A 
HETATM   11  O4  UNL     1     -88.377 -15.832   4.847  1.00  0.00    -0.267 OA
ENDROOT
BRANCH   1  12
HETATM   12  C11 UNL     1     -88.352 -17.902  10.228  1.00  0.00     0.174 C 
BRANCH  12  13
HETATM   13  C10 UNL     1     -89.393 -17.264  11.074  1.00  0.00    -0.004 A 
HETATM   14  C5  UNL     1     -90.729 -17.380  10.899  1.00  0.00     0.094 A 
HETATM   15  C6  UNL     1     -91.547 -16.710  11.888  1.00  0.00     0.046 A 
HETATM   16 BR1  UNL     1     -93.431 -16.831  11.709  1.00  0.00    -0.048 Br
HETATM   17  C7  UNL     1     -91.030 -16.007  12.923  1.00  0.00     0.041 A 
HETATM   18  C8  UNL     1     -89.655 -15.918  13.052  1.00  0.00     0.013 A 
HETATM   19 BR2  UNL     1     -88.871 -14.931  14.501  1.00  0.00    -0.051 Br
HETATM   20  C9  UNL     1     -88.837 -16.522  12.162  1.00  0.00     0.030 A 
BRANCH  14  21
HETATM   21  O1  UNL     1     -91.370 -18.006   9.960  1.00  0.00    -0.349 OA
BRANCH  21  22
HETATM   22  C4  UNL     1     -92.002 -18.625   9.031  1.00  0.00     0.175 C 
BRANCH  22  23
HETATM   23  C3  UNL     1     -91.747 -20.154   9.120  1.00  0.00     0.026 C 
BRANCH  23  24
HETATM   24  C2  UNL     1     -93.023 -20.905   9.395  1.00  0.00    -0.002 C 
HETATM   25  C1  UNL     1     -93.605 -20.508  10.735  1.00  0.00     0.005 C 
ENDBRANCH  23  24
ENDBRANCH  22  23
ENDBRANCH  21  22
ENDBRANCH  14  21
ENDBRANCH  12  13
ENDBRANCH   1  12
BRANCH   2  26
HETATM   26  O2  UNL     1     -89.708 -17.442   7.528  1.00  0.00    -0.345 OA
ATOM     27  H2  UNL     1     -89.932 -18.027   6.814  1.00  0.00     0.219 HD
ENDBRANCH   2  26
BRANCH   5  28
HETATM   28  O3  UNL     1     -85.612 -16.400   9.974  1.00  0.00    -0.345 OA
ATOM     29  H3  UNL     1     -85.052 -15.659  10.176  1.00  0.00     0.219 HD
ENDBRANCH   5  28
TORSDOF 8
ENDMDL
MODEL 3
REMARK VINA RESULT: -7.130168311      2.739      3.558
REMARK  8 active torsions:
REMARK  status: ('A' for Active; 'I' for Inactive)
REMARK    1  A    between atoms: C2_2  and  C3_3 
REMARK    2  A    between atoms: C3_3  and  C4_4 
REMARK    3  A    between atoms: C4_4  and  O1_5 
REMARK    4  A    between atoms: O1_5  and  C5_6 
REMARK    5  A    between atoms: C10_13  and  C11_14 
REMARK    6  A    between atoms: C11_14  and  N1_15 
REMARK    7  A    between atoms: C12_16  and  O2_17 
REMARK    8  A    between atoms: C15_21  and  O3_22 
ROOT
HETATM    1  N1  UNL     1     -88.263 -15.018  13.879  1.00  0.00    -0.303 N 
HETATM    2  C12 UNL     1     -88.923 -15.709  14.829  1.00  0.00     0.161 A 
HETATM    3  C13 UNL     1     -88.149 -15.759  15.969  1.00  0.00     0.095 A 
HETATM    4  C14 UNL     1     -86.985 -15.090  15.741  1.00  0.00     0.035 A 
HETATM    5  C15 UNL     1     -87.101 -14.639  14.415  1.00  0.00     0.154 A 
HETATM    6  C16 UNL     1     -86.094 -15.105  16.934  1.00  0.00     0.119 A 
HETATM    7  C17 UNL     1     -85.889 -13.699  17.478  1.00  0.00     0.037 C 
HETATM    8  N2  UNL     1     -86.861 -15.848  17.899  1.00  0.00    -0.348 N 
ATOM      9  H2  UNL     1     -86.550 -16.049  18.849  1.00  0.00     0.163 HD
HETATM   10  C18 UNL     1     -88.102 -16.265  17.361  1.00  0.00     0.257 A 
HETATM   11  O4  UNL     1     -89.019 -16.929  17.899  1.00  0.00    -0.267 OA
ENDROOT
BRANCH   1  12
HETATM   12  C11 UNL     1     -88.799 -14.673  12.598  1.00  0.00     0.174 C 
BRANCH  12  13
HETATM   13  C10 UNL     1     -88.608 -15.650  11.496  1.00  0.00    -0.004 A 
HETATM   14  C5  UNL     1     -89.520 -16.562  11.086  1.00  0.00     0.094 A 
HETATM   15  C6  UNL     1     -89.125 -17.370   9.952  1.00  0.00     0.046 A 
HETATM   16 BR1  UNL     1     -90.354 -18.668   9.319  1.00  0.00    -0.048 Br
HETATM   17  C7  UNL     1     -87.930 -17.240   9.331  1.00  0.00     0.041 A 
HETATM   18  C8  UNL     1     -87.033 -16.294   9.793  1.00  0.00     0.013 A 
HETATM   19 BR2  UNL     1     -85.323 -16.071   8.949  1.00  0.00    -0.051 Br
HETATM   20  C9  UNL     1     -87.342 -15.508  10.848  1.00  0.00     0.030 A 
BRANCH  14  21
HETATM   21  O1  UNL     1     -90.694 -16.810  11.581  1.00  0.00    -0.349 OA
BRANCH  21  22
HETATM   22  C4  UNL     1     -91.854 -17.053  12.071  1.00  0.00     0.175 C 
BRANCH  22  23
HETATM   23  C3  UNL     1     -92.967 -16.467  11.161  1.00  0.00     0.026 C 
BRANCH  23  24
HETATM   24  C2  UNL     1     -93.692 -17.554  10.413  1.00  0.00    -0.002 C 
HETATM   25  C1  UNL     1     -93.701 -18.843  11.210  1.00  0.00     0.005 C 
ENDBRANCH  23  24
ENDBRANCH  22  23
ENDBRANCH  21  22
ENDBRANCH  14  21
ENDBRANCH  12  13
ENDBRANCH   1  12
BRANCH   2  26
HETATM   26  O2  UNL     1     -90.188 -16.318  14.768  1.00  0.00    -0.345 OA
ATOM     27  H2  UNL     1     -90.949 -16.069  14.257  1.00  0.00     0.219 HD
ENDBRANCH   2  26
BRANCH   5  28
HETATM   28  O3  UNL     1     -86.044 -13.892  13.877  1.00  0.00    -0.345 OA
ATOM     29  H3  UNL     1     -85.263 -14.167  13.412  1.00  0.00     0.219 HD
ENDBRANCH   5  28
TORSDOF 8
ENDMDL
MODEL 4
REMARK VINA RESULT: -7.122529862      1.602      2.541
REMARK  8 active torsions:
REMARK  status: ('A' for Active; 'I' for Inactive)
REMARK    1  A    between atoms: C2_2  and  C3_3 
REMARK    2  A    between atoms: C3_3  and  C4_4 
REMARK    3  A    between atoms: C4_4  and  O1_5 
REMARK    4  A    between atoms: O1_5  and  C5_6 
REMARK    5  A    between atoms: C10_13  and  C11_14 
REMARK    6  A    between atoms: C11_14  and  N1_15 
REMARK    7  A    between atoms: C12_16  and  O2_17 
REMARK    8  A    between atoms: C15_21  and  O3_22 
ROOT
HETATM    1  N1  UNL     1     -87.814 -17.128  11.383  1.00  0.00    -0.303 N 
HETATM    2  C12 UNL     1     -87.022 -16.301  12.094  1.00  0.00     0.161 A 
HETATM    3  C13 UNL     1     -87.733 -15.806  13.166  1.00  0.00     0.095 A 
HETATM    4  C14 UNL     1     -88.992 -16.326  13.139  1.00  0.00     0.035 A 
HETATM    5  C15 UNL     1     -88.997 -17.154  12.002  1.00  0.00     0.154 A 
HETATM    6  C16 UNL     1     -89.821 -15.833  14.272  1.00  0.00     0.119 A 
HETATM    7  C17 UNL     1     -90.209 -16.973  15.201  1.00  0.00     0.037 C 
HETATM    8  N2  UNL     1     -88.915 -14.968  14.981  1.00  0.00    -0.348 N 
ATOM      9  H2  UNL     1     -89.155 -14.457  15.830  1.00  0.00     0.163 HD
HETATM   10  C18 UNL     1     -87.649 -14.919  14.350  1.00  0.00     0.257 A 
HETATM   11  O4  UNL     1     -86.623 -14.276  14.675  1.00  0.00    -0.267 OA
ENDROOT
BRANCH   1  12
HETATM   12  C11 UNL     1     -87.387 -17.905  10.261  1.00  0.00     0.174 C 
BRANCH  12  13
HETATM   13  C10 UNL     1     -87.341 -17.226   8.942  1.00  0.00    -0.004 A 
HETATM   14  C5  UNL     1     -88.392 -17.055   8.107  1.00  0.00     0.094 A 
HETATM   15  C6  UNL     1     -88.113 -16.309   6.899  1.00  0.00     0.046 A 
HETATM   16 BR1  UNL     1     -89.540 -16.027   5.682  1.00  0.00    -0.048 Br
HETATM   17  C7  UNL     1     -86.890 -15.810   6.603  1.00  0.00     0.041 A 
HETATM   18  C8  UNL     1     -85.848 -16.017   7.490  1.00  0.00     0.013 A 
HETATM   19 BR2  UNL     1     -84.094 -15.332   7.116  1.00  0.00    -0.051 Br
HETATM   20  C9  UNL     1     -86.045 -16.705   8.636  1.00  0.00     0.030 A 
BRANCH  14  21
HETATM   21  O1  UNL     1     -89.611 -17.478   8.247  1.00  0.00    -0.349 OA
BRANCH  21  22
HETATM   22  C4  UNL     1     -90.817 -17.894   8.385  1.00  0.00     0.175 C 
BRANCH  22  23
HETATM   23  C3  UNL     1     -91.750 -16.733   8.823  1.00  0.00     0.026 C 
BRANCH  23  24
HETATM   24  C2  UNL     1     -92.988 -17.253   9.504  1.00  0.00    -0.002 C 
HETATM   25  C1  UNL     1     -93.586 -16.201  10.415  1.00  0.00     0.005 C 
ENDBRANCH  23  24
ENDBRANCH  22  23
ENDBRANCH  21  22
ENDBRANCH  14  21
ENDBRANCH  12  13
ENDBRANCH   1  12
BRANCH   2  26
HETATM   26  O2  UNL     1     -85.684 -15.936  11.863  1.00  0.00    -0.345 OA
ATOM     27  H2  UNL     1     -85.335 -15.273  11.281  1.00  0.00     0.219 HD
ENDBRANCH   2  26
BRANCH   5  28
HETATM   28  O3  UNL     1     -90.172 -17.854  11.700  1.00  0.00    -0.345 OA
ATOM     29  H3  UNL     1     -90.945 -17.591  11.214  1.00  0.00     0.219 HD
ENDBRANCH   5  28
TORSDOF 8
ENDMDL
MODEL 5
REMARK VINA RESULT: -7.089428521      3.203      4.444
REMARK  8 active torsions:
REMARK  status: ('A' for Active; 'I' for Inactive)
REMARK    1  A    between atoms: C2_2  and  C3_3 
REMARK    2  A    between atoms: C3_3  and  C4_4 
REMARK    3  A    between atoms: C4_4  and  O1_5 
REMARK    4  A    between atoms: O1_5  and  C5_6 
REMARK    5  A    between atoms: C10_13  and  C11_14 
REMARK    6  A    between atoms: C11_14  and  N1_15 
REMARK    7  A    between atoms: C12_16  and  O2_17 
REMARK    8  A    between atoms: C15_21  and  O3_22 
ROOT
HETATM    1  N1  UNL     1     -88.631 -15.197  14.901  1.00  0.00    -0.303 N 
HETATM    2  C12 UNL     1     -87.480 -14.781  15.465  1.00  0.00     0.161 A 
HETATM    3  C13 UNL     1     -87.211 -15.562  16.569  1.00  0.00     0.095 A 
HETATM    4  C14 UNL     1     -88.203 -16.485  16.708  1.00  0.00     0.035 A 
HETATM    5  C15 UNL     1     -89.073 -16.220  15.635  1.00  0.00     0.154 A 
HETATM    6  C16 UNL     1     -87.979 -17.366  17.887  1.00  0.00     0.119 A 
HETATM    7  C17 UNL     1     -87.761 -18.809  17.456  1.00  0.00     0.037 C 
HETATM    8  N2  UNL     1     -86.741 -16.870  18.428  1.00  0.00    -0.348 N 
ATOM      9  H2  UNL     1     -86.281 -17.254  19.253  1.00  0.00     0.163 HD
HETATM   10  C18 UNL     1     -86.245 -15.783  17.671  1.00  0.00     0.257 A 
HETATM   11  O4  UNL     1     -85.207 -15.102  17.843  1.00  0.00    -0.267 OA
ENDROOT
BRANCH   1  12
HETATM   12  C11 UNL     1     -89.172 -14.690  13.677  1.00  0.00     0.174 C 
BRANCH  12  13
HETATM   13  C10 UNL     1     -88.764 -15.369  12.421  1.00  0.00    -0.004 A 
HETATM   14  C5  UNL     1     -89.512 -16.261  11.731  1.00  0.00     0.094 A 
HETATM   15  C6  UNL     1     -88.924 -16.747  10.501  1.00  0.00     0.046 A 
HETATM   16 BR1  UNL     1     -89.916 -17.997   9.477  1.00  0.00    -0.048 Br
HETATM   17  C7  UNL     1     -87.708 -16.351  10.055  1.00  0.00     0.041 A 
HETATM   18  C8  UNL     1     -86.984 -15.440  10.803  1.00  0.00     0.013 A 
HETATM   19 BR2  UNL     1     -85.254 -14.848  10.216  1.00  0.00    -0.051 Br
HETATM   20  C9  UNL     1     -87.479 -14.948  11.960  1.00  0.00     0.030 A 
BRANCH  14  21
HETATM   21  O1  UNL     1     -90.681 -16.740  12.031  1.00  0.00    -0.349 OA
BRANCH  21  22
HETATM   22  C4  UNL     1     -91.836 -17.212  12.329  1.00  0.00     0.175 C 
BRANCH  22  23
HETATM   23  C3  UNL     1     -92.935 -16.577  11.434  1.00  0.00     0.026 C 
BRANCH  23  24
HETATM   24  C2  UNL     1     -93.567 -17.603  10.532  1.00  0.00    -0.002 C 
HETATM   25  C1  UNL     1     -93.566 -18.970  11.186  1.00  0.00     0.005 C 
ENDBRANCH  23  24
ENDBRANCH  22  23
ENDBRANCH  21  22
ENDBRANCH  14  21
ENDBRANCH  12  13
ENDBRANCH   1  12
BRANCH   2  26
HETATM   26  O2  UNL     1     -86.624 -13.738  15.072  1.00  0.00    -0.345 OA
ATOM     27  H2  UNL     1     -85.682 -13.666  15.168  1.00  0.00     0.219 HD
ENDBRANCH   2  26
BRANCH   5  28
HETATM   28  O3  UNL     1     -90.211 -17.025  15.494  1.00  0.00    -0.345 OA
ATOM     29  H3  UNL     1     -90.935 -17.188  16.087  1.00  0.00     0.219 HD
ENDBRANCH   5  28
TORSDOF 8
ENDMDL
