MODEL 1
REMARK VINA RESULT: -9.074558584      0.000      0.000
REMARK  11 active torsions:
REMARK  status: ('A' for Active; 'I' for Inactive)
REMARK    1  A    between atoms: C4_4  and  N1_5 
REMARK    2  A    between atoms: C6_7  and  C7_8 
REMARK    3  A    between atoms: C7_8  and  N2_9 
REMARK    4  A    between atoms: C7_8  and  C12_15 
REMARK    5  A    between atoms: N2_9  and  C8_11 
REMARK       I    between atoms: C12_15  and  N3_17 
REMARK    6  A    between atoms: N3_17  and  C13_19 
REMARK    7  A    between atoms: C17_26  and  C18_27 
REMARK    8  A    between atoms: C20_32  and  N5_33 
REMARK    9  A    between atoms: N5_33  and  C21_35 
REMARK   10  A    between atoms: C21_35  and  C22_36 
REMARK   11  A    between atoms: C22_36  and  O2_38 
ROOT
HETATM    1  N1  UNL     1     -88.409 -12.803   8.215  1.00  0.00    -0.317 N 
HETATM    2  C5  UNL     1     -89.376 -13.130   9.114  1.00  0.00     0.111 A 
HETATM    3  C6  UNL     1     -90.608 -13.080   8.514  1.00  0.00     0.014 A 
HETATM    4  C16 UNL     1     -90.358 -12.708   7.215  1.00  0.00     0.050 A 
HETATM    5  C17 UNL     1     -88.975 -12.542   7.049  1.00  0.00     0.124 A 
ENDROOT
BRANCH   3   6
HETATM    6  C7  UNL     1     -91.982 -13.348   9.091  1.00  0.00     0.109 C 
BRANCH   6   7
HETATM    7  N2  UNL     1     -92.350 -14.673   9.083  1.00  0.00    -0.377 N 
ATOM      8  H2  UNL     1     -93.235 -14.850   8.609  1.00  0.00     0.160 HD
BRANCH   7   9
HETATM    9  C8  UNL     1     -91.768 -15.787   9.583  1.00  0.00     0.019 C 
HETATM   10  C9  UNL     1     -91.298 -16.718   8.449  1.00  0.00     0.037 C 
HETATM   11  C10 UNL     1     -90.693 -15.807  10.595  1.00  0.00     0.037 C 
HETATM   12  C11 UNL     1     -92.909 -16.670  10.185  1.00  0.00     0.037 C 
ENDBRANCH   7   9
ENDBRANCH   6   7
BRANCH   6  13
HETATM   13  C12 UNL     1     -92.351 -12.454  10.184  1.00  0.00     0.274 C 
HETATM   14  O1  UNL     1     -92.472 -11.213   9.965  1.00  0.00    -0.266 OA
HETATM   15  N3  UNL     1     -92.612 -12.779  11.523  1.00  0.00    -0.302 N 
ATOM     16  H3  UNL     1     -93.575 -12.985  11.788  1.00  0.00     0.171 HD
BRANCH  15  17
HETATM   17  C13 UNL     1     -91.689 -12.832  12.451  1.00  0.00     0.151 A 
HETATM   18  N4  UNL     1     -91.592 -13.708  13.450  1.00  0.00    -0.346 N 
HETATM   19  C14 UNL     1     -90.588 -13.609  14.283  1.00  0.00     0.097 A 
ATOM     20  H4  UNL     1     -92.289 -14.444  13.564  1.00  0.00     0.167 HD
HETATM   21  C15 UNL     1     -89.690 -12.600  14.083  1.00  0.00     0.070 A 
HETATM   22  S1  UNL     1     -90.326 -11.834  12.695  1.00  0.00    -0.064 SA
ENDBRANCH  15  17
ENDBRANCH   6  13
ENDBRANCH   3   6
BRANCH   1  23
HETATM   23  C4  UNL     1     -86.998 -12.731   8.466  1.00  0.00     0.044 A 
HETATM   24  C3  UNL     1     -86.404 -13.399   9.528  1.00  0.00     0.054 A 
HETATM   25  C2  UNL     1     -85.044 -13.283   9.704  1.00  0.00     0.009 A 
HETATM   26  C1  UNL     1     -84.365 -13.972  10.831  1.00  0.00     0.068 C 
HETATM   27  N6  UNL     1     -84.287 -12.552   8.881  1.00  0.00    -0.346 N 
HETATM   28  C20 UNL     1     -84.816 -11.886   7.836  1.00  0.00     0.103 A 
ATOM     29  H6  UNL     1     -83.283 -12.497   9.048  1.00  0.00     0.167 HD
HETATM   30  C19 UNL     1     -86.173 -11.984   7.643  1.00  0.00     0.078 A 
BRANCH  28  31
HETATM   31  N5  UNL     1     -84.016 -11.221   7.085  1.00  0.00    -0.374 N 
ATOM     32  H5  UNL     1     -84.045 -10.203   7.134  1.00  0.00     0.161 HD
BRANCH  31  33
HETATM   33  C21 UNL     1     -83.076 -11.831   6.174  1.00  0.00     0.152 C 
BRANCH  33  34
HETATM   34  C22 UNL     1     -83.257 -11.144   4.825  1.00  0.00     0.132 C 
HETATM   35  C23 UNL     1     -82.152 -11.568   3.915  1.00  0.00     0.041 C 
BRANCH  34  36
HETATM   36  O2  UNL     1     -84.527 -11.347   4.300  1.00  0.00    -0.394 OA
ATOM     37  H2  UNL     1     -85.175 -10.774   4.693  1.00  0.00     0.210 HD
ENDBRANCH  34  36
ENDBRANCH  33  34
ENDBRANCH  31  33
ENDBRANCH  28  31
ENDBRANCH   1  23
BRANCH   5  38
HETATM   38  C18 UNL     1     -88.440 -12.155   5.728  1.00  0.00     0.433 C 
HETATM   39  F1  UNL     1     -89.520 -12.160   4.821  1.00  0.00    -0.165 F 
HETATM   40  F2  UNL     1     -87.525 -13.098   5.294  1.00  0.00    -0.165 F 
HETATM   41  F3  UNL     1     -87.876 -10.937   5.641  1.00  0.00    -0.165 F 
ENDBRANCH   5  38
TORSDOF 11
ENDMDL
MODEL 2
REMARK VINA RESULT: -9.053418937      2.079      3.492
REMARK  11 active torsions:
REMARK  status: ('A' for Active; 'I' for Inactive)
REMARK    1  A    between atoms: C4_4  and  N1_5 
REMARK    2  A    between atoms: C6_7  and  C7_8 
REMARK    3  A    between atoms: C7_8  and  N2_9 
REMARK    4  A    between atoms: C7_8  and  C12_15 
REMARK    5  A    between atoms: N2_9  and  C8_11 
REMARK       I    between atoms: C12_15  and  N3_17 
REMARK    6  A    between atoms: N3_17  and  C13_19 
REMARK    7  A    between atoms: C17_26  and  C18_27 
REMARK    8  A    between atoms: C20_32  and  N5_33 
REMARK    9  A    between atoms: N5_33  and  C21_35 
REMARK   10  A    between atoms: C21_35  and  C22_36 
REMARK   11  A    between atoms: C22_36  and  O2_38 
ROOT
HETATM    1  N1  UNL     1     -88.448 -12.492   8.523  1.00  0.00    -0.317 N 
HETATM    2  C5  UNL     1     -89.439 -12.872   9.374  1.00  0.00     0.111 A 
HETATM    3  C6  UNL     1     -90.611 -13.039   8.681  1.00  0.00     0.014 A 
HETATM    4  C16 UNL     1     -90.299 -12.747   7.375  1.00  0.00     0.050 A 
HETATM    5  C17 UNL     1     -88.940 -12.409   7.298  1.00  0.00     0.124 A 
ENDROOT
BRANCH   3   6
HETATM    6  C7  UNL     1     -91.983 -13.443   9.177  1.00  0.00     0.109 C 
BRANCH   6   7
HETATM    7  N2  UNL     1     -92.251 -14.788   9.071  1.00  0.00    -0.377 N 
ATOM      8  H2  UNL     1     -93.085 -14.998   8.525  1.00  0.00     0.160 HD
BRANCH   7   9
HETATM    9  C8  UNL     1     -91.623 -15.886   9.550  1.00  0.00     0.019 C 
HETATM   10  C9  UNL     1     -91.034 -16.728   8.403  1.00  0.00     0.037 C 
HETATM   11  C10 UNL     1     -90.602 -15.887  10.618  1.00  0.00     0.037 C 
HETATM   12  C11 UNL     1     -92.732 -16.868  10.048  1.00  0.00     0.037 C 
ENDBRANCH   7   9
ENDBRANCH   6   7
BRANCH   6  13
HETATM   13  C12 UNL     1     -92.463 -12.650  10.304  1.00  0.00     0.274 C 
HETATM   14  O1  UNL     1     -92.764 -11.433  10.132  1.00  0.00    -0.266 OA
HETATM   15  N3  UNL     1     -92.660 -13.056  11.632  1.00  0.00    -0.302 N 
ATOM     16  H3  UNL     1     -93.580 -13.408  11.896  1.00  0.00     0.171 HD
BRANCH  15  17
HETATM   17  C13 UNL     1     -91.728 -13.010  12.552  1.00  0.00     0.151 A 
HETATM   18  N4  UNL     1     -91.517 -13.878  13.539  1.00  0.00    -0.346 N 
HETATM   19  C14 UNL     1     -90.523 -13.669  14.364  1.00  0.00     0.097 A 
ATOM     20  H4  UNL     1     -92.121 -14.692  13.651  1.00  0.00     0.167 HD
HETATM   21  C15 UNL     1     -89.753 -12.559  14.169  1.00  0.00     0.070 A 
HETATM   22  S1  UNL     1     -90.490 -11.859  12.795  1.00  0.00    -0.064 SA
ENDBRANCH  15  17
ENDBRANCH   6  13
ENDBRANCH   3   6
BRANCH   1  23
HETATM   23  C4  UNL     1     -87.086 -12.208   8.870  1.00  0.00     0.044 A 
HETATM   24  C3  UNL     1     -86.046 -12.374   7.966  1.00  0.00     0.054 A 
HETATM   25  C2  UNL     1     -84.763 -12.080   8.371  1.00  0.00     0.009 A 
HETATM   26  C1  UNL     1     -83.617 -12.251   7.442  1.00  0.00     0.068 C 
HETATM   27  N6  UNL     1     -84.499 -11.636   9.603  1.00  0.00    -0.346 N 
HETATM   28  C20 UNL     1     -85.473 -11.457  10.516  1.00  0.00     0.103 A 
ATOM     29  H6  UNL     1     -83.534 -11.428   9.859  1.00  0.00     0.167 HD
HETATM   30  C19 UNL     1     -86.760 -11.749  10.135  1.00  0.00     0.078 A 
BRANCH  28  31
HETATM   31  N5  UNL     1     -85.134 -11.012  11.671  1.00  0.00    -0.374 N 
ATOM     32  H5  UNL     1     -84.366 -11.474  12.158  1.00  0.00     0.161 HD
BRANCH  31  33
HETATM   33  C21 UNL     1     -85.779  -9.895  12.321  1.00  0.00     0.152 C 
BRANCH  33  34
HETATM   34  C22 UNL     1     -86.639 -10.471  13.441  1.00  0.00     0.132 C 
HETATM   35  C23 UNL     1     -85.762 -11.234  14.379  1.00  0.00     0.041 C 
BRANCH  34  36
HETATM   36  O2  UNL     1     -87.414  -9.499  14.061  1.00  0.00    -0.394 OA
ATOM     37  H2  UNL     1     -87.160  -9.361  14.966  1.00  0.00     0.210 HD
ENDBRANCH  34  36
ENDBRANCH  33  34
ENDBRANCH  31  33
ENDBRANCH  28  31
ENDBRANCH   1  23
BRANCH   5  38
HETATM   38  C18 UNL     1     -88.347 -12.065   5.990  1.00  0.00     0.433 C 
HETATM   39  F1  UNL     1     -89.399 -12.014   5.054  1.00  0.00    -0.165 F 
HETATM   40  F2  UNL     1     -87.477 -13.063   5.588  1.00  0.00    -0.165 F 
HETATM   41  F3  UNL     1     -87.709 -10.882   5.912  1.00  0.00    -0.165 F 
ENDBRANCH   5  38
TORSDOF 11
ENDMDL
MODEL 3
REMARK VINA RESULT: -9.020320702      1.242      1.373
REMARK  11 active torsions:
REMARK  status: ('A' for Active; 'I' for Inactive)
REMARK    1  A    between atoms: C4_4  and  N1_5 
REMARK    2  A    between atoms: C6_7  and  C7_8 
REMARK    3  A    between atoms: C7_8  and  N2_9 
REMARK    4  A    between atoms: C7_8  and  C12_15 
REMARK    5  A    between atoms: N2_9  and  C8_11 
REMARK       I    between atoms: C12_15  and  N3_17 
REMARK    6  A    between atoms: N3_17  and  C13_19 
REMARK    7  A    between atoms: C17_26  and  C18_27 
REMARK    8  A    between atoms: C20_32  and  N5_33 
REMARK    9  A    between atoms: N5_33  and  C21_35 
REMARK   10  A    between atoms: C21_35  and  C22_36 
REMARK   11  A    between atoms: C22_36  and  O2_38 
ROOT
HETATM    1  N1  UNL     1     -88.156 -12.409   8.573  1.00  0.00    -0.317 N 
HETATM    2  C5  UNL     1     -89.182 -12.801   9.374  1.00  0.00     0.111 A 
HETATM    3  C6  UNL     1     -90.323 -12.958   8.629  1.00  0.00     0.014 A 
HETATM    4  C16 UNL     1     -89.955 -12.646   7.342  1.00  0.00     0.050 A 
HETATM    5  C17 UNL     1     -88.594 -12.307   7.329  1.00  0.00     0.124 A 
ENDROOT
BRANCH   3   6
HETATM    6  C7  UNL     1     -91.715 -13.369   9.058  1.00  0.00     0.109 C 
BRANCH   6   7
HETATM    7  N2  UNL     1     -91.968 -14.717   8.946  1.00  0.00    -0.377 N 
ATOM      8  H2  UNL     1     -92.734 -14.938   8.311  1.00  0.00     0.160 HD
BRANCH   7   9
HETATM    9  C8  UNL     1     -91.399 -15.804   9.514  1.00  0.00     0.019 C 
HETATM   10  C9  UNL     1     -90.809 -16.740   8.444  1.00  0.00     0.037 C 
HETATM   11  C10 UNL     1     -90.414 -15.775  10.614  1.00  0.00     0.037 C 
HETATM   12  C11 UNL     1     -92.562 -16.710  10.036  1.00  0.00     0.037 C 
ENDBRANCH   7   9
ENDBRANCH   6   7
BRANCH   6  13
HETATM   13  C12 UNL     1     -92.256 -12.574  10.157  1.00  0.00     0.274 C 
HETATM   14  O1  UNL     1     -92.755 -11.435   9.920  1.00  0.00    -0.266 OA
HETATM   15  N3  UNL     1     -92.315 -12.901  11.519  1.00  0.00    -0.302 N 
ATOM     16  H3  UNL     1     -93.153 -13.369  11.866  1.00  0.00     0.171 HD
BRANCH  15  17
HETATM   17  C13 UNL     1     -91.356 -12.639  12.372  1.00  0.00     0.151 A 
HETATM   18  N4  UNL     1     -90.599 -11.544  12.432  1.00  0.00    -0.346 N 
HETATM   19  C14 UNL     1     -89.688 -11.456  13.366  1.00  0.00     0.097 A 
ATOM     20  H4  UNL     1     -90.728 -10.788  11.761  1.00  0.00     0.167 HD
HETATM   21  C15 UNL     1     -89.557 -12.503  14.233  1.00  0.00     0.070 A 
HETATM   22  S1  UNL     1     -90.762 -13.576  13.669  1.00  0.00    -0.064 SA
ENDBRANCH  15  17
ENDBRANCH   6  13
ENDBRANCH   3   6
BRANCH   1  23
HETATM   23  C4  UNL     1     -86.810 -12.130   8.983  1.00  0.00     0.044 A 
HETATM   24  C3  UNL     1     -86.524 -11.478  10.175  1.00  0.00     0.054 A 
HETATM   25  C2  UNL     1     -85.207 -11.247  10.503  1.00  0.00     0.009 A 
HETATM   26  C1  UNL     1     -84.852 -10.545  11.763  1.00  0.00     0.068 C 
HETATM   27  N6  UNL     1     -84.205 -11.636   9.709  1.00  0.00    -0.346 N 
HETATM   28  C20 UNL     1     -84.431 -12.272   8.544  1.00  0.00     0.103 A 
ATOM     29  H6  UNL     1     -83.244 -11.445   9.993  1.00  0.00     0.167 HD
HETATM   30  C19 UNL     1     -85.738 -12.510   8.194  1.00  0.00     0.078 A 
BRANCH  28  31
HETATM   31  N5  UNL     1     -83.411 -12.626   7.849  1.00  0.00    -0.374 N 
ATOM     32  H5  UNL     1     -83.099 -13.595   7.914  1.00  0.00     0.161 HD
BRANCH  31  33
HETATM   33  C21 UNL     1     -82.681 -11.731   6.982  1.00  0.00     0.152 C 
BRANCH  33  34
HETATM   34  C22 UNL     1     -82.889 -12.230   5.556  1.00  0.00     0.132 C 
HETATM   35  C23 UNL     1     -84.006 -11.457   4.934  1.00  0.00     0.041 C 
BRANCH  34  36
HETATM   36  O2  UNL     1     -81.713 -12.213   4.816  1.00  0.00    -0.394 OA
ATOM     37  H2  UNL     1     -81.122 -12.914   5.065  1.00  0.00     0.210 HD
ENDBRANCH  34  36
ENDBRANCH  33  34
ENDBRANCH  31  33
ENDBRANCH  28  31
ENDBRANCH   1  23
BRANCH   5  38
HETATM   38  C18 UNL     1     -87.945 -11.944   6.054  1.00  0.00     0.433 C 
HETATM   39  F1  UNL     1     -88.968 -11.739   5.106  1.00  0.00    -0.165 F 
HETATM   40  F2  UNL     1     -87.163 -12.994   5.605  1.00  0.00    -0.165 F 
HETATM   41  F3  UNL     1     -87.199 -10.824   6.057  1.00  0.00    -0.165 F 
ENDBRANCH   5  38
TORSDOF 11
ENDMDL
MODEL 4
REMARK VINA RESULT: -8.865735615      1.975      3.442
REMARK  11 active torsions:
REMARK  status: ('A' for Active; 'I' for Inactive)
REMARK    1  A    between atoms: C4_4  and  N1_5 
REMARK    2  A    between atoms: C6_7  and  C7_8 
REMARK    3  A    between atoms: C7_8  and  N2_9 
REMARK    4  A    between atoms: C7_8  and  C12_15 
REMARK    5  A    between atoms: N2_9  and  C8_11 
REMARK       I    between atoms: C12_15  and  N3_17 
REMARK    6  A    between atoms: N3_17  and  C13_19 
REMARK    7  A    between atoms: C17_26  and  C18_27 
REMARK    8  A    between atoms: C20_32  and  N5_33 
REMARK    9  A    between atoms: N5_33  and  C21_35 
REMARK   10  A    between atoms: C21_35  and  C22_36 
REMARK   11  A    between atoms: C22_36  and  O2_38 
ROOT
HETATM    1  N1  UNL     1     -88.248 -12.804   8.208  1.00  0.00    -0.317 N 
HETATM    2  C5  UNL     1     -89.224 -13.117   9.102  1.00  0.00     0.111 A 
HETATM    3  C6  UNL     1     -90.453 -13.043   8.498  1.00  0.00     0.014 A 
HETATM    4  C16 UNL     1     -90.191 -12.672   7.201  1.00  0.00     0.050 A 
HETATM    5  C17 UNL     1     -88.805 -12.529   7.040  1.00  0.00     0.124 A 
ENDROOT
BRANCH   3   6
HETATM    6  C7  UNL     1     -91.833 -13.289   9.069  1.00  0.00     0.109 C 
BRANCH   6   7
HETATM    7  N2  UNL     1     -92.211 -14.612   9.087  1.00  0.00    -0.377 N 
ATOM      8  H2  UNL     1     -93.093 -14.792   8.609  1.00  0.00     0.160 HD
BRANCH   7   9
HETATM    9  C8  UNL     1     -91.641 -15.719   9.615  1.00  0.00     0.019 C 
HETATM   10  C9  UNL     1     -91.063 -16.622   8.509  1.00  0.00     0.037 C 
HETATM   11  C10 UNL     1     -90.646 -15.728  10.706  1.00  0.00     0.037 C 
HETATM   12  C11 UNL     1     -92.803 -16.637  10.117  1.00  0.00     0.037 C 
ENDBRANCH   7   9
ENDBRANCH   6   7
BRANCH   6  13
HETATM   13  C12 UNL     1     -92.204 -12.369  10.140  1.00  0.00     0.274 C 
HETATM   14  O1  UNL     1     -92.586 -11.196   9.854  1.00  0.00    -0.266 OA
HETATM   15  N3  UNL     1     -92.209 -12.600  11.522  1.00  0.00    -0.302 N 
ATOM     16  H3  UNL     1     -93.068 -12.944  11.950  1.00  0.00     0.171 HD
BRANCH  15  17
HETATM   17  C13 UNL     1     -91.170 -12.400  12.296  1.00  0.00     0.151 A 
HETATM   18  N4  UNL     1     -90.204 -11.496  12.141  1.00  0.00    -0.346 N 
HETATM   19  C14 UNL     1     -89.243 -11.439  13.027  1.00  0.00     0.097 A 
ATOM     20  H4  UNL     1     -90.212 -10.860  11.344  1.00  0.00     0.167 HD
HETATM   21  C15 UNL     1     -89.282 -12.320  14.070  1.00  0.00     0.070 A 
HETATM   22  S1  UNL     1     -90.709 -13.198  13.734  1.00  0.00    -0.064 SA
ENDBRANCH  15  17
ENDBRANCH   6  13
ENDBRANCH   3   6
BRANCH   1  23
HETATM   23  C4  UNL     1     -86.837 -12.757   8.464  1.00  0.00     0.044 A 
HETATM   24  C3  UNL     1     -85.998 -11.875   7.798  1.00  0.00     0.054 A 
HETATM   25  C2  UNL     1     -84.654 -11.886   8.097  1.00  0.00     0.009 A 
HETATM   26  C1  UNL     1     -83.715 -10.968   7.405  1.00  0.00     0.068 C 
HETATM   27  N6  UNL     1     -84.144 -12.717   9.011  1.00  0.00    -0.346 N 
HETATM   28  C20 UNL     1     -84.917 -13.590   9.685  1.00  0.00     0.103 A 
ATOM     29  H6  UNL     1     -83.143 -12.690   9.203  1.00  0.00     0.167 HD
HETATM   30  C19 UNL     1     -86.261 -13.599   9.399  1.00  0.00     0.078 A 
BRANCH  28  31
HETATM   31  N5  UNL     1     -84.350 -14.341  10.558  1.00  0.00    -0.374 N 
ATOM     32  H5  UNL     1     -84.002 -15.251  10.255  1.00  0.00     0.161 HD
BRANCH  31  33
HETATM   33  C21 UNL     1     -84.175 -13.971  11.943  1.00  0.00     0.152 C 
BRANCH  33  34
HETATM   34  C22 UNL     1     -85.155 -14.812  12.752  1.00  0.00     0.132 C 
HETATM   35  C23 UNL     1     -84.391 -15.615  13.753  1.00  0.00     0.041 C 
BRANCH  34  36
HETATM   36  O2  UNL     1     -86.173 -14.046  13.306  1.00  0.00    -0.394 OA
ATOM     37  H2  UNL     1     -86.820 -14.577  13.754  1.00  0.00     0.210 HD
ENDBRANCH  34  36
ENDBRANCH  33  34
ENDBRANCH  31  33
ENDBRANCH  28  31
ENDBRANCH   1  23
BRANCH   5  38
HETATM   38  C18 UNL     1     -88.258 -12.149   5.722  1.00  0.00     0.433 C 
HETATM   39  F1  UNL     1     -89.319 -12.212   4.796  1.00  0.00    -0.165 F 
HETATM   40  F2  UNL     1     -87.300 -13.064   5.325  1.00  0.00    -0.165 F 
HETATM   41  F3  UNL     1     -87.738 -10.912   5.622  1.00  0.00    -0.165 F 
ENDBRANCH   5  38
TORSDOF 11
ENDMDL
MODEL 5
REMARK VINA RESULT: -8.561446678      2.300      7.568
REMARK  11 active torsions:
REMARK  status: ('A' for Active; 'I' for Inactive)
REMARK    1  A    between atoms: C4_4  and  N1_5 
REMARK    2  A    between atoms: C6_7  and  C7_8 
REMARK    3  A    between atoms: C7_8  and  N2_9 
REMARK    4  A    between atoms: C7_8  and  C12_15 
REMARK    5  A    between atoms: N2_9  and  C8_11 
REMARK       I    between atoms: C12_15  and  N3_17 
REMARK    6  A    between atoms: N3_17  and  C13_19 
REMARK    7  A    between atoms: C17_26  and  C18_27 
REMARK    8  A    between atoms: C20_32  and  N5_33 
REMARK    9  A    between atoms: N5_33  and  C21_35 
REMARK   10  A    between atoms: C21_35  and  C22_36 
REMARK   11  A    between atoms: C22_36  and  O2_38 
ROOT
HETATM    1  N1  UNL     1     -87.592 -12.856   8.475  1.00  0.00    -0.317 N 
HETATM    2  C5  UNL     1     -86.429 -13.019   9.160  1.00  0.00     0.111 A 
HETATM    3  C6  UNL     1     -85.388 -12.476   8.451  1.00  0.00     0.014 A 
HETATM    4  C16 UNL     1     -85.959 -11.974   7.306  1.00  0.00     0.050 A 
HETATM    5  C17 UNL     1     -87.339 -12.221   7.342  1.00  0.00     0.124 A 
ENDROOT
BRANCH   3   6
HETATM    6  C7  UNL     1     -83.913 -12.413   8.784  1.00  0.00     0.109 C 
BRANCH   6   7
HETATM    7  N2  UNL     1     -83.080 -12.642   7.714  1.00  0.00    -0.377 N 
ATOM      8  H2  UNL     1     -82.940 -13.631   7.507  1.00  0.00     0.160 HD
BRANCH   7   9
HETATM    9  C8  UNL     1     -82.411 -11.812   6.882  1.00  0.00     0.019 C 
HETATM   10  C9  UNL     1     -82.818 -12.054   5.416  1.00  0.00     0.037 C 
HETATM   11  C10 UNL     1     -82.313 -10.346   7.037  1.00  0.00     0.037 C 
HETATM   12  C11 UNL     1     -80.932 -12.314   6.825  1.00  0.00     0.037 C 
ENDBRANCH   7   9
ENDBRANCH   6   7
BRANCH   6  13
HETATM   13  C12 UNL     1     -83.581 -11.443   9.824  1.00  0.00     0.274 C 
HETATM   14  O1  UNL     1     -82.426 -11.451  10.343  1.00  0.00    -0.266 OA
HETATM   15  N3  UNL     1     -84.393 -10.437  10.365  1.00  0.00    -0.302 N 
ATOM     16  H3  UNL     1     -84.365  -9.512   9.937  1.00  0.00     0.171 HD
BRANCH  15  17
HETATM   17  C13 UNL     1     -85.188 -10.619  11.392  1.00  0.00     0.151 A 
HETATM   18  N4  UNL     1     -84.994 -11.423  12.436  1.00  0.00    -0.346 N 
HETATM   19  C14 UNL     1     -85.902 -11.467  13.377  1.00  0.00     0.097 A 
ATOM     20  H4  UNL     1     -84.153 -11.996  12.500  1.00  0.00     0.167 HD
HETATM   21  C15 UNL     1     -87.010 -10.683  13.233  1.00  0.00     0.070 A 
HETATM   22  S1  UNL     1     -86.698  -9.905  11.744  1.00  0.00    -0.064 SA
ENDBRANCH  15  17
ENDBRANCH   6  13
ENDBRANCH   3   6
BRANCH   1  23
HETATM   23  C4  UNL     1     -88.894 -13.300   8.882  1.00  0.00     0.044 A 
HETATM   24  C3  UNL     1     -89.435 -14.498   8.435  1.00  0.00     0.054 A 
HETATM   25  C2  UNL     1     -90.690 -14.860   8.871  1.00  0.00     0.009 A 
HETATM   26  C1  UNL     1     -91.315 -16.127   8.414  1.00  0.00     0.068 C 
HETATM   27  N6  UNL     1     -91.392 -14.092   9.710  1.00  0.00    -0.346 N 
HETATM   28  C20 UNL     1     -90.910 -12.923  10.172  1.00  0.00     0.103 A 
ATOM     29  H6  UNL     1     -92.317 -14.401  10.009  1.00  0.00     0.167 HD
HETATM   30  C19 UNL     1     -89.660 -12.540   9.748  1.00  0.00     0.078 A 
BRANCH  28  31
HETATM   31  N5  UNL     1     -91.642 -12.255  10.988  1.00  0.00    -0.374 N 
ATOM     32  H5  UNL     1     -91.844 -11.281  10.765  1.00  0.00     0.161 HD
BRANCH  31  33
HETATM   33  C21 UNL     1     -92.197 -12.805  12.202  1.00  0.00     0.152 C 
BRANCH  33  34
HETATM   34  C22 UNL     1     -91.029 -13.352  13.015  1.00  0.00     0.132 C 
HETATM   35  C23 UNL     1     -90.431 -12.239  13.810  1.00  0.00     0.041 C 
BRANCH  34  36
HETATM   36  O2  UNL     1     -91.390 -14.456  13.777  1.00  0.00    -0.394 OA
ATOM     37  H2  UNL     1     -91.780 -15.145  13.250  1.00  0.00     0.210 HD
ENDBRANCH  34  36
ENDBRANCH  33  34
ENDBRANCH  31  33
ENDBRANCH  28  31
ENDBRANCH   1  23
BRANCH   5  38
HETATM   38  C18 UNL     1     -88.192 -11.764   6.226  1.00  0.00     0.433 C 
HETATM   39  F1  UNL     1     -87.990 -12.655   5.153  1.00  0.00    -0.165 F 
HETATM   40  F2  UNL     1     -87.791 -10.507   5.808  1.00  0.00    -0.165 F 
HETATM   41  F3  UNL     1     -89.518 -11.738   6.455  1.00  0.00    -0.165 F 
ENDBRANCH   5  38
TORSDOF 11
ENDMDL
