MODEL 1
REMARK VINA RESULT: -8.509150331      0.000      0.000
REMARK  10 active torsions:
REMARK  status: ('A' for Active; 'I' for Inactive)
REMARK    1  A    between atoms: C2_2  and  C24_37 
REMARK    2  A    between atoms: C3_3  and  C4_4 
REMARK    3  A    between atoms: C4_4  and  C5_5 
REMARK    4  A    between atoms: C7_8  and  C8_9 
REMARK    5  A    between atoms: C17_18  and  C18_19 
REMARK    6  A    between atoms: C19_24  and  N3_25 
REMARK    7  A    between atoms: C21_30  and  O3_31 
REMARK    8  A    between atoms: C22_33  and  C23_34 
REMARK    9  A    between atoms: C23_34  and  O4_35 
REMARK   10  A    between atoms: C24_37  and  C25_38 
ROOT
HETATM    1  C5  UNL     1      96.817  13.778  11.701  1.00  0.00     0.140 C 
HETATM    2  O1  UNL     1      96.250  14.317  10.516  1.00  0.00    -0.349 OA
HETATM    3  C6  UNL     1      94.911  14.065  10.228  1.00  0.00     0.049 C 
HETATM    4  C7  UNL     1      94.392  14.687   9.141  1.00  0.00     0.032 C 
HETATM    5  C20 UNL     1      94.082  13.182  11.042  1.00  0.00     0.096 C 
HETATM    6  C21 UNL     1      94.801  12.573  12.188  1.00  0.00     0.133 C 
HETATM    7  C22 UNL     1      95.793  13.625  12.766  1.00  0.00     0.068 C 
ENDROOT
BRANCH   4   8
HETATM    8  C8  UNL     1      93.019  14.441   8.821  1.00  0.00     0.006 C 
HETATM    9  C9  UNL     1      92.511  14.492   7.566  1.00  0.00    -0.075 C 
HETATM   10  C10 UNL     1      93.394  14.823   6.467  1.00  0.00     0.034 C 
HETATM   11  C15 UNL     1      91.097  14.168   7.469  1.00  0.00     0.024 C 
HETATM   12  C11 UNL     1      92.690  15.140   5.195  1.00  0.00     0.005 C 
HETATM   13  C12 UNL     1      91.219  15.440   5.355  1.00  0.00     0.011 C 
HETATM   14  C13 UNL     1      90.511  14.334   6.052  1.00  0.00    -0.026 C 
HETATM   15  C14 UNL     1      90.483  12.987   5.327  1.00  0.00     0.016 C 
HETATM   16  C17 UNL     1      89.251  14.691   6.738  1.00  0.00     0.072 C 
HETATM   17  C16 UNL     1      90.104  15.272   7.860  1.00  0.00     0.023 C 
BRANCH  16  18
HETATM   18  C18 UNL     1      88.282  15.567   6.091  1.00  0.00     0.147 A 
HETATM   19  N1  UNL     1      87.277  15.408   5.291  1.00  0.00    -0.280 N 
HETATM   20  N2  UNL     1      86.743  16.634   5.026  1.00  0.00    -0.263 N 
ATOM     21  H1  UNL     1      86.941  14.518   4.922  1.00  0.00     0.189 HD
HETATM   22  C19 UNL     1      87.332  17.523   5.591  1.00  0.00     0.238 A 
ATOM     23  H2  UNL     1      85.937  16.784   4.419  1.00  0.00     0.190 HD
HETATM   24  O2  UNL     1      88.358  16.901   6.315  1.00  0.00    -0.264 OA
BRANCH  22  25
HETATM   25  N3  UNL     1      87.430  18.872   5.821  1.00  0.00    -0.364 N 
ATOM     26  H32 UNL     1      88.390  19.147   5.614  1.00  0.00     0.159 HD
ATOM     27  H31 UNL     1      86.952  19.727   6.107  1.00  0.00     0.159 HD
ENDBRANCH  22  25
ENDBRANCH  16  18
ENDBRANCH   4   8
BRANCH   1  28
HETATM   28  C4  UNL     1      98.122  14.386  11.992  1.00  0.00     0.060 C 
BRANCH  28  29
HETATM   29  C3  UNL     1      98.419  15.591  11.180  1.00  0.00    -0.022 C 
HETATM   30  C2  UNL     1      99.528  15.950  10.583  1.00  0.00    -0.087 C 
HETATM   31  C1  UNL     1     100.741  15.121  10.659  1.00  0.00     0.043 C 
BRANCH  30  32
HETATM   32  C24 UNL     1      99.501  17.191   9.776  1.00  0.00     0.045 C 
BRANCH  32  33
HETATM   33  C25 UNL     1      99.555  18.481  10.478  1.00  0.00    -0.009 C 
HETATM   34  C26 UNL     1      98.394  18.699  11.465  1.00  0.00     0.018 C 
HETATM   35  C27 UNL     1      99.409  19.598   9.366  1.00  0.00     0.015 C 
HETATM   36  C28 UNL     1     100.899  19.753   9.478  1.00  0.00     0.039 C 
HETATM   37  C29 UNL     1     100.765  19.165  10.896  1.00  0.00     0.178 C 
HETATM   38  F1  UNL     1     101.887  18.527  11.314  1.00  0.00    -0.249 F 
ENDBRANCH  32  33
ENDBRANCH  30  32
ENDBRANCH  28  29
ENDBRANCH   1  28
BRANCH   6  39
HETATM   39  O3  UNL     1      93.989  12.175  13.219  1.00  0.00    -0.395 OA
ATOM     40  H3  UNL     1      94.304  11.416  13.696  1.00  0.00     0.210 HD
ENDBRANCH   6  39
BRANCH   7  41
HETATM   41  C23 UNL     1      94.985  14.830  13.119  1.00  0.00     0.173 C 
BRANCH  41  42
HETATM   42  O4  UNL     1      94.551  14.811  14.438  1.00  0.00    -0.400 OA
ATOM     43  H4  UNL     1      93.975  15.538  14.642  1.00  0.00     0.209 HD
ENDBRANCH  41  42
ENDBRANCH   7  41
TORSDOF 10
ENDMDL
MODEL 2
REMARK VINA RESULT: -8.453328789      5.410     11.229
REMARK  10 active torsions:
REMARK  status: ('A' for Active; 'I' for Inactive)
REMARK    1  A    between atoms: C2_2  and  C24_37 
REMARK    2  A    between atoms: C3_3  and  C4_4 
REMARK    3  A    between atoms: C4_4  and  C5_5 
REMARK    4  A    between atoms: C7_8  and  C8_9 
REMARK    5  A    between atoms: C17_18  and  C18_19 
REMARK    6  A    between atoms: C19_24  and  N3_25 
REMARK    7  A    between atoms: C21_30  and  O3_31 
REMARK    8  A    between atoms: C22_33  and  C23_34 
REMARK    9  A    between atoms: C23_34  and  O4_35 
REMARK   10  A    between atoms: C24_37  and  C25_38 
ROOT
HETATM    1  C5  UNL     1      90.317  13.942   5.852  1.00  0.00     0.140 C 
HETATM    2  O1  UNL     1      90.949  14.183   7.099  1.00  0.00    -0.349 OA
HETATM    3  C6  UNL     1      92.329  14.366   7.137  1.00  0.00     0.049 C 
HETATM    4  C7  UNL     1      92.869  14.696   8.337  1.00  0.00     0.032 C 
HETATM    5  C20 UNL     1      93.176  14.219   5.959  1.00  0.00     0.096 C 
HETATM    6  C21 UNL     1      92.434  13.848   4.729  1.00  0.00     0.133 C 
HETATM    7  C22 UNL     1      91.061  14.582   4.738  1.00  0.00     0.068 C 
ENDROOT
BRANCH   4   8
HETATM    8  C8  UNL     1      94.286  14.884   8.403  1.00  0.00     0.006 C 
HETATM    9  C9  UNL     1      94.951  15.257   9.524  1.00  0.00    -0.075 C 
HETATM   10  C10 UNL     1      94.197  15.493  10.737  1.00  0.00     0.034 C 
HETATM   11  C15 UNL     1      96.394  15.349   9.372  1.00  0.00     0.024 C 
HETATM   12  C11 UNL     1      94.971  16.174  11.810  1.00  0.00     0.005 C 
HETATM   13  C12 UNL     1      96.242  16.838  11.337  1.00  0.00     0.011 C 
HETATM   14  C13 UNL     1      97.124  15.877  10.624  1.00  0.00    -0.026 C 
HETATM   15  C14 UNL     1      97.665  14.711  11.454  1.00  0.00     0.016 C 
HETATM   16  C17 UNL     1      98.095  16.459   9.673  1.00  0.00     0.072 C 
HETATM   17  C16 UNL     1      96.940  16.612   8.690  1.00  0.00     0.023 C 
BRANCH  16  18
HETATM   18  C18 UNL     1      98.853  17.652  10.030  1.00  0.00     0.147 A 
HETATM   19  N1  UNL     1      99.016  18.361  11.101  1.00  0.00    -0.280 N 
HETATM   20  N2  UNL     1      99.867  19.386  10.810  1.00  0.00    -0.263 N 
ATOM     21  H1  UNL     1      98.583  18.183  12.008  1.00  0.00     0.189 HD
HETATM   22  C19 UNL     1     100.234  19.365   9.661  1.00  0.00     0.238 A 
ATOM     23  H2  UNL     1     100.160  20.090  11.487  1.00  0.00     0.190 HD
HETATM   24  O2  UNL     1      99.611  18.251   9.081  1.00  0.00    -0.264 OA
BRANCH  22  25
HETATM   25  N3  UNL     1     100.989  19.965   8.684  1.00  0.00    -0.364 N 
ATOM     26  H32 UNL     1     100.362  20.195   7.914  1.00  0.00     0.159 HD
ATOM     27  H31 UNL     1     101.913  20.287   8.396  1.00  0.00     0.159 HD
ENDBRANCH  22  25
ENDBRANCH  16  18
ENDBRANCH   4   8
BRANCH   1  28
HETATM   28  C4  UNL     1      88.857  14.077   5.958  1.00  0.00     0.060 C 
BRANCH  28  29
HETATM   29  C3  UNL     1      88.101  13.083   5.158  1.00  0.00    -0.022 C 
HETATM   30  C2  UNL     1      87.998  11.786   5.309  1.00  0.00    -0.087 C 
HETATM   31  C1  UNL     1      88.696  11.085   6.396  1.00  0.00     0.043 C 
BRANCH  30  32
HETATM   32  C24 UNL     1      87.103  11.058   4.380  1.00  0.00     0.045 C 
BRANCH  32  33
HETATM   33  C25 UNL     1      87.610  10.721   3.042  1.00  0.00    -0.009 C 
HETATM   34  C26 UNL     1      86.849  11.416   1.898  1.00  0.00     0.018 C 
HETATM   35  C27 UNL     1      87.373   9.168   2.857  1.00  0.00     0.015 C 
HETATM   36  C28 UNL     1      88.832   9.015   3.180  1.00  0.00     0.039 C 
HETATM   37  C29 UNL     1      88.999  10.472   2.704  1.00  0.00     0.178 C 
HETATM   38  F1  UNL     1      90.045  11.105   3.292  1.00  0.00    -0.249 F 
ENDBRANCH  32  33
ENDBRANCH  30  32
ENDBRANCH  28  29
ENDBRANCH   1  28
BRANCH   6  39
HETATM   39  O3  UNL     1      93.067  14.187   3.561  1.00  0.00    -0.395 OA
ATOM     40  H3  UNL     1      92.638  14.878   3.068  1.00  0.00     0.210 HD
ENDBRANCH   6  39
BRANCH   7  41
HETATM   41  C23 UNL     1      91.356  16.042   4.859  1.00  0.00     0.173 C 
BRANCH  41  42
HETATM   42  O4  UNL     1      91.258  16.706   3.644  1.00  0.00    -0.400 OA
ATOM     43  H4  UNL     1      92.046  17.190   3.429  1.00  0.00     0.209 HD
ENDBRANCH  41  42
ENDBRANCH   7  41
TORSDOF 10
ENDMDL
MODEL 3
REMARK VINA RESULT: -8.229409437      2.129      3.049
REMARK  10 active torsions:
REMARK  status: ('A' for Active; 'I' for Inactive)
REMARK    1  A    between atoms: C2_2  and  C24_37 
REMARK    2  A    between atoms: C3_3  and  C4_4 
REMARK    3  A    between atoms: C4_4  and  C5_5 
REMARK    4  A    between atoms: C7_8  and  C8_9 
REMARK    5  A    between atoms: C17_18  and  C18_19 
REMARK    6  A    between atoms: C19_24  and  N3_25 
REMARK    7  A    between atoms: C21_30  and  O3_31 
REMARK    8  A    between atoms: C22_33  and  C23_34 
REMARK    9  A    between atoms: C23_34  and  O4_35 
REMARK   10  A    between atoms: C24_37  and  C25_38 
ROOT
HETATM    1  C5  UNL     1      96.773  15.988   8.897  1.00  0.00     0.140 C 
HETATM    2  O1  UNL     1      96.061  15.807   7.683  1.00  0.00    -0.349 OA
HETATM    3  C6  UNL     1      94.867  15.092   7.695  1.00  0.00     0.049 C 
HETATM    4  C7  UNL     1      94.175  15.039   6.530  1.00  0.00     0.032 C 
HETATM    5  C20 UNL     1      94.358  14.428   8.890  1.00  0.00     0.096 C 
HETATM    6  C21 UNL     1      95.236  14.575  10.077  1.00  0.00     0.133 C 
HETATM    7  C22 UNL     1      95.853  16.004  10.063  1.00  0.00     0.068 C 
ENDROOT
BRANCH   4   8
HETATM    8  C8  UNL     1      92.945  14.306   6.515  1.00  0.00     0.006 C 
HETATM    9  C9  UNL     1      91.879  14.628   5.745  1.00  0.00    -0.075 C 
HETATM   10  C10 UNL     1      91.964  15.788   4.882  1.00  0.00     0.034 C 
HETATM   11  C15 UNL     1      90.749  13.721   5.861  1.00  0.00     0.024 C 
HETATM   12  C11 UNL     1      90.660  16.220   4.313  1.00  0.00     0.005 C 
HETATM   13  C12 UNL     1      89.452  15.646   5.015  1.00  0.00     0.011 C 
HETATM   14  C13 UNL     1      89.506  14.161   5.060  1.00  0.00    -0.026 C 
HETATM   15  C14 UNL     1      89.461  13.441   3.711  1.00  0.00     0.016 C 
HETATM   16  C17 UNL     1      88.725  13.508   6.133  1.00  0.00     0.072 C 
HETATM   17  C16 UNL     1      89.846  13.891   7.092  1.00  0.00     0.023 C 
BRANCH  16  18
HETATM   18  C18 UNL     1      87.374  13.963   6.443  1.00  0.00     0.147 A 
HETATM   19  N1  UNL     1      86.855  14.918   7.147  1.00  0.00    -0.280 N 
HETATM   20  N2  UNL     1      85.498  14.832   7.049  1.00  0.00    -0.263 N 
ATOM     21  H1  UNL     1      87.373  15.614   7.683  1.00  0.00     0.189 HD
HETATM   22  C19 UNL     1      85.146  13.914   6.351  1.00  0.00     0.238 A 
ATOM     23  H2  UNL     1      84.854  15.472   7.513  1.00  0.00     0.190 HD
HETATM   24  O2  UNL     1      86.324  13.294   5.912  1.00  0.00    -0.264 OA
BRANCH  22  25
HETATM   25  N3  UNL     1      84.093  13.217   5.813  1.00  0.00    -0.364 N 
ATOM     26  H32 UNL     1      83.238  13.594   6.223  1.00  0.00     0.159 HD
ATOM     27  H31 UNL     1      83.792  12.484   5.171  1.00  0.00     0.159 HD
ENDBRANCH  22  25
ENDBRANCH  16  18
ENDBRANCH   4   8
BRANCH   1  28
HETATM   28  C4  UNL     1      97.825  17.003   8.754  1.00  0.00     0.060 C 
BRANCH  28  29
HETATM   29  C3  UNL     1      98.355  17.508  10.044  1.00  0.00    -0.022 C 
HETATM   30  C2  UNL     1      99.221  18.461  10.283  1.00  0.00    -0.087 C 
HETATM   31  C1  UNL     1      99.844  19.219   9.188  1.00  0.00     0.043 C 
BRANCH  30  32
HETATM   32  C24 UNL     1      99.506  18.788  11.698  1.00  0.00     0.045 C 
BRANCH  32  33
HETATM   33  C25 UNL     1     100.459  17.944  12.433  1.00  0.00    -0.009 C 
HETATM   34  C26 UNL     1      99.853  17.260  13.672  1.00  0.00     0.018 C 
HETATM   35  C27 UNL     1     101.590  18.913  12.966  1.00  0.00     0.015 C 
HETATM   36  C28 UNL     1     102.413  18.413  11.813  1.00  0.00     0.039 C 
HETATM   37  C29 UNL     1     101.522  17.156  11.837  1.00  0.00     0.178 C 
HETATM   38  F1  UNL     1     101.426  16.552  10.626  1.00  0.00    -0.249 F 
ENDBRANCH  32  33
ENDBRANCH  30  32
ENDBRANCH  28  29
ENDBRANCH   1  28
BRANCH   6  39
HETATM   39  O3  UNL     1      94.593  14.424  11.279  1.00  0.00    -0.395 OA
ATOM     40  H3  UNL     1      95.131  14.055  11.969  1.00  0.00     0.210 HD
ENDBRANCH   6  39
BRANCH   7  41
HETATM   41  C23 UNL     1      94.711  16.966  10.022  1.00  0.00     0.173 C 
BRANCH  41  42
HETATM   42  O4  UNL     1      94.243  17.288  11.289  1.00  0.00    -0.400 OA
ATOM     43  H4  UNL     1      93.770  18.112  11.302  1.00  0.00     0.209 HD
ENDBRANCH  41  42
ENDBRANCH   7  41
TORSDOF 10
ENDMDL
MODEL 4
REMARK VINA RESULT: -8.157035171      0.940      1.240
REMARK  10 active torsions:
REMARK  status: ('A' for Active; 'I' for Inactive)
REMARK    1  A    between atoms: C2_2  and  C24_37 
REMARK    2  A    between atoms: C3_3  and  C4_4 
REMARK    3  A    between atoms: C4_4  and  C5_5 
REMARK    4  A    between atoms: C7_8  and  C8_9 
REMARK    5  A    between atoms: C17_18  and  C18_19 
REMARK    6  A    between atoms: C19_24  and  N3_25 
REMARK    7  A    between atoms: C21_30  and  O3_31 
REMARK    8  A    between atoms: C22_33  and  C23_34 
REMARK    9  A    between atoms: C23_34  and  O4_35 
REMARK   10  A    between atoms: C24_37  and  C25_38 
ROOT
HETATM    1  C5  UNL     1      96.514  13.588  12.081  1.00  0.00     0.140 C 
HETATM    2  O1  UNL     1      96.076  14.165  10.860  1.00  0.00    -0.349 OA
HETATM    3  C6  UNL     1      94.764  13.956  10.443  1.00  0.00     0.049 C 
HETATM    4  C7  UNL     1      94.366  14.614   9.326  1.00  0.00     0.032 C 
HETATM    5  C20 UNL     1      93.840  13.081  11.155  1.00  0.00     0.096 C 
HETATM    6  C21 UNL     1      94.431  12.430  12.351  1.00  0.00     0.133 C 
HETATM    7  C22 UNL     1      95.392  13.442  13.041  1.00  0.00     0.068 C 
ENDROOT
BRANCH   4   8
HETATM    8  C8  UNL     1      93.023  14.412   8.873  1.00  0.00     0.006 C 
HETATM    9  C9  UNL     1      92.638  14.497   7.577  1.00  0.00    -0.075 C 
HETATM   10  C10 UNL     1      93.630  14.821   6.573  1.00  0.00     0.034 C 
HETATM   11  C15 UNL     1      91.232  14.215   7.341  1.00  0.00     0.024 C 
HETATM   12  C11 UNL     1      93.058  15.178   5.246  1.00  0.00     0.005 C 
HETATM   13  C12 UNL     1      91.587  15.518   5.273  1.00  0.00     0.011 C 
HETATM   14  C13 UNL     1      90.787  14.422   5.878  1.00  0.00    -0.026 C 
HETATM   15  C14 UNL     1      90.792  13.088   5.129  1.00  0.00     0.016 C 
HETATM   16  C17 UNL     1      89.477  14.802   6.450  1.00  0.00     0.072 C 
HETATM   17  C16 UNL     1      90.235  15.341   7.658  1.00  0.00     0.023 C 
BRANCH  16  18
HETATM   18  C18 UNL     1      88.598  15.717   5.731  1.00  0.00     0.147 A 
HETATM   19  N1  UNL     1      87.820  15.637   4.699  1.00  0.00    -0.280 N 
HETATM   20  N2  UNL     1      87.242  16.856   4.505  1.00  0.00    -0.263 N 
ATOM     21  H1  UNL     1      87.667  14.804   4.129  1.00  0.00     0.189 HD
HETATM   22  C19 UNL     1      87.597  17.668   5.322  1.00  0.00     0.238 A 
ATOM     23  H2  UNL     1      86.583  17.058   3.753  1.00  0.00     0.190 HD
HETATM   24  O2  UNL     1      88.489  16.994   6.167  1.00  0.00    -0.264 OA
BRANCH  22  25
HETATM   25  N3  UNL     1      87.506  18.962   5.772  1.00  0.00    -0.364 N 
ATOM     26  H32 UNL     1      86.523  19.229   5.732  1.00  0.00     0.159 HD
ATOM     27  H31 UNL     1      88.001  19.776   6.136  1.00  0.00     0.159 HD
ENDBRANCH  22  25
ENDBRANCH  16  18
ENDBRANCH   4   8
BRANCH   1  28
HETATM   28  C4  UNL     1      97.802  14.154  12.506  1.00  0.00     0.060 C 
BRANCH  28  29
HETATM   29  C3  UNL     1      97.972  15.587  12.163  1.00  0.00    -0.022 C 
HETATM   30  C2  UNL     1      98.816  16.470  12.636  1.00  0.00    -0.087 C 
HETATM   31  C1  UNL     1      99.791  16.115  13.677  1.00  0.00     0.043 C 
BRANCH  30  32
HETATM   32  C24 UNL     1      98.792  17.826  12.041  1.00  0.00     0.045 C 
BRANCH  32  33
HETATM   33  C25 UNL     1      99.865  18.198  11.108  1.00  0.00    -0.009 C 
HETATM   34  C26 UNL     1     100.979  19.044  11.750  1.00  0.00     0.018 C 
HETATM   35  C27 UNL     1      99.194  19.109  10.002  1.00  0.00     0.015 C 
HETATM   36  C28 UNL     1      99.202  17.881   9.137  1.00  0.00     0.039 C 
HETATM   37  C29 UNL     1     100.360  17.374  10.019  1.00  0.00     0.178 C 
HETATM   38  F1  UNL     1     100.435  16.021  10.070  1.00  0.00    -0.249 F 
ENDBRANCH  32  33
ENDBRANCH  30  32
ENDBRANCH  28  29
ENDBRANCH   1  28
BRANCH   6  39
HETATM   39  O3  UNL     1      93.516  12.035  13.292  1.00  0.00    -0.395 OA
ATOM     40  H3  UNL     1      93.430  11.093  13.385  1.00  0.00     0.210 HD
ENDBRANCH   6  39
BRANCH   7  41
HETATM   41  C23 UNL     1      94.585  14.662  13.344  1.00  0.00     0.173 C 
BRANCH  41  42
HETATM   42  O4  UNL     1      93.989  14.608  14.596  1.00  0.00    -0.400 OA
ATOM     43  H4  UNL     1      93.121  14.993  14.603  1.00  0.00     0.209 HD
ENDBRANCH  41  42
ENDBRANCH   7  41
TORSDOF 10
ENDMDL
MODEL 5
REMARK VINA RESULT: -8.126252074      5.138      6.683
REMARK  10 active torsions:
REMARK  status: ('A' for Active; 'I' for Inactive)
REMARK    1  A    between atoms: C2_2  and  C24_37 
REMARK    2  A    between atoms: C3_3  and  C4_4 
REMARK    3  A    between atoms: C4_4  and  C5_5 
REMARK    4  A    between atoms: C7_8  and  C8_9 
REMARK    5  A    between atoms: C17_18  and  C18_19 
REMARK    6  A    between atoms: C19_24  and  N3_25 
REMARK    7  A    between atoms: C21_30  and  O3_31 
REMARK    8  A    between atoms: C22_33  and  C23_34 
REMARK    9  A    between atoms: C23_34  and  O4_35 
REMARK   10  A    between atoms: C24_37  and  C25_38 
ROOT
HETATM    1  C5  UNL     1      96.001  14.770  10.939  1.00  0.00     0.140 C 
HETATM    2  O1  UNL     1      94.683  14.735  10.414  1.00  0.00    -0.349 OA
HETATM    3  C6  UNL     1      93.804  13.746  10.848  1.00  0.00     0.049 C 
HETATM    4  C7  UNL     1      92.528  13.821  10.395  1.00  0.00     0.032 C 
HETATM    5  C20 UNL     1      94.208  12.673  11.749  1.00  0.00     0.096 C 
HETATM    6  C21 UNL     1      95.637  12.729  12.145  1.00  0.00     0.133 C 
HETATM    7  C22 UNL     1      96.046  14.221  12.318  1.00  0.00     0.068 C 
ENDROOT
BRANCH   4   8
HETATM    8  C8  UNL     1      91.606  12.813  10.823  1.00  0.00     0.006 C 
HETATM    9  C9  UNL     1      90.754  12.957  11.867  1.00  0.00    -0.075 C 
HETATM   10  C10 UNL     1      90.769  14.198  12.614  1.00  0.00     0.034 C 
HETATM   11  C15 UNL     1      89.879  11.820  12.099  1.00  0.00     0.024 C 
HETATM   12  C11 UNL     1      90.021  14.141  13.899  1.00  0.00     0.005 C 
HETATM   13  C12 UNL     1      89.719  12.743  14.384  1.00  0.00     0.011 C 
HETATM   14  C13 UNL     1      88.993  11.956  13.354  1.00  0.00    -0.026 C 
HETATM   15  C14 UNL     1      87.603  12.466  12.968  1.00  0.00     0.016 C 
HETATM   16  C17 UNL     1      89.104  10.485  13.452  1.00  0.00     0.072 C 
HETATM   17  C16 UNL     1      90.488  10.613  12.829  1.00  0.00     0.023 C 
BRANCH  16  18
HETATM   18  C18 UNL     1      88.994   9.822  14.746  1.00  0.00     0.147 A 
HETATM   19  N1  UNL     1      89.822   9.443  15.667  1.00  0.00    -0.280 N 
HETATM   20  N2  UNL     1      89.106   8.865  16.673  1.00  0.00    -0.263 N 
ATOM     21  H1  UNL     1      90.835   9.556  15.644  1.00  0.00     0.189 HD
HETATM   22  C19 UNL     1      87.921   8.859  16.448  1.00  0.00     0.238 A 
ATOM     23  H2  UNL     1      89.524   8.483  17.520  1.00  0.00     0.190 HD
HETATM   24  O2  UNL     1      87.766   9.474  15.198  1.00  0.00    -0.264 OA
BRANCH  22  25
HETATM   25  N3  UNL     1      86.669   8.503  16.886  1.00  0.00    -0.364 N 
ATOM     26  H32 UNL     1      86.685   7.500  17.069  1.00  0.00     0.159 HD
ATOM     27  H31 UNL     1      85.724   8.812  17.114  1.00  0.00     0.159 HD
ENDBRANCH  22  25
ENDBRANCH  16  18
ENDBRANCH   4   8
BRANCH   1  28
HETATM   28  C4  UNL     1      96.675  16.033  10.608  1.00  0.00     0.060 C 
BRANCH  28  29
HETATM   29  C3  UNL     1      98.043  16.150  11.169  1.00  0.00    -0.022 C 
HETATM   30  C2  UNL     1      98.508  16.959  12.088  1.00  0.00    -0.087 C 
HETATM   31  C1  UNL     1      97.645  17.958  12.736  1.00  0.00     0.043 C 
BRANCH  30  32
HETATM   32  C24 UNL     1      99.922  16.792  12.495  1.00  0.00     0.045 C 
BRANCH  32  33
HETATM   33  C25 UNL     1     100.973  17.227  11.565  1.00  0.00    -0.009 C 
HETATM   34  C26 UNL     1     101.691  16.066  10.853  1.00  0.00     0.018 C 
HETATM   35  C27 UNL     1     102.068  17.957  12.443  1.00  0.00     0.015 C 
HETATM   36  C28 UNL     1     101.449  19.238  11.958  1.00  0.00     0.039 C 
HETATM   37  C29 UNL     1     100.935  18.429  10.751  1.00  0.00     0.178 C 
HETATM   38  F1  UNL     1      99.799  18.942  10.214  1.00  0.00    -0.249 F 
ENDBRANCH  32  33
ENDBRANCH  30  32
ENDBRANCH  28  29
ENDBRANCH   1  28
BRANCH   6  39
HETATM   39  O3  UNL     1      95.924  12.091  13.325  1.00  0.00    -0.395 OA
ATOM     40  H3  UNL     1      96.316  11.232  13.222  1.00  0.00     0.210 HD
ENDBRANCH   6  39
BRANCH   7  41
HETATM   41  C23 UNL     1      95.109  14.809  13.321  1.00  0.00     0.173 C 
BRANCH  41  42
HETATM   42  O4  UNL     1      95.701  14.981  14.565  1.00  0.00    -0.400 OA
ATOM     43  H4  UNL     1      95.858  15.895  14.770  1.00  0.00     0.209 HD
ENDBRANCH  41  42
ENDBRANCH   7  41
TORSDOF 10
ENDMDL
