MODEL 1
REMARK VINA RESULT: -7.560603101      0.000      0.000
REMARK  12 active torsions:
REMARK  status: ('A' for Active; 'I' for Inactive)
REMARK    1  A    between atoms: C2_2  and  C3_3 
REMARK    2  A    between atoms: C3_3  and  C13_20 
REMARK    3  A    between atoms: N1_4  and  N2_6 
REMARK    4  A    between atoms: N2_6  and  C4_8 
REMARK    5  A    between atoms: C4_8  and  O1_15 
REMARK    6  A    between atoms: N3_9  and  C5_11 
REMARK    7  A    between atoms: O1_15  and  C9_16 
REMARK    8  A    between atoms: C17_26  and  C18_27 
REMARK    9  A    between atoms: C18_27  and  N5_28 
REMARK   10  A    between atoms: C18_27  and  C20_31 
REMARK   11  A    between atoms: N5_28  and  O3_29 
REMARK   12  A    between atoms: C26_38  and  O4_39 
ROOT
HETATM    1  C13 UNL     1     -88.822 -17.945   8.704  1.00  0.00     0.038 A 
HETATM    2  C14 UNL     1     -89.486 -19.039   8.268  1.00  0.00     0.110 A 
HETATM    3  N4  UNL     1     -90.374 -19.709   9.027  1.00  0.00    -0.327 N 
HETATM    4  C15 UNL     1     -91.054 -20.865   8.506  1.00  0.00     0.159 C 
HETATM    5  C16 UNL     1     -90.597 -19.268  10.256  1.00  0.00     0.263 A 
HETATM    6  O2  UNL     1     -91.425 -19.906  10.943  1.00  0.00    -0.267 OA
HETATM    7  C17 UNL     1     -89.973 -18.153  10.818  1.00  0.00     0.110 A 
HETATM    8  C26 UNL     1     -89.069 -17.483  10.011  1.00  0.00     0.098 A 
ENDROOT
BRANCH   1   9
HETATM    9  C3  UNL     1     -87.851 -17.258   7.800  1.00  0.00     0.040 C 
HETATM   10  N1  UNL     1     -86.660 -17.189   8.015  1.00  0.00    -0.301 N 
ATOM     11  H1  UNL     1     -86.591 -17.682   8.905  1.00  0.00     0.186 HD
BRANCH   9  12
HETATM   12  C2  UNL     1     -88.524 -16.671   6.578  1.00  0.00     0.055 C 
HETATM   13  C1  UNL     1     -87.688 -16.730   5.351  1.00  0.00     0.011 C 
ENDBRANCH   9  12
BRANCH  10  14
HETATM   14  N2  UNL     1     -85.414 -16.872   7.806  1.00  0.00    -0.265 N 
ATOM     15  H2  UNL     1     -85.284 -16.085   7.170  1.00  0.00     0.190 HD
BRANCH  14  16
HETATM   16  C4  UNL     1     -84.185 -17.430   8.310  1.00  0.00     0.235 C 
HETATM   17  N3  UNL     1     -83.038 -17.280   7.855  1.00  0.00    -0.347 N 
ATOM     18  H3  UNL     1     -82.346 -17.787   8.405  1.00  0.00     0.163 HD
BRANCH  17  19
HETATM   19  C5  UNL     1     -82.449 -16.599   6.788  1.00  0.00     0.022 C 
HETATM   20  C6  UNL     1     -82.266 -15.134   7.230  1.00  0.00     0.037 C 
HETATM   21  C7  UNL     1     -81.058 -17.159   6.516  1.00  0.00     0.037 C 
HETATM   22  C8  UNL     1     -83.191 -16.551   5.485  1.00  0.00     0.037 C 
ENDBRANCH  17  19
BRANCH  16  23
HETATM   23  O1  UNL     1     -84.322 -18.233   9.445  1.00  0.00    -0.311 OA
BRANCH  23  24
HETATM   24  C9  UNL     1     -84.309 -17.641  10.729  1.00  0.00     0.060 C 
HETATM   25  C10 UNL     1     -85.462 -18.283  11.475  1.00  0.00     0.046 C 
HETATM   26  C11 UNL     1     -83.061 -18.008  11.524  1.00  0.00     0.046 C 
HETATM   27  C12 UNL     1     -84.547 -16.171  10.703  1.00  0.00     0.046 C 
ENDBRANCH  23  24
ENDBRANCH  16  23
ENDBRANCH  14  16
ENDBRANCH  10  14
ENDBRANCH   1   9
BRANCH   8  28
HETATM   28  O4  UNL     1     -88.429 -16.400  10.429  1.00  0.00    -0.359 OA
ATOM     29  H4  UNL     1     -88.437 -16.200  11.358  1.00  0.00     0.217 HD
ENDBRANCH   8  28
BRANCH   7  30
HETATM   30  C18 UNL     1     -90.416 -17.692  12.110  1.00  0.00     0.168 C 
BRANCH  30  31
HETATM   31  N5  UNL     1     -91.560 -17.240  12.253  1.00  0.00    -0.280 NA
BRANCH  31  32
HETATM   32  O3  UNL     1     -92.679 -16.806  12.383  1.00  0.00    -0.214 OA
HETATM   33  C19 UNL     1     -93.833 -16.739  11.569  1.00  0.00     0.255 C 
ENDBRANCH  31  32
ENDBRANCH  30  31
BRANCH  30  34
HETATM   34  C20 UNL     1     -89.663 -17.694  13.378  1.00  0.00     0.009 A 
HETATM   35  C21 UNL     1     -88.687 -18.670  13.551  1.00  0.00     0.016 A 
HETATM   36  C22 UNL     1     -87.801 -18.677  14.615  1.00  0.00     0.024 A 
HETATM   37  C23 UNL     1     -87.874 -17.677  15.557  1.00  0.00     0.034 A 
HETATM   38 CL1  UNL     1     -86.770 -17.657  16.911  1.00  0.00    -0.084 Cl
HETATM   39  C24 UNL     1     -88.832 -16.704  15.402  1.00  0.00     0.024 A 
HETATM   40  C25 UNL     1     -89.723 -16.713  14.315  1.00  0.00     0.016 A 
ENDBRANCH  30  34
ENDBRANCH   7  30
TORSDOF 12
ENDMDL
MODEL 2
REMARK VINA RESULT: -7.425350179      1.399      1.649
REMARK  12 active torsions:
REMARK  status: ('A' for Active; 'I' for Inactive)
REMARK    1  A    between atoms: C2_2  and  C3_3 
REMARK    2  A    between atoms: C3_3  and  C13_20 
REMARK    3  A    between atoms: N1_4  and  N2_6 
REMARK    4  A    between atoms: N2_6  and  C4_8 
REMARK    5  A    between atoms: C4_8  and  O1_15 
REMARK    6  A    between atoms: N3_9  and  C5_11 
REMARK    7  A    between atoms: O1_15  and  C9_16 
REMARK    8  A    between atoms: C17_26  and  C18_27 
REMARK    9  A    between atoms: C18_27  and  N5_28 
REMARK   10  A    between atoms: C18_27  and  C20_31 
REMARK   11  A    between atoms: N5_28  and  O3_29 
REMARK   12  A    between atoms: C26_38  and  O4_39 
ROOT
HETATM    1  C13 UNL     1     -88.442 -17.490   8.824  1.00  0.00     0.038 A 
HETATM    2  C14 UNL     1     -89.483 -18.252   8.419  1.00  0.00     0.110 A 
HETATM    3  N4  UNL     1     -90.375 -18.789   9.274  1.00  0.00    -0.327 N 
HETATM    4  C15 UNL     1     -91.465 -19.589   8.783  1.00  0.00     0.159 C 
HETATM    5  C16 UNL     1     -90.214 -18.554  10.568  1.00  0.00     0.263 A 
HETATM    6  O2  UNL     1     -91.053 -19.063  11.343  1.00  0.00    -0.267 OA
HETATM    7  C17 UNL     1     -89.180 -17.785  11.106  1.00  0.00     0.110 A 
HETATM    8  C26 UNL     1     -88.282 -17.244  10.201  1.00  0.00     0.098 A 
ENDROOT
BRANCH   1   9
HETATM    9  C3  UNL     1     -87.495 -16.931   7.813  1.00  0.00     0.040 C 
HETATM   10  N1  UNL     1     -86.292 -16.903   7.957  1.00  0.00    -0.301 N 
ATOM     11  H1  UNL     1     -86.194 -17.321   8.882  1.00  0.00     0.186 HD
BRANCH   9  12
HETATM   12  C2  UNL     1     -88.210 -16.418   6.582  1.00  0.00     0.055 C 
HETATM   13  C1  UNL     1     -87.523 -16.756   5.308  1.00  0.00     0.011 C 
ENDBRANCH   9  12
BRANCH  10  14
HETATM   14  N2  UNL     1     -85.046 -16.667   7.655  1.00  0.00    -0.265 N 
ATOM     15  H2  UNL     1     -84.919 -15.946   6.944  1.00  0.00     0.190 HD
BRANCH  14  16
HETATM   16  C4  UNL     1     -83.817 -17.238   8.142  1.00  0.00     0.235 C 
HETATM   17  N3  UNL     1     -82.695 -17.197   7.608  1.00  0.00    -0.347 N 
ATOM     18  H3  UNL     1     -81.995 -17.684   8.167  1.00  0.00     0.163 HD
BRANCH  17  19
HETATM   19  C5  UNL     1     -82.143 -16.661   6.444  1.00  0.00     0.022 C 
HETATM   20  C6  UNL     1     -81.892 -15.163   6.709  1.00  0.00     0.037 C 
HETATM   21  C7  UNL     1     -80.786 -17.297   6.169  1.00  0.00     0.037 C 
HETATM   22  C8  UNL     1     -82.950 -16.730   5.181  1.00  0.00     0.037 C 
ENDBRANCH  17  19
BRANCH  16  23
HETATM   23  O1  UNL     1     -83.921 -17.914   9.360  1.00  0.00    -0.311 OA
BRANCH  23  24
HETATM   24  C9  UNL     1     -83.568 -17.256  10.560  1.00  0.00     0.060 C 
HETATM   25  C10 UNL     1     -84.423 -17.901  11.633  1.00  0.00     0.046 C 
HETATM   26  C11 UNL     1     -82.127 -17.533  10.972  1.00  0.00     0.046 C 
HETATM   27  C12 UNL     1     -83.878 -15.799  10.547  1.00  0.00     0.046 C 
ENDBRANCH  23  24
ENDBRANCH  16  23
ENDBRANCH  14  16
ENDBRANCH  10  14
ENDBRANCH   1   9
BRANCH   8  28
HETATM   28  O4  UNL     1     -87.271 -16.482  10.593  1.00  0.00    -0.359 OA
ATOM     29  H4  UNL     1     -86.386 -16.786  10.430  1.00  0.00     0.217 HD
ENDBRANCH   8  28
BRANCH   7  30
HETATM   30  C18 UNL     1     -89.205 -17.483  12.515  1.00  0.00     0.168 C 
BRANCH  30  31
HETATM   31  N5  UNL     1     -89.522 -16.352  12.905  1.00  0.00    -0.280 NA
BRANCH  31  32
HETATM   32  O3  UNL     1     -89.821 -15.246  13.289  1.00  0.00    -0.214 OA
HETATM   33  C19 UNL     1     -89.111 -14.066  13.607  1.00  0.00     0.255 C 
ENDBRANCH  31  32
ENDBRANCH  30  31
BRANCH  30  34
HETATM   34  C20 UNL     1     -88.906 -18.389  13.640  1.00  0.00     0.009 A 
HETATM   35  C21 UNL     1     -88.123 -19.508  13.380  1.00  0.00     0.016 A 
HETATM   36  C22 UNL     1     -87.633 -20.339  14.374  1.00  0.00     0.024 A 
HETATM   37  C23 UNL     1     -87.924 -20.057  15.689  1.00  0.00     0.034 A 
HETATM   38 CL1  UNL     1     -87.319 -21.085  16.967  1.00  0.00    -0.084 Cl
HETATM   39  C24 UNL     1     -88.696 -18.955  15.964  1.00  0.00     0.024 A 
HETATM   40  C25 UNL     1     -89.184 -18.123  14.943  1.00  0.00     0.016 A 
ENDBRANCH  30  34
ENDBRANCH   7  30
TORSDOF 12
ENDMDL
MODEL 3
REMARK VINA RESULT: -7.410222595      0.734      2.683
REMARK  12 active torsions:
REMARK  status: ('A' for Active; 'I' for Inactive)
REMARK    1  A    between atoms: C2_2  and  C3_3 
REMARK    2  A    between atoms: C3_3  and  C13_20 
REMARK    3  A    between atoms: N1_4  and  N2_6 
REMARK    4  A    between atoms: N2_6  and  C4_8 
REMARK    5  A    between atoms: C4_8  and  O1_15 
REMARK    6  A    between atoms: N3_9  and  C5_11 
REMARK    7  A    between atoms: O1_15  and  C9_16 
REMARK    8  A    between atoms: C17_26  and  C18_27 
REMARK    9  A    between atoms: C18_27  and  N5_28 
REMARK   10  A    between atoms: C18_27  and  C20_31 
REMARK   11  A    between atoms: N5_28  and  O3_29 
REMARK   12  A    between atoms: C26_38  and  O4_39 
ROOT
HETATM    1  C13 UNL     1     -88.928 -17.866   8.689  1.00  0.00     0.038 A 
HETATM    2  C14 UNL     1     -89.552 -18.972   8.224  1.00  0.00     0.110 A 
HETATM    3  N4  UNL     1     -90.397 -19.707   8.972  1.00  0.00    -0.327 N 
HETATM    4  C15 UNL     1     -91.035 -20.873   8.421  1.00  0.00     0.159 C 
HETATM    5  C16 UNL     1     -90.619 -19.319  10.219  1.00  0.00     0.263 A 
HETATM    6  O2  UNL     1     -91.407 -20.016  10.896  1.00  0.00    -0.267 OA
HETATM    7  C17 UNL     1     -90.034 -18.198  10.812  1.00  0.00     0.110 A 
HETATM    8  C26 UNL     1     -89.173 -17.462  10.015  1.00  0.00     0.098 A 
ENDROOT
BRANCH   1   9
HETATM    9  C3  UNL     1     -88.003 -17.106   7.796  1.00  0.00     0.040 C 
HETATM   10  N1  UNL     1     -86.856 -16.837   8.083  1.00  0.00    -0.301 N 
ATOM     11  H1  UNL     1     -86.785 -17.245   9.014  1.00  0.00     0.186 HD
BRANCH   9  12
HETATM   12  C2  UNL     1     -88.658 -16.724   6.486  1.00  0.00     0.055 C 
HETATM   13  C1  UNL     1     -87.722 -16.711   5.332  1.00  0.00     0.011 C 
ENDBRANCH   9  12
BRANCH  10  14
HETATM   14  N2  UNL     1     -85.659 -16.346   7.930  1.00  0.00    -0.265 N 
ATOM     15  H2  UNL     1     -85.619 -15.521   7.331  1.00  0.00     0.190 HD
BRANCH  14  16
HETATM   16  C4  UNL     1     -84.381 -16.757   8.453  1.00  0.00     0.235 C 
HETATM   17  N3  UNL     1     -83.987 -16.698   9.631  1.00  0.00    -0.347 N 
ATOM     18  H3  UNL     1     -83.037 -17.057   9.727  1.00  0.00     0.163 HD
BRANCH  17  19
HETATM   19  C5  UNL     1     -84.503 -16.271  10.855  1.00  0.00     0.022 C 
HETATM   20  C6  UNL     1     -85.419 -17.395  11.378  1.00  0.00     0.037 C 
HETATM   21  C7  UNL     1     -83.376 -16.109  11.868  1.00  0.00     0.037 C 
HETATM   22  C8  UNL     1     -85.327 -15.018  10.876  1.00  0.00     0.037 C 
ENDBRANCH  17  19
BRANCH  16  23
HETATM   23  O1  UNL     1     -83.495 -17.277   7.507  1.00  0.00    -0.311 OA
BRANCH  23  24
HETATM   24  C9  UNL     1     -82.752 -16.398   6.684  1.00  0.00     0.060 C 
HETATM   25  C10 UNL     1     -81.471 -17.142   6.364  1.00  0.00     0.046 C 
HETATM   26  C11 UNL     1     -83.425 -16.157   5.338  1.00  0.00     0.046 C 
HETATM   27  C12 UNL     1     -82.381 -15.126   7.364  1.00  0.00     0.046 C 
ENDBRANCH  23  24
ENDBRANCH  16  23
ENDBRANCH  14  16
ENDBRANCH  10  14
ENDBRANCH   1   9
BRANCH   8  28
HETATM   28  O4  UNL     1     -88.574 -16.367  10.462  1.00  0.00    -0.359 OA
ATOM     29  H4  UNL     1     -87.672 -16.209  10.206  1.00  0.00     0.217 HD
ENDBRANCH   8  28
BRANCH   7  30
HETATM   30  C18 UNL     1     -90.475 -17.802  12.126  1.00  0.00     0.168 C 
BRANCH  30  31
HETATM   31  N5  UNL     1     -91.591 -17.290  12.281  1.00  0.00    -0.280 NA
BRANCH  31  32
HETATM   32  O3  UNL     1     -92.681 -16.789  12.421  1.00  0.00    -0.214 OA
HETATM   33  C19 UNL     1     -93.881 -16.766  11.673  1.00  0.00     0.255 C 
ENDBRANCH  31  32
ENDBRANCH  30  31
BRANCH  30  34
HETATM   34  C20 UNL     1     -89.751 -17.942  13.403  1.00  0.00     0.009 A 
HETATM   35  C21 UNL     1     -88.626 -18.759  13.424  1.00  0.00     0.016 A 
HETATM   36  C22 UNL     1     -87.768 -18.841  14.508  1.00  0.00     0.024 A 
HETATM   37  C23 UNL     1     -88.023 -18.081  15.626  1.00  0.00     0.034 A 
HETATM   38 CL1  UNL     1     -86.958 -18.160  17.009  1.00  0.00    -0.084 Cl
HETATM   39  C24 UNL     1     -89.130 -17.267  15.622  1.00  0.00     0.024 A 
HETATM   40  C25 UNL     1     -89.990 -17.198  14.513  1.00  0.00     0.016 A 
ENDBRANCH  30  34
ENDBRANCH   7  30
TORSDOF 12
ENDMDL
MODEL 4
REMARK VINA RESULT: -7.387241354      3.522      6.731
REMARK  12 active torsions:
REMARK  status: ('A' for Active; 'I' for Inactive)
REMARK    1  A    between atoms: C2_2  and  C3_3 
REMARK    2  A    between atoms: C3_3  and  C13_20 
REMARK    3  A    between atoms: N1_4  and  N2_6 
REMARK    4  A    between atoms: N2_6  and  C4_8 
REMARK    5  A    between atoms: C4_8  and  O1_15 
REMARK    6  A    between atoms: N3_9  and  C5_11 
REMARK    7  A    between atoms: O1_15  and  C9_16 
REMARK    8  A    between atoms: C17_26  and  C18_27 
REMARK    9  A    between atoms: C18_27  and  N5_28 
REMARK   10  A    between atoms: C18_27  and  C20_31 
REMARK   11  A    between atoms: N5_28  and  O3_29 
REMARK   12  A    between atoms: C26_38  and  O4_39 
ROOT
HETATM    1  C13 UNL     1     -88.433 -17.037  13.329  1.00  0.00     0.038 A 
HETATM    2  C14 UNL     1     -88.458 -16.460  14.551  1.00  0.00     0.110 A 
HETATM    3  N4  UNL     1     -88.017 -17.078  15.663  1.00  0.00    -0.327 N 
HETATM    4  C15 UNL     1     -88.064 -16.412  16.937  1.00  0.00     0.159 C 
HETATM    5  C16 UNL     1     -87.541 -18.309  15.541  1.00  0.00     0.263 A 
HETATM    6  O2  UNL     1     -87.137 -18.864  16.587  1.00  0.00    -0.267 OA
HETATM    7  C17 UNL     1     -87.465 -19.009  14.336  1.00  0.00     0.110 A 
HETATM    8  C26 UNL     1     -87.922 -18.344  13.211  1.00  0.00     0.098 A 
ENDROOT
BRANCH   1   9
HETATM    9  C3  UNL     1     -88.942 -16.284  12.144  1.00  0.00     0.040 C 
HETATM   10  N1  UNL     1     -89.702 -16.751  11.322  1.00  0.00    -0.301 N 
ATOM     11  H1  UNL     1     -89.825 -17.698  11.682  1.00  0.00     0.186 HD
BRANCH   9  12
HETATM   12  C2  UNL     1     -88.413 -14.868  12.094  1.00  0.00     0.055 C 
HETATM   13  C1  UNL     1     -86.984 -14.778  11.696  1.00  0.00     0.011 C 
ENDBRANCH   9  12
BRANCH  10  14
HETATM   14  N2  UNL     1     -90.458 -16.785  10.261  1.00  0.00    -0.265 N 
ATOM     15  H2  UNL     1     -91.054 -15.965  10.146  1.00  0.00     0.190 HD
BRANCH  14  16
HETATM   16  C4  UNL     1     -90.605 -17.771   9.220  1.00  0.00     0.235 C 
HETATM   17  N3  UNL     1     -89.849 -17.975   8.255  1.00  0.00    -0.347 N 
ATOM     18  H3  UNL     1     -90.189 -18.736   7.667  1.00  0.00     0.163 HD
BRANCH  17  19
HETATM   19  C5  UNL     1     -88.659 -17.438   7.763  1.00  0.00     0.022 C 
HETATM   20  C6  UNL     1     -87.913 -18.576   7.039  1.00  0.00     0.037 C 
HETATM   21  C7  UNL     1     -88.959 -16.368   6.721  1.00  0.00     0.037 C 
HETATM   22  C8  UNL     1     -87.684 -16.862   8.749  1.00  0.00     0.037 C 
ENDBRANCH  17  19
BRANCH  16  23
HETATM   23  O1  UNL     1     -91.739 -18.579   9.328  1.00  0.00    -0.311 OA
BRANCH  23  24
HETATM   24  C9  UNL     1     -91.594 -19.956   9.618  1.00  0.00     0.060 C 
HETATM   25  C10 UNL     1     -92.808 -20.316  10.451  1.00  0.00     0.046 C 
HETATM   26  C11 UNL     1     -91.689 -20.825   8.370  1.00  0.00     0.046 C 
HETATM   27  C12 UNL     1     -90.381 -20.263  10.426  1.00  0.00     0.046 C 
ENDBRANCH  23  24
ENDBRANCH  16  23
ENDBRANCH  14  16
ENDBRANCH  10  14
ENDBRANCH   1   9
BRANCH   8  28
HETATM   28  O4  UNL     1     -87.884 -18.900  12.008  1.00  0.00    -0.359 OA
ATOM     29  H4  UNL     1     -87.441 -18.434  11.308  1.00  0.00     0.217 HD
ENDBRANCH   8  28
BRANCH   7  30
HETATM   30  C18 UNL     1     -86.789 -20.282  14.317  1.00  0.00     0.168 C 
BRANCH  30  31
HETATM   31  N5  UNL     1     -85.611 -20.356  13.943  1.00  0.00    -0.280 NA
BRANCH  31  32
HETATM   32  O3  UNL     1     -84.463 -20.419  13.573  1.00  0.00    -0.214 OA
HETATM   33  C19 UNL     1     -83.215 -19.997  14.087  1.00  0.00     0.255 C 
ENDBRANCH  31  32
ENDBRANCH  30  31
BRANCH  30  34
HETATM   34  C20 UNL     1     -87.322 -21.595  14.721  1.00  0.00     0.009 A 
HETATM   35  C21 UNL     1     -86.689 -22.731  14.229  1.00  0.00     0.016 A 
HETATM   36  C22 UNL     1     -86.984 -24.013  14.663  1.00  0.00     0.024 A 
HETATM   37  C23 UNL     1     -87.947 -24.190  15.630  1.00  0.00     0.034 A 
HETATM   38 CL1  UNL     1     -88.340 -25.794  16.201  1.00  0.00    -0.084 Cl
HETATM   39  C24 UNL     1     -88.582 -23.078  16.128  1.00  0.00     0.024 A 
HETATM   40  C25 UNL     1     -88.270 -21.786  15.675  1.00  0.00     0.016 A 
ENDBRANCH  30  34
ENDBRANCH   7  30
TORSDOF 12
ENDMDL
MODEL 5
REMARK VINA RESULT: -7.332450955      3.537      6.618
REMARK  12 active torsions:
REMARK  status: ('A' for Active; 'I' for Inactive)
REMARK    1  A    between atoms: C2_2  and  C3_3 
REMARK    2  A    between atoms: C3_3  and  C13_20 
REMARK    3  A    between atoms: N1_4  and  N2_6 
REMARK    4  A    between atoms: N2_6  and  C4_8 
REMARK    5  A    between atoms: C4_8  and  O1_15 
REMARK    6  A    between atoms: N3_9  and  C5_11 
REMARK    7  A    between atoms: O1_15  and  C9_16 
REMARK    8  A    between atoms: C17_26  and  C18_27 
REMARK    9  A    between atoms: C18_27  and  N5_28 
REMARK   10  A    between atoms: C18_27  and  C20_31 
REMARK   11  A    between atoms: N5_28  and  O3_29 
REMARK   12  A    between atoms: C26_38  and  O4_39 
ROOT
HETATM    1  C13 UNL     1     -87.840 -16.430  11.204  1.00  0.00     0.038 A 
HETATM    2  C14 UNL     1     -86.767 -16.721  10.435  1.00  0.00     0.110 A 
HETATM    3  N4  UNL     1     -86.866 -17.342   9.244  1.00  0.00    -0.327 N 
HETATM    4  C15 UNL     1     -85.688 -17.623   8.467  1.00  0.00     0.159 C 
HETATM    5  C16 UNL     1     -88.074 -17.680   8.819  1.00  0.00     0.263 A 
HETATM    6  O2  UNL     1     -88.142 -18.256   7.710  1.00  0.00    -0.267 OA
HETATM    7  C17 UNL     1     -89.254 -17.435   9.522  1.00  0.00     0.110 A 
HETATM    8  C26 UNL     1     -89.120 -16.791  10.741  1.00  0.00     0.098 A 
ENDROOT
BRANCH   1   9
HETATM    9  C3  UNL     1     -87.646 -15.740  12.515  1.00  0.00     0.040 C 
HETATM   10  N1  UNL     1     -87.836 -16.267  13.590  1.00  0.00    -0.301 N 
ATOM     11  H1  UNL     1     -88.142 -17.196  13.304  1.00  0.00     0.186 HD
BRANCH   9  12
HETATM   12  C2  UNL     1     -87.171 -14.313  12.346  1.00  0.00     0.055 C 
HETATM   13  C1  UNL     1     -88.258 -13.360  12.000  1.00  0.00     0.011 C 
ENDBRANCH   9  12
BRANCH  10  14
HETATM   14  N2  UNL     1     -87.890 -16.373  14.888  1.00  0.00    -0.265 N 
ATOM     15  H2  UNL     1     -88.766 -16.048  15.298  1.00  0.00     0.190 HD
BRANCH  14  16
HETATM   16  C4  UNL     1     -86.936 -16.864  15.849  1.00  0.00     0.235 C 
HETATM   17  N3  UNL     1     -86.443 -18.003  15.918  1.00  0.00    -0.347 N 
ATOM     18  H3  UNL     1     -85.791 -18.084  16.698  1.00  0.00     0.163 HD
BRANCH  17  19
HETATM   19  C5  UNL     1     -86.547 -19.200  15.208  1.00  0.00     0.022 C 
HETATM   20  C6  UNL     1     -85.728 -20.255  15.976  1.00  0.00     0.037 C 
HETATM   21  C7  UNL     1     -87.993 -19.679  15.200  1.00  0.00     0.037 C 
HETATM   22  C8  UNL     1     -86.043 -19.230  13.795  1.00  0.00     0.037 C 
ENDBRANCH  17  19
BRANCH  16  23
HETATM   23  O1  UNL     1     -86.533 -15.934  16.810  1.00  0.00    -0.311 OA
BRANCH  23  24
HETATM   24  C9  UNL     1     -85.278 -15.294  16.683  1.00  0.00     0.060 C 
HETATM   25  C10 UNL     1     -85.317 -14.144  17.671  1.00  0.00     0.046 C 
HETATM   26  C11 UNL     1     -84.126 -16.179  17.142  1.00  0.00     0.046 C 
HETATM   27  C12 UNL     1     -85.043 -14.721  15.329  1.00  0.00     0.046 C 
ENDBRANCH  23  24
ENDBRANCH  16  23
ENDBRANCH  14  16
ENDBRANCH  10  14
ENDBRANCH   1   9
BRANCH   8  28
HETATM   28  O4  UNL     1     -90.170 -16.488  11.491  1.00  0.00    -0.359 OA
ATOM     29  H4  UNL     1     -90.048 -16.408  12.429  1.00  0.00     0.217 HD
ENDBRANCH   8  28
BRANCH   7  30
HETATM   30  C18 UNL     1     -90.514 -17.718   8.881  1.00  0.00     0.168 C 
BRANCH  30  31
HETATM   31  N5  UNL     1     -90.706 -17.375   7.707  1.00  0.00    -0.280 NA
BRANCH  31  32
HETATM   32  O3  UNL     1     -90.898 -17.030   6.565  1.00  0.00    -0.214 OA
HETATM   33  C19 UNL     1     -90.126 -16.402   5.560  1.00  0.00     0.255 C 
ENDBRANCH  31  32
ENDBRANCH  30  31
BRANCH  30  34
HETATM   34  C20 UNL     1     -91.680 -18.419   9.447  1.00  0.00     0.009 A 
HETATM   35  C21 UNL     1     -91.614 -19.803   9.558  1.00  0.00     0.016 A 
HETATM   36  C22 UNL     1     -92.566 -20.558  10.223  1.00  0.00     0.024 A 
HETATM   37  C23 UNL     1     -93.635 -19.923  10.813  1.00  0.00     0.034 A 
HETATM   38 CL1  UNL     1     -94.851 -20.848  11.661  1.00  0.00    -0.084 Cl
HETATM   39  C24 UNL     1     -93.716 -18.556  10.714  1.00  0.00     0.024 A 
HETATM   40  C25 UNL     1     -92.741 -17.806  10.035  1.00  0.00     0.016 A 
ENDBRANCH  30  34
ENDBRANCH   7  30
TORSDOF 12
ENDMDL
