MODEL 1
REMARK VINA RESULT: -9.778207230      0.000      0.000
REMARK  6 active torsions:
REMARK  status: ('A' for Active; 'I' for Inactive)
REMARK    1  A    between atoms: O1_2  and  C2_3 
REMARK    2  A    between atoms: C5_8  and  C6_9 
REMARK    3  A    between atoms: C6_9  and  N2_11 
REMARK    4  A    between atoms: N2_11  and  C8_13 
REMARK    5  A    between atoms: C9_16  and  C10_17 
REMARK    6  A    between atoms: C25_45  and  O2_46 
ROOT
HETATM    1  C8  UNL     1     -87.852 -17.384   8.272  1.00  0.00     0.119 A 
HETATM    2  N3  UNL     1     -86.648 -17.059   7.774  1.00  0.00    -0.327 N 
ATOM      3  H3  UNL     1     -85.830 -17.188   8.370  1.00  0.00     0.169 HD
HETATM    4  C9  UNL     1     -86.459 -16.572   6.530  1.00  0.00     0.121 A 
HETATM    5  N6  UNL     1     -87.539 -16.408   5.761  1.00  0.00    -0.326 N 
ATOM      6  H6  UNL     1     -87.414 -16.041   4.817  1.00  0.00     0.169 HD
HETATM    7  C14 UNL     1     -88.802 -16.709   6.181  1.00  0.00     0.138 A 
HETATM    8  N7  UNL     1     -90.006 -16.642   5.594  1.00  0.00    -0.284 N 
ATOM      9  H7  UNL     1     -90.192 -16.314   4.646  1.00  0.00     0.188 HD
HETATM   10  N8  UNL     1     -90.900 -17.072   6.448  1.00  0.00    -0.297 N 
ATOM     11  H8  UNL     1     -91.900 -17.129   6.259  1.00  0.00     0.187 HD
HETATM   12  C15 UNL     1     -90.308 -17.436   7.632  1.00  0.00     0.076 A 
HETATM   13  C16 UNL     1     -91.026 -17.975   8.763  1.00  0.00    -0.007 A 
HETATM   14  C17 UNL     1     -91.790 -19.104   8.592  1.00  0.00     0.017 A 
HETATM   15  C18 UNL     1     -92.545 -19.632   9.636  1.00  0.00     0.043 A 
HETATM   16  C19 UNL     1     -92.534 -19.019  10.869  1.00  0.00     0.116 A 
HETATM   17  F1  UNL     1     -93.274 -19.527  11.911  1.00  0.00    -0.206 F 
HETATM   18  C20 UNL     1     -91.770 -17.889  11.039  1.00  0.00     0.043 A 
HETATM   19  C21 UNL     1     -91.020 -17.375   9.979  1.00  0.00     0.017 A 
HETATM   20  C22 UNL     1     -88.956 -17.203   7.452  1.00  0.00     0.082 A 
ENDROOT
BRANCH   1  21
HETATM   21  N2  UNL     1     -87.966 -17.879   9.475  1.00  0.00    -0.364 N 
ATOM     22  H2  UNL     1     -88.527 -18.715   9.638  1.00  0.00     0.162 HD
BRANCH  21  23
HETATM   23  C6  UNL     1     -87.290 -17.229  10.569  1.00  0.00     0.147 C 
HETATM   24  C7  UNL     1     -87.917 -15.892  10.900  1.00  0.00     0.040 C 
BRANCH  23  25
HETATM   25  C5  UNL     1     -87.186 -18.051  11.777  1.00  0.00     0.105 A 
HETATM   26  N1  UNL     1     -88.223 -18.376  12.576  1.00  0.00    -0.342 N 
HETATM   27  C4  UNL     1     -87.824 -19.132  13.597  1.00  0.00     0.063 A 
ATOM     28  H1  UNL     1     -89.186 -18.081  12.419  1.00  0.00     0.167 HD
HETATM   29  C3  UNL     1     -88.543 -19.687  14.648  1.00  0.00     0.071 A 
HETATM   30  C23 UNL     1     -86.476 -19.300  13.450  1.00  0.00     0.063 A 
HETATM   31  C2  UNL     1     -87.888 -20.443  15.595  1.00  0.00     0.103 A 
HETATM   32  C25 UNL     1     -86.528 -20.628  15.469  1.00  0.00     0.103 A 
HETATM   33  C24 UNL     1     -85.821 -20.062  14.405  1.00  0.00     0.071 A 
HETATM   34  N9  UNL     1     -86.115 -18.638  12.344  1.00  0.00    -0.342 N 
ATOM     35  H9  UNL     1     -85.163 -18.585  11.982  1.00  0.00     0.167 HD
BRANCH  31  36
HETATM   36  O1  UNL     1     -88.610 -20.996  16.644  1.00  0.00    -0.353 OA
HETATM   37  C1  UNL     1     -89.282 -22.230  16.541  1.00  0.00     0.210 C 
ENDBRANCH  31  36
BRANCH  32  38
HETATM   38  O2  UNL     1     -85.904 -21.393  16.439  1.00  0.00    -0.353 OA
HETATM   39  C26 UNL     1     -85.538 -22.744  16.221  1.00  0.00     0.210 C 
ENDBRANCH  32  38
ENDBRANCH  23  25
ENDBRANCH  21  23
ENDBRANCH   1  21
BRANCH   4  40
HETATM   40  C10 UNL     1     -85.145 -16.233   6.029  1.00  0.00     0.039 A 
HETATM   41  C11 UNL     1     -84.831 -16.015   4.720  1.00  0.00     0.105 A 
HETATM   42  N4  UNL     1     -83.553 -15.698   4.337  1.00  0.00    -0.361 N 
HETATM   43  C12 UNL     1     -82.571 -15.594   5.242  1.00  0.00     0.180 A 
ATOM     44  H4  UNL     1     -83.348 -15.539   3.350  1.00  0.00     0.166 HD
HETATM   45  N5  UNL     1     -82.863 -15.806   6.532  1.00  0.00    -0.361 N 
HETATM   46  C13 UNL     1     -84.098 -16.117   6.950  1.00  0.00     0.105 A 
ATOM     47  H5  UNL     1     -82.116 -15.728   7.222  1.00  0.00     0.166 HD
ENDBRANCH   4  40
TORSDOF 6
ENDMDL
MODEL 2
REMARK VINA RESULT: -9.734178873      0.167      1.426
REMARK  6 active torsions:
REMARK  status: ('A' for Active; 'I' for Inactive)
REMARK    1  A    between atoms: O1_2  and  C2_3 
REMARK    2  A    between atoms: C5_8  and  C6_9 
REMARK    3  A    between atoms: C6_9  and  N2_11 
REMARK    4  A    between atoms: N2_11  and  C8_13 
REMARK    5  A    between atoms: C9_16  and  C10_17 
REMARK    6  A    between atoms: C25_45  and  O2_46 
ROOT
HETATM    1  C8  UNL     1     -87.877 -17.404   8.288  1.00  0.00     0.119 A 
HETATM    2  N3  UNL     1     -86.669 -17.080   7.797  1.00  0.00    -0.327 N 
ATOM      3  H3  UNL     1     -85.854 -17.218   8.395  1.00  0.00     0.169 HD
HETATM    4  C9  UNL     1     -86.473 -16.582   6.558  1.00  0.00     0.121 A 
HETATM    5  N6  UNL     1     -87.550 -16.407   5.786  1.00  0.00    -0.326 N 
ATOM      6  H6  UNL     1     -87.419 -16.033   4.847  1.00  0.00     0.169 HD
HETATM    7  C14 UNL     1     -88.816 -16.707   6.199  1.00  0.00     0.138 A 
HETATM    8  N7  UNL     1     -90.017 -16.629   5.608  1.00  0.00    -0.284 N 
ATOM      9  H7  UNL     1     -90.198 -16.291   4.663  1.00  0.00     0.188 HD
HETATM   10  N8  UNL     1     -90.916 -17.063   6.455  1.00  0.00    -0.297 N 
ATOM     11  H8  UNL     1     -91.916 -17.114   6.262  1.00  0.00     0.187 HD
HETATM   12  C15 UNL     1     -90.330 -17.440   7.638  1.00  0.00     0.076 A 
HETATM   13  C16 UNL     1     -91.054 -17.986   8.761  1.00  0.00    -0.007 A 
HETATM   14  C17 UNL     1     -91.823 -19.110   8.577  1.00  0.00     0.017 A 
HETATM   15  C18 UNL     1     -92.584 -19.644   9.613  1.00  0.00     0.043 A 
HETATM   16  C19 UNL     1     -92.576 -19.042  10.852  1.00  0.00     0.116 A 
HETATM   17  F1  UNL     1     -93.321 -19.556  11.886  1.00  0.00    -0.206 F 
HETATM   18  C20 UNL     1     -91.807 -17.917  11.035  1.00  0.00     0.043 A 
HETATM   19  C21 UNL     1     -91.051 -17.397   9.983  1.00  0.00     0.017 A 
HETATM   20  C22 UNL     1     -88.976 -17.211   7.465  1.00  0.00     0.082 A 
ENDROOT
BRANCH   1  21
HETATM   21  N2  UNL     1     -87.997 -17.910   9.486  1.00  0.00    -0.364 N 
ATOM     22  H2  UNL     1     -88.547 -18.755   9.637  1.00  0.00     0.162 HD
BRANCH  21  23
HETATM   23  C6  UNL     1     -87.343 -17.258  10.592  1.00  0.00     0.147 C 
HETATM   24  C7  UNL     1     -87.880 -15.860  10.815  1.00  0.00     0.040 C 
BRANCH  23  25
HETATM   25  C5  UNL     1     -87.386 -18.020  11.842  1.00  0.00     0.105 A 
HETATM   26  N1  UNL     1     -86.305 -18.525  12.471  1.00  0.00    -0.342 N 
HETATM   27  C4  UNL     1     -86.652 -19.168  13.583  1.00  0.00     0.063 A 
ATOM     28  H1  UNL     1     -85.346 -18.428  12.138  1.00  0.00     0.167 HD
HETATM   29  C3  UNL     1     -85.878 -19.833  14.526  1.00  0.00     0.071 A 
HETATM   30  C23 UNL     1     -88.013 -19.074  13.675  1.00  0.00     0.063 A 
HETATM   31  C2  UNL     1     -86.487 -20.429  15.608  1.00  0.00     0.103 A 
HETATM   32  C25 UNL     1     -87.858 -20.348  15.723  1.00  0.00     0.103 A 
HETATM   33  C24 UNL     1     -88.622 -19.676  14.765  1.00  0.00     0.071 A 
HETATM   34  N9  UNL     1     -88.432 -18.376  12.612  1.00  0.00    -0.342 N 
ATOM     35  H9  UNL     1     -89.405 -18.147  12.413  1.00  0.00     0.167 HD
BRANCH  31  36
HETATM   36  O1  UNL     1     -85.709 -21.092  16.548  1.00  0.00    -0.353 OA
HETATM   37  C1  UNL     1     -85.185 -22.382  16.332  1.00  0.00     0.210 C 
ENDBRANCH  31  36
BRANCH  32  38
HETATM   38  O2  UNL     1     -88.435 -20.959  16.823  1.00  0.00    -0.353 OA
HETATM   39  C26 UNL     1     -89.066 -22.226  16.743  1.00  0.00     0.210 C 
ENDBRANCH  32  38
ENDBRANCH  23  25
ENDBRANCH  21  23
ENDBRANCH   1  21
BRANCH   4  40
HETATM   40  C10 UNL     1     -85.156 -16.245   6.065  1.00  0.00     0.039 A 
HETATM   41  C11 UNL     1     -84.834 -16.023   4.759  1.00  0.00     0.105 A 
HETATM   42  N4  UNL     1     -83.554 -15.707   4.384  1.00  0.00    -0.361 N 
HETATM   43  C12 UNL     1     -82.577 -15.609   5.294  1.00  0.00     0.180 A 
ATOM     44  H4  UNL     1     -83.344 -15.546   3.399  1.00  0.00     0.166 HD
HETATM   45  N5  UNL     1     -82.875 -15.825   6.582  1.00  0.00    -0.361 N 
HETATM   46  C13 UNL     1     -84.114 -16.135   6.992  1.00  0.00     0.105 A 
ATOM     47  H5  UNL     1     -82.132 -15.751   7.276  1.00  0.00     0.166 HD
ENDBRANCH   4  40
TORSDOF 6
ENDMDL
MODEL 3
REMARK VINA RESULT: -9.496736285      4.631      8.045
REMARK  6 active torsions:
REMARK  status: ('A' for Active; 'I' for Inactive)
REMARK    1  A    between atoms: O1_2  and  C2_3 
REMARK    2  A    between atoms: C5_8  and  C6_9 
REMARK    3  A    between atoms: C6_9  and  N2_11 
REMARK    4  A    between atoms: N2_11  and  C8_13 
REMARK    5  A    between atoms: C9_16  and  C10_17 
REMARK    6  A    between atoms: C25_45  and  O2_46 
ROOT
HETATM    1  C8  UNL     1     -86.284 -16.497  13.381  1.00  0.00     0.119 A 
HETATM    2  N3  UNL     1     -85.271 -15.966  14.085  1.00  0.00    -0.327 N 
ATOM      3  H3  UNL     1     -84.369 -16.443  14.066  1.00  0.00     0.169 HD
HETATM    4  C9  UNL     1     -85.379 -14.836  14.816  1.00  0.00     0.121 A 
HETATM    5  N6  UNL     1     -86.565 -14.222  14.831  1.00  0.00    -0.326 N 
ATOM      6  H6  UNL     1     -86.664 -13.367  15.378  1.00  0.00     0.169 HD
HETATM    7  C14 UNL     1     -87.651 -14.688  14.148  1.00  0.00     0.138 A 
HETATM    8  N7  UNL     1     -88.908 -14.244  14.007  1.00  0.00    -0.284 N 
ATOM      9  H7  UNL     1     -89.298 -13.406  14.439  1.00  0.00     0.188 HD
HETATM   10  N8  UNL     1     -89.547 -15.071  13.220  1.00  0.00    -0.297 N 
ATOM     11  H8  UNL     1     -90.524 -14.969  12.944  1.00  0.00     0.187 HD
HETATM   12  C15 UNL     1     -88.725 -16.094  12.816  1.00  0.00     0.076 A 
HETATM   13  C16 UNL     1     -89.130 -17.152  11.922  1.00  0.00    -0.007 A 
HETATM   14  C17 UNL     1     -89.627 -16.825  10.683  1.00  0.00     0.017 A 
HETATM   15  C18 UNL     1     -90.083 -17.804   9.805  1.00  0.00     0.043 A 
HETATM   16  C19 UNL     1     -90.041 -19.130  10.173  1.00  0.00     0.116 A 
HETATM   17  F1  UNL     1     -90.486 -20.110   9.317  1.00  0.00    -0.206 F 
HETATM   18  C20 UNL     1     -89.543 -19.457  11.412  1.00  0.00     0.043 A 
HETATM   19  C21 UNL     1     -89.091 -18.460  12.279  1.00  0.00     0.017 A 
HETATM   20  C22 UNL     1     -87.504 -15.840  13.416  1.00  0.00     0.082 A 
ENDROOT
BRANCH   1  21
HETATM   21  N2  UNL     1     -86.107 -17.578  12.669  1.00  0.00    -0.364 N 
ATOM     22  H2  UNL     1     -86.791 -18.334  12.700  1.00  0.00     0.162 HD
BRANCH  21  23
HETATM   23  C6  UNL     1     -84.934 -17.689  11.840  1.00  0.00     0.147 C 
HETATM   24  C7  UNL     1     -84.307 -19.063  11.938  1.00  0.00     0.040 C 
BRANCH  23  25
HETATM   25  C5  UNL     1     -85.161 -17.338  10.436  1.00  0.00     0.105 A 
HETATM   26  N1  UNL     1     -86.365 -17.346   9.828  1.00  0.00    -0.342 N 
HETATM   27  C4  UNL     1     -86.261 -16.981   8.552  1.00  0.00     0.063 A 
ATOM     28  H1  UNL     1     -87.240 -17.598  10.285  1.00  0.00     0.167 HD
HETATM   29  C3  UNL     1     -87.229 -16.851   7.565  1.00  0.00     0.071 A 
HETATM   30  C23 UNL     1     -84.936 -16.729   8.329  1.00  0.00     0.063 A 
HETATM   31  C2  UNL     1     -86.860 -16.452   6.299  1.00  0.00     0.103 A 
HETATM   32  C25 UNL     1     -85.530 -16.190   6.049  1.00  0.00     0.103 A 
HETATM   33  C24 UNL     1     -84.570 -16.327   7.054  1.00  0.00     0.071 A 
HETATM   34  N9  UNL     1     -84.293 -16.951   9.482  1.00  0.00    -0.342 N 
ATOM     35  H9  UNL     1     -83.288 -16.844   9.618  1.00  0.00     0.167 HD
BRANCH  31  36
HETATM   36  O1  UNL     1     -87.832 -16.323   5.315  1.00  0.00    -0.353 OA
HETATM   37  C1  UNL     1     -89.205 -16.506   5.570  1.00  0.00     0.210 C 
ENDBRANCH  31  36
BRANCH  32  38
HETATM   38  O2  UNL     1     -85.197 -15.792   4.766  1.00  0.00    -0.353 OA
HETATM   39  C26 UNL     1     -83.876 -15.882   4.262  1.00  0.00     0.210 C 
ENDBRANCH  32  38
ENDBRANCH  23  25
ENDBRANCH  21  23
ENDBRANCH   1  21
BRANCH   4  40
HETATM   40  C10 UNL     1     -84.264 -14.294  15.562  1.00  0.00     0.039 A 
HETATM   41  C11 UNL     1     -83.293 -13.484  15.053  1.00  0.00     0.105 A 
HETATM   42  N4  UNL     1     -82.271 -13.017  15.838  1.00  0.00    -0.361 N 
HETATM   43  C12 UNL     1     -82.196 -13.346  17.135  1.00  0.00     0.180 A 
ATOM     44  H4  UNL     1     -81.558 -12.412  15.430  1.00  0.00     0.166 HD
HETATM   45  N5  UNL     1     -83.142 -14.142  17.650  1.00  0.00    -0.361 N 
HETATM   46  C13 UNL     1     -84.159 -14.620  16.918  1.00  0.00     0.105 A 
ATOM     47  H5  UNL     1     -83.086 -14.393  18.637  1.00  0.00     0.166 HD
ENDBRANCH   4  40
TORSDOF 6
ENDMDL
MODEL 4
REMARK VINA RESULT: -9.383951324      1.760      2.624
REMARK  6 active torsions:
REMARK  status: ('A' for Active; 'I' for Inactive)
REMARK    1  A    between atoms: O1_2  and  C2_3 
REMARK    2  A    between atoms: C5_8  and  C6_9 
REMARK    3  A    between atoms: C6_9  and  N2_11 
REMARK    4  A    between atoms: N2_11  and  C8_13 
REMARK    5  A    between atoms: C9_16  and  C10_17 
REMARK    6  A    between atoms: C25_45  and  O2_46 
ROOT
HETATM    1  C8  UNL     1     -85.660 -17.148   7.979  1.00  0.00     0.119 A 
HETATM    2  N3  UNL     1     -84.414 -16.910   7.538  1.00  0.00    -0.327 N 
ATOM      3  H3  UNL     1     -83.634 -17.151   8.148  1.00  0.00     0.169 HD
HETATM    4  C9  UNL     1     -84.137 -16.368   6.333  1.00  0.00     0.121 A 
HETATM    5  N6  UNL     1     -85.170 -16.056   5.545  1.00  0.00    -0.326 N 
ATOM      6  H6  UNL     1     -84.978 -15.646   4.631  1.00  0.00     0.169 HD
HETATM    7  C14 UNL     1     -86.470 -16.261   5.908  1.00  0.00     0.138 A 
HETATM    8  N7  UNL     1     -87.640 -16.045   5.291  1.00  0.00    -0.284 N 
ATOM      9  H7  UNL     1     -87.762 -15.643   4.361  1.00  0.00     0.188 HD
HETATM   10  N8  UNL     1     -88.600 -16.439   6.089  1.00  0.00    -0.297 N 
ATOM     11  H8  UNL     1     -89.594 -16.389   5.868  1.00  0.00     0.187 HD
HETATM   12  C15 UNL     1     -88.086 -16.928   7.265  1.00  0.00     0.076 A 
HETATM   13  C16 UNL     1     -88.890 -17.464   8.338  1.00  0.00    -0.007 A 
HETATM   14  C17 UNL     1     -89.749 -18.503   8.073  1.00  0.00     0.017 A 
HETATM   15  C18 UNL     1     -90.586 -19.019   9.058  1.00  0.00     0.043 A 
HETATM   16  C19 UNL     1     -90.563 -18.486  10.328  1.00  0.00     0.116 A 
HETATM   17  F1  UNL     1     -91.382 -18.984  11.313  1.00  0.00    -0.206 F 
HETATM   18  C20 UNL     1     -89.703 -17.446  10.592  1.00  0.00     0.043 A 
HETATM   19  C21 UNL     1     -88.872 -16.942   9.589  1.00  0.00     0.017 A 
HETATM   20  C22 UNL     1     -86.713 -16.814   7.140  1.00  0.00     0.082 A 
ENDROOT
BRANCH   1  21
HETATM   21  N2  UNL     1     -85.862 -17.702   9.144  1.00  0.00    -0.364 N 
ATOM     22  H2  UNL     1     -86.375 -18.581   9.216  1.00  0.00     0.162 HD
BRANCH  21  23
HETATM   23  C6  UNL     1     -85.351 -17.056  10.327  1.00  0.00     0.147 C 
HETATM   24  C7  UNL     1     -85.255 -15.556  10.148  1.00  0.00     0.040 C 
BRANCH  23  25
HETATM   25  C5  UNL     1     -86.098 -17.372  11.547  1.00  0.00     0.105 A 
HETATM   26  N1  UNL     1     -86.540 -18.602  11.880  1.00  0.00    -0.342 N 
HETATM   27  C4  UNL     1     -87.184 -18.582  13.044  1.00  0.00     0.063 A 
ATOM     28  H1  UNL     1     -86.400 -19.438  11.313  1.00  0.00     0.167 HD
HETATM   29  C3  UNL     1     -87.797 -19.604  13.759  1.00  0.00     0.071 A 
HETATM   30  C23 UNL     1     -87.156 -17.287  13.480  1.00  0.00     0.063 A 
HETATM   31  C2  UNL     1     -88.408 -19.322  14.960  1.00  0.00     0.103 A 
HETATM   32  C25 UNL     1     -88.392 -18.023  15.422  1.00  0.00     0.103 A 
HETATM   33  C24 UNL     1     -87.771 -17.008  14.690  1.00  0.00     0.071 A 
HETATM   34  N9  UNL     1     -86.494 -16.576  12.558  1.00  0.00    -0.342 N 
ATOM     35  H9  UNL     1     -86.315 -15.574  12.614  1.00  0.00     0.167 HD
BRANCH  31  36
HETATM   36  O1  UNL     1     -89.019 -20.347  15.672  1.00  0.00    -0.353 OA
HETATM   37  C1  UNL     1     -88.383 -21.575  15.938  1.00  0.00     0.210 C 
ENDBRANCH  31  36
BRANCH  32  38
HETATM   38  O2  UNL     1     -89.016 -17.777  16.633  1.00  0.00    -0.353 OA
HETATM   39  C26 UNL     1     -88.394 -17.039  17.671  1.00  0.00     0.210 C 
ENDBRANCH  32  38
ENDBRANCH  23  25
ENDBRANCH  21  23
ENDBRANCH   1  21
BRANCH   4  40
HETATM   40  C10 UNL     1     -82.780 -16.125   5.894  1.00  0.00     0.039 A 
HETATM   41  C11 UNL     1     -81.879 -15.318   6.522  1.00  0.00     0.105 A 
HETATM   42  N4  UNL     1     -80.611 -15.148   6.030  1.00  0.00    -0.361 N 
HETATM   43  C12 UNL     1     -80.219 -15.773   4.912  1.00  0.00     0.180 A 
ATOM     44  H4  UNL     1     -79.958 -14.538   6.522  1.00  0.00     0.166 HD
HETATM   45  N5  UNL     1     -81.092 -16.569   4.282  1.00  0.00    -0.361 N 
HETATM   46  C13 UNL     1     -82.342 -16.765   4.729  1.00  0.00     0.105 A 
ATOM     47  H5  UNL     1     -80.796 -17.046   3.430  1.00  0.00     0.166 HD
ENDBRANCH   4  40
TORSDOF 6
ENDMDL
MODEL 5
REMARK VINA RESULT: -9.356635523      1.731      2.517
REMARK  6 active torsions:
REMARK  status: ('A' for Active; 'I' for Inactive)
REMARK    1  A    between atoms: O1_2  and  C2_3 
REMARK    2  A    between atoms: C5_8  and  C6_9 
REMARK    3  A    between atoms: C6_9  and  N2_11 
REMARK    4  A    between atoms: N2_11  and  C8_13 
REMARK    5  A    between atoms: C9_16  and  C10_17 
REMARK    6  A    between atoms: C25_45  and  O2_46 
ROOT
HETATM    1  C8  UNL     1     -85.701 -17.212   8.097  1.00  0.00     0.119 A 
HETATM    2  N3  UNL     1     -84.445 -16.955   7.696  1.00  0.00    -0.327 N 
ATOM      3  H3  UNL     1     -83.678 -17.226   8.312  1.00  0.00     0.169 HD
HETATM    4  C9  UNL     1     -84.140 -16.360   6.524  1.00  0.00     0.121 A 
HETATM    5  N6  UNL     1     -85.154 -16.011   5.727  1.00  0.00    -0.326 N 
ATOM      6  H6  UNL     1     -84.942 -15.561   4.837  1.00  0.00     0.169 HD
HETATM    7  C14 UNL     1     -86.462 -16.230   6.051  1.00  0.00     0.138 A 
HETATM    8  N7  UNL     1     -87.618 -15.984   5.419  1.00  0.00    -0.284 N 
ATOM      9  H7  UNL     1     -87.719 -15.541   4.505  1.00  0.00     0.188 HD
HETATM   10  N8  UNL     1     -88.596 -16.412   6.176  1.00  0.00    -0.297 N 
ATOM     11  H8  UNL     1     -89.585 -16.351   5.935  1.00  0.00     0.187 HD
HETATM   12  C15 UNL     1     -88.110 -16.955   7.340  1.00  0.00     0.076 A 
HETATM   13  C16 UNL     1     -88.938 -17.538   8.369  1.00  0.00    -0.007 A 
HETATM   14  C17 UNL     1     -89.791 -18.562   8.038  1.00  0.00     0.017 A 
HETATM   15  C18 UNL     1     -90.651 -19.121   8.980  1.00  0.00     0.043 A 
HETATM   16  C19 UNL     1     -90.655 -18.646  10.273  1.00  0.00     0.116 A 
HETATM   17  F1  UNL     1     -91.497 -19.186  11.216  1.00  0.00    -0.206 F 
HETATM   18  C20 UNL     1     -89.801 -17.620  10.603  1.00  0.00     0.043 A 
HETATM   19  C21 UNL     1     -88.947 -17.073   9.643  1.00  0.00     0.017 A 
HETATM   20  C22 UNL     1     -86.733 -16.838   7.251  1.00  0.00     0.082 A 
ENDROOT
BRANCH   1  21
HETATM   21  N2  UNL     1     -85.929 -17.817   9.232  1.00  0.00    -0.364 N 
ATOM     22  H2  UNL     1     -86.392 -18.726   9.248  1.00  0.00     0.162 HD
BRANCH  21  23
HETATM   23  C6  UNL     1     -85.517 -17.186  10.460  1.00  0.00     0.147 C 
HETATM   24  C7  UNL     1     -85.619 -15.678  10.376  1.00  0.00     0.040 C 
BRANCH  23  25
HETATM   25  C5  UNL     1     -86.225 -17.674  11.646  1.00  0.00     0.105 A 
HETATM   26  N1  UNL     1     -86.495 -16.932  12.739  1.00  0.00    -0.342 N 
HETATM   27  C4  UNL     1     -87.149 -17.643  13.654  1.00  0.00     0.063 A 
ATOM     28  H1  UNL     1     -86.231 -15.953  12.850  1.00  0.00     0.167 HD
HETATM   29  C3  UNL     1     -87.619 -17.288  14.912  1.00  0.00     0.071 A 
HETATM   30  C23 UNL     1     -87.307 -18.895  13.130  1.00  0.00     0.063 A 
HETATM   31  C2  UNL     1     -88.276 -18.223  15.681  1.00  0.00     0.103 A 
HETATM   32  C25 UNL     1     -88.449 -19.493  15.175  1.00  0.00     0.103 A 
HETATM   33  C24 UNL     1     -87.969 -19.833  13.907  1.00  0.00     0.071 A 
HETATM   34  N9  UNL     1     -86.741 -18.888  11.917  1.00  0.00    -0.342 N 
ATOM     35  H9  UNL     1     -86.705 -19.689  11.287  1.00  0.00     0.167 HD
BRANCH  31  36
HETATM   36  O1  UNL     1     -88.744 -17.864  16.938  1.00  0.00    -0.353 OA
HETATM   37  C1  UNL     1     -88.215 -16.783  17.670  1.00  0.00     0.210 C 
ENDBRANCH  31  36
BRANCH  32  38
HETATM   38  O2  UNL     1     -89.113 -20.406  15.976  1.00  0.00    -0.353 OA
HETATM   39  C26 UNL     1     -88.607 -21.706  16.225  1.00  0.00     0.210 C 
ENDBRANCH  32  38
ENDBRANCH  23  25
ENDBRANCH  21  23
ENDBRANCH   1  21
BRANCH   4  40
HETATM   40  C10 UNL     1     -82.774 -16.101   6.126  1.00  0.00     0.039 A 
HETATM   41  C11 UNL     1     -81.912 -15.258   6.764  1.00  0.00     0.105 A 
HETATM   42  N4  UNL     1     -80.630 -15.074   6.313  1.00  0.00    -0.361 N 
HETATM   43  C12 UNL     1     -80.186 -15.719   5.226  1.00  0.00     0.180 A 
ATOM     44  H4  UNL     1     -80.008 -14.438   6.811  1.00  0.00     0.166 HD
HETATM   45  N5  UNL     1     -81.020 -16.550   4.587  1.00  0.00    -0.361 N 
HETATM   46  C13 UNL     1     -82.281 -16.760   4.994  1.00  0.00     0.105 A 
ATOM     47  H5  UNL     1     -80.684 -17.041   3.759  1.00  0.00     0.166 HD
ENDBRANCH   4  40
TORSDOF 6
ENDMDL
