MODEL 1
REMARK VINA RESULT: -8.275598909      0.000      0.000
REMARK  12 active torsions:
REMARK  status: ('A' for Active; 'I' for Inactive)
REMARK    1  A    between atoms: C2_2  and  C3_3 
REMARK    2  A    between atoms: C3_3  and  C4_4 
REMARK    3  A    between atoms: C4_4  and  O2_6 
REMARK    4  A    between atoms: O2_6  and  C5_7 
REMARK    5  A    between atoms: C6_8  and  O3_9 
REMARK    6  A    between atoms: C8_12  and  C9_13 
REMARK    7  A    between atoms: C10_14  and  C11_15 
REMARK    8  A    between atoms: C13_17  and  O4_18 
REMARK    9  A    between atoms: O4_18  and  C14_19 
REMARK   10  A    between atoms: C14_19  and  C15_21 
REMARK   11  A    between atoms: C16_24  and  O8_25 
REMARK   12  A    between atoms: C17_27  and  C18_28 
ROOT
HETATM    1  C11 UNL     1     -84.516 -16.279   7.550  1.00  0.00    -0.033 A 
HETATM    2  C12 UNL     1     -84.038 -16.481   6.278  1.00  0.00     0.051 A 
HETATM    3  C13 UNL     1     -82.770 -16.078   5.912  1.00  0.00     0.114 A 
HETATM    4  C16 UNL     1     -81.993 -15.455   6.894  1.00  0.00     0.106 A 
HETATM    5  C17 UNL     1     -82.430 -15.233   8.178  1.00  0.00    -0.014 A 
HETATM    6  C22 UNL     1     -83.706 -15.653   8.499  1.00  0.00     0.022 A 
ENDROOT
BRANCH   1   7
HETATM    7  C10 UNL     1     -85.856 -16.703   7.939  1.00  0.00     0.012 C 
HETATM    8  C9  UNL     1     -86.856 -16.814   7.111  1.00  0.00     0.012 C 
BRANCH   8   9
HETATM    9  C8  UNL     1     -88.181 -17.244   7.558  1.00  0.00    -0.032 A 
HETATM   10  C7  UNL     1     -89.314 -16.852   6.824  1.00  0.00     0.051 A 
HETATM   11  C6  UNL     1     -90.574 -17.229   7.206  1.00  0.00     0.101 A 
HETATM   12  C5  UNL     1     -90.759 -18.006   8.325  1.00  0.00     0.129 A 
HETATM   13  C24 UNL     1     -89.673 -18.397   9.048  1.00  0.00     0.048 A 
HETATM   14  C23 UNL     1     -88.409 -18.017   8.664  1.00  0.00     0.033 A 
HETATM   15 BR1  UNL     1     -89.918 -19.489  10.622  1.00  0.00    -0.048 Br
BRANCH  11  16
HETATM   16  O3  UNL     1     -91.652 -16.809   6.442  1.00  0.00    -0.358 OA
ATOM     17  H3  UNL     1     -91.520 -16.331   5.632  1.00  0.00     0.217 HD
ENDBRANCH  11  16
BRANCH  12  18
HETATM   18  O2  UNL     1     -92.059 -18.377   8.692  1.00  0.00    -0.274 OA
BRANCH  18  19
HETATM   19  C4  UNL     1     -92.792 -17.673   9.623  1.00  0.00     0.267 C 
HETATM   20  O1  UNL     1     -92.777 -16.416   9.557  1.00  0.00    -0.265 OA
BRANCH  19  21
HETATM   21  C3  UNL     1     -93.602 -18.292  10.704  1.00  0.00     0.138 C 
BRANCH  21  22
HETATM   22  C2  UNL     1     -93.589 -19.787  10.598  1.00  0.00    -0.027 C 
HETATM   23  C1  UNL     1     -94.382 -20.510  11.368  1.00  0.00     0.007 C 
ENDBRANCH  21  22
ENDBRANCH  19  21
ENDBRANCH  18  19
ENDBRANCH  12  18
ENDBRANCH   8   9
ENDBRANCH   1   7
BRANCH   3  24
HETATM   24  O4  UNL     1     -82.289 -16.284   4.622  1.00  0.00    -0.267 OA
BRANCH  24  25
HETATM   25  C14 UNL     1     -82.515 -15.365   3.599  1.00  0.00     0.365 C 
HETATM   26  O5  UNL     1     -83.632 -15.436   3.029  1.00  0.00    -0.252 OA
BRANCH  25  27
HETATM   27  C15 UNL     1     -81.537 -14.376   3.195  1.00  0.00     0.278 C 
HETATM   28  O6  UNL     1     -80.948 -14.391   2.090  1.00  0.00    -0.640 OA
HETATM   29  O7  UNL     1     -81.217 -13.346   4.067  1.00  0.00    -0.640 OA
ENDBRANCH  25  27
ENDBRANCH  24  25
ENDBRANCH   3  24
BRANCH   5  30
HETATM   30  C18 UNL     1     -81.580 -14.547   9.217  1.00  0.00    -0.021 C 
HETATM   31  C19 UNL     1     -81.272 -13.129   8.864  1.00  0.00     0.019 C 
HETATM   32  C20 UNL     1     -80.315 -15.341   9.468  1.00  0.00     0.019 C 
HETATM   33  C21 UNL     1     -82.370 -14.560  10.508  1.00  0.00     0.019 C 
ENDBRANCH   5  30
BRANCH   4  34
HETATM   34  O8  UNL     1     -80.746 -15.068   6.508  1.00  0.00    -0.357 OA
ATOM     35  H8  UNL     1     -80.295 -14.475   7.097  1.00  0.00     0.217 HD
ENDBRANCH   4  34
TORSDOF 12
ENDMDL
MODEL 2
REMARK VINA RESULT: -8.173600015      3.512     10.609
REMARK  12 active torsions:
REMARK  status: ('A' for Active; 'I' for Inactive)
REMARK    1  A    between atoms: C2_2  and  C3_3 
REMARK    2  A    between atoms: C3_3  and  C4_4 
REMARK    3  A    between atoms: C4_4  and  O2_6 
REMARK    4  A    between atoms: O2_6  and  C5_7 
REMARK    5  A    between atoms: C6_8  and  O3_9 
REMARK    6  A    between atoms: C8_12  and  C9_13 
REMARK    7  A    between atoms: C10_14  and  C11_15 
REMARK    8  A    between atoms: C13_17  and  O4_18 
REMARK    9  A    between atoms: O4_18  and  C14_19 
REMARK   10  A    between atoms: C14_19  and  C15_21 
REMARK   11  A    between atoms: C16_24  and  O8_25 
REMARK   12  A    between atoms: C17_27  and  C18_28 
ROOT
HETATM    1  C11 UNL     1     -88.089 -16.907   9.995  1.00  0.00    -0.033 A 
HETATM    2  C12 UNL     1     -88.279 -16.322  11.222  1.00  0.00     0.051 A 
HETATM    3  C13 UNL     1     -89.442 -16.514  11.940  1.00  0.00     0.114 A 
HETATM    4  C16 UNL     1     -90.417 -17.332  11.362  1.00  0.00     0.106 A 
HETATM    5  C17 UNL     1     -90.270 -17.938  10.137  1.00  0.00    -0.014 A 
HETATM    6  C22 UNL     1     -89.090 -17.716   9.454  1.00  0.00     0.022 A 
ENDROOT
BRANCH   1   7
HETATM    7  C10 UNL     1     -86.861 -16.705   9.233  1.00  0.00     0.012 C 
HETATM    8  C9  UNL     1     -86.807 -16.673   7.932  1.00  0.00     0.012 C 
BRANCH   8   9
HETATM    9  C8  UNL     1     -85.546 -16.467   7.219  1.00  0.00    -0.032 A 
HETATM   10  C7  UNL     1     -85.574 -16.177   5.844  1.00  0.00     0.051 A 
HETATM   11  C6  UNL     1     -84.418 -15.979   5.136  1.00  0.00     0.101 A 
HETATM   12  C5  UNL     1     -83.196 -16.060   5.760  1.00  0.00     0.129 A 
HETATM   13  C24 UNL     1     -83.149 -16.340   7.092  1.00  0.00     0.048 A 
HETATM   14  C23 UNL     1     -84.310 -16.539   7.801  1.00  0.00     0.033 A 
HETATM   15 BR1  UNL     1     -81.440 -16.457   7.983  1.00  0.00    -0.048 Br
BRANCH  11  16
HETATM   16  O3  UNL     1     -84.511 -15.696   3.782  1.00  0.00    -0.358 OA
ATOM     17  H3  UNL     1     -85.327 -15.818   3.311  1.00  0.00     0.217 HD
ENDBRANCH  11  16
BRANCH  12  18
HETATM   18  O2  UNL     1     -82.031 -15.853   5.011  1.00  0.00    -0.274 OA
BRANCH  18  19
HETATM   19  C4  UNL     1     -81.546 -14.593   4.734  1.00  0.00     0.267 C 
HETATM   20  O1  UNL     1     -82.102 -13.936   3.816  1.00  0.00    -0.265 OA
BRANCH  19  21
HETATM   21  C3  UNL     1     -80.408 -13.951   5.442  1.00  0.00     0.138 C 
BRANCH  21  22
HETATM   22  C2  UNL     1     -80.894 -13.053   6.539  1.00  0.00    -0.027 C 
HETATM   23  C1  UNL     1     -80.462 -11.806   6.612  1.00  0.00     0.007 C 
ENDBRANCH  21  22
ENDBRANCH  19  21
ENDBRANCH  18  19
ENDBRANCH  12  18
ENDBRANCH   8   9
ENDBRANCH   1   7
BRANCH   3  24
HETATM   24  O4  UNL     1     -89.632 -15.919  13.184  1.00  0.00    -0.267 OA
BRANCH  24  25
HETATM   25  C14 UNL     1     -89.133 -16.489  14.353  1.00  0.00     0.365 C 
HETATM   26  O5  UNL     1     -87.998 -16.094  14.720  1.00  0.00    -0.252 OA
BRANCH  25  27
HETATM   27  C15 UNL     1     -89.858 -17.481  15.120  1.00  0.00     0.278 C 
HETATM   28  O6  UNL     1     -91.028 -17.845  14.860  1.00  0.00    -0.640 OA
HETATM   29  O7  UNL     1     -89.241 -18.075  16.211  1.00  0.00    -0.640 OA
ENDBRANCH  25  27
ENDBRANCH  24  25
ENDBRANCH   3  24
BRANCH   5  30
HETATM   30  C18 UNL     1     -91.341 -18.805   9.526  1.00  0.00    -0.021 C 
HETATM   31  C19 UNL     1     -92.582 -18.041   9.196  1.00  0.00     0.019 C 
HETATM   32  C20 UNL     1     -91.642 -19.982  10.430  1.00  0.00     0.019 C 
HETATM   33  C21 UNL     1     -90.770 -19.369   8.243  1.00  0.00     0.019 C 
ENDBRANCH   5  30
BRANCH   4  34
HETATM   34  O8  UNL     1     -91.555 -17.507  12.090  1.00  0.00    -0.357 OA
ATOM     35  H8  UNL     1     -91.566 -18.260  12.669  1.00  0.00     0.217 HD
ENDBRANCH   4  34
TORSDOF 12
ENDMDL
MODEL 3
REMARK VINA RESULT: -8.162506286      1.574      3.818
REMARK  12 active torsions:
REMARK  status: ('A' for Active; 'I' for Inactive)
REMARK    1  A    between atoms: C2_2  and  C3_3 
REMARK    2  A    between atoms: C3_3  and  C4_4 
REMARK    3  A    between atoms: C4_4  and  O2_6 
REMARK    4  A    between atoms: O2_6  and  C5_7 
REMARK    5  A    between atoms: C6_8  and  O3_9 
REMARK    6  A    between atoms: C8_12  and  C9_13 
REMARK    7  A    between atoms: C10_14  and  C11_15 
REMARK    8  A    between atoms: C13_17  and  O4_18 
REMARK    9  A    between atoms: O4_18  and  C14_19 
REMARK   10  A    between atoms: C14_19  and  C15_21 
REMARK   11  A    between atoms: C16_24  and  O8_25 
REMARK   12  A    between atoms: C17_27  and  C18_28 
ROOT
HETATM    1  C11 UNL     1     -84.482 -15.952   7.808  1.00  0.00    -0.033 A 
HETATM    2  C12 UNL     1     -83.736 -15.191   8.674  1.00  0.00     0.051 A 
HETATM    3  C13 UNL     1     -82.474 -14.745   8.339  1.00  0.00     0.114 A 
HETATM    4  C16 UNL     1     -81.989 -15.102   7.077  1.00  0.00     0.106 A 
HETATM    5  C17 UNL     1     -82.700 -15.861   6.178  1.00  0.00    -0.014 A 
HETATM    6  C22 UNL     1     -83.959 -16.286   6.558  1.00  0.00     0.022 A 
ENDROOT
BRANCH   1   7
HETATM    7  C10 UNL     1     -85.816 -16.425   8.161  1.00  0.00     0.012 C 
HETATM    8  C9  UNL     1     -86.733 -16.740   7.290  1.00  0.00     0.012 C 
BRANCH   8   9
HETATM    9  C8  UNL     1     -88.056 -17.210   7.701  1.00  0.00    -0.032 A 
HETATM   10  C7  UNL     1     -89.174 -16.890   6.911  1.00  0.00     0.051 A 
HETATM   11  C6  UNL     1     -90.432 -17.306   7.258  1.00  0.00     0.101 A 
HETATM   12  C5  UNL     1     -90.629 -18.053   8.396  1.00  0.00     0.129 A 
HETATM   13  C24 UNL     1     -89.558 -18.373   9.173  1.00  0.00     0.048 A 
HETATM   14  C23 UNL     1     -88.296 -17.954   8.824  1.00  0.00     0.033 A 
HETATM   15 BR1  UNL     1     -89.819 -19.422  10.774  1.00  0.00    -0.048 Br
BRANCH  11  16
HETATM   16  O3  UNL     1     -91.494 -16.958   6.439  1.00  0.00    -0.358 OA
ATOM     17  H3  UNL     1     -91.367 -16.397   5.684  1.00  0.00     0.217 HD
ENDBRANCH  11  16
BRANCH  12  18
HETATM   18  O2  UNL     1     -91.926 -18.465   8.726  1.00  0.00    -0.274 OA
BRANCH  18  19
HETATM   19  C4  UNL     1     -92.728 -17.755   9.594  1.00  0.00     0.267 C 
HETATM   20  O1  UNL     1     -92.735 -16.501   9.496  1.00  0.00    -0.265 OA
BRANCH  19  21
HETATM   21  C3  UNL     1     -93.587 -18.366  10.641  1.00  0.00     0.138 C 
BRANCH  21  22
HETATM   22  C2  UNL     1     -93.532 -19.862  10.578  1.00  0.00    -0.027 C 
HETATM   23  C1  UNL     1     -94.316 -20.585  11.358  1.00  0.00     0.007 C 
ENDBRANCH  21  22
ENDBRANCH  19  21
ENDBRANCH  18  19
ENDBRANCH  12  18
ENDBRANCH   8   9
ENDBRANCH   1   7
BRANCH   3  24
HETATM   24  O4  UNL     1     -81.720 -13.974   9.219  1.00  0.00    -0.267 OA
BRANCH  24  25
HETATM   25  C14 UNL     1     -81.036 -14.543  10.291  1.00  0.00     0.365 C 
HETATM   26  O5  UNL     1     -81.278 -14.055  11.423  1.00  0.00    -0.252 OA
BRANCH  25  27
HETATM   27  C15 UNL     1     -80.095 -15.634  10.139  1.00  0.00     0.278 C 
HETATM   28  O6  UNL     1     -80.121 -16.679  10.828  1.00  0.00    -0.640 OA
HETATM   29  O7  UNL     1     -79.097 -15.535   9.179  1.00  0.00    -0.640 OA
ENDBRANCH  25  27
ENDBRANCH  24  25
ENDBRANCH   3  24
BRANCH   5  30
HETATM   30  C18 UNL     1     -82.152 -16.247   4.828  1.00  0.00    -0.021 C 
HETATM   31  C19 UNL     1     -80.957 -17.138   4.924  1.00  0.00     0.019 C 
HETATM   32  C20 UNL     1     -81.852 -15.007   4.010  1.00  0.00     0.019 C 
HETATM   33  C21 UNL     1     -83.251 -16.995   4.105  1.00  0.00     0.019 C 
ENDBRANCH   5  30
BRANCH   4  34
HETATM   34  O8  UNL     1     -80.742 -14.649   6.769  1.00  0.00    -0.357 OA
ATOM     35  H8  UNL     1     -80.195 -15.246   6.271  1.00  0.00     0.217 HD
ENDBRANCH   4  34
TORSDOF 12
ENDMDL
MODEL 4
REMARK VINA RESULT: -8.133387052      3.473     10.544
REMARK  12 active torsions:
REMARK  status: ('A' for Active; 'I' for Inactive)
REMARK    1  A    between atoms: C2_2  and  C3_3 
REMARK    2  A    between atoms: C3_3  and  C4_4 
REMARK    3  A    between atoms: C4_4  and  O2_6 
REMARK    4  A    between atoms: O2_6  and  C5_7 
REMARK    5  A    between atoms: C6_8  and  O3_9 
REMARK    6  A    between atoms: C8_12  and  C9_13 
REMARK    7  A    between atoms: C10_14  and  C11_15 
REMARK    8  A    between atoms: C13_17  and  O4_18 
REMARK    9  A    between atoms: O4_18  and  C14_19 
REMARK   10  A    between atoms: C14_19  and  C15_21 
REMARK   11  A    between atoms: C16_24  and  O8_25 
REMARK   12  A    between atoms: C17_27  and  C18_28 
ROOT
HETATM    1  C11 UNL     1     -87.509 -17.897   9.567  1.00  0.00    -0.033 A 
HETATM    2  C12 UNL     1     -87.407 -18.257  10.888  1.00  0.00     0.051 A 
HETATM    3  C13 UNL     1     -88.521 -18.582  11.634  1.00  0.00     0.114 A 
HETATM    4  C16 UNL     1     -89.758 -18.528  10.985  1.00  0.00     0.106 A 
HETATM    5  C17 UNL     1     -89.907 -18.173   9.666  1.00  0.00    -0.014 A 
HETATM    6  C22 UNL     1     -88.764 -17.856   8.958  1.00  0.00     0.022 A 
ENDROOT
BRANCH   1   7
HETATM    7  C10 UNL     1     -86.332 -17.552   8.775  1.00  0.00     0.012 C 
HETATM    8  C9  UNL     1     -86.370 -16.840   7.685  1.00  0.00     0.012 C 
BRANCH   8   9
HETATM    9  C8  UNL     1     -85.157 -16.524   6.930  1.00  0.00    -0.032 A 
HETATM   10  C7  UNL     1     -85.272 -16.064   5.607  1.00  0.00     0.051 A 
HETATM   11  C6  UNL     1     -84.164 -15.758   4.862  1.00  0.00     0.101 A 
HETATM   12  C5  UNL     1     -82.905 -15.896   5.397  1.00  0.00     0.129 A 
HETATM   13  C24 UNL     1     -82.774 -16.340   6.677  1.00  0.00     0.048 A 
HETATM   14  C23 UNL     1     -83.887 -16.647   7.424  1.00  0.00     0.033 A 
HETATM   15 BR1  UNL     1     -81.012 -16.539   7.443  1.00  0.00    -0.048 Br
BRANCH  11  16
HETATM   16  O3  UNL     1     -84.343 -15.309   3.562  1.00  0.00    -0.358 OA
ATOM     17  H3  UNL     1     -85.167 -15.440   3.109  1.00  0.00     0.217 HD
ENDBRANCH  11  16
BRANCH  12  18
HETATM   18  O2  UNL     1     -81.791 -15.577   4.612  1.00  0.00    -0.274 OA
BRANCH  18  19
HETATM   19  C4  UNL     1     -81.339 -14.283   4.462  1.00  0.00     0.267 C 
HETATM   20  O1  UNL     1     -81.869 -13.575   3.567  1.00  0.00    -0.265 OA
BRANCH  19  21
HETATM   21  C3  UNL     1     -80.268 -13.661   5.282  1.00  0.00     0.138 C 
BRANCH  21  22
HETATM   22  C2  UNL     1     -80.846 -12.914   6.445  1.00  0.00    -0.027 C 
HETATM   23  C1  UNL     1     -80.446 -11.681   6.702  1.00  0.00     0.007 C 
ENDBRANCH  21  22
ENDBRANCH  19  21
ENDBRANCH  18  19
ENDBRANCH  12  18
ENDBRANCH   8   9
ENDBRANCH   1   7
BRANCH   3  24
HETATM   24  O4  UNL     1     -88.415 -18.947  12.974  1.00  0.00    -0.267 OA
BRANCH  24  25
HETATM   25  C14 UNL     1     -88.498 -18.007  13.999  1.00  0.00     0.365 C 
HETATM   26  O5  UNL     1     -87.538 -17.203  14.092  1.00  0.00    -0.252 OA
BRANCH  25  27
HETATM   27  C15 UNL     1     -89.615 -17.940  14.919  1.00  0.00     0.278 C 
HETATM   28  O6  UNL     1     -90.813 -17.895  14.558  1.00  0.00    -0.640 OA
HETATM   29  O7  UNL     1     -89.366 -17.923  16.284  1.00  0.00    -0.640 OA
ENDBRANCH  25  27
ENDBRANCH  24  25
ENDBRANCH   3  24
BRANCH   5  30
HETATM   30  C18 UNL     1     -91.253 -18.108   8.990  1.00  0.00    -0.021 C 
HETATM   31  C19 UNL     1     -92.232 -17.261   9.735  1.00  0.00     0.019 C 
HETATM   32  C20 UNL     1     -91.793 -19.505   8.761  1.00  0.00     0.019 C 
HETATM   33  C21 UNL     1     -91.029 -17.494   7.625  1.00  0.00     0.019 C 
ENDBRANCH   5  30
BRANCH   4  34
HETATM   34  O8  UNL     1     -90.842 -18.854  11.743  1.00  0.00    -0.357 OA
ATOM     35  H8  UNL     1     -91.671 -18.484  11.463  1.00  0.00     0.217 HD
ENDBRANCH   4  34
TORSDOF 12
ENDMDL
MODEL 5
REMARK VINA RESULT: -8.066373574      3.674     10.728
REMARK  12 active torsions:
REMARK  status: ('A' for Active; 'I' for Inactive)
REMARK    1  A    between atoms: C2_2  and  C3_3 
REMARK    2  A    between atoms: C3_3  and  C4_4 
REMARK    3  A    between atoms: C4_4  and  O2_6 
REMARK    4  A    between atoms: O2_6  and  C5_7 
REMARK    5  A    between atoms: C6_8  and  O3_9 
REMARK    6  A    between atoms: C8_12  and  C9_13 
REMARK    7  A    between atoms: C10_14  and  C11_15 
REMARK    8  A    between atoms: C13_17  and  O4_18 
REMARK    9  A    between atoms: O4_18  and  C14_19 
REMARK   10  A    between atoms: C14_19  and  C15_21 
REMARK   11  A    between atoms: C16_24  and  O8_25 
REMARK   12  A    between atoms: C17_27  and  C18_28 
ROOT
HETATM    1  C11 UNL     1     -88.585 -16.972  10.317  1.00  0.00    -0.033 A 
HETATM    2  C12 UNL     1     -88.766 -16.448  11.573  1.00  0.00     0.051 A 
HETATM    3  C13 UNL     1     -89.922 -16.678  12.290  1.00  0.00     0.114 A 
HETATM    4  C16 UNL     1     -90.901 -17.468  11.681  1.00  0.00     0.106 A 
HETATM    5  C17 UNL     1     -90.763 -18.013  10.427  1.00  0.00    -0.014 A 
HETATM    6  C22 UNL     1     -89.589 -17.756   9.746  1.00  0.00     0.022 A 
ENDROOT
BRANCH   1   7
HETATM    7  C10 UNL     1     -87.364 -16.730   9.555  1.00  0.00     0.012 C 
HETATM    8  C9  UNL     1     -87.279 -16.836   8.260  1.00  0.00     0.012 C 
BRANCH   8   9
HETATM    9  C8  UNL     1     -86.027 -16.581   7.547  1.00  0.00    -0.032 A 
HETATM   10  C7  UNL     1     -86.064 -16.310   6.168  1.00  0.00     0.051 A 
HETATM   11  C6  UNL     1     -84.917 -16.069   5.460  1.00  0.00     0.101 A 
HETATM   12  C5  UNL     1     -83.694 -16.085   6.089  1.00  0.00     0.129 A 
HETATM   13  C24 UNL     1     -83.638 -16.344   7.424  1.00  0.00     0.048 A 
HETATM   14  C23 UNL     1     -84.791 -16.587   8.134  1.00  0.00     0.033 A 
HETATM   15 BR1  UNL     1     -81.928 -16.370   8.321  1.00  0.00    -0.048 Br
BRANCH  11  16
HETATM   16  O3  UNL     1     -85.019 -15.809   4.102  1.00  0.00    -0.358 OA
ATOM     17  H3  UNL     1     -84.602 -16.374   3.463  1.00  0.00     0.217 HD
ENDBRANCH  11  16
BRANCH  12  18
HETATM   18  O2  UNL     1     -82.538 -15.834   5.340  1.00  0.00    -0.274 OA
BRANCH  18  19
HETATM   19  C4  UNL     1     -81.909 -16.814   4.601  1.00  0.00     0.267 C 
HETATM   20  O1  UNL     1     -82.425 -17.143   3.501  1.00  0.00    -0.265 OA
BRANCH  19  21
HETATM   21  C3  UNL     1     -80.664 -17.512   5.010  1.00  0.00     0.138 C 
BRANCH  21  22
HETATM   22  C2  UNL     1     -79.910 -18.013   3.815  1.00  0.00    -0.027 C 
HETATM   23  C1  UNL     1     -79.089 -19.041   3.937  1.00  0.00     0.007 C 
ENDBRANCH  21  22
ENDBRANCH  19  21
ENDBRANCH  18  19
ENDBRANCH  12  18
ENDBRANCH   8   9
ENDBRANCH   1   7
BRANCH   3  24
HETATM   24  O4  UNL     1     -90.103 -16.145  13.564  1.00  0.00    -0.267 OA
BRANCH  24  25
HETATM   25  C14 UNL     1     -89.478 -16.692  14.683  1.00  0.00     0.365 C 
HETATM   26  O5  UNL     1     -88.445 -16.101  15.084  1.00  0.00    -0.252 OA
BRANCH  25  27
HETATM   27  C15 UNL     1     -89.970 -17.873  15.363  1.00  0.00     0.278 C 
HETATM   28  O6  UNL     1     -91.153 -18.277  15.289  1.00  0.00    -0.640 OA
HETATM   29  O7  UNL     1     -89.097 -18.613  16.148  1.00  0.00    -0.640 OA
ENDBRANCH  25  27
ENDBRANCH  24  25
ENDBRANCH   3  24
BRANCH   5  30
HETATM   30  C18 UNL     1     -91.838 -18.851   9.783  1.00  0.00    -0.021 C 
HETATM   31  C19 UNL     1     -93.126 -18.112   9.622  1.00  0.00     0.019 C 
HETATM   32  C20 UNL     1     -92.033 -20.139  10.557  1.00  0.00     0.019 C 
HETATM   33  C21 UNL     1     -91.331 -19.237   8.410  1.00  0.00     0.019 C 
ENDBRANCH   5  30
BRANCH   4  34
HETATM   34  O8  UNL     1     -92.032 -17.681  12.410  1.00  0.00    -0.357 OA
ATOM     35  H8  UNL     1     -92.435 -18.536  12.310  1.00  0.00     0.217 HD
ENDBRANCH   4  34
TORSDOF 12
ENDMDL
