MODEL 1
REMARK VINA RESULT: -7.548475478      0.000      0.000
REMARK  7 active torsions:
REMARK  status: ('A' for Active; 'I' for Inactive)
REMARK    1  A    between atoms: S1_2  and  C2_3 
REMARK    2  A    between atoms: C7_9  and  N1_10 
REMARK    3  A    between atoms: N1_10  and  C8_12 
REMARK    4  A    between atoms: C9_15  and  C10_16 
REMARK    5  A    between atoms: C12_22  and  C13_23 
REMARK    6  A    between atoms: C13_23  and  O1_24 
REMARK    7  A    between atoms: O1_24  and  C14_25 
ROOT
HETATM    1  C8  UNL     1     -87.872 -14.715  10.006  1.00  0.00     0.683 A 
HETATM    2  N2  UNL     1     -89.071 -15.155  10.334  1.00  0.00    -0.187 N 
ATOM      3  H2  UNL     1     -89.151 -15.558  11.268  1.00  0.00     0.184 HD
HETATM    4  C9  UNL     1     -90.213 -15.147   9.603  1.00  0.00     0.106 A 
HETATM    5  C17 UNL     1     -90.051 -14.590   8.374  1.00  0.00     0.090 A 
HETATM    6  N5  UNL     1     -90.872 -14.303   7.367  1.00  0.00    -0.362 N 
ATOM      7  H5  UNL     1     -91.866 -14.532   7.372  1.00  0.00     0.165 HD
HETATM    8  C18 UNL     1     -90.260 -13.676   6.332  1.00  0.00     0.097 A 
HETATM    9  C19 UNL     1     -88.963 -13.548   6.697  1.00  0.00    -0.017 A 
HETATM   10  C20 UNL     1     -87.887 -12.922   5.871  1.00  0.00     0.052 C 
HETATM   11  C21 UNL     1     -88.799 -14.096   7.952  1.00  0.00     0.085 A 
HETATM   12  N6  UNL     1     -87.749 -14.170   8.773  1.00  0.00    -0.189 N 
ATOM     13  H6  UNL     1     -86.844 -13.813   8.468  1.00  0.00     0.184 HD
ENDROOT
BRANCH   4  14
HETATM   14  C10 UNL     1     -91.408 -15.634  10.261  1.00  0.00     0.087 A 
HETATM   15  N3  UNL     1     -92.170 -16.585   9.563  1.00  0.00    -0.298 N 
HETATM   16  N4  UNL     1     -93.276 -16.770  10.180  1.00  0.00    -0.311 N 
ATOM     17  H3  UNL     1     -91.888 -17.053   8.702  1.00  0.00     0.187 HD
HETATM   18  C11 UNL     1     -93.377 -16.046  11.248  1.00  0.00     0.118 A 
ATOM     19  H4  UNL     1     -93.998 -17.417   9.864  1.00  0.00     0.186 HD
HETATM   20  C12 UNL     1     -92.174 -15.300  11.315  1.00  0.00     0.013 A 
BRANCH  20  21
HETATM   21  C13 UNL     1     -91.934 -14.298  12.333  1.00  0.00     0.210 C 
BRANCH  21  22
HETATM   22  O1  UNL     1     -90.760 -14.620  13.052  1.00  0.00    -0.382 OA
BRANCH  22  23
HETATM   23  C14 UNL     1     -90.352 -13.531  13.797  1.00  0.00     0.113 C 
HETATM   24  C15 UNL     1     -89.611 -13.941  15.055  1.00  0.00     0.039 C 
HETATM   25  C16 UNL     1     -89.470 -12.646  12.976  1.00  0.00     0.039 C 
ENDBRANCH  22  23
ENDBRANCH  21  22
ENDBRANCH  20  21
ENDBRANCH   4  14
BRANCH   1  26
HETATM   26  N1  UNL     1     -86.987 -14.877  10.829  1.00  0.00    -0.190 N 
ATOM     27  H1  UNL     1     -86.166 -15.164  10.297  1.00  0.00     0.184 HD
BRANCH  26  28
HETATM   28  C7  UNL     1     -86.599 -14.853  12.102  1.00  0.00     0.067 A 
HETATM   29  C2  UNL     1     -85.807 -13.806  12.605  1.00  0.00     0.027 A 
HETATM   30  C3  UNL     1     -85.409 -13.793  13.916  1.00  0.00     0.022 A 
HETATM   31  C4  UNL     1     -85.775 -14.813  14.788  1.00  0.00     0.020 A 
HETATM   32  C5  UNL     1     -86.545 -15.839  14.320  1.00  0.00     0.013 A 
HETATM   33 BR1  UNL     1     -87.029 -17.227  15.566  1.00  0.00    -0.051 Br
HETATM   34  C6  UNL     1     -86.937 -15.847  13.016  1.00  0.00     0.050 A 
BRANCH  29  35
HETATM   35  S1  UNL     1     -85.320 -12.486  11.511  1.00  0.00    -0.132 SA
HETATM   36  C1  UNL     1     -86.288 -10.987  11.731  1.00  0.00     0.095 C 
ENDBRANCH  29  35
ENDBRANCH  26  28
ENDBRANCH   1  26
TORSDOF 7
ENDMDL
MODEL 2
REMARK VINA RESULT: -7.492992990      2.438      3.222
REMARK  7 active torsions:
REMARK  status: ('A' for Active; 'I' for Inactive)
REMARK    1  A    between atoms: S1_2  and  C2_3 
REMARK    2  A    between atoms: C7_9  and  N1_10 
REMARK    3  A    between atoms: N1_10  and  C8_12 
REMARK    4  A    between atoms: C9_15  and  C10_16 
REMARK    5  A    between atoms: C12_22  and  C13_23 
REMARK    6  A    between atoms: C13_23  and  O1_24 
REMARK    7  A    between atoms: O1_24  and  C14_25 
ROOT
HETATM    1  C8  UNL     1     -88.631 -15.312  11.732  1.00  0.00     0.683 A 
HETATM    2  N2  UNL     1     -89.572 -16.043  11.166  1.00  0.00    -0.187 N 
ATOM      3  H2  UNL     1     -90.148 -16.590  11.806  1.00  0.00     0.184 HD
HETATM    4  C9  UNL     1     -89.882 -16.169   9.852  1.00  0.00     0.106 A 
HETATM    5  C17 UNL     1     -89.092 -15.411   9.046  1.00  0.00     0.090 A 
HETATM    6  N5  UNL     1     -89.065 -15.156   7.741  1.00  0.00    -0.362 N 
ATOM      7  H5  UNL     1     -89.703 -15.590   7.073  1.00  0.00     0.165 HD
HETATM    8  C18 UNL     1     -88.109 -14.264   7.383  1.00  0.00     0.097 A 
HETATM    9  C19 UNL     1     -87.482 -13.919   8.531  1.00  0.00    -0.017 A 
HETATM   10  C20 UNL     1     -86.342 -12.960   8.643  1.00  0.00     0.052 C 
HETATM   11  C21 UNL     1     -88.064 -14.602   9.578  1.00  0.00     0.085 A 
HETATM   12  N6  UNL     1     -87.862 -14.575  10.897  1.00  0.00    -0.189 N 
ATOM     13  H6  UNL     1     -87.119 -13.990  11.281  1.00  0.00     0.184 HD
ENDROOT
BRANCH   4  14
HETATM   14  C10 UNL     1     -91.029 -16.993   9.532  1.00  0.00     0.087 A 
HETATM   15  N3  UNL     1     -90.904 -17.845   8.422  1.00  0.00    -0.298 N 
HETATM   16  N4  UNL     1     -92.046 -18.357   8.156  1.00  0.00    -0.311 N 
ATOM     17  H3  UNL     1     -90.041 -18.027   7.911  1.00  0.00     0.187 HD
HETATM   18  C11 UNL     1     -92.973 -17.954   8.966  1.00  0.00     0.118 A 
ATOM     19  H4  UNL     1     -92.208 -19.010   7.391  1.00  0.00     0.186 HD
HETATM   20  C12 UNL     1     -92.331 -17.065   9.864  1.00  0.00     0.013 A 
BRANCH  20  21
HETATM   21  C13 UNL     1     -93.051 -16.330  10.882  1.00  0.00     0.210 C 
BRANCH  21  22
HETATM   22  O1  UNL     1     -92.528 -15.021  10.985  1.00  0.00    -0.382 OA
BRANCH  22  23
HETATM   23  C14 UNL     1     -93.255 -14.161  10.183  1.00  0.00     0.113 C 
HETATM   24  C15 UNL     1     -93.990 -13.109  10.990  1.00  0.00     0.039 C 
HETATM   25  C16 UNL     1     -92.352 -13.484   9.204  1.00  0.00     0.039 C 
ENDBRANCH  22  23
ENDBRANCH  21  22
ENDBRANCH  20  21
ENDBRANCH   4  14
BRANCH   1  26
HETATM   26  N1  UNL     1     -88.522 -15.405  12.942  1.00  0.00    -0.190 N 
ATOM     27  H1  UNL     1     -88.916 -14.544  13.320  1.00  0.00     0.184 HD
BRANCH  26  28
HETATM   28  C7  UNL     1     -88.127 -16.111  13.999  1.00  0.00     0.067 A 
HETATM   29  C2  UNL     1     -88.337 -15.647  15.309  1.00  0.00     0.027 A 
HETATM   30  C3  UNL     1     -87.922 -16.380  16.389  1.00  0.00     0.022 A 
HETATM   31  C4  UNL     1     -87.282 -17.604  16.224  1.00  0.00     0.020 A 
HETATM   32  C5  UNL     1     -87.070 -18.075  14.960  1.00  0.00     0.013 A 
HETATM   33 BR1  UNL     1     -86.183 -19.776  14.782  1.00  0.00    -0.051 Br
HETATM   34  C6  UNL     1     -87.484 -17.341  13.889  1.00  0.00     0.050 A 
BRANCH  29  35
HETATM   35  S1  UNL     1     -89.151 -14.080  15.552  1.00  0.00    -0.132 SA
HETATM   36  C1  UNL     1     -88.138 -12.883  16.433  1.00  0.00     0.095 C 
ENDBRANCH  29  35
ENDBRANCH  26  28
ENDBRANCH   1  26
TORSDOF 7
ENDMDL
MODEL 3
REMARK VINA RESULT: -7.397107958      3.030      5.624
REMARK  7 active torsions:
REMARK  status: ('A' for Active; 'I' for Inactive)
REMARK    1  A    between atoms: S1_2  and  C2_3 
REMARK    2  A    between atoms: C7_9  and  N1_10 
REMARK    3  A    between atoms: N1_10  and  C8_12 
REMARK    4  A    between atoms: C9_15  and  C10_16 
REMARK    5  A    between atoms: C12_22  and  C13_23 
REMARK    6  A    between atoms: C13_23  and  O1_24 
REMARK    7  A    between atoms: O1_24  and  C14_25 
ROOT
HETATM    1  C8  UNL     1     -87.903 -14.407  11.330  1.00  0.00     0.683 A 
HETATM    2  N2  UNL     1     -89.189 -14.205  11.112  1.00  0.00    -0.187 N 
ATOM      3  H2  UNL     1     -89.466 -14.161  10.131  1.00  0.00     0.184 HD
HETATM    4  C9  UNL     1     -90.193 -14.049  12.009  1.00  0.00     0.106 A 
HETATM    5  C17 UNL     1     -89.769 -14.127  13.298  1.00  0.00     0.090 A 
HETATM    6  N5  UNL     1     -90.378 -14.110  14.481  1.00  0.00    -0.362 N 
ATOM      7  H5  UNL     1     -91.383 -13.977  14.591  1.00  0.00     0.165 HD
HETATM    8  C18 UNL     1     -89.533 -14.285  15.527  1.00  0.00     0.097 A 
HETATM    9  C19 UNL     1     -88.302 -14.429  14.984  1.00  0.00    -0.017 A 
HETATM   10  C20 UNL     1     -87.035 -14.640  15.747  1.00  0.00     0.052 C 
HETATM   11  C21 UNL     1     -88.410 -14.342  13.611  1.00  0.00     0.085 A 
HETATM   12  N6  UNL     1     -87.519 -14.475  12.626  1.00  0.00    -0.189 N 
ATOM     13  H6  UNL     1     -86.536 -14.630  12.853  1.00  0.00     0.184 HD
ENDROOT
BRANCH   4  14
HETATM   14  C10 UNL     1     -91.531 -13.919  11.469  1.00  0.00     0.087 A 
HETATM   15  N3  UNL     1     -92.553 -13.614  12.383  1.00  0.00    -0.298 N 
HETATM   16  N4  UNL     1     -93.685 -13.721  11.796  1.00  0.00    -0.311 N 
ATOM     17  H3  UNL     1     -92.415 -13.350  13.358  1.00  0.00     0.187 HD
HETATM   18  C11 UNL     1     -93.571 -14.072  10.554  1.00  0.00     0.118 A 
ATOM     19  H4  UNL     1     -94.579 -13.549  12.255  1.00  0.00     0.186 HD
HETATM   20  C12 UNL     1     -92.178 -14.208  10.326  1.00  0.00     0.013 A 
BRANCH  20  21
HETATM   21  C13 UNL     1     -91.637 -14.674   9.067  1.00  0.00     0.210 C 
BRANCH  21  22
HETATM   22  O1  UNL     1     -92.322 -15.841   8.656  1.00  0.00    -0.382 OA
BRANCH  22  23
HETATM   23  C14 UNL     1     -91.818 -16.940   9.325  1.00  0.00     0.113 C 
HETATM   24  C15 UNL     1     -92.914 -17.778   9.957  1.00  0.00     0.039 C 
HETATM   25  C16 UNL     1     -91.027 -17.795   8.389  1.00  0.00     0.039 C 
ENDBRANCH  22  23
ENDBRANCH  21  22
ENDBRANCH  20  21
ENDBRANCH   4  14
BRANCH   1  26
HETATM   26  N1  UNL     1     -87.187 -14.472  10.347  1.00  0.00    -0.190 N 
ATOM     27  H1  UNL     1     -86.629 -15.317  10.468  1.00  0.00     0.184 HD
BRANCH  26  28
HETATM   28  C7  UNL     1     -86.796 -13.949   9.187  1.00  0.00     0.067 A 
HETATM   29  C2  UNL     1     -85.502 -13.427   9.019  1.00  0.00     0.027 A 
HETATM   30  C3  UNL     1     -85.111 -12.887   7.822  1.00  0.00     0.022 A 
HETATM   31  C4  UNL     1     -85.981 -12.840   6.737  1.00  0.00     0.020 A 
HETATM   32  C5  UNL     1     -87.242 -13.344   6.878  1.00  0.00     0.013 A 
HETATM   33 BR1  UNL     1     -88.409 -13.259   5.346  1.00  0.00    -0.051 Br
HETATM   34  C6  UNL     1     -87.625 -13.878   8.071  1.00  0.00     0.050 A 
BRANCH  29  35
HETATM   35  S1  UNL     1     -84.366 -13.470  10.392  1.00  0.00    -0.132 SA
HETATM   36  C1  UNL     1     -84.639 -12.149  11.581  1.00  0.00     0.095 C 
ENDBRANCH  29  35
ENDBRANCH  26  28
ENDBRANCH   1  26
TORSDOF 7
ENDMDL
MODEL 4
REMARK VINA RESULT: -7.356614239      3.143      6.192
REMARK  7 active torsions:
REMARK  status: ('A' for Active; 'I' for Inactive)
REMARK    1  A    between atoms: S1_2  and  C2_3 
REMARK    2  A    between atoms: C7_9  and  N1_10 
REMARK    3  A    between atoms: N1_10  and  C8_12 
REMARK    4  A    between atoms: C9_15  and  C10_16 
REMARK    5  A    between atoms: C12_22  and  C13_23 
REMARK    6  A    between atoms: C13_23  and  O1_24 
REMARK    7  A    between atoms: O1_24  and  C14_25 
ROOT
HETATM    1  C8  UNL     1     -88.692 -13.337  11.198  1.00  0.00     0.683 A 
HETATM    2  N2  UNL     1     -88.766 -13.409  12.513  1.00  0.00    -0.187 N 
ATOM      3  H2  UNL     1     -89.626 -13.815  12.883  1.00  0.00     0.184 HD
HETATM    4  C9  UNL     1     -87.858 -13.019  13.443  1.00  0.00     0.106 A 
HETATM    5  C17 UNL     1     -86.730 -12.497  12.894  1.00  0.00     0.090 A 
HETATM    6  N5  UNL     1     -85.571 -12.063  13.384  1.00  0.00    -0.362 N 
ATOM      7  H5  UNL     1     -85.366 -12.024  14.383  1.00  0.00     0.165 HD
HETATM    8  C18 UNL     1     -84.690 -11.676  12.429  1.00  0.00     0.097 A 
HETATM    9  C19 UNL     1     -85.319 -11.877  11.248  1.00  0.00    -0.017 A 
HETATM   10  C20 UNL     1     -84.746 -11.588   9.899  1.00  0.00     0.052 C 
HETATM   11  C21 UNL     1     -86.577 -12.387  11.495  1.00  0.00     0.085 A 
HETATM   12  N6  UNL     1     -87.555 -12.807  10.690  1.00  0.00    -0.189 N 
ATOM     13  H6  UNL     1     -87.444 -12.728   9.679  1.00  0.00     0.184 HD
ENDROOT
BRANCH   4  14
HETATM   14  C10 UNL     1     -88.186 -13.298  14.826  1.00  0.00     0.087 A 
HETATM   15  N3  UNL     1     -88.390 -12.187  15.661  1.00  0.00    -0.298 N 
HETATM   16  N4  UNL     1     -88.480 -12.587  16.873  1.00  0.00    -0.311 N 
ATOM     17  H3  UNL     1     -88.457 -11.218  15.351  1.00  0.00     0.187 HD
HETATM   18  C11 UNL     1     -88.360 -13.871  16.985  1.00  0.00     0.118 A 
ATOM     19  H4  UNL     1     -88.630 -11.962  17.665  1.00  0.00     0.186 HD
HETATM   20  C12 UNL     1     -88.166 -14.349  15.664  1.00  0.00     0.013 A 
BRANCH  20  21
HETATM   21  C13 UNL     1     -87.903 -15.742  15.370  1.00  0.00     0.210 C 
BRANCH  21  22
HETATM   22  O1  UNL     1     -88.967 -16.540  15.851  1.00  0.00    -0.382 OA
BRANCH  22  23
HETATM   23  C14 UNL     1     -88.492 -17.784  16.217  1.00  0.00     0.113 C 
HETATM   24  C15 UNL     1     -87.860 -18.522  15.052  1.00  0.00     0.039 C 
HETATM   25  C16 UNL     1     -87.485 -17.649  17.314  1.00  0.00     0.039 C 
ENDBRANCH  22  23
ENDBRANCH  21  22
ENDBRANCH  20  21
ENDBRANCH   4  14
BRANCH   1  26
HETATM   26  N1  UNL     1     -89.668 -13.716  10.575  1.00  0.00    -0.190 N 
ATOM     27  H1  UNL     1     -90.166 -12.869  10.303  1.00  0.00     0.184 HD
BRANCH  26  28
HETATM   28  C7  UNL     1     -90.385 -14.726  10.086  1.00  0.00     0.067 A 
HETATM   29  C2  UNL     1     -90.046 -15.341   8.868  1.00  0.00     0.027 A 
HETATM   30  C3  UNL     1     -90.792 -16.377   8.372  1.00  0.00     0.022 A 
HETATM   31  C4  UNL     1     -91.907 -16.852   9.057  1.00  0.00     0.020 A 
HETATM   32  C5  UNL     1     -92.252 -16.270  10.242  1.00  0.00     0.013 A 
HETATM   33 BR1  UNL     1     -93.802 -16.964  11.155  1.00  0.00    -0.051 Br
HETATM   34  C6  UNL     1     -91.507 -15.239  10.731  1.00  0.00     0.050 A 
BRANCH  29  35
HETATM   35  S1  UNL     1     -88.626 -14.752   7.967  1.00  0.00    -0.132 SA
HETATM   36  C1  UNL     1     -89.049 -13.614   6.641  1.00  0.00     0.095 C 
ENDBRANCH  29  35
ENDBRANCH  26  28
ENDBRANCH   1  26
TORSDOF 7
ENDMDL
MODEL 5
REMARK VINA RESULT: -7.352512234      2.781      5.296
REMARK  7 active torsions:
REMARK  status: ('A' for Active; 'I' for Inactive)
REMARK    1  A    between atoms: S1_2  and  C2_3 
REMARK    2  A    between atoms: C7_9  and  N1_10 
REMARK    3  A    between atoms: N1_10  and  C8_12 
REMARK    4  A    between atoms: C9_15  and  C10_16 
REMARK    5  A    between atoms: C12_22  and  C13_23 
REMARK    6  A    between atoms: C13_23  and  O1_24 
REMARK    7  A    between atoms: O1_24  and  C14_25 
ROOT
HETATM    1  C8  UNL     1     -89.336 -14.861   9.075  1.00  0.00     0.683 A 
HETATM    2  N2  UNL     1     -89.287 -14.076  10.134  1.00  0.00    -0.187 N 
ATOM      3  H2  UNL     1     -88.509 -13.415  10.154  1.00  0.00     0.184 HD
HETATM    4  C9  UNL     1     -90.123 -14.024  11.200  1.00  0.00     0.106 A 
HETATM    5  C17 UNL     1     -91.145 -14.917  11.115  1.00  0.00     0.090 A 
HETATM    6  N5  UNL     1     -92.218 -15.177  11.857  1.00  0.00    -0.362 N 
ATOM      7  H5  UNL     1     -92.423 -14.695  12.733  1.00  0.00     0.165 HD
HETATM    8  C18 UNL     1     -93.015 -16.143  11.337  1.00  0.00     0.097 A 
HETATM    9  C19 UNL     1     -92.419 -16.528  10.184  1.00  0.00    -0.017 A 
HETATM   10  C20 UNL     1     -92.924 -17.583   9.256  1.00  0.00     0.052 C 
HETATM   11  C21 UNL     1     -91.266 -15.790  10.012  1.00  0.00     0.085 A 
HETATM   12  N6  UNL     1     -90.365 -15.740   9.029  1.00  0.00    -0.189 N 
ATOM     13  H6  UNL     1     -90.453 -16.371   8.232  1.00  0.00     0.184 HD
ENDROOT
BRANCH   4  14
HETATM   14  C10 UNL     1     -89.858 -12.995  12.183  1.00  0.00     0.087 A 
HETATM   15  N3  UNL     1     -89.242 -11.822  11.718  1.00  0.00    -0.298 N 
HETATM   16  N4  UNL     1     -88.904 -11.101  12.720  1.00  0.00    -0.311 N 
ATOM     17  H3  UNL     1     -89.088 -11.583  10.739  1.00  0.00     0.187 HD
HETATM   18  C11 UNL     1     -89.219 -11.644  13.853  1.00  0.00     0.118 A 
ATOM     19  H4  UNL     1     -88.438 -10.198  12.635  1.00  0.00     0.186 HD
HETATM   20  C12 UNL     1     -89.837 -12.876  13.523  1.00  0.00     0.013 A 
BRANCH  20  21
HETATM   21  C13 UNL     1     -90.261 -13.828  14.528  1.00  0.00     0.210 C 
BRANCH  21  22
HETATM   22  O1  UNL     1     -89.818 -15.124  14.174  1.00  0.00    -0.382 OA
BRANCH  22  23
HETATM   23  C14 UNL     1     -88.489 -15.276  14.521  1.00  0.00     0.113 C 
HETATM   24  C15 UNL     1     -88.318 -16.088  15.791  1.00  0.00     0.039 C 
HETATM   25  C16 UNL     1     -87.739 -15.940  13.412  1.00  0.00     0.039 C 
ENDBRANCH  22  23
ENDBRANCH  21  22
ENDBRANCH  20  21
ENDBRANCH   4  14
BRANCH   1  26
HETATM   26  N1  UNL     1     -88.432 -14.745   8.266  1.00  0.00    -0.190 N 
ATOM     27  H1  UNL     1     -88.511 -15.552   7.648  1.00  0.00     0.184 HD
BRANCH  26  28
HETATM   28  C7  UNL     1     -87.389 -14.051   7.818  1.00  0.00     0.067 A 
HETATM   29  C2  UNL     1     -87.377 -13.504   6.522  1.00  0.00     0.027 A 
HETATM   30  C3  UNL     1     -86.296 -12.794   6.069  1.00  0.00     0.022 A 
HETATM   31  C4  UNL     1     -85.180 -12.592   6.874  1.00  0.00     0.020 A 
HETATM   32  C5  UNL     1     -85.172 -13.113   8.136  1.00  0.00     0.013 A 
HETATM   33 BR1  UNL     1     -83.605 -12.805   9.216  1.00  0.00    -0.051 Br
HETATM   34  C6  UNL     1     -86.249 -13.819   8.582  1.00  0.00     0.050 A 
BRANCH  29  35
HETATM   35  S1  UNL     1     -88.791 -13.749   5.466  1.00  0.00    -0.132 SA
HETATM   36  C1  UNL     1     -90.289 -12.979   6.095  1.00  0.00     0.095 C 
ENDBRANCH  29  35
ENDBRANCH  26  28
ENDBRANCH   1  26
TORSDOF 7
ENDMDL
