MODEL 1
REMARK VINA RESULT: -7.756946108      0.000      0.000
REMARK  11 active torsions:
REMARK  status: ('A' for Active; 'I' for Inactive)
REMARK    1  A    between atoms: C2_2  and  S1_4 
REMARK    2  A    between atoms: S1_4  and  N1_7 
REMARK    3  A    between atoms: N1_7  and  C4_9 
REMARK    4  A    between atoms: C4_9  and  C5_13 
REMARK    5  A    between atoms: C5_13  and  C6_14 
REMARK    6  A    between atoms: C5_13  and  N3_19 
REMARK    7  A    between atoms: C6_14  and  C7_15 
REMARK       I    between atoms: N3_19  and  C11_20 
REMARK    8  A    between atoms: C11_20  and  O4_22 
REMARK    9  A    between atoms: O4_22  and  C12_23 
REMARK   10  A    between atoms: C16_28  and  S2_29 
REMARK   11  A    between atoms: S2_29  and  C17_30 
ROOT
HETATM    1  C5  UNL     1     -88.869 -16.759   8.510  1.00  0.00     0.237 C 
ENDROOT
BRANCH   1   2
HETATM    2  C4  UNL     1     -90.223 -17.496   8.301  1.00  0.00     0.121 C 
HETATM    3  N2  UNL     1     -90.945 -17.065   7.358  1.00  0.00    -0.386 N 
ATOM      4  H22 UNL     1     -91.833 -17.548   7.220  1.00  0.00     0.157 HD
ATOM      5  H21 UNL     1     -90.722 -16.298   6.724  1.00  0.00     0.157 HD
BRANCH   2   6
HETATM    6  N1  UNL     1     -90.534 -18.562   9.181  1.00  0.00    -0.271 N 
ATOM      7  H1  UNL     1     -89.919 -19.375   9.197  1.00  0.00     0.180 HD
BRANCH   6   8
HETATM    8  S1  UNL     1     -91.904 -18.547  10.224  1.00  0.00     0.235 S 
HETATM    9  O1  UNL     1     -92.996 -17.644   9.710  1.00  0.00    -0.205 OA
HETATM   10  O2  UNL     1     -91.425 -18.033  11.560  1.00  0.00    -0.205 OA
BRANCH   8  11
HETATM   11  C2  UNL     1     -92.557 -20.177  10.362  1.00  0.00     0.121 C 
HETATM   12  C1  UNL     1     -92.721 -20.790   9.001  1.00  0.00     0.027 C 
HETATM   13  C3  UNL     1     -93.900 -20.194  11.057  1.00  0.00     0.027 C 
ENDBRANCH   8  11
ENDBRANCH   6   8
ENDBRANCH   2   6
ENDBRANCH   1   2
BRANCH   1  14
HETATM   14  C6  UNL     1     -87.961 -17.791   9.149  1.00  0.00     0.056 C 
BRANCH  14  15
HETATM   15  C7  UNL     1     -87.194 -17.369  10.332  1.00  0.00    -0.048 C 
HETATM   16  C8  UNL     1     -87.049 -15.899  10.576  1.00  0.00     0.014 C 
HETATM   17  C9  UNL     1     -87.728 -17.966  11.630  1.00  0.00     0.014 C 
HETATM   18  C10 UNL     1     -85.753 -17.907  10.214  1.00  0.00     0.014 C 
ENDBRANCH  14  15
ENDBRANCH   1  14
BRANCH   1  19
HETATM   19  N3  UNL     1     -88.425 -16.355   7.277  1.00  0.00    -0.377 NA
HETATM   20  C11 UNL     1     -87.983 -15.952   6.046  1.00  0.00     0.440 C 
HETATM   21  O3  UNL     1     -88.385 -16.338   4.931  1.00  0.00    -0.221 OA
BRANCH  20  22
HETATM   22  O4  UNL     1     -86.941 -14.973   5.934  1.00  0.00    -0.250 OA
BRANCH  22  23
HETATM   23  C12 UNL     1     -85.622 -15.266   6.220  1.00  0.00     0.085 A 
HETATM   24  C13 UNL     1     -84.817 -15.672   5.175  1.00  0.00     0.061 A 
HETATM   25  C14 UNL     1     -83.498 -15.968   5.421  1.00  0.00     0.038 A 
HETATM   26 CL1  UNL     1     -82.490 -16.483   4.090  1.00  0.00    -0.084 Cl
HETATM   27  C15 UNL     1     -82.978 -15.859   6.718  1.00  0.00     0.042 A 
HETATM   28  C16 UNL     1     -83.771 -15.457   7.758  1.00  0.00     0.005 A 
HETATM   29  C21 UNL     1     -85.088 -15.163   7.509  1.00  0.00     0.056 A 
BRANCH  28  30
HETATM   30  S2  UNL     1     -83.135 -15.293   9.398  1.00  0.00    -0.121 SA
BRANCH  30  31
HETATM   31  C17 UNL     1     -81.632 -14.339   9.530  1.00  0.00     0.002 C 
HETATM   32  C18 UNL     1     -81.467 -13.795  10.952  1.00  0.00     0.026 C 
HETATM   33  C19 UNL     1     -81.520 -13.186   8.587  1.00  0.00     0.026 C 
HETATM   34  C20 UNL     1     -80.463 -15.305   9.285  1.00  0.00     0.026 C 
ENDBRANCH  30  31
ENDBRANCH  28  30
ENDBRANCH  22  23
ENDBRANCH  20  22
ENDBRANCH   1  19
TORSDOF 11
ENDMDL
MODEL 2
REMARK VINA RESULT: -7.662914770      1.971      2.885
REMARK  11 active torsions:
REMARK  status: ('A' for Active; 'I' for Inactive)
REMARK    1  A    between atoms: C2_2  and  S1_4 
REMARK    2  A    between atoms: S1_4  and  N1_7 
REMARK    3  A    between atoms: N1_7  and  C4_9 
REMARK    4  A    between atoms: C4_9  and  C5_13 
REMARK    5  A    between atoms: C5_13  and  C6_14 
REMARK    6  A    between atoms: C5_13  and  N3_19 
REMARK    7  A    between atoms: C6_14  and  C7_15 
REMARK       I    between atoms: N3_19  and  C11_20 
REMARK    8  A    between atoms: C11_20  and  O4_22 
REMARK    9  A    between atoms: O4_22  and  C12_23 
REMARK   10  A    between atoms: C16_28  and  S2_29 
REMARK   11  A    between atoms: S2_29  and  C17_30 
ROOT
HETATM    1  C5  UNL     1     -89.124 -16.747   8.373  1.00  0.00     0.237 C 
ENDROOT
BRANCH   1   2
HETATM    2  C4  UNL     1     -90.531 -17.364   8.124  1.00  0.00     0.121 C 
HETATM    3  N2  UNL     1     -91.228 -16.804   7.231  1.00  0.00    -0.386 N 
ATOM      4  H22 UNL     1     -92.150 -17.208   7.068  1.00  0.00     0.157 HD
ATOM      5  H21 UNL     1     -90.955 -16.005   6.661  1.00  0.00     0.157 HD
BRANCH   2   6
HETATM    6  N1  UNL     1     -90.911 -18.475   8.917  1.00  0.00    -0.271 N 
ATOM      7  H1  UNL     1     -90.424 -19.360   8.779  1.00  0.00     0.180 HD
BRANCH   6   8
HETATM    8  S1  UNL     1     -92.157 -18.398  10.103  1.00  0.00     0.235 S 
HETATM    9  O1  UNL     1     -93.337 -17.588   9.630  1.00  0.00    -0.205 OA
HETATM   10  O2  UNL     1     -91.557 -17.733  11.318  1.00  0.00    -0.205 OA
BRANCH   8  11
HETATM   11  C2  UNL     1     -92.718 -20.025  10.475  1.00  0.00     0.121 C 
HETATM   12  C1  UNL     1     -92.814 -20.843   9.218  1.00  0.00     0.027 C 
HETATM   13  C3  UNL     1     -94.074 -20.020  11.144  1.00  0.00     0.027 C 
ENDBRANCH   8  11
ENDBRANCH   6   8
ENDBRANCH   2   6
ENDBRANCH   1   2
BRANCH   1  14
HETATM   14  C6  UNL     1     -88.329 -17.851   9.040  1.00  0.00     0.056 C 
BRANCH  14  15
HETATM   15  C7  UNL     1     -87.507 -17.478  10.202  1.00  0.00    -0.048 C 
HETATM   16  C8  UNL     1     -86.068 -17.890  10.195  1.00  0.00     0.014 C 
HETATM   17  C9  UNL     1     -87.520 -15.979  10.482  1.00  0.00     0.014 C 
HETATM   18  C10 UNL     1     -88.109 -18.120  11.469  1.00  0.00     0.014 C 
ENDBRANCH  14  15
ENDBRANCH   1  14
BRANCH   1  19
HETATM   19  N3  UNL     1     -88.610 -16.387   7.153  1.00  0.00    -0.377 NA
HETATM   20  C11 UNL     1     -88.099 -16.029   5.935  1.00  0.00     0.440 C 
HETATM   21  O3  UNL     1     -88.426 -16.468   4.815  1.00  0.00    -0.221 OA
BRANCH  20  22
HETATM   22  O4  UNL     1     -87.064 -15.041   5.845  1.00  0.00    -0.250 OA
BRANCH  22  23
HETATM   23  C12 UNL     1     -85.740 -15.335   6.108  1.00  0.00     0.085 A 
HETATM   24  C13 UNL     1     -85.340 -15.356   7.429  1.00  0.00     0.061 A 
HETATM   25  C14 UNL     1     -84.032 -15.648   7.728  1.00  0.00     0.038 A 
HETATM   26 CL1  UNL     1     -83.539 -15.668   9.405  1.00  0.00    -0.084 Cl
HETATM   27  C15 UNL     1     -83.115 -15.921   6.705  1.00  0.00     0.042 A 
HETATM   28  C16 UNL     1     -83.505 -15.902   5.393  1.00  0.00     0.005 A 
HETATM   29  C21 UNL     1     -84.813 -15.609   5.097  1.00  0.00     0.056 A 
BRANCH  28  30
HETATM   30  S2  UNL     1     -82.373 -16.262   4.085  1.00  0.00    -0.121 SA
BRANCH  30  31
HETATM   31  C17 UNL     1     -81.266 -14.928   3.661  1.00  0.00     0.002 C 
HETATM   32  C18 UNL     1     -79.892 -15.149   4.300  1.00  0.00     0.026 C 
HETATM   33  C19 UNL     1     -81.731 -13.562   4.044  1.00  0.00     0.026 C 
HETATM   34  C20 UNL     1     -81.061 -14.981   2.139  1.00  0.00     0.026 C 
ENDBRANCH  30  31
ENDBRANCH  28  30
ENDBRANCH  22  23
ENDBRANCH  20  22
ENDBRANCH   1  19
TORSDOF 11
ENDMDL
MODEL 3
REMARK VINA RESULT: -7.440780774      4.125      7.015
REMARK  11 active torsions:
REMARK  status: ('A' for Active; 'I' for Inactive)
REMARK    1  A    between atoms: C2_2  and  S1_4 
REMARK    2  A    between atoms: S1_4  and  N1_7 
REMARK    3  A    between atoms: N1_7  and  C4_9 
REMARK    4  A    between atoms: C4_9  and  C5_13 
REMARK    5  A    between atoms: C5_13  and  C6_14 
REMARK    6  A    between atoms: C5_13  and  N3_19 
REMARK    7  A    between atoms: C6_14  and  C7_15 
REMARK       I    between atoms: N3_19  and  C11_20 
REMARK    8  A    between atoms: C11_20  and  O4_22 
REMARK    9  A    between atoms: O4_22  and  C12_23 
REMARK   10  A    between atoms: C16_28  and  S2_29 
REMARK   11  A    between atoms: S2_29  and  C17_30 
ROOT
HETATM    1  C5  UNL     1     -90.897 -16.176  11.993  1.00  0.00     0.237 C 
ENDROOT
BRANCH   1   2
HETATM    2  C4  UNL     1     -89.593 -15.691  11.295  1.00  0.00     0.121 C 
HETATM    3  N2  UNL     1     -89.096 -14.617  11.739  1.00  0.00    -0.386 N 
ATOM      4  H22 UNL     1     -88.242 -14.299  11.281  1.00  0.00     0.157 HD
ATOM      5  H21 UNL     1     -89.459 -14.053  12.506  1.00  0.00     0.157 HD
BRANCH   2   6
HETATM    6  N1  UNL     1     -89.089 -16.475  10.228  1.00  0.00    -0.271 N 
ATOM      7  H1  UNL     1     -89.748 -16.859   9.552  1.00  0.00     0.180 HD
BRANCH   6   8
HETATM    8  S1  UNL     1     -87.412 -16.809  10.021  1.00  0.00     0.235 S 
HETATM    9  O1  UNL     1     -86.958 -17.968  10.871  1.00  0.00    -0.205 OA
HETATM   10  O2  UNL     1     -86.668 -15.565  10.444  1.00  0.00    -0.205 OA
BRANCH   8  11
HETATM   11  C2  UNL     1     -87.093 -17.204   8.335  1.00  0.00     0.121 C 
HETATM   12  C1  UNL     1     -86.175 -16.183   7.725  1.00  0.00     0.027 C 
HETATM   13  C3  UNL     1     -88.362 -17.254   7.514  1.00  0.00     0.027 C 
ENDBRANCH   8  11
ENDBRANCH   6   8
ENDBRANCH   2   6
ENDBRANCH   1   2
BRANCH   1  14
HETATM   14  C6  UNL     1     -91.350 -17.373  11.181  1.00  0.00     0.056 C 
BRANCH  14  15
HETATM   15  C7  UNL     1     -92.637 -17.257  10.478  1.00  0.00    -0.048 C 
HETATM   16  C8  UNL     1     -93.585 -16.193  10.937  1.00  0.00     0.014 C 
HETATM   17  C9  UNL     1     -92.477 -17.065   8.973  1.00  0.00     0.014 C 
HETATM   18  C10 UNL     1     -93.410 -18.583  10.626  1.00  0.00     0.014 C 
ENDBRANCH  14  15
ENDBRANCH   1  14
BRANCH   1  19
HETATM   19  N3  UNL     1     -90.574 -16.504  13.286  1.00  0.00    -0.377 NA
HETATM   20  C11 UNL     1     -90.252 -16.833  14.574  1.00  0.00     0.440 C 
HETATM   21  O3  UNL     1     -90.854 -17.621  15.330  1.00  0.00    -0.221 OA
BRANCH  20  22
HETATM   22  O4  UNL     1     -89.105 -16.251  15.207  1.00  0.00    -0.250 OA
BRANCH  22  23
HETATM   23  C12 UNL     1     -87.821 -16.460  14.741  1.00  0.00     0.085 A 
HETATM   24  C13 UNL     1     -87.371 -17.763  14.676  1.00  0.00     0.061 A 
HETATM   25  C14 UNL     1     -86.101 -18.010  14.214  1.00  0.00     0.038 A 
HETATM   26 CL1  UNL     1     -85.541 -19.664  14.138  1.00  0.00    -0.084 Cl
HETATM   27  C15 UNL     1     -85.273 -16.952  13.815  1.00  0.00     0.042 A 
HETATM   28  C16 UNL     1     -85.715 -15.658  13.878  1.00  0.00     0.005 A 
HETATM   29  C21 UNL     1     -86.983 -15.414  14.340  1.00  0.00     0.056 A 
BRANCH  28  30
HETATM   30  S2  UNL     1     -84.699 -14.307  13.363  1.00  0.00    -0.121 SA
BRANCH  30  31
HETATM   31  C17 UNL     1     -83.620 -13.653  14.625  1.00  0.00     0.002 C 
HETATM   32  C18 UNL     1     -82.486 -14.638  14.923  1.00  0.00     0.026 C 
HETATM   33  C19 UNL     1     -84.281 -13.316  15.921  1.00  0.00     0.026 C 
HETATM   34  C20 UNL     1     -82.968 -12.387  14.049  1.00  0.00     0.026 C 
ENDBRANCH  30  31
ENDBRANCH  28  30
ENDBRANCH  22  23
ENDBRANCH  20  22
ENDBRANCH   1  19
TORSDOF 11
ENDMDL
MODEL 4
REMARK VINA RESULT: -7.423785159      4.657      7.658
REMARK  11 active torsions:
REMARK  status: ('A' for Active; 'I' for Inactive)
REMARK    1  A    between atoms: C2_2  and  S1_4 
REMARK    2  A    between atoms: S1_4  and  N1_7 
REMARK    3  A    between atoms: N1_7  and  C4_9 
REMARK    4  A    between atoms: C4_9  and  C5_13 
REMARK    5  A    between atoms: C5_13  and  C6_14 
REMARK    6  A    between atoms: C5_13  and  N3_19 
REMARK    7  A    between atoms: C6_14  and  C7_15 
REMARK       I    between atoms: N3_19  and  C11_20 
REMARK    8  A    between atoms: C11_20  and  O4_22 
REMARK    9  A    between atoms: O4_22  and  C12_23 
REMARK   10  A    between atoms: C16_28  and  S2_29 
REMARK   11  A    between atoms: S2_29  and  C17_30 
ROOT
HETATM    1  C5  UNL     1     -87.505 -18.528  13.968  1.00  0.00     0.237 C 
ENDROOT
BRANCH   1   2
HETATM    2  C4  UNL     1     -86.900 -19.854  14.513  1.00  0.00     0.121 C 
HETATM    3  N2  UNL     1     -85.680 -19.812  14.838  1.00  0.00    -0.386 N 
ATOM      4  H22 UNL     1     -85.283 -20.681  15.195  1.00  0.00     0.157 HD
ATOM      5  H21 UNL     1     -85.067 -18.999  14.786  1.00  0.00     0.157 HD
BRANCH   2   6
HETATM    6  N1  UNL     1     -87.753 -20.984  14.585  1.00  0.00    -0.271 N 
ATOM      7  H1  UNL     1     -88.033 -21.439  13.717  1.00  0.00     0.180 HD
BRANCH   6   8
HETATM    8  S1  UNL     1     -88.337 -21.624  16.074  1.00  0.00     0.235 S 
HETATM    9  O1  UNL     1     -89.775 -21.247  16.324  1.00  0.00    -0.205 OA
HETATM   10  O2  UNL     1     -87.475 -21.036  17.165  1.00  0.00    -0.205 OA
BRANCH   8  11
HETATM   11  C2  UNL     1     -88.224 -23.380  16.044  1.00  0.00     0.121 C 
HETATM   12  C1  UNL     1     -87.638 -23.844  14.741  1.00  0.00     0.027 C 
HETATM   13  C3  UNL     1     -89.574 -24.040  16.221  1.00  0.00     0.027 C 
ENDBRANCH   8  11
ENDBRANCH   6   8
ENDBRANCH   2   6
ENDBRANCH   1   2
BRANCH   1  14
HETATM   14  C6  UNL     1     -87.266 -17.512  15.067  1.00  0.00     0.056 C 
BRANCH  14  15
HETATM   15  C7  UNL     1     -88.296 -16.479  15.260  1.00  0.00    -0.048 C 
HETATM   16  C8  UNL     1     -88.201 -15.241  14.424  1.00  0.00     0.014 C 
HETATM   17  C9  UNL     1     -89.713 -17.011  15.074  1.00  0.00     0.014 C 
HETATM   18  C10 UNL     1     -88.247 -15.989  16.722  1.00  0.00     0.014 C 
ENDBRANCH  14  15
ENDBRANCH   1  14
BRANCH   1  19
HETATM   19  N3  UNL     1     -86.840 -18.219  12.808  1.00  0.00    -0.377 NA
HETATM   20  C11 UNL     1     -86.177 -17.912  11.651  1.00  0.00     0.440 C 
HETATM   21  O3  UNL     1     -85.132 -18.432  11.214  1.00  0.00    -0.221 OA
BRANCH  20  22
HETATM   22  O4  UNL     1     -86.674 -16.887  10.780  1.00  0.00    -0.250 OA
BRANCH  22  23
HETATM   23  C12 UNL     1     -87.678 -17.123   9.862  1.00  0.00     0.085 A 
HETATM   24  C13 UNL     1     -87.522 -16.598   8.595  1.00  0.00     0.061 A 
HETATM   25  C14 UNL     1     -88.500 -16.816   7.655  1.00  0.00     0.038 A 
HETATM   26 CL1  UNL     1     -88.291 -16.144   6.055  1.00  0.00    -0.084 Cl
HETATM   27  C15 UNL     1     -89.641 -17.562   7.979  1.00  0.00     0.042 A 
HETATM   28  C16 UNL     1     -89.801 -18.084   9.234  1.00  0.00     0.005 A 
HETATM   29  C21 UNL     1     -88.824 -17.865  10.171  1.00  0.00     0.056 A 
BRANCH  28  30
HETATM   30  S2  UNL     1     -91.222 -19.044   9.662  1.00  0.00    -0.121 SA
BRANCH  30  31
HETATM   31  C17 UNL     1     -92.463 -18.173  10.604  1.00  0.00     0.002 C 
HETATM   32  C18 UNL     1     -93.201 -17.168   9.716  1.00  0.00     0.026 C 
HETATM   33  C19 UNL     1     -91.958 -17.436  11.801  1.00  0.00     0.026 C 
HETATM   34  C20 UNL     1     -93.499 -19.214  11.053  1.00  0.00     0.026 C 
ENDBRANCH  30  31
ENDBRANCH  28  30
ENDBRANCH  22  23
ENDBRANCH  20  22
ENDBRANCH   1  19
TORSDOF 11
ENDMDL
MODEL 5
REMARK VINA RESULT: -7.401064809      4.589      7.639
REMARK  11 active torsions:
REMARK  status: ('A' for Active; 'I' for Inactive)
REMARK    1  A    between atoms: C2_2  and  S1_4 
REMARK    2  A    between atoms: S1_4  and  N1_7 
REMARK    3  A    between atoms: N1_7  and  C4_9 
REMARK    4  A    between atoms: C4_9  and  C5_13 
REMARK    5  A    between atoms: C5_13  and  C6_14 
REMARK    6  A    between atoms: C5_13  and  N3_19 
REMARK    7  A    between atoms: C6_14  and  C7_15 
REMARK       I    between atoms: N3_19  and  C11_20 
REMARK    8  A    between atoms: C11_20  and  O4_22 
REMARK    9  A    between atoms: O4_22  and  C12_23 
REMARK   10  A    between atoms: C16_28  and  S2_29 
REMARK   11  A    between atoms: S2_29  and  C17_30 
ROOT
HETATM    1  C5  UNL     1     -88.532 -17.060  11.318  1.00  0.00     0.237 C 
ENDROOT
BRANCH   1   2
HETATM    2  C4  UNL     1     -89.663 -17.702  10.464  1.00  0.00     0.121 C 
HETATM    3  N2  UNL     1     -89.629 -18.960  10.360  1.00  0.00    -0.386 N 
ATOM      4  H22 UNL     1     -90.371 -19.381   9.800  1.00  0.00     0.157 HD
ATOM      5  H21 UNL     1     -88.945 -19.586  10.785  1.00  0.00     0.157 HD
BRANCH   2   6
HETATM    6  N1  UNL     1     -90.614 -16.833   9.874  1.00  0.00    -0.271 N 
ATOM      7  H1  UNL     1     -90.502 -15.827  10.005  1.00  0.00     0.180 HD
BRANCH   6   8
HETATM    8  S1  UNL     1     -91.950 -17.397   8.945  1.00  0.00     0.235 S 
HETATM    9  O1  UNL     1     -91.701 -18.769   8.374  1.00  0.00    -0.205 OA
HETATM   10  O2  UNL     1     -92.134 -16.416   7.813  1.00  0.00    -0.205 OA
BRANCH   8  11
HETATM   11  C2  UNL     1     -93.384 -17.475   9.964  1.00  0.00     0.121 C 
HETATM   12  C1  UNL     1     -93.539 -16.201  10.745  1.00  0.00     0.027 C 
HETATM   13  C3  UNL     1     -93.325 -18.628  10.941  1.00  0.00     0.027 C 
ENDBRANCH   8  11
ENDBRANCH   6   8
ENDBRANCH   2   6
ENDBRANCH   1   2
BRANCH   1  14
HETATM   14  C6  UNL     1     -87.793 -16.147  10.360  1.00  0.00     0.056 C 
BRANCH  14  15
HETATM   15  C7  UNL     1     -86.626 -16.710   9.663  1.00  0.00    -0.048 C 
HETATM   16  C8  UNL     1     -85.947 -17.888  10.288  1.00  0.00     0.014 C 
HETATM   17  C9  UNL     1     -86.930 -17.108   8.222  1.00  0.00     0.014 C 
HETATM   18  C10 UNL     1     -85.537 -15.623   9.550  1.00  0.00     0.014 C 
ENDBRANCH  14  15
ENDBRANCH   1  14
BRANCH   1  19
HETATM   19  N3  UNL     1     -89.129 -16.377  12.347  1.00  0.00    -0.377 NA
HETATM   20  C11 UNL     1     -89.725 -15.694  13.372  1.00  0.00     0.440 C 
HETATM   21  O3  UNL     1     -90.137 -14.518  13.363  1.00  0.00    -0.221 OA
BRANCH  20  22
HETATM   22  O4  UNL     1     -89.942 -16.331  14.638  1.00  0.00    -0.250 OA
BRANCH  22  23
HETATM   23  C12 UNL     1     -88.901 -16.666  15.482  1.00  0.00     0.085 A 
HETATM   24  C13 UNL     1     -88.136 -15.636  15.992  1.00  0.00     0.061 A 
HETATM   25  C14 UNL     1     -87.095 -15.931  16.838  1.00  0.00     0.038 A 
HETATM   26 CL1  UNL     1     -86.132 -14.619  17.475  1.00  0.00    -0.084 Cl
HETATM   27  C15 UNL     1     -86.813 -17.261  17.178  1.00  0.00     0.042 A 
HETATM   28  C16 UNL     1     -87.568 -18.286  16.675  1.00  0.00     0.005 A 
HETATM   29  C21 UNL     1     -88.607 -17.989  15.830  1.00  0.00     0.056 A 
BRANCH  28  30
HETATM   30  S2  UNL     1     -87.245 -19.969  17.104  1.00  0.00    -0.121 SA
BRANCH  30  31
HETATM   31  C17 UNL     1     -86.639 -20.984  15.766  1.00  0.00     0.002 C 
HETATM   32  C18 UNL     1     -85.661 -22.037  16.294  1.00  0.00     0.026 C 
HETATM   33  C19 UNL     1     -85.959 -20.245  14.660  1.00  0.00     0.026 C 
HETATM   34  C20 UNL     1     -87.845 -21.745  15.196  1.00  0.00     0.026 C 
ENDBRANCH  30  31
ENDBRANCH  28  30
ENDBRANCH  22  23
ENDBRANCH  20  22
ENDBRANCH   1  19
TORSDOF 11
ENDMDL
