MODEL 1
REMARK VINA RESULT: -8.533765775      0.000      0.000
REMARK  7 active torsions:
REMARK  status: ('A' for Active; 'I' for Inactive)
REMARK    1  A    between atoms: O1_2  and  C2_3 
REMARK    2  A    between atoms: C2_3  and  C3_4 
REMARK    3  A    between atoms: C4_8  and  C5_9 
REMARK    4  A    between atoms: C7_11  and  N2_12 
REMARK    5  A    between atoms: N2_12  and  C8_14 
REMARK    6  A    between atoms: C17_28  and  O3_29 
REMARK    7  A    between atoms: C19_31  and  O4_32 
ROOT
HETATM    1  C5  UNL     1     -99.272 -14.631  46.626  1.00  0.00     0.088 A 
HETATM    2  C6  UNL     1    -100.589 -14.495  46.992  1.00  0.00     0.064 A 
HETATM    3  C7  UNL     1    -100.995 -14.857  48.278  1.00  0.00     0.047 A 
HETATM    4  C15 UNL     1    -100.035 -15.346  49.139  1.00  0.00     0.020 A 
HETATM    5  C16 UNL     1    -100.434 -15.707  50.417  1.00  0.00     0.055 A 
HETATM    6  C17 UNL     1     -99.464 -16.194  51.268  1.00  0.00     0.102 A 
HETATM    7  C19 UNL     1     -98.137 -16.341  50.926  1.00  0.00     0.103 A 
HETATM    8  C21 UNL     1     -97.787 -15.961  49.625  1.00  0.00     0.070 A 
HETATM    9  C22 UNL     1     -98.710 -15.474  48.745  1.00  0.00     0.048 A 
HETATM   10  N5  UNL     1     -98.365 -15.114  47.504  1.00  0.00    -0.352 N 
ATOM     11  H5  UNL     1     -97.392 -15.207  47.213  1.00  0.00     0.166 HD
ENDROOT
BRANCH   3  12
HETATM   12  N2  UNL     1    -102.206 -14.760  48.691  1.00  0.00    -0.354 N 
ATOM     13  H2  UNL     1    -102.498 -13.921  49.193  1.00  0.00     0.166 HD
BRANCH  12  14
HETATM   14  C8  UNL     1    -103.145 -15.801  48.462  1.00  0.00     0.051 A 
HETATM   15  C9  UNL     1    -102.974 -16.669  47.404  1.00  0.00     0.046 A 
HETATM   16  C10 UNL     1    -103.864 -17.674  47.167  1.00  0.00     0.011 A 
HETATM   17  C11 UNL     1    -103.917 -18.664  46.185  1.00  0.00     0.120 A 
HETATM   18  C12 UNL     1    -104.943 -17.804  48.014  1.00  0.00     0.061 A 
HETATM   19  N3  UNL     1    -105.028 -19.361  46.471  1.00  0.00    -0.311 N 
HETATM   20  N4  UNL     1    -105.634 -18.864  47.540  1.00  0.00    -0.300 N 
ATOM     21  H3  UNL     1    -105.359 -20.165  45.939  1.00  0.00     0.186 HD
ATOM     22  H4  UNL     1    -106.497 -19.228  47.944  1.00  0.00     0.187 HD
HETATM   23  C13 UNL     1    -105.135 -16.950  49.077  1.00  0.00     0.053 A 
HETATM   24  C14 UNL     1    -104.230 -15.932  49.313  1.00  0.00     0.040 A 
HETATM   25 BR1  UNL     1    -104.465 -14.720  50.788  1.00  0.00    -0.049 Br
ENDBRANCH  12  14
ENDBRANCH   3  12
BRANCH   1  26
HETATM   26  C4  UNL     1     -98.810 -14.265  45.303  1.00  0.00     0.198 A 
HETATM   27  O2  UNL     1     -99.634 -14.013  44.305  1.00  0.00    -0.216 OA
HETATM   28  N1  UNL     1     -98.953 -13.715  43.246  1.00  0.00    -0.244 N 
HETATM   29  C3  UNL     1     -97.640 -13.773  43.551  1.00  0.00     0.128 A 
ATOM     30  H1  UNL     1     -99.343 -13.477  42.334  1.00  0.00     0.196 HD
HETATM   31  N6  UNL     1     -97.570 -14.118  44.839  1.00  0.00    -0.320 N 
ATOM     32  H6  UNL     1     -96.713 -14.247  45.376  1.00  0.00     0.169 HD
BRANCH  29  33
HETATM   33  C2  UNL     1     -96.550 -13.489  42.595  1.00  0.00     0.245 C 
BRANCH  33  34
HETATM   34  O1  UNL     1     -95.835 -14.573  42.171  1.00  0.00    -0.389 OA
HETATM   35  C1  UNL     1     -94.530 -14.650  42.574  1.00  0.00     0.202 C 
ENDBRANCH  33  34
ENDBRANCH  29  33
ENDBRANCH   1  26
BRANCH   6  36
HETATM   36  O3  UNL     1     -99.789 -16.582  52.579  1.00  0.00    -0.353 OA
HETATM   37  C18 UNL     1    -100.467 -17.806  52.752  1.00  0.00     0.210 C 
ENDBRANCH   6  36
BRANCH   7  38
HETATM   38  O4  UNL     1     -97.194 -16.835  51.817  1.00  0.00    -0.353 OA
HETATM   39  C20 UNL     1     -96.139 -15.975  52.201  1.00  0.00     0.210 C 
ENDBRANCH   7  38
TORSDOF 7
ENDMDL
MODEL 2
REMARK VINA RESULT: -8.425650927      3.757      7.711
REMARK  7 active torsions:
REMARK  status: ('A' for Active; 'I' for Inactive)
REMARK    1  A    between atoms: O1_2  and  C2_3 
REMARK    2  A    between atoms: C2_3  and  C3_4 
REMARK    3  A    between atoms: C4_8  and  C5_9 
REMARK    4  A    between atoms: C7_11  and  N2_12 
REMARK    5  A    between atoms: N2_12  and  C8_14 
REMARK    6  A    between atoms: C17_28  and  O3_29 
REMARK    7  A    between atoms: C19_31  and  O4_32 
ROOT
HETATM    1  C5  UNL     1    -101.130 -14.065  49.857  1.00  0.00     0.088 A 
HETATM    2  C6  UNL     1    -100.434 -14.423  48.728  1.00  0.00     0.064 A 
HETATM    3  C7  UNL     1    -101.041 -15.231  47.764  1.00  0.00     0.047 A 
HETATM    4  C15 UNL     1    -102.338 -15.640  47.994  1.00  0.00     0.020 A 
HETATM    5  C16 UNL     1    -102.944 -16.442  47.040  1.00  0.00     0.055 A 
HETATM    6  C17 UNL     1    -104.241 -16.844  47.283  1.00  0.00     0.102 A 
HETATM    7  C19 UNL     1    -104.961 -16.499  48.407  1.00  0.00     0.103 A 
HETATM    8  C21 UNL     1    -104.302 -15.688  49.339  1.00  0.00     0.070 A 
HETATM    9  C22 UNL     1    -103.020 -15.264  49.144  1.00  0.00     0.048 A 
HETATM   10  N5  UNL     1    -102.400 -14.490  50.041  1.00  0.00    -0.352 N 
ATOM     11  H5  UNL     1    -102.899 -14.212  50.886  1.00  0.00     0.166 HD
ENDROOT
BRANCH   3  12
HETATM   12  N2  UNL     1    -100.456 -15.607  46.686  1.00  0.00    -0.354 N 
ATOM     13  H2  UNL     1    -100.830 -16.398  46.162  1.00  0.00     0.166 HD
BRANCH  12  14
HETATM   14  C8  UNL     1     -99.295 -14.938  46.210  1.00  0.00     0.051 A 
HETATM   15  C9  UNL     1     -98.113 -15.015  46.916  1.00  0.00     0.046 A 
HETATM   16  C10 UNL     1     -96.989 -14.380  46.477  1.00  0.00     0.011 A 
HETATM   17  C11 UNL     1     -95.696 -14.304  46.996  1.00  0.00     0.120 A 
HETATM   18  C12 UNL     1     -97.062 -13.658  45.305  1.00  0.00     0.061 A 
HETATM   19  N3  UNL     1     -95.028 -13.536  46.119  1.00  0.00    -0.311 N 
HETATM   20  N4  UNL     1     -95.821 -13.154  45.128  1.00  0.00    -0.300 N 
ATOM     21  H3  UNL     1     -94.044 -13.282  46.205  1.00  0.00     0.186 HD
ATOM     22  H4  UNL     1     -95.536 -12.564  44.346  1.00  0.00     0.187 HD
HETATM   23  C13 UNL     1     -98.231 -13.567  44.584  1.00  0.00     0.053 A 
HETATM   24  C14 UNL     1     -99.369 -14.211  45.034  1.00  0.00     0.040 A 
HETATM   25 BR1  UNL     1    -101.019 -14.106  44.053  1.00  0.00    -0.049 Br
ENDBRANCH  12  14
ENDBRANCH   3  12
BRANCH   1  26
HETATM   26  C4  UNL     1    -100.537 -13.228  50.880  1.00  0.00     0.198 A 
HETATM   27  O2  UNL     1    -100.991 -12.025  51.167  1.00  0.00    -0.216 OA
HETATM   28  N1  UNL     1    -100.276 -11.507  52.114  1.00  0.00    -0.244 N 
HETATM   29  C3  UNL     1     -99.322 -12.394  52.464  1.00  0.00     0.128 A 
ATOM     30  H1  UNL     1    -100.412 -10.584  52.527  1.00  0.00     0.196 HD
HETATM   31  N6  UNL     1     -99.500 -13.462  51.683  1.00  0.00    -0.320 N 
ATOM     32  H6  UNL     1     -98.938 -14.313  51.699  1.00  0.00     0.169 HD
BRANCH  29  33
HETATM   33  C2  UNL     1     -98.315 -12.161  53.520  1.00  0.00     0.245 C 
BRANCH  33  34
HETATM   34  O1  UNL     1     -97.028 -12.482  53.194  1.00  0.00    -0.389 OA
HETATM   35  C1  UNL     1     -96.390 -11.656  52.311  1.00  0.00     0.202 C 
ENDBRANCH  33  34
ENDBRANCH  29  33
ENDBRANCH   1  26
BRANCH   6  36
HETATM   36  O3  UNL     1    -104.924 -17.658  46.363  1.00  0.00    -0.353 OA
HETATM   37  C18 UNL     1    -104.528 -19.007  46.262  1.00  0.00     0.210 C 
ENDBRANCH   6  36
BRANCH   7  38
HETATM   38  O4  UNL     1    -106.266 -16.927  48.609  1.00  0.00    -0.353 OA
HETATM   39  C20 UNL     1    -106.463 -18.077  49.408  1.00  0.00     0.210 C 
ENDBRANCH   7  38
TORSDOF 7
ENDMDL
MODEL 3
REMARK VINA RESULT: -8.238785445      1.930      6.487
REMARK  7 active torsions:
REMARK  status: ('A' for Active; 'I' for Inactive)
REMARK    1  A    between atoms: O1_2  and  C2_3 
REMARK    2  A    between atoms: C2_3  and  C3_4 
REMARK    3  A    between atoms: C4_8  and  C5_9 
REMARK    4  A    between atoms: C7_11  and  N2_12 
REMARK    5  A    between atoms: N2_12  and  C8_14 
REMARK    6  A    between atoms: C17_28  and  O3_29 
REMARK    7  A    between atoms: C19_31  and  O4_32 
ROOT
HETATM    1  C5  UNL     1     -99.183 -15.741  50.124  1.00  0.00     0.088 A 
HETATM    2  C6  UNL     1    -100.492 -15.486  49.794  1.00  0.00     0.064 A 
HETATM    3  C7  UNL     1    -100.812 -15.032  48.512  1.00  0.00     0.047 A 
HETATM    4  C15 UNL     1     -99.777 -14.858  47.618  1.00  0.00     0.020 A 
HETATM    5  C16 UNL     1    -100.089 -14.407  46.345  1.00  0.00     0.055 A 
HETATM    6  C17 UNL     1     -99.045 -14.238  45.460  1.00  0.00     0.102 A 
HETATM    7  C19 UNL     1     -97.723 -14.486  45.765  1.00  0.00     0.103 A 
HETATM    8  C21 UNL     1     -97.462 -14.940  47.064  1.00  0.00     0.070 A 
HETATM    9  C22 UNL     1     -98.461 -15.123  47.975  1.00  0.00     0.048 A 
HETATM   10  N5  UNL     1     -98.201 -15.556  49.213  1.00  0.00    -0.352 N 
ATOM     11  H5  UNL     1     -97.236 -15.752  49.478  1.00  0.00     0.166 HD
ENDROOT
BRANCH   3  12
HETATM   12  N2  UNL     1    -102.009 -14.772  48.132  1.00  0.00    -0.354 N 
ATOM     13  H2  UNL     1    -102.245 -13.827  47.831  1.00  0.00     0.166 HD
BRANCH  12  14
HETATM   14  C8  UNL     1    -103.011 -15.780  48.124  1.00  0.00     0.051 A 
HETATM   15  C9  UNL     1    -103.007 -16.754  47.147  1.00  0.00     0.046 A 
HETATM   16  C10 UNL     1    -103.960 -17.729  47.122  1.00  0.00     0.011 A 
HETATM   17  C11 UNL     1    -104.173 -18.805  46.260  1.00  0.00     0.120 A 
HETATM   18  C12 UNL     1    -104.930 -17.719  48.100  1.00  0.00     0.061 A 
HETATM   19  N3  UNL     1    -105.268 -19.412  46.745  1.00  0.00    -0.311 N 
HETATM   20  N4  UNL     1    -105.717 -18.781  47.822  1.00  0.00    -0.300 N 
ATOM     21  H3  UNL     1    -105.695 -20.245  46.341  1.00  0.00     0.186 HD
ATOM     22  H4  UNL     1    -106.538 -19.058  48.360  1.00  0.00     0.187 HD
HETATM   23  C13 UNL     1    -104.955 -16.757  49.085  1.00  0.00     0.053 A 
HETATM   24  C14 UNL     1    -103.987 -15.770  49.106  1.00  0.00     0.040 A 
HETATM   25 BR1  UNL     1    -103.990 -14.410  50.466  1.00  0.00    -0.049 Br
ENDBRANCH  12  14
ENDBRANCH   3  12
BRANCH   1  26
HETATM   26  C4  UNL     1     -98.811 -16.214  51.441  1.00  0.00     0.198 A 
HETATM   27  O2  UNL     1     -97.559 -16.274  51.848  1.00  0.00    -0.216 OA
HETATM   28  N1  UNL     1     -97.518 -16.732  53.058  1.00  0.00    -0.244 N 
HETATM   29  C3  UNL     1     -98.780 -16.981  53.464  1.00  0.00     0.128 A 
ATOM     30  H1  UNL     1     -96.674 -16.878  53.611  1.00  0.00     0.196 HD
HETATM   31  N6  UNL     1     -99.574 -16.652  52.441  1.00  0.00    -0.320 N 
ATOM     32  H6  UNL     1    -100.591 -16.724  52.428  1.00  0.00     0.169 HD
BRANCH  29  33
HETATM   33  C2  UNL     1     -99.138 -17.508  54.797  1.00  0.00     0.245 C 
BRANCH  33  34
HETATM   34  O1  UNL     1    -100.226 -18.333  54.836  1.00  0.00    -0.389 OA
HETATM   35  C1  UNL     1    -101.362 -17.832  55.409  1.00  0.00     0.202 C 
ENDBRANCH  33  34
ENDBRANCH  29  33
ENDBRANCH   1  26
BRANCH   6  36
HETATM   36  O3  UNL     1     -99.280 -13.784  44.150  1.00  0.00    -0.353 OA
HETATM   37  C18 UNL     1    -100.467 -14.200  43.515  1.00  0.00     0.210 C 
ENDBRANCH   6  36
BRANCH   7  38
HETATM   38  O4  UNL     1     -96.704 -14.302  44.841  1.00  0.00    -0.353 OA
HETATM   39  C20 UNL     1     -95.388 -14.156  45.337  1.00  0.00     0.210 C 
ENDBRANCH   7  38
TORSDOF 7
ENDMDL
MODEL 4
REMARK VINA RESULT: -8.236970394      3.254      6.901
REMARK  7 active torsions:
REMARK  status: ('A' for Active; 'I' for Inactive)
REMARK    1  A    between atoms: O1_2  and  C2_3 
REMARK    2  A    between atoms: C2_3  and  C3_4 
REMARK    3  A    between atoms: C4_8  and  C5_9 
REMARK    4  A    between atoms: C7_11  and  N2_12 
REMARK    5  A    between atoms: N2_12  and  C8_14 
REMARK    6  A    between atoms: C17_28  and  O3_29 
REMARK    7  A    between atoms: C19_31  and  O4_32 
ROOT
HETATM    1  C5  UNL     1     -98.589 -13.370  49.364  1.00  0.00     0.088 A 
HETATM    2  C6  UNL     1     -99.329 -14.221  48.579  1.00  0.00     0.064 A 
HETATM    3  C7  UNL     1     -98.889 -14.540  47.292  1.00  0.00     0.047 A 
HETATM    4  C15 UNL     1     -97.708 -13.975  46.860  1.00  0.00     0.020 A 
HETATM    5  C16 UNL     1     -97.268 -14.290  45.584  1.00  0.00     0.055 A 
HETATM    6  C17 UNL     1     -96.085 -13.719  45.164  1.00  0.00     0.102 A 
HETATM    7  C19 UNL     1     -95.323 -12.863  45.931  1.00  0.00     0.103 A 
HETATM    8  C21 UNL     1     -95.812 -12.578  47.212  1.00  0.00     0.070 A 
HETATM    9  C22 UNL     1     -96.978 -13.118  47.673  1.00  0.00     0.048 A 
HETATM   10  N5  UNL     1     -97.436 -12.840  48.898  1.00  0.00    -0.352 N 
ATOM     11  H5  UNL     1     -96.901 -12.211  49.497  1.00  0.00     0.166 HD
ENDROOT
BRANCH   3  12
HETATM   12  N2  UNL     1     -99.526 -15.325  46.502  1.00  0.00    -0.354 N 
ATOM     13  H2  UNL     1     -99.004 -15.941  45.879  1.00  0.00     0.166 HD
BRANCH  12  14
HETATM   14  C8  UNL     1    -100.947 -15.350  46.481  1.00  0.00     0.051 A 
HETATM   15  C9  UNL     1    -101.646 -15.908  47.532  1.00  0.00     0.046 A 
HETATM   16  C10 UNL     1    -103.009 -15.942  47.530  1.00  0.00     0.011 A 
HETATM   17  C11 UNL     1    -103.932 -16.439  48.451  1.00  0.00     0.120 A 
HETATM   18  C12 UNL     1    -103.674 -15.404  46.451  1.00  0.00     0.061 A 
HETATM   19  N3  UNL     1    -105.128 -16.184  47.897  1.00  0.00    -0.311 N 
HETATM   20  N4  UNL     1    -104.986 -15.579  46.726  1.00  0.00    -0.300 N 
ATOM     21  H3  UNL     1    -106.025 -16.423  48.321  1.00  0.00     0.186 HD
ATOM     22  H4  UNL     1    -105.754 -15.289  46.121  1.00  0.00     0.187 HD
HETATM   23  C13 UNL     1    -102.998 -14.842  45.391  1.00  0.00     0.053 A 
HETATM   24  C14 UNL     1    -101.616 -14.810  45.397  1.00  0.00     0.040 A 
HETATM   25 BR1  UNL     1    -100.638 -14.033  43.934  1.00  0.00    -0.049 Br
ENDBRANCH  12  14
ENDBRANCH   3  12
BRANCH   1  26
HETATM   26  C4  UNL     1     -99.010 -13.014  50.703  1.00  0.00     0.198 A 
HETATM   27  O2  UNL     1     -99.694 -11.920  50.968  1.00  0.00    -0.216 OA
HETATM   28  N1  UNL     1     -99.932 -11.854  52.238  1.00  0.00    -0.244 N 
HETATM   29  C3  UNL     1     -99.389 -12.937  52.832  1.00  0.00     0.128 A 
ATOM     30  H1  UNL     1    -100.445 -11.109  52.710  1.00  0.00     0.196 HD
HETATM   31  N6  UNL     1     -98.817 -13.650  51.858  1.00  0.00    -0.320 N 
ATOM     32  H6  UNL     1     -98.318 -14.531  51.979  1.00  0.00     0.169 HD
BRANCH  29  33
HETATM   33  C2  UNL     1     -99.461 -13.215  54.281  1.00  0.00     0.245 C 
BRANCH  33  34
HETATM   34  O1  UNL     1    -100.675 -13.639  54.744  1.00  0.00    -0.389 OA
HETATM   35  C1  UNL     1    -101.067 -14.900  54.389  1.00  0.00     0.202 C 
ENDBRANCH  33  34
ENDBRANCH  29  33
ENDBRANCH   1  26
BRANCH   6  36
HETATM   36  O3  UNL     1     -95.573 -13.988  43.883  1.00  0.00    -0.353 OA
HETATM   37  C18 UNL     1     -96.420 -13.769  42.779  1.00  0.00     0.210 C 
ENDBRANCH   6  36
BRANCH   7  38
HETATM   38  O4  UNL     1     -94.137 -12.310  45.467  1.00  0.00    -0.353 OA
HETATM   39  C20 UNL     1     -93.747 -11.058  45.993  1.00  0.00     0.210 C 
ENDBRANCH   7  38
TORSDOF 7
ENDMDL
MODEL 5
REMARK VINA RESULT: -8.221492184      3.570      5.867
REMARK  7 active torsions:
REMARK  status: ('A' for Active; 'I' for Inactive)
REMARK    1  A    between atoms: O1_2  and  C2_3 
REMARK    2  A    between atoms: C2_3  and  C3_4 
REMARK    3  A    between atoms: C4_8  and  C5_9 
REMARK    4  A    between atoms: C7_11  and  N2_12 
REMARK    5  A    between atoms: N2_12  and  C8_14 
REMARK    6  A    between atoms: C17_28  and  O3_29 
REMARK    7  A    between atoms: C19_31  and  O4_32 
ROOT
HETATM    1  C5  UNL     1     -99.861 -14.576  47.549  1.00  0.00     0.088 A 
HETATM    2  C6  UNL     1    -100.389 -13.860  48.595  1.00  0.00     0.064 A 
HETATM    3  C7  UNL     1    -101.726 -14.044  48.960  1.00  0.00     0.047 A 
HETATM    4  C15 UNL     1    -102.468 -14.954  48.237  1.00  0.00     0.020 A 
HETATM    5  C16 UNL     1    -103.794 -15.139  48.596  1.00  0.00     0.055 A 
HETATM    6  C17 UNL     1    -104.524 -16.052  47.865  1.00  0.00     0.102 A 
HETATM    7  C19 UNL     1    -104.019 -16.783  46.811  1.00  0.00     0.103 A 
HETATM    8  C21 UNL     1    -102.674 -16.559  46.490  1.00  0.00     0.070 A 
HETATM    9  C22 UNL     1    -101.910 -15.665  47.183  1.00  0.00     0.048 A 
HETATM   10  N5  UNL     1    -100.627 -15.458  46.869  1.00  0.00    -0.352 N 
ATOM     11  H5  UNL     1    -100.215 -15.979  46.095  1.00  0.00     0.166 HD
ENDROOT
BRANCH   3  12
HETATM   12  N2  UNL     1    -102.289 -13.412  49.924  1.00  0.00    -0.354 N 
ATOM     13  H2  UNL     1    -103.001 -12.712  49.717  1.00  0.00     0.166 HD
BRANCH  12  14
HETATM   14  C8  UNL     1    -101.936 -13.672  51.276  1.00  0.00     0.051 A 
HETATM   15  C9  UNL     1    -102.467 -14.762  51.934  1.00  0.00     0.046 A 
HETATM   16  C10 UNL     1    -102.142 -15.028  53.231  1.00  0.00     0.011 A 
HETATM   17  C11 UNL     1    -102.534 -16.045  54.103  1.00  0.00     0.120 A 
HETATM   18  C12 UNL     1    -101.265 -14.180  53.872  1.00  0.00     0.061 A 
HETATM   19  N3  UNL     1    -101.880 -15.777  55.245  1.00  0.00    -0.311 N 
HETATM   20  N4  UNL     1    -101.136 -14.687  55.117  1.00  0.00    -0.300 N 
ATOM     21  H3  UNL     1    -101.946 -16.337  56.094  1.00  0.00     0.186 HD
ATOM     22  H4  UNL     1    -100.552 -14.289  55.853  1.00  0.00     0.187 HD
HETATM   23  C13 UNL     1    -100.723 -13.086  53.236  1.00  0.00     0.053 A 
HETATM   24  C14 UNL     1    -101.056 -12.820  51.921  1.00  0.00     0.040 A 
HETATM   25 BR1  UNL     1    -100.317 -11.301  51.000  1.00  0.00    -0.049 Br
ENDBRANCH  12  14
ENDBRANCH   3  12
BRANCH   1  26
HETATM   26  C4  UNL     1     -98.481 -14.415  47.140  1.00  0.00     0.198 A 
HETATM   27  O2  UNL     1     -97.702 -15.436  46.844  1.00  0.00    -0.216 OA
HETATM   28  N1  UNL     1     -96.528 -15.004  46.515  1.00  0.00    -0.244 N 
HETATM   29  C3  UNL     1     -96.529 -13.658  46.595  1.00  0.00     0.128 A 
ATOM     30  H1  UNL     1     -95.735 -15.584  46.240  1.00  0.00     0.196 HD
HETATM   31  N6  UNL     1     -97.756 -13.308  46.987  1.00  0.00    -0.320 N 
ATOM     32  H6  UNL     1     -98.084 -12.354  47.143  1.00  0.00     0.169 HD
BRANCH  29  33
HETATM   33  C2  UNL     1     -95.363 -12.804  46.286  1.00  0.00     0.245 C 
BRANCH  33  34
HETATM   34  O1  UNL     1     -95.220 -11.691  47.065  1.00  0.00    -0.389 OA
HETATM   35  C1  UNL     1     -94.256 -11.734  48.034  1.00  0.00     0.202 C 
ENDBRANCH  33  34
ENDBRANCH  29  33
ENDBRANCH   1  26
BRANCH   6  36
HETATM   36  O3  UNL     1    -105.876 -16.297  48.166  1.00  0.00    -0.353 OA
HETATM   37  C18 UNL     1    -106.167 -16.992  49.357  1.00  0.00     0.210 C 
ENDBRANCH   6  36
BRANCH   7  38
HETATM   38  O4  UNL     1    -104.792 -17.694  46.103  1.00  0.00    -0.353 OA
HETATM   39  C20 UNL     1    -104.646 -19.064  46.418  1.00  0.00     0.210 C 
ENDBRANCH   7  38
TORSDOF 7
ENDMDL
