MODEL 1
REMARK VINA RESULT: -7.511551818      0.000      0.000
REMARK  8 active torsions:
REMARK  status: ('A' for Active; 'I' for Inactive)
REMARK    1  A    between atoms: C2_2  and  C3_3 
REMARK    2  A    between atoms: C3_3  and  C4_4 
REMARK    3  A    between atoms: C4_4  and  O2_6 
REMARK    4  A    between atoms: O2_6  and  C5_7 
REMARK    5  A    between atoms: C22_26  and  O4_27 
REMARK    6  A    between atoms: N2_29  and  C23_30 
REMARK    7  A    between atoms: C23_30  and  C24_31 
REMARK    8  A    between atoms: C25_33  and  O5_34 
ROOT
HETATM    1  C5  UNL     1    -100.449 -12.874  51.344  1.00  0.00     0.188 C 
HETATM    2  C6  UNL     1    -101.643 -12.317  52.074  1.00  0.00     0.084 C 
HETATM    3  C7  UNL     1    -100.376 -14.372  51.456  1.00  0.00     0.044 C 
HETATM    4  C8  UNL     1     -99.839 -15.118  50.509  1.00  0.00    -0.067 C 
HETATM    5  C9  UNL     1     -99.817 -16.584  50.717  1.00  0.00     0.044 C 
HETATM    6  C10 UNL     1     -99.278 -14.491  49.289  1.00  0.00     0.038 C 
HETATM    7  C11 UNL     1     -97.875 -15.035  49.145  1.00  0.00     0.052 C 
HETATM    8  C12 UNL     1     -97.054 -14.169  48.207  1.00  0.00     0.282 C 
HETATM    9  N1  UNL     1     -97.064 -14.674  46.888  1.00  0.00     0.157 N 
HETATM   10  C13 UNL     1     -98.246 -14.548  46.145  1.00  0.00     0.404 C 
HETATM   11  O3  UNL     1     -97.909 -13.224  45.894  1.00  0.00    -0.312 OA
HETATM   12  C14 UNL     1     -96.563 -13.681  45.921  1.00  0.00     0.266 C 
HETATM   13  C15 UNL     1     -96.134 -14.332  44.668  1.00  0.00     0.072 C 
HETATM   14  C16 UNL     1     -94.830 -13.984  44.089  1.00  0.00     0.005 C 
HETATM   15  C17 UNL     1     -94.224 -12.699  44.543  1.00  0.00     0.000 C 
HETATM   16  C18 UNL     1     -94.214 -12.764  46.077  1.00  0.00     0.005 C 
HETATM   17  C19 UNL     1     -95.691 -12.618  46.449  1.00  0.00     0.072 C 
HETATM   18  C20 UNL     1     -99.518 -14.842  46.777  1.00  0.00     0.063 A 
HETATM   19  C21 UNL     1    -100.027 -14.846  48.059  1.00  0.00     0.023 A 
HETATM   20  C22 UNL     1    -101.354 -15.232  48.005  1.00  0.00     0.152 A 
HETATM   21  N2  UNL     1    -101.682 -15.466  46.742  1.00  0.00    -0.306 N 
HETATM   22  C25 UNL     1    -100.605 -15.243  45.977  1.00  0.00     0.155 A 
HETATM   23  C26 UNL     1     -99.307 -12.980  49.419  1.00  0.00     0.191 C 
HETATM   24  O6  UNL     1    -100.545 -12.636  49.960  1.00  0.00    -0.350 OA
ENDROOT
BRANCH  20  25
HETATM   25  O4  UNL     1    -102.175 -15.342  49.138  1.00  0.00    -0.345 OA
ATOM     26  H4  UNL     1    -103.118 -15.443  49.093  1.00  0.00     0.219 HD
ENDBRANCH  20  25
BRANCH   1  27
HETATM   27  O2  UNL     1     -99.292 -12.242  51.800  1.00  0.00    -0.280 OA
BRANCH  27  28
HETATM   28  C4  UNL     1     -98.492 -12.686  52.814  1.00  0.00     0.261 C 
HETATM   29  O1  UNL     1     -98.911 -12.617  53.990  1.00  0.00    -0.265 OA
BRANCH  28  30
HETATM   30  C3  UNL     1     -97.164 -13.235  52.517  1.00  0.00     0.111 C 
BRANCH  30  31
HETATM   31  C2  UNL     1     -96.388 -12.384  51.537  1.00  0.00     0.005 C 
HETATM   32  C1  UNL     1     -95.939 -11.118  52.195  1.00  0.00     0.005 C 
ENDBRANCH  30  31
ENDBRANCH  28  30
ENDBRANCH  27  28
ENDBRANCH   1  27
BRANCH  22  33
HETATM   33  O5  UNL     1    -100.595 -15.395  44.577  1.00  0.00    -0.345 OA
ATOM     34  H5  UNL     1    -100.886 -14.751  43.942  1.00  0.00     0.219 HD
ENDBRANCH  22  33
BRANCH  21  35
HETATM   35  C23 UNL     1    -102.977 -15.893  46.241  1.00  0.00     0.148 C 
BRANCH  35  36
HETATM   36  C24 UNL     1    -103.808 -14.665  45.946  1.00  0.00     0.135 C 
HETATM   37 CL1  UNL     1    -104.968 -14.492  47.305  1.00  0.00    -0.129 Cl
ENDBRANCH  35  36
ENDBRANCH  21  35
TORSDOF 8
ENDMDL
MODEL 2
REMARK VINA RESULT: -7.503121251      2.833      7.464
REMARK  8 active torsions:
REMARK  status: ('A' for Active; 'I' for Inactive)
REMARK    1  A    between atoms: C2_2  and  C3_3 
REMARK    2  A    between atoms: C3_3  and  C4_4 
REMARK    3  A    between atoms: C4_4  and  O2_6 
REMARK    4  A    between atoms: O2_6  and  C5_7 
REMARK    5  A    between atoms: C22_26  and  O4_27 
REMARK    6  A    between atoms: N2_29  and  C23_30 
REMARK    7  A    between atoms: C23_30  and  C24_31 
REMARK    8  A    between atoms: C25_33  and  O5_34 
ROOT
HETATM    1  C5  UNL     1     -97.252 -14.195  47.220  1.00  0.00     0.188 C 
HETATM    2  C6  UNL     1     -95.969 -13.486  46.871  1.00  0.00     0.084 C 
HETATM    3  C7  UNL     1     -97.028 -15.284  48.234  1.00  0.00     0.044 C 
HETATM    4  C8  UNL     1     -97.961 -15.635  49.098  1.00  0.00    -0.067 C 
HETATM    5  C9  UNL     1     -97.640 -16.719  50.055  1.00  0.00     0.044 C 
HETATM    6  C10 UNL     1     -99.281 -14.960  49.093  1.00  0.00     0.038 C 
HETATM    7  C11 UNL     1    -100.314 -16.061  49.027  1.00  0.00     0.052 C 
HETATM    8  C12 UNL     1    -101.660 -15.512  48.588  1.00  0.00     0.282 C 
HETATM    9  N1  UNL     1    -102.486 -15.211  49.694  1.00  0.00     0.157 N 
HETATM   10  C13 UNL     1    -102.161 -14.091  50.472  1.00  0.00     0.404 C 
HETATM   11  O3  UNL     1    -102.751 -13.288  49.503  1.00  0.00    -0.312 OA
HETATM   12  C14 UNL     1    -103.639 -14.380  49.301  1.00  0.00     0.266 C 
HETATM   13  C15 UNL     1    -104.715 -14.460  50.307  1.00  0.00     0.072 C 
HETATM   14  C16 UNL     1    -106.095 -14.705  49.863  1.00  0.00     0.005 C 
HETATM   15  C17 UNL     1    -106.390 -14.419  48.430  1.00  0.00     0.000 C 
HETATM   16  C18 UNL     1    -105.342 -15.201  47.627  1.00  0.00     0.005 C 
HETATM   17  C19 UNL     1    -104.046 -14.430  47.887  1.00  0.00     0.072 C 
HETATM   18  C20 UNL     1    -100.777 -13.854  50.833  1.00  0.00     0.063 A 
HETATM   19  C21 UNL     1     -99.535 -14.176  50.326  1.00  0.00     0.023 A 
HETATM   20  C22 UNL     1     -98.568 -13.641  51.157  1.00  0.00     0.152 A 
HETATM   21  N2  UNL     1     -99.163 -13.004  52.155  1.00  0.00    -0.306 N 
HETATM   22  C25 UNL     1    -100.488 -13.111  51.994  1.00  0.00     0.155 A 
HETATM   23  C26 UNL     1     -99.372 -14.004  47.919  1.00  0.00     0.191 C 
HETATM   24  O6  UNL     1     -98.159 -13.321  47.848  1.00  0.00    -0.350 OA
ENDROOT
BRANCH  20  25
HETATM   25  O4  UNL     1     -97.190 -13.781  50.930  1.00  0.00    -0.345 OA
ATOM     26  H4  UNL     1     -96.550 -13.868  51.627  1.00  0.00     0.219 HD
ENDBRANCH  20  25
BRANCH   1  27
HETATM   27  O2  UNL     1     -97.855 -14.660  46.053  1.00  0.00    -0.280 OA
BRANCH  27  28
HETATM   28  C4  UNL     1     -97.877 -14.004  44.854  1.00  0.00     0.261 C 
HETATM   29  O1  UNL     1     -96.866 -14.053  44.119  1.00  0.00    -0.265 OA
BRANCH  28  30
HETATM   30  C3  UNL     1     -99.072 -13.257  44.446  1.00  0.00     0.111 C 
BRANCH  30  31
HETATM   31  C2  UNL     1    -100.084 -14.122  43.730  1.00  0.00     0.005 C 
HETATM   32  C1  UNL     1    -101.215 -14.464  44.648  1.00  0.00     0.005 C 
ENDBRANCH  30  31
ENDBRANCH  28  30
ENDBRANCH  27  28
ENDBRANCH   1  27
BRANCH  22  33
HETATM   33  O5  UNL     1    -101.432 -12.549  52.876  1.00  0.00    -0.345 OA
ATOM     34  H5  UNL     1    -102.308 -12.877  53.042  1.00  0.00     0.219 HD
ENDBRANCH  22  33
BRANCH  21  35
HETATM   35  C23 UNL     1     -98.518 -12.301  53.250  1.00  0.00     0.148 C 
BRANCH  35  36
HETATM   36  C24 UNL     1     -98.062 -13.317  54.272  1.00  0.00     0.135 C 
HETATM   37 CL1  UNL     1     -99.405 -13.501  55.448  1.00  0.00    -0.129 Cl
ENDBRANCH  35  36
ENDBRANCH  21  35
TORSDOF 8
ENDMDL
MODEL 3
REMARK VINA RESULT: -7.488023488      0.762      1.177
REMARK  8 active torsions:
REMARK  status: ('A' for Active; 'I' for Inactive)
REMARK    1  A    between atoms: C2_2  and  C3_3 
REMARK    2  A    between atoms: C3_3  and  C4_4 
REMARK    3  A    between atoms: C4_4  and  O2_6 
REMARK    4  A    between atoms: O2_6  and  C5_7 
REMARK    5  A    between atoms: C22_26  and  O4_27 
REMARK    6  A    between atoms: N2_29  and  C23_30 
REMARK    7  A    between atoms: C23_30  and  C24_31 
REMARK    8  A    between atoms: C25_33  and  O5_34 
ROOT
HETATM    1  C5  UNL     1    -100.396 -12.820  51.402  1.00  0.00     0.188 C 
HETATM    2  C6  UNL     1    -101.543 -12.196  52.153  1.00  0.00     0.084 C 
HETATM    3  C7  UNL     1    -100.442 -14.323  51.464  1.00  0.00     0.044 C 
HETATM    4  C8  UNL     1     -99.965 -15.076  50.491  1.00  0.00    -0.067 C 
HETATM    5  C9  UNL     1    -100.058 -16.546  50.650  1.00  0.00     0.044 C 
HETATM    6  C10 UNL     1     -99.356 -14.455  49.291  1.00  0.00     0.038 C 
HETATM    7  C11 UNL     1     -98.001 -15.102  49.125  1.00  0.00     0.052 C 
HETATM    8  C12 UNL     1     -97.114 -14.272  48.215  1.00  0.00     0.282 C 
HETATM    9  N1  UNL     1     -97.164 -14.731  46.879  1.00  0.00     0.157 N 
HETATM   10  C13 UNL     1     -98.333 -14.488  46.144  1.00  0.00     0.404 C 
HETATM   11  O3  UNL     1     -97.892 -13.187  45.937  1.00  0.00    -0.312 OA
HETATM   12  C14 UNL     1     -96.586 -13.748  45.945  1.00  0.00     0.266 C 
HETATM   13  C15 UNL     1     -96.210 -14.389  44.670  1.00  0.00     0.072 C 
HETATM   14  C16 UNL     1     -94.882 -14.125  44.099  1.00  0.00     0.005 C 
HETATM   15  C17 UNL     1     -94.177 -12.908  44.594  1.00  0.00     0.000 C 
HETATM   16  C18 UNL     1     -94.173 -13.025  46.124  1.00  0.00     0.005 C 
HETATM   17  C19 UNL     1     -95.633 -12.775  46.505  1.00  0.00     0.072 C 
HETATM   18  C20 UNL     1     -99.623 -14.702  46.769  1.00  0.00     0.063 A 
HETATM   19  C21 UNL     1    -100.131 -14.709  48.052  1.00  0.00     0.023 A 
HETATM   20  C22 UNL     1    -101.484 -14.988  47.988  1.00  0.00     0.152 A 
HETATM   21  N2  UNL     1    -101.830 -15.153  46.720  1.00  0.00    -0.306 N 
HETATM   22  C25 UNL     1    -100.739 -14.989  45.960  1.00  0.00     0.155 A 
HETATM   23  C26 UNL     1     -99.267 -12.951  49.471  1.00  0.00     0.191 C 
HETATM   24  O6  UNL     1    -100.474 -12.530  50.027  1.00  0.00    -0.350 OA
ENDROOT
BRANCH  20  25
HETATM   25  O4  UNL     1    -102.311 -15.070  49.119  1.00  0.00    -0.345 OA
ATOM     26  H4  UNL     1    -103.186 -14.701  49.157  1.00  0.00     0.219 HD
ENDBRANCH  20  25
BRANCH   1  27
HETATM   27  O2  UNL     1     -99.194 -12.296  51.875  1.00  0.00    -0.280 OA
BRANCH  27  28
HETATM   28  C4  UNL     1     -98.456 -12.808  52.905  1.00  0.00     0.261 C 
HETATM   29  O1  UNL     1     -98.806 -12.562  54.081  1.00  0.00    -0.265 OA
BRANCH  28  30
HETATM   30  C3  UNL     1     -97.275 -13.632  52.626  1.00  0.00     0.111 C 
BRANCH  30  31
HETATM   31  C2  UNL     1     -97.297 -14.952  53.363  1.00  0.00     0.005 C 
HETATM   32  C1  UNL     1     -96.766 -16.042  52.487  1.00  0.00     0.005 C 
ENDBRANCH  30  31
ENDBRANCH  28  30
ENDBRANCH  27  28
ENDBRANCH   1  27
BRANCH  22  33
HETATM   33  O5  UNL     1    -100.740 -15.095  44.555  1.00  0.00    -0.345 OA
ATOM     34  H5  UNL     1    -101.489 -14.966  43.985  1.00  0.00     0.219 HD
ENDBRANCH  22  33
BRANCH  21  35
HETATM   35  C23 UNL     1    -103.154 -15.460  46.208  1.00  0.00     0.148 C 
BRANCH  35  36
HETATM   36  C24 UNL     1    -103.473 -16.902  46.531  1.00  0.00     0.135 C 
HETATM   37 CL1  UNL     1    -104.862 -16.879  47.668  1.00  0.00    -0.129 Cl
ENDBRANCH  35  36
ENDBRANCH  21  35
TORSDOF 8
ENDMDL
MODEL 4
REMARK VINA RESULT: -7.284302340      3.123      7.093
REMARK  8 active torsions:
REMARK  status: ('A' for Active; 'I' for Inactive)
REMARK    1  A    between atoms: C2_2  and  C3_3 
REMARK    2  A    between atoms: C3_3  and  C4_4 
REMARK    3  A    between atoms: C4_4  and  O2_6 
REMARK    4  A    between atoms: O2_6  and  C5_7 
REMARK    5  A    between atoms: C22_26  and  O4_27 
REMARK    6  A    between atoms: N2_29  and  C23_30 
REMARK    7  A    between atoms: C23_30  and  C24_31 
REMARK    8  A    between atoms: C25_33  and  O5_34 
ROOT
HETATM    1  C5  UNL     1     -97.553 -12.944  49.774  1.00  0.00     0.188 C 
HETATM    2  C6  UNL     1     -96.468 -12.026  50.272  1.00  0.00     0.084 C 
HETATM    3  C7  UNL     1     -97.209 -14.390  50.004  1.00  0.00     0.044 C 
HETATM    4  C8  UNL     1     -98.138 -15.306  50.207  1.00  0.00    -0.067 C 
HETATM    5  C9  UNL     1     -97.693 -16.701  50.423  1.00  0.00     0.044 C 
HETATM    6  C10 UNL     1     -99.572 -14.931  50.209  1.00  0.00     0.038 C 
HETATM    7  C11 UNL     1    -100.253 -15.869  49.241  1.00  0.00     0.052 C 
HETATM    8  C12 UNL     1    -101.610 -15.329  48.829  1.00  0.00     0.282 C 
HETATM    9  N1  UNL     1    -102.648 -15.872  49.619  1.00  0.00     0.157 N 
HETATM   10  C13 UNL     1    -102.757 -15.439  50.948  1.00  0.00     0.404 C 
HETATM   11  O3  UNL     1    -103.382 -14.287  50.487  1.00  0.00    -0.312 OA
HETATM   12  C14 UNL     1    -103.905 -15.117  49.459  1.00  0.00     0.266 C 
HETATM   13  C15 UNL     1    -105.064 -15.925  49.884  1.00  0.00     0.072 C 
HETATM   14  C16 UNL     1    -106.242 -16.005  49.010  1.00  0.00     0.005 C 
HETATM   15  C17 UNL     1    -106.377 -14.935  47.979  1.00  0.00     0.000 C 
HETATM   16  C18 UNL     1    -105.046 -14.926  47.214  1.00  0.00     0.005 C 
HETATM   17  C19 UNL     1    -104.059 -14.334  48.221  1.00  0.00     0.072 C 
HETATM   18  C20 UNL     1    -101.560 -15.315  51.756  1.00  0.00     0.063 A 
HETATM   19  C21 UNL     1    -100.214 -15.108  51.535  1.00  0.00     0.023 A 
HETATM   20  C22 UNL     1     -99.565 -15.089  52.756  1.00  0.00     0.152 A 
HETATM   21  N2  UNL     1    -100.456 -15.276  53.719  1.00  0.00    -0.306 N 
HETATM   22  C25 UNL     1    -101.663 -15.416  53.156  1.00  0.00     0.155 A 
HETATM   23  C26 UNL     1     -99.731 -13.473  49.819  1.00  0.00     0.191 C 
HETATM   24  O6  UNL     1     -98.747 -12.755  50.497  1.00  0.00    -0.350 OA
ENDROOT
BRANCH  20  25
HETATM   25  O4  UNL     1     -98.181 -14.897  52.894  1.00  0.00    -0.345 OA
ATOM     26  H4  UNL     1     -97.798 -14.204  53.418  1.00  0.00     0.219 HD
ENDBRANCH  20  25
BRANCH   1  27
HETATM   27  O2  UNL     1     -97.823 -12.659  48.436  1.00  0.00    -0.280 OA
BRANCH  27  28
HETATM   28  C4  UNL     1     -97.032 -13.003  47.377  1.00  0.00     0.261 C 
HETATM   29  O1  UNL     1     -96.119 -12.224  47.024  1.00  0.00    -0.265 OA
BRANCH  28  30
HETATM   30  C3  UNL     1     -97.257 -14.270  46.672  1.00  0.00     0.111 C 
BRANCH  30  31
HETATM   31  C2  UNL     1     -98.699 -14.460  46.260  1.00  0.00     0.005 C 
HETATM   32  C1  UNL     1     -98.962 -13.763  44.962  1.00  0.00     0.005 C 
ENDBRANCH  30  31
ENDBRANCH  28  30
ENDBRANCH  27  28
ENDBRANCH   1  27
BRANCH  22  33
HETATM   33  O5  UNL     1    -102.848 -15.631  53.888  1.00  0.00    -0.345 OA
ATOM     34  H5  UNL     1    -103.730 -15.632  53.537  1.00  0.00     0.219 HD
ENDBRANCH  22  33
BRANCH  21  35
HETATM   35  C23 UNL     1    -100.199 -15.326  55.148  1.00  0.00     0.148 C 
BRANCH  35  36
HETATM   36  C24 UNL     1     -99.393 -16.569  55.449  1.00  0.00     0.135 C 
HETATM   37 CL1  UNL     1    -100.457 -17.970  55.092  1.00  0.00    -0.129 Cl
ENDBRANCH  35  36
ENDBRANCH  21  35
TORSDOF 8
ENDMDL
MODEL 5
REMARK VINA RESULT: -7.267404641      0.980      1.533
REMARK  8 active torsions:
REMARK  status: ('A' for Active; 'I' for Inactive)
REMARK    1  A    between atoms: C2_2  and  C3_3 
REMARK    2  A    between atoms: C3_3  and  C4_4 
REMARK    3  A    between atoms: C4_4  and  O2_6 
REMARK    4  A    between atoms: O2_6  and  C5_7 
REMARK    5  A    between atoms: C22_26  and  O4_27 
REMARK    6  A    between atoms: N2_29  and  C23_30 
REMARK    7  A    between atoms: C23_30  and  C24_31 
REMARK    8  A    between atoms: C25_33  and  O5_34 
ROOT
HETATM    1  C5  UNL     1    -100.366 -12.781  51.356  1.00  0.00     0.188 C 
HETATM    2  C6  UNL     1    -101.514 -12.150  52.099  1.00  0.00     0.084 C 
HETATM    3  C7  UNL     1    -100.408 -14.283  51.437  1.00  0.00     0.044 C 
HETATM    4  C8  UNL     1     -99.930 -15.048  50.474  1.00  0.00    -0.067 C 
HETATM    5  C9  UNL     1    -100.020 -16.515  50.651  1.00  0.00     0.044 C 
HETATM    6  C10 UNL     1     -99.323 -14.440  49.265  1.00  0.00     0.038 C 
HETATM    7  C11 UNL     1     -97.966 -15.087  49.108  1.00  0.00     0.052 C 
HETATM    8  C12 UNL     1     -97.081 -14.267  48.186  1.00  0.00     0.282 C 
HETATM    9  N1  UNL     1     -97.130 -14.743  46.857  1.00  0.00     0.157 N 
HETATM   10  C13 UNL     1     -98.300 -14.511  46.119  1.00  0.00     0.404 C 
HETATM   11  O3  UNL     1     -97.862 -13.212  45.895  1.00  0.00    -0.312 OA
HETATM   12  C14 UNL     1     -96.555 -13.770  45.910  1.00  0.00     0.266 C 
HETATM   13  C15 UNL     1     -96.177 -14.427  44.643  1.00  0.00     0.072 C 
HETATM   14  C16 UNL     1     -94.850 -14.168  44.069  1.00  0.00     0.005 C 
HETATM   15  C17 UNL     1     -94.148 -12.942  44.548  1.00  0.00     0.000 C 
HETATM   16  C18 UNL     1     -94.143 -13.040  46.080  1.00  0.00     0.005 C 
HETATM   17  C19 UNL     1     -95.604 -12.788  46.458  1.00  0.00     0.072 C 
HETATM   18  C20 UNL     1     -99.590 -14.720  46.747  1.00  0.00     0.063 A 
HETATM   19  C21 UNL     1    -100.097 -14.712  48.030  1.00  0.00     0.023 A 
HETATM   20  C22 UNL     1    -101.450 -14.994  47.970  1.00  0.00     0.152 A 
HETATM   21  N2  UNL     1    -101.795 -15.176  46.704  1.00  0.00    -0.306 N 
HETATM   22  C25 UNL     1    -100.705 -15.020  45.942  1.00  0.00     0.155 A 
HETATM   23  C26 UNL     1     -99.237 -12.934  49.426  1.00  0.00     0.191 C 
HETATM   24  O6  UNL     1    -100.444 -12.508  49.977  1.00  0.00    -0.350 OA
ENDROOT
BRANCH  20  25
HETATM   25  O4  UNL     1    -102.277 -15.064  49.102  1.00  0.00    -0.345 OA
ATOM     26  H4  UNL     1    -102.733 -14.313  49.465  1.00  0.00     0.219 HD
ENDBRANCH  20  25
BRANCH   1  27
HETATM   27  O2  UNL     1     -99.165 -12.248  51.822  1.00  0.00    -0.280 OA
BRANCH  27  28
HETATM   28  C4  UNL     1     -98.358 -12.818  52.766  1.00  0.00     0.261 C 
HETATM   29  O1  UNL     1     -97.381 -13.505  52.393  1.00  0.00    -0.265 OA
BRANCH  28  30
HETATM   30  C3  UNL     1     -98.641 -12.620  54.192  1.00  0.00     0.111 C 
BRANCH  30  31
HETATM   31  C2  UNL     1     -99.044 -13.899  54.890  1.00  0.00     0.005 C 
HETATM   32  C1  UNL     1    -100.508 -13.879  55.201  1.00  0.00     0.005 C 
ENDBRANCH  30  31
ENDBRANCH  28  30
ENDBRANCH  27  28
ENDBRANCH   1  27
BRANCH  22  33
HETATM   33  O5  UNL     1    -100.706 -15.143  44.538  1.00  0.00    -0.345 OA
ATOM     34  H5  UNL     1     -99.956 -15.352  43.994  1.00  0.00     0.219 HD
ENDBRANCH  22  33
BRANCH  21  35
HETATM   35  C23 UNL     1    -103.119 -15.493  46.196  1.00  0.00     0.148 C 
BRANCH  35  36
HETATM   36  C24 UNL     1    -103.411 -16.947  46.485  1.00  0.00     0.135 C 
HETATM   37 CL1  UNL     1    -104.777 -16.976  47.649  1.00  0.00    -0.129 Cl
ENDBRANCH  35  36
ENDBRANCH  21  35
TORSDOF 8
ENDMDL
