MODEL 1
REMARK VINA RESULT: -9.068661163      0.000      0.000
REMARK  5 active torsions:
REMARK  status: ('A' for Active; 'I' for Inactive)
REMARK    1  A    between atoms: N1_4  and  C4_5 
REMARK    2  A    between atoms: C7_8  and  C8_9 
REMARK    3  A    between atoms: C8_9  and  N2_10 
REMARK    4  A    between atoms: C11_13  and  C12_14 
REMARK    5  A    between atoms: C15_21  and  N5_22 
ROOT
HETATM    1  N2  UNL     1     -13.595  13.820 -24.187  1.00  0.00    -0.389 N 
HETATM    2  C9  UNL     1     -12.316  14.145 -24.707  1.00  0.00     0.123 C 
HETATM    3  C10 UNL     1     -12.016  15.579 -24.333  1.00  0.00     0.030 C 
HETATM    4  C11 UNL     1     -13.000  16.558 -24.980  1.00  0.00     0.042 C 
HETATM    5  C20 UNL     1     -14.190  15.820 -25.487  1.00  0.00     0.030 C 
HETATM    6  C21 UNL     1     -14.601  14.812 -24.400  1.00  0.00     0.123 C 
ENDROOT
BRANCH   4   7
HETATM    7  C12 UNL     1     -12.260  17.372 -25.903  1.00  0.00     0.058 A 
HETATM    8  N3  UNL     1     -12.007  16.859 -27.131  1.00  0.00    -0.365 N 
HETATM    9  C13 UNL     1     -11.361  17.474 -28.106  1.00  0.00     0.105 A 
ATOM     10  H3  UNL     1     -12.345  15.915 -27.320  1.00  0.00     0.165 HD
HETATM   11  C14 UNL     1     -10.902  18.749 -27.859  1.00  0.00     0.106 A 
HETATM   12  N4  UNL     1     -11.125  19.301 -26.663  1.00  0.00    -0.349 N 
HETATM   13  C15 UNL     1     -11.807  18.619 -25.667  1.00  0.00     0.126 A 
ATOM     14  H4  UNL     1     -10.786  20.245 -26.479  1.00  0.00     0.167 HD
BRANCH  13  15
HETATM   15  N5  UNL     1     -11.992  19.241 -24.446  1.00  0.00    -0.362 N 
HETATM   16  C16 UNL     1     -12.965  20.269 -24.231  1.00  0.00     0.152 C 
HETATM   17  C17 UNL     1     -13.719  20.047 -22.924  1.00  0.00     0.252 C 
HETATM   18  N6  UNL     1     -12.780  19.855 -21.829  1.00  0.00    -0.072 N 
HETATM   19  C18 UNL     1     -12.086  18.610 -22.085  1.00  0.00     0.252 C 
ATOM     20  H62 UNL     1     -12.151  20.646 -21.696  1.00  0.00     0.277 HD
ATOM     21  H61 UNL     1     -13.223  19.887 -20.910  1.00  0.00     0.277 HD
HETATM   22  C19 UNL     1     -11.209  18.832 -23.303  1.00  0.00     0.152 C 
ENDBRANCH  13  15
ENDBRANCH   4   7
BRANCH   1  23
HETATM   23  C8  UNL     1     -13.694  13.064 -23.016  1.00  0.00     0.096 C 
BRANCH  23  24
HETATM   24  C7  UNL     1     -12.993  13.595 -21.821  1.00  0.00    -0.021 A 
HETATM   25  C6  UNL     1     -13.267  14.867 -21.328  1.00  0.00     0.015 A 
HETATM   26  C5  UNL     1     -12.608  15.359 -20.219  1.00  0.00     0.031 A 
HETATM   27  C4  UNL     1     -11.651  14.623 -19.546  1.00  0.00     0.038 A 
HETATM   28  C23 UNL     1     -11.378  13.362 -20.032  1.00  0.00     0.031 A 
HETATM   29  C22 UNL     1     -12.034  12.867 -21.138  1.00  0.00     0.015 A 
BRANCH  27  30
HETATM   30  N1  UNL     1     -10.991  15.164 -18.405  1.00  0.00    -0.333 N 
HETATM   31  C3  UNL     1     -11.271  16.385 -17.922  1.00  0.00     0.096 A 
HETATM   32  C2  UNL     1     -10.485  16.626 -16.834  1.00  0.00     0.019 A 
HETATM   33  C1  UNL     1      -9.693  15.513 -16.642  1.00  0.00     0.019 A 
HETATM   34  C24 UNL     1     -10.025  14.612 -17.635  1.00  0.00     0.096 A 
ENDBRANCH  27  30
ENDBRANCH  23  24
ENDBRANCH   1  23
TORSDOF 5
ENDMDL
MODEL 2
REMARK VINA RESULT: -8.994382374      2.374      5.856
REMARK  5 active torsions:
REMARK  status: ('A' for Active; 'I' for Inactive)
REMARK    1  A    between atoms: N1_4  and  C4_5 
REMARK    2  A    between atoms: C7_8  and  C8_9 
REMARK    3  A    between atoms: C8_9  and  N2_10 
REMARK    4  A    between atoms: C11_13  and  C12_14 
REMARK    5  A    between atoms: C15_21  and  N5_22 
ROOT
HETATM    1  N2  UNL     1     -11.823  15.207 -20.937  1.00  0.00    -0.389 N 
HETATM    2  C9  UNL     1     -12.802  16.233 -20.979  1.00  0.00     0.123 C 
HETATM    3  C10 UNL     1     -13.267  16.370 -22.412  1.00  0.00     0.030 C 
HETATM    4  C11 UNL     1     -12.135  16.823 -23.340  1.00  0.00     0.042 C 
HETATM    5  C20 UNL     1     -10.821  16.643 -22.662  1.00  0.00     0.030 C 
HETATM    6  C21 UNL     1     -10.844  15.267 -21.975  1.00  0.00     0.123 C 
ENDROOT
BRANCH   4   7
HETATM    7  C12 UNL     1     -12.474  18.127 -23.834  1.00  0.00     0.058 A 
HETATM    8  N3  UNL     1     -12.083  19.198 -23.101  1.00  0.00    -0.365 N 
HETATM    9  C13 UNL     1     -12.290  20.465 -23.415  1.00  0.00     0.105 A 
ATOM     10  H3  UNL     1     -11.584  19.010 -22.231  1.00  0.00     0.165 HD
HETATM   11  C14 UNL     1     -12.962  20.727 -24.589  1.00  0.00     0.106 A 
HETATM   12  N4  UNL     1     -13.369  19.706 -25.347  1.00  0.00    -0.349 N 
HETATM   13  C15 UNL     1     -13.131  18.390 -24.980  1.00  0.00     0.126 A 
ATOM     14  H4  UNL     1     -13.867  19.898 -26.217  1.00  0.00     0.167 HD
BRANCH  13  15
HETATM   15  N5  UNL     1     -13.592  17.379 -25.803  1.00  0.00    -0.362 N 
HETATM   16  C16 UNL     1     -12.742  16.642 -26.687  1.00  0.00     0.152 C 
HETATM   17  C17 UNL     1     -13.046  15.148 -26.623  1.00  0.00     0.252 C 
HETATM   18  N6  UNL     1     -14.471  14.916 -26.809  1.00  0.00    -0.072 N 
HETATM   19  C18 UNL     1     -15.142  15.493 -25.663  1.00  0.00     0.252 C 
ATOM     20  H62 UNL     1     -14.822  15.269 -27.699  1.00  0.00     0.277 HD
ATOM     21  H61 UNL     1     -14.702  13.934 -26.959  1.00  0.00     0.277 HD
HETATM   22  C19 UNL     1     -14.985  16.998 -25.764  1.00  0.00     0.152 C 
ENDBRANCH  13  15
ENDBRANCH   4   7
BRANCH   1  23
HETATM   23  C8  UNL     1     -12.174  13.936 -20.473  1.00  0.00     0.096 C 
BRANCH  23  24
HETATM   24  C7  UNL     1     -12.859  13.042 -21.439  1.00  0.00    -0.021 A 
HETATM   25  C6  UNL     1     -13.161  11.723 -21.115  1.00  0.00     0.015 A 
HETATM   26  C5  UNL     1     -13.794  10.894 -22.019  1.00  0.00     0.031 A 
HETATM   27  C4  UNL     1     -14.158  11.324 -23.282  1.00  0.00     0.038 A 
HETATM   28  C23 UNL     1     -13.861  12.632 -23.605  1.00  0.00     0.031 A 
HETATM   29  C22 UNL     1     -13.230  13.462 -22.705  1.00  0.00     0.015 A 
BRANCH  27  30
HETATM   30  N1  UNL     1     -14.809  10.440 -24.189  1.00  0.00    -0.333 N 
HETATM   31  C3  UNL     1     -15.107  10.790 -25.450  1.00  0.00     0.096 A 
HETATM   32  C2  UNL     1     -15.723   9.744 -26.071  1.00  0.00     0.019 A 
HETATM   33  C1  UNL     1     -15.808   8.713 -25.158  1.00  0.00     0.019 A 
HETATM   34  C24 UNL     1     -15.231   9.170 -23.988  1.00  0.00     0.096 A 
ENDBRANCH  27  30
ENDBRANCH  23  24
ENDBRANCH   1  23
TORSDOF 5
ENDMDL
MODEL 3
REMARK VINA RESULT: -8.825371119      2.240      5.667
REMARK  5 active torsions:
REMARK  status: ('A' for Active; 'I' for Inactive)
REMARK    1  A    between atoms: N1_4  and  C4_5 
REMARK    2  A    between atoms: C7_8  and  C8_9 
REMARK    3  A    between atoms: C8_9  and  N2_10 
REMARK    4  A    between atoms: C11_13  and  C12_14 
REMARK    5  A    between atoms: C15_21  and  N5_22 
ROOT
HETATM    1  N2  UNL     1     -11.604  15.614 -21.029  1.00  0.00    -0.389 N 
HETATM    2  C9  UNL     1     -12.474  16.729 -21.147  1.00  0.00     0.123 C 
HETATM    3  C10 UNL     1     -12.981  16.770 -22.571  1.00  0.00     0.030 C 
HETATM    4  C11 UNL     1     -11.848  17.006 -23.575  1.00  0.00     0.042 C 
HETATM    5  C20 UNL     1     -10.533  16.757 -22.923  1.00  0.00     0.030 C 
HETATM    6  C21 UNL     1     -10.667  15.467 -22.098  1.00  0.00     0.123 C 
ENDROOT
BRANCH   4   7
HETATM    7  C12 UNL     1     -12.072  18.283 -24.191  1.00  0.00     0.058 A 
HETATM    8  N3  UNL     1     -12.412  19.319 -23.385  1.00  0.00    -0.365 N 
HETATM    9  C13 UNL     1     -12.634  20.561 -23.778  1.00  0.00     0.105 A 
ATOM     10  H3  UNL     1     -12.506  19.122 -22.388  1.00  0.00     0.165 HD
HETATM   11  C14 UNL     1     -12.510  20.835 -25.122  1.00  0.00     0.106 A 
HETATM   12  N4  UNL     1     -12.177  19.848 -25.959  1.00  0.00    -0.349 N 
HETATM   13  C15 UNL     1     -11.954  18.557 -25.505  1.00  0.00     0.126 A 
ATOM     14  H4  UNL     1     -12.084  20.049 -26.955  1.00  0.00     0.167 HD
BRANCH  13  15
HETATM   15  N5  UNL     1     -11.626  17.578 -26.425  1.00  0.00    -0.362 N 
HETATM   16  C16 UNL     1     -10.307  17.414 -26.956  1.00  0.00     0.152 C 
HETATM   17  C17 UNL     1      -9.906  15.942 -26.984  1.00  0.00     0.252 C 
HETATM   18  N6  UNL     1     -10.935  15.154 -27.647  1.00  0.00    -0.072 N 
HETATM   19  C18 UNL     1     -12.113  15.213 -26.807  1.00  0.00     0.252 C 
ATOM     20  H62 UNL     1     -11.110  15.448 -28.607  1.00  0.00     0.277 HD
ATOM     21  H61 UNL     1     -10.637  14.201 -27.856  1.00  0.00     0.277 HD
HETATM   22  C19 UNL     1     -12.630  16.637 -26.864  1.00  0.00     0.152 C 
ENDBRANCH  13  15
ENDBRANCH   4   7
BRANCH   1  23
HETATM   23  C8  UNL     1     -12.063  14.440 -20.426  1.00  0.00     0.096 C 
BRANCH  23  24
HETATM   24  C7  UNL     1     -12.720  13.449 -21.314  1.00  0.00    -0.021 A 
HETATM   25  C6  UNL     1     -13.212  13.813 -22.563  1.00  0.00     0.015 A 
HETATM   26  C5  UNL     1     -13.829  12.889 -23.383  1.00  0.00     0.031 A 
HETATM   27  C4  UNL     1     -13.988  11.567 -23.011  1.00  0.00     0.038 A 
HETATM   28  C23 UNL     1     -13.501  11.203 -21.774  1.00  0.00     0.031 A 
HETATM   29  C22 UNL     1     -12.884  12.123 -20.953  1.00  0.00     0.015 A 
BRANCH  27  30
HETATM   30  N1  UNL     1     -14.630  10.642 -23.884  1.00  0.00    -0.333 N 
HETATM   31  C3  UNL     1     -14.962  10.953 -25.147  1.00  0.00     0.096 A 
HETATM   32  C2  UNL     1     -15.559   9.875 -25.731  1.00  0.00     0.019 A 
HETATM   33  C1  UNL     1     -15.595   8.865 -24.793  1.00  0.00     0.019 A 
HETATM   34  C24 UNL     1     -15.009   9.366 -23.646  1.00  0.00     0.096 A 
ENDBRANCH  27  30
ENDBRANCH  23  24
ENDBRANCH   1  23
TORSDOF 5
ENDMDL
MODEL 4
REMARK VINA RESULT: -8.782695097      2.138      4.123
REMARK  5 active torsions:
REMARK  status: ('A' for Active; 'I' for Inactive)
REMARK    1  A    between atoms: N1_4  and  C4_5 
REMARK    2  A    between atoms: C7_8  and  C8_9 
REMARK    3  A    between atoms: C8_9  and  N2_10 
REMARK    4  A    between atoms: C11_13  and  C12_14 
REMARK    5  A    between atoms: C15_21  and  N5_22 
ROOT
HETATM    1  N2  UNL     1     -11.954  17.454 -21.536  1.00  0.00    -0.389 N 
HETATM    2  C9  UNL     1     -12.478  18.690 -21.996  1.00  0.00     0.123 C 
HETATM    3  C10 UNL     1     -13.109  18.448 -23.350  1.00  0.00     0.030 C 
HETATM    4  C11 UNL     1     -12.077  18.008 -24.393  1.00  0.00     0.042 C 
HETATM    5  C20 UNL     1     -10.822  17.580 -23.714  1.00  0.00     0.030 C 
HETATM    6  C21 UNL     1     -11.225  16.709 -22.513  1.00  0.00     0.123 C 
ENDROOT
BRANCH   4   7
HETATM    7  C12 UNL     1     -11.996  19.042 -25.386  1.00  0.00     0.058 A 
HETATM    8  N3  UNL     1     -12.412  20.284 -25.037  1.00  0.00    -0.365 N 
HETATM    9  C13 UNL     1     -12.388  21.352 -25.815  1.00  0.00     0.105 A 
ATOM     10  H3  UNL     1     -12.775  20.404 -24.092  1.00  0.00     0.165 HD
HETATM   11  C14 UNL     1     -11.899  21.197 -27.094  1.00  0.00     0.106 A 
HETATM   12  N4  UNL     1     -11.476  19.992 -27.486  1.00  0.00    -0.349 N 
HETATM   13  C15 UNL     1     -11.519  18.896 -26.638  1.00  0.00     0.126 A 
ATOM     14  H4  UNL     1     -11.113  19.876 -28.433  1.00  0.00     0.167 HD
BRANCH  13  15
HETATM   15  N5  UNL     1     -11.079  17.674 -27.112  1.00  0.00    -0.362 N 
HETATM   16  C16 UNL     1      -9.695  17.356 -27.290  1.00  0.00     0.152 C 
HETATM   17  C17 UNL     1      -9.381  15.959 -26.764  1.00  0.00     0.252 C 
HETATM   18  N6  UNL     1     -10.308  14.989 -27.328  1.00  0.00    -0.072 N 
HETATM   19  C18 UNL     1     -11.619  15.309 -26.803  1.00  0.00     0.252 C 
ATOM     20  H62 UNL     1     -10.282  14.954 -28.347  1.00  0.00     0.277 HD
ATOM     21  H61 UNL     1     -10.032  14.023 -27.158  1.00  0.00     0.277 HD
HETATM   22  C19 UNL     1     -12.034  16.633 -27.415  1.00  0.00     0.152 C 
ENDBRANCH  13  15
ENDBRANCH   4   7
BRANCH   1  23
HETATM   23  C8  UNL     1     -12.658  16.719 -20.578  1.00  0.00     0.096 C 
BRANCH  23  24
HETATM   24  C7  UNL     1     -11.846  16.001 -19.564  1.00  0.00    -0.021 A 
HETATM   25  C6  UNL     1     -11.319  14.739 -19.821  1.00  0.00     0.015 A 
HETATM   26  C5  UNL     1     -10.570  14.073 -18.873  1.00  0.00     0.031 A 
HETATM   27  C4  UNL     1     -10.306  14.617 -17.629  1.00  0.00     0.038 A 
HETATM   28  C23 UNL     1     -10.826  15.868 -17.372  1.00  0.00     0.031 A 
HETATM   29  C22 UNL     1     -11.574  16.536 -18.317  1.00  0.00     0.015 A 
BRANCH  27  30
HETATM   30  N1  UNL     1      -9.529  13.899 -16.675  1.00  0.00    -0.333 N 
HETATM   31  C3  UNL     1      -9.390  12.564 -16.715  1.00  0.00     0.096 A 
HETATM   32  C2  UNL     1      -8.596  12.166 -15.681  1.00  0.00     0.019 A 
HETATM   33  C1  UNL     1      -8.234  13.297 -14.979  1.00  0.00     0.019 A 
HETATM   34  C24 UNL     1      -8.828  14.369 -15.618  1.00  0.00     0.096 A 
ENDBRANCH  27  30
ENDBRANCH  23  24
ENDBRANCH   1  23
TORSDOF 5
ENDMDL
MODEL 5
REMARK VINA RESULT: -8.772544629      1.972      4.099
REMARK  5 active torsions:
REMARK  status: ('A' for Active; 'I' for Inactive)
REMARK    1  A    between atoms: N1_4  and  C4_5 
REMARK    2  A    between atoms: C7_8  and  C8_9 
REMARK    3  A    between atoms: C8_9  and  N2_10 
REMARK    4  A    between atoms: C11_13  and  C12_14 
REMARK    5  A    between atoms: C15_21  and  N5_22 
ROOT
HETATM    1  N2  UNL     1     -11.493  16.792 -21.949  1.00  0.00    -0.389 N 
HETATM    2  C9  UNL     1     -11.994  17.828 -22.779  1.00  0.00     0.123 C 
HETATM    3  C10 UNL     1     -12.497  17.194 -24.057  1.00  0.00     0.030 C 
HETATM    4  C11 UNL     1     -11.368  16.525 -24.847  1.00  0.00     0.042 C 
HETATM    5  C20 UNL     1     -10.172  16.355 -23.976  1.00  0.00     0.030 C 
HETATM    6  C21 UNL     1     -10.666  15.836 -22.615  1.00  0.00     0.123 C 
ENDROOT
BRANCH   4   7
HETATM    7  C12 UNL     1     -11.216  17.244 -26.080  1.00  0.00     0.058 A 
HETATM    8  N3  UNL     1     -10.396  18.323 -26.082  1.00  0.00    -0.365 N 
HETATM    9  C13 UNL     1     -10.125  19.084 -27.128  1.00  0.00     0.105 A 
ATOM     10  H3  UNL     1      -9.949  18.570 -25.198  1.00  0.00     0.165 HD
HETATM   11  C14 UNL     1     -10.724  18.757 -28.324  1.00  0.00     0.106 A 
HETATM   12  N4  UNL     1     -11.542  17.702 -28.375  1.00  0.00    -0.349 N 
HETATM   13  C15 UNL     1     -11.800  16.930 -27.253  1.00  0.00     0.126 A 
ATOM     14  H4  UNL     1     -11.986  17.458 -29.261  1.00  0.00     0.167 HD
BRANCH  13  15
HETATM   15  N5  UNL     1     -12.667  15.859 -27.370  1.00  0.00    -0.362 N 
HETATM   16  C16 UNL     1     -12.239  14.542 -27.732  1.00  0.00     0.152 C 
HETATM   17  C17 UNL     1     -12.899  13.488 -26.848  1.00  0.00     0.252 C 
HETATM   18  N6  UNL     1     -14.342  13.679 -26.832  1.00  0.00    -0.072 N 
HETATM   19  C18 UNL     1     -14.589  14.943 -26.169  1.00  0.00     0.252 C 
ATOM     20  H62 UNL     1     -14.766  13.622 -27.757  1.00  0.00     0.277 HD
ATOM     21  H61 UNL     1     -14.846  12.899 -26.410  1.00  0.00     0.277 HD
HETATM   22  C19 UNL     1     -14.072  16.035 -27.085  1.00  0.00     0.152 C 
ENDBRANCH  13  15
ENDBRANCH   4   7
BRANCH   1  23
HETATM   23  C8  UNL     1     -12.267  16.323 -20.884  1.00  0.00     0.096 C 
BRANCH  23  24
HETATM   24  C7  UNL     1     -11.570  15.492 -19.872  1.00  0.00    -0.021 A 
HETATM   25  C6  UNL     1     -11.178  16.021 -18.646  1.00  0.00     0.015 A 
HETATM   26  C5  UNL     1     -10.524  15.245 -17.710  1.00  0.00     0.031 A 
HETATM   27  C4  UNL     1     -10.227  13.914 -17.937  1.00  0.00     0.038 A 
HETATM   28  C23 UNL     1     -10.615  13.386 -19.151  1.00  0.00     0.031 A 
HETATM   29  C22 UNL     1     -11.268  14.158 -20.087  1.00  0.00     0.015 A 
BRANCH  27  30
HETATM   30  N1  UNL     1      -9.551  13.144 -16.948  1.00  0.00    -0.333 N 
HETATM   31  C3  UNL     1      -9.520  11.802 -16.974  1.00  0.00     0.096 A 
HETATM   32  C2  UNL     1      -8.804  11.350 -15.906  1.00  0.00     0.019 A 
HETATM   33  C1  UNL     1      -8.380  12.455 -15.196  1.00  0.00     0.019 A 
HETATM   34  C24 UNL     1      -8.858  13.565 -15.865  1.00  0.00     0.096 A 
ENDBRANCH  27  30
ENDBRANCH  23  24
ENDBRANCH   1  23
TORSDOF 5
ENDMDL
