MODEL 1
REMARK VINA RESULT: -6.438032533      0.000      0.000
REMARK  12 active torsions:
REMARK  status: ('A' for Active; 'I' for Inactive)
REMARK    1  A    between atoms: C5_5  and  N1_6 
REMARK       I    between atoms: N1_6  and  C6_8 
REMARK    2  A    between atoms: C9_12  and  C10_13 
REMARK    3  A    between atoms: C10_13  and  C12_15 
REMARK    4  A    between atoms: C12_15  and  C13_16 
REMARK    5  A    between atoms: C13_16  and  C14_17 
REMARK    6  A    between atoms: C14_17  and  C15_18 
REMARK    7  A    between atoms: C15_18  and  C16_19 
REMARK    8  A    between atoms: C16_19  and  O2_20 
REMARK    9  A    between atoms: O2_20  and  C17_21 
REMARK   10  A    between atoms: C17_21  and  C18_23 
REMARK   11  A    between atoms: C24_29  and  O4_30 
REMARK   12  A    between atoms: N2_33  and  O5_35 
ROOT
HETATM    1  C1  UNL     1       9.571  20.534   6.178  1.00  0.00     0.021 C 
HETATM    2  C2  UNL     1      10.321  19.588   6.699  1.00  0.00    -0.040 C 
HETATM    3  C3  UNL     1       9.743  18.471   7.488  1.00  0.00     0.047 C 
HETATM    4  C4  UNL     1      10.367  17.176   7.064  1.00  0.00     0.024 C 
HETATM    5  C5  UNL     1      10.002  16.029   7.975  1.00  0.00     0.090 C 
HETATM    6  C8  UNL     1      11.259  15.976   8.868  1.00  0.00     0.031 C 
HETATM    7  C9  UNL     1      12.288  16.030   7.799  1.00  0.00     0.003 C 
HETATM    8  C22 UNL     1      11.887  17.225   6.998  1.00  0.00    -0.003 C 
HETATM    9  C23 UNL     1      12.325  16.952   5.548  1.00  0.00     0.019 C 
HETATM   10  C24 UNL     1      12.478  18.528   7.364  1.00  0.00     0.179 C 
HETATM   11  C25 UNL     1      11.768  19.571   6.537  1.00  0.00     0.067 C 
HETATM   12  N2  UNL     1      12.373  20.375   5.761  1.00  0.00    -0.270 N 
ATOM     13  H2  UNL     1      11.801  21.044   5.245  1.00  0.00     0.194 HD
ENDROOT
BRANCH   7  14
HETATM   14  C10 UNL     1      13.683  15.797   8.101  1.00  0.00    -0.014 C 
HETATM   15  C11 UNL     1      14.264  16.271   9.382  1.00  0.00     0.010 C 
BRANCH  14  16
HETATM   16  C12 UNL     1      14.212  14.463   7.717  1.00  0.00     0.005 C 
BRANCH  16  17
HETATM   17  C13 UNL     1      13.253  13.446   7.209  1.00  0.00     0.000 C 
BRANCH  17  18
HETATM   18  C14 UNL     1      13.092  12.285   8.190  1.00  0.00     0.002 C 
BRANCH  18  19
HETATM   19  C15 UNL     1      11.948  12.463   9.134  1.00  0.00     0.027 C 
BRANCH  19  20
HETATM   20  C16 UNL     1      12.053  11.354  10.170  1.00  0.00     0.178 C 
BRANCH  20  21
HETATM   21  O2  UNL     1      13.436  11.151  10.442  1.00  0.00    -0.321 OA
BRANCH  21  22
HETATM   22  C17 UNL     1      13.854  10.116  11.250  1.00  0.00     0.266 C 
HETATM   23  O3  UNL     1      13.823   8.954  10.748  1.00  0.00    -0.264 OA
BRANCH  22  24
HETATM   24  C18 UNL     1      14.324  10.293  12.637  1.00  0.00     0.037 C 
HETATM   25  C19 UNL     1      13.245  10.882  13.535  1.00  0.00     0.025 C 
HETATM   26  C20 UNL     1      14.763   8.972  13.213  1.00  0.00     0.025 C 
HETATM   27  C21 UNL     1      15.545  11.200  12.604  1.00  0.00     0.025 C 
ENDBRANCH  22  24
ENDBRANCH  21  22
ENDBRANCH  20  21
ENDBRANCH  19  20
ENDBRANCH  18  19
ENDBRANCH  17  18
ENDBRANCH  16  17
ENDBRANCH  14  16
ENDBRANCH   7  14
BRANCH   5  28
HETATM   28  N1  UNL     1       8.804  16.205   8.719  1.00  0.00    -0.356 N 
HETATM   29  C6  UNL     1       7.952  15.174   9.171  1.00  0.00     0.213 C 
HETATM   30  C7  UNL     1       6.725  15.458   9.940  1.00  0.00     0.117 C 
HETATM   31  O1  UNL     1       8.243  13.987   8.915  1.00  0.00    -0.274 OA
ATOM     32  H1  UNL     1       8.536  17.162   8.946  1.00  0.00     0.162 HD
ENDBRANCH   5  28
BRANCH  10  33
HETATM   33  O4  UNL     1      12.321  18.927   8.670  1.00  0.00    -0.389 OA
ATOM     34  H4  UNL     1      13.063  18.788   9.247  1.00  0.00     0.210 HD
ENDBRANCH  10  33
BRANCH  12  35
HETATM   35  O5  UNL     1      13.713  20.420   5.560  1.00  0.00    -0.290 OA
ATOM     36  H5  UNL     1      14.251  21.203   5.589  1.00  0.00     0.244 HD
ENDBRANCH  12  35
TORSDOF 12
ENDMDL
MODEL 2
REMARK VINA RESULT: -6.366153860      1.916      2.905
REMARK  12 active torsions:
REMARK  status: ('A' for Active; 'I' for Inactive)
REMARK    1  A    between atoms: C5_5  and  N1_6 
REMARK       I    between atoms: N1_6  and  C6_8 
REMARK    2  A    between atoms: C9_12  and  C10_13 
REMARK    3  A    between atoms: C10_13  and  C12_15 
REMARK    4  A    between atoms: C12_15  and  C13_16 
REMARK    5  A    between atoms: C13_16  and  C14_17 
REMARK    6  A    between atoms: C14_17  and  C15_18 
REMARK    7  A    between atoms: C15_18  and  C16_19 
REMARK    8  A    between atoms: C16_19  and  O2_20 
REMARK    9  A    between atoms: O2_20  and  C17_21 
REMARK   10  A    between atoms: C17_21  and  C18_23 
REMARK   11  A    between atoms: C24_29  and  O4_30 
REMARK   12  A    between atoms: N2_33  and  O5_35 
ROOT
HETATM    1  C1  UNL     1       9.528  20.358   6.767  1.00  0.00     0.021 C 
HETATM    2  C2  UNL     1      10.296  19.361   7.145  1.00  0.00    -0.040 C 
HETATM    3  C3  UNL     1       9.768  18.211   7.922  1.00  0.00     0.047 C 
HETATM    4  C4  UNL     1      10.300  16.930   7.354  1.00  0.00     0.024 C 
HETATM    5  C5  UNL     1       9.995  15.736   8.227  1.00  0.00     0.090 C 
HETATM    6  C8  UNL     1      11.338  15.592   8.974  1.00  0.00     0.031 C 
HETATM    7  C9  UNL     1      12.249  15.688   7.806  1.00  0.00     0.003 C 
HETATM    8  C22 UNL     1      11.805  16.943   7.128  1.00  0.00    -0.003 C 
HETATM    9  C23 UNL     1      12.078  16.753   5.625  1.00  0.00     0.019 C 
HETATM   10  C24 UNL     1      12.475  18.202   7.507  1.00  0.00     0.179 C 
HETATM   11  C25 UNL     1      11.717  19.316   6.828  1.00  0.00     0.067 C 
HETATM   12  N2  UNL     1      12.263  20.152   6.043  1.00  0.00    -0.270 N 
ATOM     13  H2  UNL     1      11.662  20.868   5.633  1.00  0.00     0.194 HD
ENDROOT
BRANCH   7  14
HETATM   14  C10 UNL     1      13.659  15.399   7.941  1.00  0.00    -0.014 C 
HETATM   15  C11 UNL     1      14.403  15.835   9.149  1.00  0.00     0.010 C 
BRANCH  14  16
HETATM   16  C12 UNL     1      14.088  14.051   7.487  1.00  0.00     0.005 C 
BRANCH  16  17
HETATM   17  C13 UNL     1      13.036  13.070   7.107  1.00  0.00     0.000 C 
BRANCH  17  18
HETATM   18  C14 UNL     1      12.675  12.152   8.274  1.00  0.00     0.002 C 
BRANCH  18  19
HETATM   19  C15 UNL     1      13.856  11.733   9.086  1.00  0.00     0.027 C 
BRANCH  19  20
HETATM   20  C16 UNL     1      13.723  10.237   9.322  1.00  0.00     0.178 C 
BRANCH  20  21
HETATM   21  O2  UNL     1      13.857   9.590   8.061  1.00  0.00    -0.321 OA
BRANCH  21  22
HETATM   22  C17 UNL     1      15.101   9.335   7.524  1.00  0.00     0.266 C 
HETATM   23  O3  UNL     1      15.887   8.630   8.222  1.00  0.00    -0.264 OA
BRANCH  22  24
HETATM   24  C18 UNL     1      15.547   9.832   6.210  1.00  0.00     0.037 C 
HETATM   25  C19 UNL     1      16.206  11.201   6.310  1.00  0.00     0.025 C 
HETATM   26  C20 UNL     1      16.527   8.870   5.592  1.00  0.00     0.025 C 
HETATM   27  C21 UNL     1      14.332   9.890   5.295  1.00  0.00     0.025 C 
ENDBRANCH  22  24
ENDBRANCH  21  22
ENDBRANCH  20  21
ENDBRANCH  19  20
ENDBRANCH  18  19
ENDBRANCH  17  18
ENDBRANCH  16  17
ENDBRANCH  14  16
ENDBRANCH   7  14
BRANCH   5  28
HETATM   28  N1  UNL     1       8.890  15.896   9.105  1.00  0.00    -0.356 N 
HETATM   29  C6  UNL     1       7.898  14.927   9.371  1.00  0.00     0.213 C 
HETATM   30  C7  UNL     1       6.784  15.187  10.302  1.00  0.00     0.117 C 
HETATM   31  O1  UNL     1       7.964  13.816   8.803  1.00  0.00    -0.274 OA
ATOM     32  H1  UNL     1       8.805  16.791   9.586  1.00  0.00     0.162 HD
ENDBRANCH   5  28
BRANCH  10  33
HETATM   33  O4  UNL     1      12.471  18.520   8.845  1.00  0.00    -0.389 OA
ATOM     34  H4  UNL     1      12.741  19.403   9.071  1.00  0.00     0.210 HD
ENDBRANCH  10  33
BRANCH  12  35
HETATM   35  O5  UNL     1      13.575  20.175   5.701  1.00  0.00    -0.290 OA
ATOM     36  H5  UNL     1      13.964  19.708   4.972  1.00  0.00     0.244 HD
ENDBRANCH  12  35
TORSDOF 12
ENDMDL
MODEL 3
REMARK VINA RESULT: -6.284638784      1.162      1.499
REMARK  12 active torsions:
REMARK  status: ('A' for Active; 'I' for Inactive)
REMARK    1  A    between atoms: C5_5  and  N1_6 
REMARK       I    between atoms: N1_6  and  C6_8 
REMARK    2  A    between atoms: C9_12  and  C10_13 
REMARK    3  A    between atoms: C10_13  and  C12_15 
REMARK    4  A    between atoms: C12_15  and  C13_16 
REMARK    5  A    between atoms: C13_16  and  C14_17 
REMARK    6  A    between atoms: C14_17  and  C15_18 
REMARK    7  A    between atoms: C15_18  and  C16_19 
REMARK    8  A    between atoms: C16_19  and  O2_20 
REMARK    9  A    between atoms: O2_20  and  C17_21 
REMARK   10  A    between atoms: C17_21  and  C18_23 
REMARK   11  A    between atoms: C24_29  and  O4_30 
REMARK   12  A    between atoms: N2_33  and  O5_35 
ROOT
HETATM    1  C1  UNL     1       9.157  20.019   5.990  1.00  0.00     0.021 C 
HETATM    2  C2  UNL     1      10.074  19.271   6.563  1.00  0.00    -0.040 C 
HETATM    3  C3  UNL     1       9.725  18.200   7.530  1.00  0.00     0.047 C 
HETATM    4  C4  UNL     1      10.513  16.964   7.222  1.00  0.00     0.024 C 
HETATM    5  C5  UNL     1      10.387  15.911   8.297  1.00  0.00     0.090 C 
HETATM    6  C8  UNL     1      11.690  16.162   9.083  1.00  0.00     0.031 C 
HETATM    7  C9  UNL     1      12.630  16.218   7.935  1.00  0.00     0.003 C 
HETATM    8  C22 UNL     1      12.001  17.222   7.026  1.00  0.00    -0.003 C 
HETATM    9  C23 UNL     1      12.384  16.821   5.591  1.00  0.00     0.019 C 
HETATM   10  C24 UNL     1      12.406  18.634   7.176  1.00  0.00     0.179 C 
HETATM   11  C25 UNL     1      11.494  19.442   6.286  1.00  0.00     0.067 C 
HETATM   12  N2  UNL     1      11.918  20.211   5.369  1.00  0.00    -0.270 N 
ATOM     13  H2  UNL     1      11.219  20.714   4.821  1.00  0.00     0.194 HD
ENDROOT
BRANCH   7  14
HETATM   14  C10 UNL     1      14.060  16.232   8.148  1.00  0.00    -0.014 C 
HETATM   15  C11 UNL     1      14.621  16.665   9.453  1.00  0.00     0.010 C 
BRANCH  14  16
HETATM   16  C12 UNL     1      14.808  15.080   7.583  1.00  0.00     0.005 C 
BRANCH  16  17
HETATM   17  C13 UNL     1      14.558  13.730   8.155  1.00  0.00     0.000 C 
BRANCH  17  18
HETATM   18  C14 UNL     1      13.777  12.844   7.185  1.00  0.00     0.002 C 
BRANCH  18  19
HETATM   19  C15 UNL     1      12.379  12.566   7.632  1.00  0.00     0.027 C 
BRANCH  19  20
HETATM   20  C16 UNL     1      12.401  12.526   9.152  1.00  0.00     0.178 C 
BRANCH  20  21
HETATM   21  O2  UNL     1      12.221  11.170   9.547  1.00  0.00    -0.321 OA
BRANCH  21  22
HETATM   22  C17 UNL     1      13.079  10.576  10.449  1.00  0.00     0.266 C 
HETATM   23  O3  UNL     1      12.729  10.599  11.666  1.00  0.00    -0.264 OA
BRANCH  22  24
HETATM   24  C18 UNL     1      14.351   9.934  10.073  1.00  0.00     0.037 C 
HETATM   25  C19 UNL     1      15.534  10.883  10.207  1.00  0.00     0.025 C 
HETATM   26  C20 UNL     1      14.603   8.726  10.939  1.00  0.00     0.025 C 
HETATM   27  C21 UNL     1      14.221   9.442   8.639  1.00  0.00     0.025 C 
ENDBRANCH  22  24
ENDBRANCH  21  22
ENDBRANCH  20  21
ENDBRANCH  19  20
ENDBRANCH  18  19
ENDBRANCH  17  18
ENDBRANCH  16  17
ENDBRANCH  14  16
ENDBRANCH   7  14
BRANCH   5  28
HETATM   28  N1  UNL     1       9.225  16.012   9.108  1.00  0.00    -0.356 N 
HETATM   29  C6  UNL     1       8.297  14.977   9.356  1.00  0.00     0.213 C 
HETATM   30  C7  UNL     1       7.116  15.180  10.216  1.00  0.00     0.117 C 
HETATM   31  O1  UNL     1       8.477  13.857   8.833  1.00  0.00    -0.274 OA
ATOM     32  H1  UNL     1       9.046  16.912   9.551  1.00  0.00     0.162 HD
ENDBRANCH   5  28
BRANCH  10  33
HETATM   33  O4  UNL     1      12.272  19.181   8.430  1.00  0.00    -0.389 OA
ATOM     34  H4  UNL     1      11.677  19.917   8.509  1.00  0.00     0.210 HD
ENDBRANCH  10  33
BRANCH  12  35
HETATM   35  O5  UNL     1      13.220  20.422   5.054  1.00  0.00    -0.290 OA
ATOM     36  H5  UNL     1      13.536  20.876   4.283  1.00  0.00     0.244 HD
ENDBRANCH  12  35
TORSDOF 12
ENDMDL
MODEL 4
REMARK VINA RESULT: -6.264537379      3.489      6.625
REMARK  12 active torsions:
REMARK  status: ('A' for Active; 'I' for Inactive)
REMARK    1  A    between atoms: C5_5  and  N1_6 
REMARK       I    between atoms: N1_6  and  C6_8 
REMARK    2  A    between atoms: C9_12  and  C10_13 
REMARK    3  A    between atoms: C10_13  and  C12_15 
REMARK    4  A    between atoms: C12_15  and  C13_16 
REMARK    5  A    between atoms: C13_16  and  C14_17 
REMARK    6  A    between atoms: C14_17  and  C15_18 
REMARK    7  A    between atoms: C15_18  and  C16_19 
REMARK    8  A    between atoms: C16_19  and  O2_20 
REMARK    9  A    between atoms: O2_20  and  C17_21 
REMARK   10  A    between atoms: C17_21  and  C18_23 
REMARK   11  A    between atoms: C24_29  and  O4_30 
REMARK   12  A    between atoms: N2_33  and  O5_35 
ROOT
HETATM    1  C1  UNL     1      13.086  19.688   5.833  1.00  0.00     0.021 C 
HETATM    2  C2  UNL     1      12.995  18.456   6.283  1.00  0.00    -0.040 C 
HETATM    3  C3  UNL     1      14.034  17.858   7.159  1.00  0.00     0.047 C 
HETATM    4  C4  UNL     1      13.380  17.125   8.290  1.00  0.00     0.024 C 
HETATM    5  C5  UNL     1      14.359  16.300   9.091  1.00  0.00     0.090 C 
HETATM    6  C8  UNL     1      14.118  14.908   8.469  1.00  0.00     0.031 C 
HETATM    7  C9  UNL     1      12.635  14.903   8.515  1.00  0.00     0.003 C 
HETATM    8  C22 UNL     1      12.267  16.186   7.846  1.00  0.00    -0.003 C 
HETATM    9  C23 UNL     1      10.946  16.654   8.484  1.00  0.00     0.019 C 
HETATM   10  C24 UNL     1      12.028  16.159   6.390  1.00  0.00     0.179 C 
HETATM   11  C25 UNL     1      11.868  17.594   5.951  1.00  0.00     0.067 C 
HETATM   12  N2  UNL     1      10.840  18.026   5.342  1.00  0.00    -0.270 N 
ATOM     13  H2  UNL     1      10.829  19.014   5.089  1.00  0.00     0.194 HD
ENDROOT
BRANCH   7  14
HETATM   14  C10 UNL     1      11.889  13.698   8.225  1.00  0.00    -0.014 C 
HETATM   15  C11 UNL     1      12.547  12.550   7.553  1.00  0.00     0.010 C 
BRANCH  14  16
HETATM   16  C12 UNL     1      10.951  13.250   9.287  1.00  0.00     0.005 C 
BRANCH  16  17
HETATM   17  C13 UNL     1       9.495  13.240   8.980  1.00  0.00     0.000 C 
BRANCH  17  18
HETATM   18  C14 UNL     1       8.652  13.337  10.251  1.00  0.00     0.002 C 
BRANCH  18  19
HETATM   19  C15 UNL     1       7.565  14.358  10.164  1.00  0.00     0.027 C 
BRANCH  19  20
HETATM   20  C16 UNL     1       6.609  13.895   9.076  1.00  0.00     0.178 C 
BRANCH  20  21
HETATM   21  O2  UNL     1       6.036  12.664   9.504  1.00  0.00    -0.321 OA
BRANCH  21  22
HETATM   22  C17 UNL     1       4.679  12.551   9.717  1.00  0.00     0.266 C 
HETATM   23  O3  UNL     1       3.987  13.597   9.543  1.00  0.00    -0.264 OA
BRANCH  22  24
HETATM   24  C18 UNL     1       4.012  11.302  10.128  1.00  0.00     0.037 C 
HETATM   25  C19 UNL     1       3.092  10.761   9.042  1.00  0.00     0.025 C 
HETATM   26  C20 UNL     1       5.035  10.248  10.462  1.00  0.00     0.025 C 
HETATM   27  C21 UNL     1       3.226  11.587  11.400  1.00  0.00     0.025 C 
ENDBRANCH  22  24
ENDBRANCH  21  22
ENDBRANCH  20  21
ENDBRANCH  19  20
ENDBRANCH  18  19
ENDBRANCH  17  18
ENDBRANCH  16  17
ENDBRANCH  14  16
ENDBRANCH   7  14
BRANCH   5  28
HETATM   28  N1  UNL     1      15.714  16.716   9.003  1.00  0.00    -0.356 N 
HETATM   29  C6  UNL     1      16.641  16.748  10.068  1.00  0.00     0.213 C 
HETATM   30  C7  UNL     1      18.032  17.198   9.877  1.00  0.00     0.117 C 
HETATM   31  O1  UNL     1      16.274  16.385  11.206  1.00  0.00    -0.274 OA
ATOM     32  H1  UNL     1      16.048  17.019   8.088  1.00  0.00     0.162 HD
ENDBRANCH   5  28
BRANCH  10  33
HETATM   33  O4  UNL     1      13.041  15.650   5.612  1.00  0.00    -0.389 OA
ATOM     34  H4  UNL     1      12.811  14.932   5.034  1.00  0.00     0.210 HD
ENDBRANCH  10  33
BRANCH  12  35
HETATM   35  O5  UNL     1       9.757  17.286   5.000  1.00  0.00    -0.290 OA
ATOM     36  H5  UNL     1       9.739  16.605   4.338  1.00  0.00     0.244 HD
ENDBRANCH  12  35
TORSDOF 12
ENDMDL
MODEL 5
REMARK VINA RESULT: -6.228688889      3.095      8.436
REMARK  12 active torsions:
REMARK  status: ('A' for Active; 'I' for Inactive)
REMARK    1  A    between atoms: C5_5  and  N1_6 
REMARK       I    between atoms: N1_6  and  C6_8 
REMARK    2  A    between atoms: C9_12  and  C10_13 
REMARK    3  A    between atoms: C10_13  and  C12_15 
REMARK    4  A    between atoms: C12_15  and  C13_16 
REMARK    5  A    between atoms: C13_16  and  C14_17 
REMARK    6  A    between atoms: C14_17  and  C15_18 
REMARK    7  A    between atoms: C15_18  and  C16_19 
REMARK    8  A    between atoms: C16_19  and  O2_20 
REMARK    9  A    between atoms: O2_20  and  C17_21 
REMARK   10  A    between atoms: C17_21  and  C18_23 
REMARK   11  A    between atoms: C24_29  and  O4_30 
REMARK   12  A    between atoms: N2_33  and  O5_35 
ROOT
HETATM    1  C1  UNL     1      12.347  12.283   9.049  1.00  0.00     0.021 C 
HETATM    2  C2  UNL     1      12.170  13.486   8.546  1.00  0.00    -0.040 C 
HETATM    3  C3  UNL     1      10.823  14.101   8.432  1.00  0.00     0.047 C 
HETATM    4  C4  UNL     1      10.878  15.525   8.892  1.00  0.00     0.024 C 
HETATM    5  C5  UNL     1       9.607  16.283   8.591  1.00  0.00     0.090 C 
HETATM    6  C8  UNL     1      10.024  17.017   7.299  1.00  0.00     0.031 C 
HETATM    7  C9  UNL     1      11.336  17.538   7.760  1.00  0.00     0.003 C 
HETATM    8  C22 UNL     1      12.024  16.320   8.282  1.00  0.00    -0.003 C 
HETATM    9  C23 UNL     1      12.954  16.789   9.416  1.00  0.00     0.019 C 
HETATM   10  C24 UNL     1      12.875  15.556   7.348  1.00  0.00     0.179 C 
HETATM   11  C25 UNL     1      13.282  14.295   8.068  1.00  0.00     0.067 C 
HETATM   12  N2  UNL     1      14.494  13.956   8.248  1.00  0.00    -0.270 N 
ATOM     13  H2  UNL     1      14.665  13.083   8.748  1.00  0.00     0.194 HD
ENDROOT
BRANCH   7  14
HETATM   14  C10 UNL     1      12.071  18.499   6.967  1.00  0.00    -0.014 C 
HETATM   15  C11 UNL     1      11.971  18.486   5.486  1.00  0.00     0.010 C 
BRANCH  14  16
HETATM   16  C12 UNL     1      12.109  19.884   7.504  1.00  0.00     0.005 C 
BRANCH  16  17
HETATM   17  C13 UNL     1      12.454  20.990   6.572  1.00  0.00     0.000 C 
BRANCH  17  18
HETATM   18  C14 UNL     1      11.985  22.344   7.107  1.00  0.00     0.002 C 
BRANCH  18  19
HETATM   19  C15 UNL     1      11.528  22.292   8.528  1.00  0.00     0.027 C 
BRANCH  19  20
HETATM   20  C16 UNL     1      10.174  22.981   8.583  1.00  0.00     0.178 C 
BRANCH  20  21
HETATM   21  O2  UNL     1       9.179  21.987   8.363  1.00  0.00    -0.321 OA
BRANCH  21  22
HETATM   22  C17 UNL     1       8.158  22.194   7.459  1.00  0.00     0.266 C 
HETATM   23  O3  UNL     1       7.190  22.910   7.849  1.00  0.00    -0.264 OA
BRANCH  22  24
HETATM   24  C18 UNL     1       8.143  21.637   6.094  1.00  0.00     0.037 C 
HETATM   25  C19 UNL     1       8.949  22.485   5.120  1.00  0.00     0.025 C 
HETATM   26  C20 UNL     1       8.704  20.238   6.094  1.00  0.00     0.025 C 
HETATM   27  C21 UNL     1       6.692  21.541   5.644  1.00  0.00     0.025 C 
ENDBRANCH  22  24
ENDBRANCH  21  22
ENDBRANCH  20  21
ENDBRANCH  19  20
ENDBRANCH  18  19
ENDBRANCH  17  18
ENDBRANCH  16  17
ENDBRANCH  14  16
ENDBRANCH   7  14
BRANCH   5  28
HETATM   28  N1  UNL     1       8.450  15.477   8.417  1.00  0.00    -0.356 N 
HETATM   29  C6  UNL     1       7.701  14.872   9.450  1.00  0.00     0.213 C 
HETATM   30  C7  UNL     1       6.509  14.049   9.168  1.00  0.00     0.117 C 
HETATM   31  O1  UNL     1       8.055  15.036  10.636  1.00  0.00    -0.274 OA
ATOM     32  H1  UNL     1       8.132  15.322   7.461  1.00  0.00     0.162 HD
ENDBRANCH   5  28
BRANCH  10  33
HETATM   33  O4  UNL     1      12.280  15.136   6.182  1.00  0.00    -0.389 OA
ATOM     34  H4  UNL     1      11.970  14.238   6.165  1.00  0.00     0.210 HD
ENDBRANCH  10  33
BRANCH  12  35
HETATM   35  O5  UNL     1      15.579  14.655   7.832  1.00  0.00    -0.290 OA
ATOM     36  H5  UNL     1      15.953  15.408   8.272  1.00  0.00     0.244 HD
ENDBRANCH  12  35
TORSDOF 12
ENDMDL
