MODEL 1
REMARK VINA RESULT: -8.040067175      0.000      0.000
REMARK  8 active torsions:
REMARK  status: ('A' for Active; 'I' for Inactive)
REMARK       I    between atoms: N1_3  and  C3_5 
REMARK    1  A    between atoms: C3_5  and  C4_7 
REMARK    2  A    between atoms: C8_11  and  C9_12 
REMARK    3  A    between atoms: C9_12  and  N2_13 
REMARK    4  A    between atoms: C11_18  and  C12_19 
REMARK    5  A    between atoms: C19_34  and  N8_35 
REMARK    6  A    between atoms: N8_35  and  C20_37 
REMARK    7  A    between atoms: C20_37  and  C21_38 
REMARK    8  A    between atoms: C21_38  and  C22_39 
ROOT
HETATM    1  C1  UNL     1      10.628  46.774  82.307  1.00  0.00     0.037 C 
HETATM    2  C2  UNL     1      11.298  47.696  82.737  1.00  0.00     0.002 C 
HETATM    3  N1  UNL     1      12.044  48.756  83.236  1.00  0.00    -0.282 N 
ATOM      4  H1  UNL     1      12.050  48.959  84.236  1.00  0.00     0.179 HD
HETATM    5  C3  UNL     1      12.798  49.552  82.335  1.00  0.00     0.263 C 
HETATM    6  O1  UNL     1      12.794  49.298  81.096  1.00  0.00    -0.267 OA
ENDROOT
BRANCH   5   7
HETATM    7  C4  UNL     1      13.609  50.690  82.778  1.00  0.00     0.033 A 
HETATM    8  C5  UNL     1      14.792  51.033  82.169  1.00  0.00     0.017 A 
HETATM    9  C6  UNL     1      15.516  52.127  82.623  1.00  0.00     0.002 A 
HETATM   10  C7  UNL     1      15.048  52.885  83.697  1.00  0.00     0.009 A 
HETATM   11  C8  UNL     1      13.876  52.562  84.317  1.00  0.00    -0.040 A 
HETATM   12  C29 UNL     1      13.188  51.469  83.837  1.00  0.00     0.026 A 
BRANCH  11  13
HETATM   13  C9  UNL     1      13.274  53.300  85.459  1.00  0.00     0.160 C 
BRANCH  13  14
HETATM   14  N2  UNL     1      11.895  53.030  85.666  1.00  0.00    -0.371 N 
HETATM   15  C10 UNL     1      11.395  53.007  86.836  1.00  0.00     0.120 A 
HETATM   16  N3  UNL     1      12.062  53.223  87.975  1.00  0.00    -0.327 N 
HETATM   17  C28 UNL     1      10.036  52.713  86.951  1.00  0.00     0.096 A 
HETATM   18  C11 UNL     1      11.469  53.161  89.184  1.00  0.00     0.120 A 
ATOM     19  H3  UNL     1      13.056  53.442  87.927  1.00  0.00     0.169 HD
HETATM   20  N5  UNL     1      10.153  52.873  89.256  1.00  0.00    -0.327 N 
HETATM   21  C17 UNL     1       9.424  52.648  88.178  1.00  0.00     0.125 A 
ATOM     22  H5  UNL     1       9.706  52.826  90.172  1.00  0.00     0.169 HD
HETATM   23  N6  UNL     1       8.098  52.349  88.228  1.00  0.00    -0.338 N 
HETATM   24  C18 UNL     1       7.395  52.121  87.105  1.00  0.00     0.183 A 
ATOM     25  H6  UNL     1       7.629  52.297  89.132  1.00  0.00     0.168 HD
HETATM   26  N7  UNL     1       7.958  52.175  85.891  1.00  0.00    -0.338 N 
HETATM   27  C19 UNL     1       9.265  52.468  85.804  1.00  0.00     0.119 A 
ATOM     28  H7  UNL     1       7.406  51.997  85.052  1.00  0.00     0.168 HD
ATOM     29  H2  UNL     1      11.294  52.852  84.861  1.00  0.00     0.161 HD
BRANCH  18  30
HETATM   30  C12 UNL     1      12.251  53.391  90.415  1.00  0.00     0.023 A 
HETATM   31  C13 UNL     1      13.252  54.301  90.532  1.00  0.00     0.018 A 
HETATM   32  C14 UNL     1      13.922  54.424  91.750  1.00  0.00     0.018 A 
HETATM   33  C15 UNL     1      13.548  53.618  92.803  1.00  0.00     0.087 A 
HETATM   34  N4  UNL     1      12.553  52.718  92.677  1.00  0.00    -0.374 N 
HETATM   35  C16 UNL     1      11.925  52.612  91.512  1.00  0.00     0.102 A 
ATOM     36  H4  UNL     1      12.286  52.128  93.464  1.00  0.00     0.164 HD
ENDBRANCH  18  30
BRANCH  27  37
HETATM   37  N8  UNL     1       9.895  52.555  84.700  1.00  0.00    -0.375 N 
ATOM     38  H8  UNL     1      10.889  52.774  84.777  1.00  0.00     0.161 HD
BRANCH  37  39
HETATM   39  C20 UNL     1       9.404  52.388  83.372  1.00  0.00     0.126 C 
BRANCH  39  40
HETATM   40  C21 UNL     1       9.227  50.959  82.949  1.00  0.00     0.058 C 
BRANCH  40  41
HETATM   41  C22 UNL     1       9.405  50.726  81.504  1.00  0.00    -0.057 A 
HETATM   42  C23 UNL     1      10.184  51.577  80.767  1.00  0.00     0.007 A 
HETATM   43  C24 UNL     1      10.390  51.425  79.417  1.00  0.00     0.001 A 
HETATM   44  C25 UNL     1       9.798  50.375  78.757  1.00  0.00     0.000 A 
HETATM   45  C26 UNL     1       9.011  49.502  79.466  1.00  0.00     0.001 A 
HETATM   46  C27 UNL     1       8.810  49.673  80.842  1.00  0.00     0.007 A 
ENDBRANCH  40  41
ENDBRANCH  39  40
ENDBRANCH  37  39
ENDBRANCH  27  37
ENDBRANCH  13  14
ENDBRANCH  11  13
ENDBRANCH   5   7
TORSDOF 8
ENDMDL
MODEL 2
REMARK VINA RESULT: -7.947945543      2.760      5.329
REMARK  8 active torsions:
REMARK  status: ('A' for Active; 'I' for Inactive)
REMARK       I    between atoms: N1_3  and  C3_5 
REMARK    1  A    between atoms: C3_5  and  C4_7 
REMARK    2  A    between atoms: C8_11  and  C9_12 
REMARK    3  A    between atoms: C9_12  and  N2_13 
REMARK    4  A    between atoms: C11_18  and  C12_19 
REMARK    5  A    between atoms: C19_34  and  N8_35 
REMARK    6  A    between atoms: N8_35  and  C20_37 
REMARK    7  A    between atoms: C20_37  and  C21_38 
REMARK    8  A    between atoms: C21_38  and  C22_39 
ROOT
HETATM    1  C1  UNL     1      14.466  46.730  87.313  1.00  0.00     0.037 C 
HETATM    2  C2  UNL     1      13.546  47.528  87.293  1.00  0.00     0.002 C 
HETATM    3  N1  UNL     1      12.485  48.424  87.284  1.00  0.00    -0.282 N 
ATOM      4  H1  UNL     1      12.152  48.840  88.154  1.00  0.00     0.179 HD
HETATM    5  C3  UNL     1      11.872  48.753  86.047  1.00  0.00     0.263 C 
HETATM    6  O1  UNL     1      12.286  48.240  84.968  1.00  0.00    -0.267 OA
ENDROOT
BRANCH   5   7
HETATM    7  C4  UNL     1      10.746  49.686  85.949  1.00  0.00     0.033 A 
HETATM    8  C5  UNL     1       9.843  49.647  84.914  1.00  0.00     0.017 A 
HETATM    9  C6  UNL     1       8.789  50.549  84.877  1.00  0.00     0.002 A 
HETATM   10  C7  UNL     1       8.638  51.499  85.887  1.00  0.00     0.009 A 
HETATM   11  C8  UNL     1       9.523  51.557  86.924  1.00  0.00    -0.040 A 
HETATM   12  C29 UNL     1      10.555  50.646  86.925  1.00  0.00     0.026 A 
BRANCH  11  13
HETATM   13  C9  UNL     1       9.457  52.514  88.059  1.00  0.00     0.160 C 
BRANCH  13  14
HETATM   14  N2  UNL     1      10.719  53.017  88.474  1.00  0.00    -0.371 N 
HETATM   15  C10 UNL     1      10.954  53.288  89.694  1.00  0.00     0.120 A 
HETATM   16  N3  UNL     1      10.092  53.145  90.707  1.00  0.00    -0.327 N 
HETATM   17  C28 UNL     1      12.213  53.798  90.011  1.00  0.00     0.096 A 
HETATM   18  C11 UNL     1      10.404  53.474  91.976  1.00  0.00     0.120 A 
ATOM     19  H3  UNL     1       9.163  52.773  90.511  1.00  0.00     0.169 HD
HETATM   20  N5  UNL     1      11.631  53.965  92.244  1.00  0.00    -0.327 N 
HETATM   21  C17 UNL     1      12.540  54.136  91.302  1.00  0.00     0.125 A 
ATOM     22  H5  UNL     1      11.865  54.214  93.206  1.00  0.00     0.169 HD
HETATM   23  N6  UNL     1      13.781  54.636  91.548  1.00  0.00    -0.338 N 
HETATM   24  C18 UNL     1      14.673  54.799  90.556  1.00  0.00     0.183 A 
ATOM     25  H6  UNL     1      14.038  54.892  92.501  1.00  0.00     0.168 HD
HETATM   26  N7  UNL     1      14.391  54.483  89.286  1.00  0.00    -0.338 N 
HETATM   27  C19 UNL     1      13.175  53.985  89.006  1.00  0.00     0.119 A 
ATOM     28  H7  UNL     1      15.082  54.616  88.549  1.00  0.00     0.168 HD
ATOM     29  H2  UNL     1      11.452  53.163  87.778  1.00  0.00     0.161 HD
BRANCH  18  30
HETATM   30  C12 UNL     1       9.412  53.313  93.057  1.00  0.00     0.023 A 
HETATM   31  C13 UNL     1       9.391  54.049  94.198  1.00  0.00     0.018 A 
HETATM   32  C14 UNL     1       8.402  53.803  95.150  1.00  0.00     0.018 A 
HETATM   33  C15 UNL     1       7.470  52.817  94.907  1.00  0.00     0.087 A 
HETATM   34  N4  UNL     1       7.499  52.093  93.772  1.00  0.00    -0.374 N 
HETATM   35  C16 UNL     1       8.446  52.338  92.875  1.00  0.00     0.102 A 
ATOM     36  H4  UNL     1       6.803  51.366  93.604  1.00  0.00     0.164 HD
ENDBRANCH  18  30
BRANCH  27  37
HETATM   37  N8  UNL     1      12.807  53.642  87.836  1.00  0.00    -0.375 N 
ATOM     38  H8  UNL     1      11.851  53.295  87.759  1.00  0.00     0.161 HD
BRANCH  37  39
HETATM   39  C20 UNL     1      13.548  53.674  86.617  1.00  0.00     0.126 C 
BRANCH  39  40
HETATM   40  C21 UNL     1      12.757  53.299  85.399  1.00  0.00     0.058 C 
BRANCH  40  41
HETATM   41  C22 UNL     1      13.517  52.535  84.391  1.00  0.00    -0.057 A 
HETATM   42  C23 UNL     1      14.786  52.925  84.056  1.00  0.00     0.007 A 
HETATM   43  C24 UNL     1      15.549  52.264  83.124  1.00  0.00     0.001 A 
HETATM   44  C25 UNL     1      15.036  51.159  82.489  1.00  0.00     0.000 A 
HETATM   45  C26 UNL     1      13.766  50.741  82.802  1.00  0.00     0.001 A 
HETATM   46  C27 UNL     1      13.001  51.427  83.754  1.00  0.00     0.007 A 
ENDBRANCH  40  41
ENDBRANCH  39  40
ENDBRANCH  37  39
ENDBRANCH  27  37
ENDBRANCH  13  14
ENDBRANCH  11  13
ENDBRANCH   5   7
TORSDOF 8
ENDMDL
MODEL 3
REMARK VINA RESULT: -7.804733810      2.580      5.558
REMARK  8 active torsions:
REMARK  status: ('A' for Active; 'I' for Inactive)
REMARK       I    between atoms: N1_3  and  C3_5 
REMARK    1  A    between atoms: C3_5  and  C4_7 
REMARK    2  A    between atoms: C8_11  and  C9_12 
REMARK    3  A    between atoms: C9_12  and  N2_13 
REMARK    4  A    between atoms: C11_18  and  C12_19 
REMARK    5  A    between atoms: C19_34  and  N8_35 
REMARK    6  A    between atoms: N8_35  and  C20_37 
REMARK    7  A    between atoms: C20_37  and  C21_38 
REMARK    8  A    between atoms: C21_38  and  C22_39 
ROOT
HETATM    1  C1  UNL     1       6.564  53.032  80.401  1.00  0.00     0.037 C 
HETATM    2  C2  UNL     1       7.018  52.402  81.340  1.00  0.00     0.002 C 
HETATM    3  N1  UNL     1       7.515  51.679  82.416  1.00  0.00    -0.282 N 
ATOM      4  H1  UNL     1       7.297  50.688  82.518  1.00  0.00     0.179 HD
HETATM    5  C3  UNL     1       8.329  52.340  83.373  1.00  0.00     0.263 C 
HETATM    6  O1  UNL     1       8.601  53.568  83.245  1.00  0.00    -0.267 OA
ENDROOT
BRANCH   5   7
HETATM    7  C4  UNL     1       8.890  51.652  84.539  1.00  0.00     0.033 A 
HETATM    8  C5  UNL     1       9.398  50.377  84.468  1.00  0.00     0.017 A 
HETATM    9  C6  UNL     1       9.928  49.776  85.602  1.00  0.00     0.002 A 
HETATM   10  C7  UNL     1       9.948  50.460  86.818  1.00  0.00     0.009 A 
HETATM   11  C8  UNL     1       9.448  51.726  86.911  1.00  0.00    -0.040 A 
HETATM   12  C29 UNL     1       8.932  52.287  85.765  1.00  0.00     0.026 A 
BRANCH  11  13
HETATM   13  C9  UNL     1       9.427  52.555  88.145  1.00  0.00     0.160 C 
BRANCH  13  14
HETATM   14  N2  UNL     1      10.700  53.044  88.543  1.00  0.00    -0.371 N 
HETATM   15  C10 UNL     1      10.947  53.335  89.757  1.00  0.00     0.120 A 
HETATM   16  N3  UNL     1      10.088  53.227  90.776  1.00  0.00    -0.327 N 
HETATM   17  C28 UNL     1      12.216  53.830  90.056  1.00  0.00     0.096 A 
HETATM   18  C11 UNL     1      10.413  53.575  92.037  1.00  0.00     0.120 A 
ATOM     19  H3  UNL     1       9.152  52.867  90.593  1.00  0.00     0.169 HD
HETATM   20  N5  UNL     1      11.650  54.051  92.288  1.00  0.00    -0.327 N 
HETATM   21  C17 UNL     1      12.556  54.187  91.338  1.00  0.00     0.125 A 
ATOM     22  H5  UNL     1      11.894  54.314  93.244  1.00  0.00     0.169 HD
HETATM   23  N6  UNL     1      13.806  54.671  91.568  1.00  0.00    -0.338 N 
HETATM   24  C18 UNL     1      14.696  54.799  90.568  1.00  0.00     0.183 A 
ATOM     25  H6  UNL     1      14.073  54.941  92.514  1.00  0.00     0.168 HD
HETATM   26  N7  UNL     1      14.400  54.462  89.306  1.00  0.00    -0.338 N 
HETATM   27  C19 UNL     1      13.175  53.980  89.042  1.00  0.00     0.119 A 
ATOM     28  H7  UNL     1      15.090  54.569  88.563  1.00  0.00     0.168 HD
ATOM     29  H2  UNL     1      11.431  53.164  87.841  1.00  0.00     0.161 HD
BRANCH  18  30
HETATM   30  C12 UNL     1       9.424  53.452  93.127  1.00  0.00     0.023 A 
HETATM   31  C13 UNL     1       8.293  52.705  93.058  1.00  0.00     0.018 A 
HETATM   32  C14 UNL     1       7.432  52.670  94.156  1.00  0.00     0.018 A 
HETATM   33  C15 UNL     1       7.755  53.397  95.282  1.00  0.00     0.087 A 
HETATM   34  N4  UNL     1       8.880  54.134  95.340  1.00  0.00    -0.374 N 
HETATM   35  C16 UNL     1       9.689  54.158  94.288  1.00  0.00     0.102 A 
ATOM     36  H4  UNL     1       9.107  54.667  96.179  1.00  0.00     0.164 HD
ENDBRANCH  18  30
BRANCH  27  37
HETATM   37  N8  UNL     1      12.795  53.620  87.881  1.00  0.00    -0.375 N 
ATOM     38  H8  UNL     1      11.865  53.203  87.832  1.00  0.00     0.161 HD
BRANCH  37  39
HETATM   39  C20 UNL     1      13.489  53.719  86.639  1.00  0.00     0.126 C 
BRANCH  39  40
HETATM   40  C21 UNL     1      12.677  53.327  85.440  1.00  0.00     0.058 C 
BRANCH  40  41
HETATM   41  C22 UNL     1      13.416  52.536  84.437  1.00  0.00    -0.057 A 
HETATM   42  C23 UNL     1      14.676  52.919  84.062  1.00  0.00     0.007 A 
HETATM   43  C24 UNL     1      15.420  52.234  83.132  1.00  0.00     0.001 A 
HETATM   44  C25 UNL     1      14.895  51.110  82.539  1.00  0.00     0.000 A 
HETATM   45  C26 UNL     1      13.634  50.699  82.894  1.00  0.00     0.001 A 
HETATM   46  C27 UNL     1      12.888  51.410  83.843  1.00  0.00     0.007 A 
ENDBRANCH  40  41
ENDBRANCH  39  40
ENDBRANCH  37  39
ENDBRANCH  27  37
ENDBRANCH  13  14
ENDBRANCH  11  13
ENDBRANCH   5   7
TORSDOF 8
ENDMDL
MODEL 4
REMARK VINA RESULT: -7.803661446      3.700      7.451
REMARK  8 active torsions:
REMARK  status: ('A' for Active; 'I' for Inactive)
REMARK       I    between atoms: N1_3  and  C3_5 
REMARK    1  A    between atoms: C3_5  and  C4_7 
REMARK    2  A    between atoms: C8_11  and  C9_12 
REMARK    3  A    between atoms: C9_12  and  N2_13 
REMARK    4  A    between atoms: C11_18  and  C12_19 
REMARK    5  A    between atoms: C19_34  and  N8_35 
REMARK    6  A    between atoms: N8_35  and  C20_37 
REMARK    7  A    between atoms: C20_37  and  C21_38 
REMARK    8  A    between atoms: C21_38  and  C22_39 
ROOT
HETATM    1  C1  UNL     1      11.301  55.161  96.980  1.00  0.00     0.037 C 
HETATM    2  C2  UNL     1      11.403  55.129  95.767  1.00  0.00     0.002 C 
HETATM    3  N1  UNL     1      11.501  55.082  94.382  1.00  0.00    -0.282 N 
ATOM      4  H1  UNL     1      10.771  55.490  93.798  1.00  0.00     0.179 HD
HETATM    5  C3  UNL     1      12.631  54.458  93.792  1.00  0.00     0.263 C 
HETATM    6  O1  UNL     1      13.538  53.956  94.516  1.00  0.00    -0.267 OA
ENDROOT
BRANCH   5   7
HETATM    7  C4  UNL     1      12.810  54.363  92.341  1.00  0.00     0.033 A 
HETATM    8  C5  UNL     1      13.950  54.800  91.708  1.00  0.00     0.017 A 
HETATM    9  C6  UNL     1      14.071  54.675  90.331  1.00  0.00     0.002 A 
HETATM   10  C7  UNL     1      13.040  54.108  89.581  1.00  0.00     0.009 A 
HETATM   11  C8  UNL     1      11.900  53.669  90.188  1.00  0.00    -0.040 A 
HETATM   12  C29 UNL     1      11.818  53.810  91.555  1.00  0.00     0.026 A 
BRANCH  11  13
HETATM   13  C9  UNL     1      10.745  53.039  89.496  1.00  0.00     0.160 C 
BRANCH  13  14
HETATM   14  N2  UNL     1      11.083  51.910  88.704  1.00  0.00    -0.371 N 
HETATM   15  C10 UNL     1      11.687  50.908  89.205  1.00  0.00     0.120 A 
HETATM   16  N3  UNL     1      12.067  50.783  90.482  1.00  0.00    -0.327 N 
HETATM   17  C28 UNL     1      12.001  49.851  88.351  1.00  0.00     0.096 A 
HETATM   18  C11 UNL     1      12.723  49.698  90.939  1.00  0.00     0.120 A 
ATOM     19  H3  UNL     1      11.851  51.537  91.134  1.00  0.00     0.169 HD
HETATM   20  N5  UNL     1      13.011  48.696  90.083  1.00  0.00    -0.327 N 
HETATM   21  C17 UNL     1      12.670  48.742  88.808  1.00  0.00     0.125 A 
ATOM     22  H5  UNL     1      13.509  47.876  90.431  1.00  0.00     0.169 HD
HETATM   23  N6  UNL     1      12.956  47.746  87.927  1.00  0.00    -0.338 N 
HETATM   24  C18 UNL     1      12.595  47.838  86.635  1.00  0.00     0.183 A 
ATOM     25  H6  UNL     1      13.453  46.916  88.251  1.00  0.00     0.168 HD
HETATM   26  N7  UNL     1      11.943  48.903  86.153  1.00  0.00    -0.338 N 
HETATM   27  C19 UNL     1      11.643  49.905  86.996  1.00  0.00     0.119 A 
ATOM     28  H7  UNL     1      11.679  48.952  85.169  1.00  0.00     0.168 HD
ATOM     29  H2  UNL     1      10.837  51.902  87.714  1.00  0.00     0.161 HD
BRANCH  18  30
HETATM   30  C12 UNL     1      13.137  49.613  92.354  1.00  0.00     0.023 A 
HETATM   31  C13 UNL     1      13.683  50.638  93.058  1.00  0.00     0.018 A 
HETATM   32  C14 UNL     1      14.036  50.436  94.392  1.00  0.00     0.018 A 
HETATM   33  C15 UNL     1      13.821  49.198  94.960  1.00  0.00     0.087 A 
HETATM   34  N4  UNL     1      13.279  48.189  94.253  1.00  0.00    -0.374 N 
HETATM   35  C16 UNL     1      12.948  48.396  92.984  1.00  0.00     0.102 A 
ATOM     36  H4  UNL     1      13.125  47.278  94.686  1.00  0.00     0.164 HD
ENDBRANCH  18  30
BRANCH  27  37
HETATM   37  N8  UNL     1      11.017  50.957  86.644  1.00  0.00    -0.375 N 
ATOM     38  H8  UNL     1      10.404  51.362  87.352  1.00  0.00     0.161 HD
BRANCH  37  39
HETATM   39  C20 UNL     1      11.053  51.648  85.396  1.00  0.00     0.126 C 
BRANCH  39  40
HETATM   40  C21 UNL     1      12.152  52.664  85.280  1.00  0.00     0.058 C 
BRANCH  40  41
HETATM   41  C22 UNL     1      13.245  52.276  84.369  1.00  0.00    -0.057 A 
HETATM   42  C23 UNL     1      14.397  53.016  84.333  1.00  0.00     0.007 A 
HETATM   43  C24 UNL     1      15.452  52.717  83.506  1.00  0.00     0.001 A 
HETATM   44  C25 UNL     1      15.370  51.630  82.669  1.00  0.00     0.000 A 
HETATM   45  C26 UNL     1      14.229  50.867  82.680  1.00  0.00     0.001 A 
HETATM   46  C27 UNL     1      13.161  51.187  83.529  1.00  0.00     0.007 A 
ENDBRANCH  40  41
ENDBRANCH  39  40
ENDBRANCH  37  39
ENDBRANCH  27  37
ENDBRANCH  13  14
ENDBRANCH  11  13
ENDBRANCH   5   7
TORSDOF 8
ENDMDL
MODEL 5
REMARK VINA RESULT: -7.787495499      1.062      1.450
REMARK  8 active torsions:
REMARK  status: ('A' for Active; 'I' for Inactive)
REMARK       I    between atoms: N1_3  and  C3_5 
REMARK    1  A    between atoms: C3_5  and  C4_7 
REMARK    2  A    between atoms: C8_11  and  C9_12 
REMARK    3  A    between atoms: C9_12  and  N2_13 
REMARK    4  A    between atoms: C11_18  and  C12_19 
REMARK    5  A    between atoms: C19_34  and  N8_35 
REMARK    6  A    between atoms: N8_35  and  C20_37 
REMARK    7  A    between atoms: C20_37  and  C21_38 
REMARK    8  A    between atoms: C21_38  and  C22_39 
ROOT
HETATM    1  C1  UNL     1      10.404  46.376  81.006  1.00  0.00     0.037 C 
HETATM    2  C2  UNL     1      11.180  47.204  81.448  1.00  0.00     0.002 C 
HETATM    3  N1  UNL     1      12.049  48.156  81.966  1.00  0.00    -0.282 N 
ATOM      4  H1  UNL     1      12.240  48.193  82.967  1.00  0.00     0.179 HD
HETATM    5  C3  UNL     1      12.667  49.077  81.080  1.00  0.00     0.263 C 
HETATM    6  O1  UNL     1      12.433  49.030  79.839  1.00  0.00    -0.267 OA
ENDROOT
BRANCH   5   7
HETATM    7  C4  UNL     1      13.593  50.114  81.544  1.00  0.00     0.033 A 
HETATM    8  C5  UNL     1      14.727  50.456  80.845  1.00  0.00     0.017 A 
HETATM    9  C6  UNL     1      15.564  51.454  81.325  1.00  0.00     0.002 A 
HETATM   10  C7  UNL     1      15.263  52.115  82.516  1.00  0.00     0.009 A 
HETATM   11  C8  UNL     1      14.144  51.791  83.225  1.00  0.00    -0.040 A 
HETATM   12  C29 UNL     1      13.339  50.797  82.717  1.00  0.00     0.026 A 
BRANCH  11  13
HETATM   13  C9  UNL     1      13.715  52.433  84.496  1.00  0.00     0.160 C 
BRANCH  13  14
HETATM   14  N2  UNL     1      12.316  52.379  84.735  1.00  0.00    -0.371 N 
HETATM   15  C10 UNL     1      11.828  52.657  85.877  1.00  0.00     0.120 A 
HETATM   16  N3  UNL     1      12.528  53.022  86.957  1.00  0.00    -0.327 N 
HETATM   17  C28 UNL     1      10.446  52.557  86.031  1.00  0.00     0.096 A 
HETATM   18  C11 UNL     1      11.945  53.282  88.144  1.00  0.00     0.120 A 
ATOM     19  H3  UNL     1      13.542  53.107  86.879  1.00  0.00     0.169 HD
HETATM   20  N5  UNL     1      10.605  53.174  88.255  1.00  0.00    -0.327 N 
HETATM   21  C17 UNL     1       9.843  52.820  87.236  1.00  0.00     0.125 A 
ATOM     22  H5  UNL     1      10.166  53.371  89.155  1.00  0.00     0.169 HD
HETATM   23  N6  UNL     1       8.492  52.698  87.328  1.00  0.00    -0.338 N 
HETATM   24  C18 UNL     1       7.755  52.329  86.266  1.00  0.00     0.183 A 
ATOM     25  H6  UNL     1       8.030  52.890  88.216  1.00  0.00     0.168 HD
HETATM   26  N7  UNL     1       8.307  52.064  85.075  1.00  0.00    -0.338 N 
HETATM   27  C19 UNL     1       9.639  52.175  84.948  1.00  0.00     0.119 A 
ATOM     28  H7  UNL     1       7.729  51.784  84.283  1.00  0.00     0.168 HD
ATOM     29  H2  UNL     1      11.689  52.112  83.975  1.00  0.00     0.161 HD
BRANCH  18  30
HETATM   30  C12 UNL     1      12.763  53.666  89.312  1.00  0.00     0.023 A 
HETATM   31  C13 UNL     1      13.811  54.527  89.268  1.00  0.00     0.018 A 
HETATM   32  C14 UNL     1      14.510  54.810  90.442  1.00  0.00     0.018 A 
HETATM   33  C15 UNL     1      14.116  54.207  91.617  1.00  0.00     0.087 A 
HETATM   34  N4  UNL     1      13.074  53.354  91.650  1.00  0.00    -0.374 N 
HETATM   35  C16 UNL     1      12.418  53.094  90.525  1.00  0.00     0.102 A 
ATOM     36  H4  UNL     1      12.792  52.915  92.526  1.00  0.00     0.164 HD
ENDBRANCH  18  30
BRANCH  27  37
HETATM   37  N8  UNL     1      10.263  51.956  83.859  1.00  0.00    -0.375 N 
ATOM     38  H8  UNL     1      11.256  51.740  83.957  1.00  0.00     0.161 HD
BRANCH  37  39
HETATM   39  C20 UNL     1       9.767  51.973  82.522  1.00  0.00     0.126 C 
BRANCH  39  40
HETATM   40  C21 UNL     1       9.476  50.616  81.950  1.00  0.00     0.058 C 
BRANCH  40  41
HETATM   41  C22 UNL     1       9.334  50.593  80.482  1.00  0.00    -0.057 A 
HETATM   42  C23 UNL     1       8.649  49.571  79.880  1.00  0.00     0.007 A 
HETATM   43  C24 UNL     1       8.482  49.482  78.520  1.00  0.00     0.001 A 
HETATM   44  C25 UNL     1       9.017  50.452  77.707  1.00  0.00     0.000 A 
HETATM   45  C26 UNL     1       9.710  51.491  78.278  1.00  0.00     0.001 A 
HETATM   46  C27 UNL     1       9.873  51.566  79.668  1.00  0.00     0.007 A 
ENDBRANCH  40  41
ENDBRANCH  39  40
ENDBRANCH  37  39
ENDBRANCH  27  37
ENDBRANCH  13  14
ENDBRANCH  11  13
ENDBRANCH   5   7
TORSDOF 8
ENDMDL
