MODEL 1
REMARK VINA RESULT: -8.459010542      0.000      0.000
REMARK  8 active torsions:
REMARK  status: ('A' for Active; 'I' for Inactive)
REMARK    1  A    between atoms: N2_9  and  C5_10 
REMARK    2  A    between atoms: C5_10  and  C6_11 
REMARK    3  A    between atoms: C6_11  and  C7_12 
REMARK    4  A    between atoms: C6_11  and  N4_20 
REMARK    5  A    between atoms: C8_13  and  C9_14 
REMARK    6  A    between atoms: C9_14  and  N3_15 
REMARK    7  A    between atoms: C18_26  and  N5_27 
REMARK    8  A    between atoms: N5_27  and  C19_29 
ROOT
HETATM    1  N4  UNL     1      12.422  53.959  90.960  1.00  0.00    -0.364 N 
HETATM    2  C14 UNL     1      13.311  55.063  91.318  1.00  0.00     0.151 C 
HETATM    3  C15 UNL     1      14.598  55.001  90.529  1.00  0.00     0.195 C 
HETATM    4  O2  UNL     1      14.459  54.385  89.291  1.00  0.00    -0.347 OA
HETATM    5  C16 UNL     1      13.353  53.781  88.763  1.00  0.00     0.097 A 
HETATM    6  C17 UNL     1      13.222  53.385  87.461  1.00  0.00     0.068 A 
HETATM    7  C18 UNL     1      12.075  52.768  86.956  1.00  0.00     0.036 A 
HETATM    8  C26 UNL     1      11.037  52.559  87.838  1.00  0.00     0.032 A 
HETATM    9  C27 UNL     1      11.112  52.939  89.168  1.00  0.00     0.034 A 
HETATM   10  C28 UNL     1      12.265  53.541  89.611  1.00  0.00     0.065 A 
ENDROOT
BRANCH   1  11
HETATM   11  C6  UNL     1      11.705  53.263  91.999  1.00  0.00     0.146 C 
BRANCH  11  12
HETATM   12  C5  UNL     1      11.732  53.910  93.317  1.00  0.00     0.096 C 
BRANCH  12  13
HETATM   13  N2  UNL     1      10.551  54.225  94.002  1.00  0.00    -0.327 N 
HETATM   14  C1  UNL     1      10.604  55.075  95.152  1.00  0.00     0.249 C 
HETATM   15  O1  UNL     1      11.570  55.087  95.950  1.00  0.00    -0.271 OA
HETATM   16  C2  UNL     1       9.473  56.002  95.451  1.00  0.00     0.335 C 
HETATM   17  N1  UNL     1       8.202  55.347  95.237  1.00  0.00    -0.065 N 
HETATM   18  C3  UNL     1       8.346  53.954  94.917  1.00  0.00     0.253 C 
ATOM     19  H12 UNL     1       7.583  55.477  96.037  1.00  0.00     0.277 HD
ATOM     20  H11 UNL     1       7.655  55.832  94.526  1.00  0.00     0.277 HD
HETATM   21  C4  UNL     1       9.209  53.785  93.671  1.00  0.00     0.158 C 
ENDBRANCH  12  13
ENDBRANCH  11  12
BRANCH  11  22
HETATM   22  C7  UNL     1      12.519  51.981  92.153  1.00  0.00     0.001 C 
HETATM   23  C8  UNL     1      13.426  51.844  93.110  1.00  0.00     0.001 C 
BRANCH  23  24
HETATM   24  C9  UNL     1      14.211  50.589  93.244  1.00  0.00     0.299 C 
BRANCH  24  25
HETATM   25  N3  UNL     1      13.775  49.734  94.310  1.00  0.00     0.091 N 
HETATM   26  C10 UNL     1      13.484  50.578  95.460  1.00  0.00     0.273 C 
HETATM   27  C11 UNL     1      14.680  50.571  96.352  1.00  0.00     0.032 C 
HETATM   28  C12 UNL     1      15.709  49.785  95.586  1.00  0.00     0.032 C 
HETATM   29  C13 UNL     1      14.864  48.881  94.721  1.00  0.00     0.273 C 
ENDBRANCH  24  25
ENDBRANCH  23  24
ENDBRANCH  11  22
ENDBRANCH   1  11
BRANCH   7  30
HETATM   30  N5  UNL     1      11.951  52.370  85.629  1.00  0.00    -0.342 N 
ATOM     31  H5  UNL     1      10.995  52.182  85.327  1.00  0.00     0.167 HD
BRANCH  30  32
HETATM   32  C19 UNL     1      12.834  52.203  84.734  1.00  0.00     0.107 A 
HETATM   33  C20 UNL     1      13.929  53.071  84.754  1.00  0.00     0.049 A 
HETATM   34  C21 UNL     1      14.956  52.982  83.839  1.00  0.00     0.019 A 
HETATM   35  C22 UNL     1      14.921  52.017  82.868  1.00  0.00     0.009 A 
HETATM   36  C23 UNL     1      15.754  51.655  81.829  1.00  0.00     0.032 A 
HETATM   37  C25 UNL     1      13.837  51.169  82.860  1.00  0.00     0.117 A 
HETATM   38  C24 UNL     1      15.178  50.584  81.182  1.00  0.00     0.090 A 
HETATM   39  N6  UNL     1      14.031  50.325  81.831  1.00  0.00    -0.352 N 
ATOM     40  H6  UNL     1      13.385  49.578  81.575  1.00  0.00     0.166 HD
HETATM   41  N7  UNL     1      12.825  51.273  83.777  1.00  0.00    -0.328 N 
ATOM     42  H7  UNL     1      12.042  50.621  83.728  1.00  0.00     0.169 HD
ENDBRANCH  30  32
ENDBRANCH   7  30
TORSDOF 8
ENDMDL
MODEL 2
REMARK VINA RESULT: -8.072308558      1.083      1.197
REMARK  8 active torsions:
REMARK  status: ('A' for Active; 'I' for Inactive)
REMARK    1  A    between atoms: N2_9  and  C5_10 
REMARK    2  A    between atoms: C5_10  and  C6_11 
REMARK    3  A    between atoms: C6_11  and  C7_12 
REMARK    4  A    between atoms: C6_11  and  N4_20 
REMARK    5  A    between atoms: C8_13  and  C9_14 
REMARK    6  A    between atoms: C9_14  and  N3_15 
REMARK    7  A    between atoms: C18_26  and  N5_27 
REMARK    8  A    between atoms: N5_27  and  C19_29 
ROOT
HETATM    1  N4  UNL     1      12.415  53.317  91.400  1.00  0.00    -0.364 N 
HETATM    2  C14 UNL     1      13.130  54.468  91.947  1.00  0.00     0.151 C 
HETATM    3  C15 UNL     1      14.358  54.785  91.125  1.00  0.00     0.195 C 
HETATM    4  O2  UNL     1      14.245  54.406  89.793  1.00  0.00    -0.347 OA
HETATM    5  C16 UNL     1      13.223  53.732  89.186  1.00  0.00     0.097 A 
HETATM    6  C17 UNL     1      13.077  53.580  87.835  1.00  0.00     0.068 A 
HETATM    7  C18 UNL     1      12.018  52.883  87.249  1.00  0.00     0.036 A 
HETATM    8  C26 UNL     1      11.087  52.329  88.100  1.00  0.00     0.032 A 
HETATM    9  C27 UNL     1      11.181  52.451  89.477  1.00  0.00     0.034 A 
HETATM   10  C28 UNL     1      12.244  53.148  89.999  1.00  0.00     0.065 A 
ENDROOT
BRANCH   1  11
HETATM   11  C6  UNL     1      11.889  52.319  92.297  1.00  0.00     0.146 C 
BRANCH  11  12
HETATM   12  C5  UNL     1      11.275  52.844  93.523  1.00  0.00     0.096 C 
BRANCH  12  13
HETATM   13  N2  UNL     1       9.906  53.137  93.587  1.00  0.00    -0.327 N 
HETATM   14  C1  UNL     1       9.287  53.352  94.860  1.00  0.00     0.249 C 
HETATM   15  O1  UNL     1       9.639  52.752  95.902  1.00  0.00    -0.271 OA
HETATM   16  C2  UNL     1       8.162  54.324  94.991  1.00  0.00     0.335 C 
HETATM   17  N1  UNL     1       7.244  54.201  93.881  1.00  0.00    -0.065 N 
HETATM   18  C3  UNL     1       7.574  53.105  93.012  1.00  0.00     0.253 C 
ATOM     19  H12 UNL     1       6.280  54.132  94.208  1.00  0.00     0.277 HD
ATOM     20  H11 UNL     1       7.179  55.075  93.360  1.00  0.00     0.277 HD
HETATM   21  C4  UNL     1       8.990  53.268  92.471  1.00  0.00     0.158 C 
ENDBRANCH  12  13
ENDBRANCH  11  12
BRANCH  11  22
HETATM   22  C7  UNL     1      13.152  51.591  92.749  1.00  0.00     0.001 C 
HETATM   23  C8  UNL     1      13.224  50.989  93.928  1.00  0.00     0.001 C 
BRANCH  23  24
HETATM   24  C9  UNL     1      14.462  50.286  94.352  1.00  0.00     0.299 C 
BRANCH  24  25
HETATM   25  N3  UNL     1      14.443  49.829  95.712  1.00  0.00     0.091 N 
HETATM   26  C10 UNL     1      14.542  51.000  96.571  1.00  0.00     0.273 C 
HETATM   27  C11 UNL     1      15.972  51.162  96.967  1.00  0.00     0.032 C 
HETATM   28  C12 UNL     1      16.696  50.100  96.184  1.00  0.00     0.032 C 
HETATM   29  C13 UNL     1      15.629  49.051  95.978  1.00  0.00     0.273 C 
ENDBRANCH  24  25
ENDBRANCH  23  24
ENDBRANCH  11  22
ENDBRANCH   1  11
BRANCH   7  30
HETATM   30  N5  UNL     1      11.879  52.734  85.873  1.00  0.00    -0.342 N 
ATOM     31  H5  UNL     1      10.928  52.855  85.525  1.00  0.00     0.167 HD
BRANCH  30  32
HETATM   32  C19 UNL     1      12.742  52.472  84.982  1.00  0.00     0.107 A 
HETATM   33  C20 UNL     1      13.888  53.272  84.953  1.00  0.00     0.049 A 
HETATM   34  C21 UNL     1      14.899  53.078  84.037  1.00  0.00     0.019 A 
HETATM   35  C22 UNL     1      14.798  52.071  83.115  1.00  0.00     0.009 A 
HETATM   36  C23 UNL     1      15.599  51.612  82.089  1.00  0.00     0.032 A 
HETATM   37  C25 UNL     1      13.666  51.291  83.154  1.00  0.00     0.117 A 
HETATM   38  C24 UNL     1      14.954  50.547  81.498  1.00  0.00     0.090 A 
HETATM   39  N6  UNL     1      13.800  50.388  82.166  1.00  0.00    -0.352 N 
ATOM     40  H6  UNL     1      13.108  49.670  81.950  1.00  0.00     0.166 HD
HETATM   41  N7  UNL     1      12.669  51.499  84.072  1.00  0.00    -0.328 N 
ATOM     42  H7  UNL     1      11.849  50.893  84.058  1.00  0.00     0.169 HD
ENDBRANCH  30  32
ENDBRANCH   7  30
TORSDOF 8
ENDMDL
MODEL 3
REMARK VINA RESULT: -8.042750107      1.972      4.758
REMARK  8 active torsions:
REMARK  status: ('A' for Active; 'I' for Inactive)
REMARK    1  A    between atoms: N2_9  and  C5_10 
REMARK    2  A    between atoms: C5_10  and  C6_11 
REMARK    3  A    between atoms: C6_11  and  C7_12 
REMARK    4  A    between atoms: C6_11  and  N4_20 
REMARK    5  A    between atoms: C8_13  and  C9_14 
REMARK    6  A    between atoms: C9_14  and  N3_15 
REMARK    7  A    between atoms: C18_26  and  N5_27 
REMARK    8  A    between atoms: N5_27  and  C19_29 
ROOT
HETATM    1  N4  UNL     1      10.412  51.634  91.533  1.00  0.00    -0.364 N 
HETATM    2  C14 UNL     1       9.284  50.793  91.929  1.00  0.00     0.151 C 
HETATM    3  C15 UNL     1       8.037  51.159  91.158  1.00  0.00     0.195 C 
HETATM    4  O2  UNL     1       8.301  51.698  89.904  1.00  0.00    -0.347 OA
HETATM    5  C16 UNL     1       9.511  51.998  89.346  1.00  0.00     0.097 A 
HETATM    6  C17 UNL     1       9.712  52.325  88.034  1.00  0.00     0.068 A 
HETATM    7  C18 UNL     1      10.965  52.627  87.498  1.00  0.00     0.036 A 
HETATM    8  C26 UNL     1      12.040  52.587  88.360  1.00  0.00     0.032 A 
HETATM    9  C27 UNL     1      11.900  52.263  89.699  1.00  0.00     0.034 A 
HETATM   10  C28 UNL     1      10.642  51.974  90.173  1.00  0.00     0.065 A 
ENDROOT
BRANCH   1  11
HETATM   11  C6  UNL     1      11.300  52.149  92.545  1.00  0.00     0.146 C 
BRANCH  11  12
HETATM   12  C5  UNL     1      11.433  51.311  93.743  1.00  0.00     0.096 C 
BRANCH  12  13
HETATM   13  N2  UNL     1      12.678  50.817  94.156  1.00  0.00    -0.327 N 
HETATM   14  C1  UNL     1      13.452  51.554  95.109  1.00  0.00     0.249 C 
HETATM   15  O1  UNL     1      13.455  52.805  95.166  1.00  0.00    -0.271 OA
HETATM   16  C2  UNL     1      14.312  50.833  96.093  1.00  0.00     0.335 C 
HETATM   17  N1  UNL     1      15.010  49.737  95.460  1.00  0.00    -0.065 N 
HETATM   18  C3  UNL     1      14.800  49.696  94.039  1.00  0.00     0.253 C 
ATOM     19  H12 UNL     1      16.006  49.758  95.682  1.00  0.00     0.277 HD
ATOM     20  H11 UNL     1      14.764  48.847  95.892  1.00  0.00     0.277 HD
HETATM   21  C4  UNL     1      13.311  49.585  93.729  1.00  0.00     0.158 C 
ENDBRANCH  12  13
ENDBRANCH  11  12
BRANCH  11  22
HETATM   22  C7  UNL     1      10.573  53.410  93.005  1.00  0.00     0.001 C 
HETATM   23  C8  UNL     1      10.192  53.574  94.263  1.00  0.00     0.001 C 
BRANCH  23  24
HETATM   24  C9  UNL     1       9.484  54.808  94.692  1.00  0.00     0.299 C 
BRANCH  24  25
HETATM   25  N3  UNL     1       9.876  55.292  95.984  1.00  0.00     0.091 N 
HETATM   26  C10 UNL     1       9.346  56.640  96.128  1.00  0.00     0.273 C 
HETATM   27  C11 UNL     1      10.430  57.603  95.776  1.00  0.00     0.032 C 
HETATM   28  C12 UNL     1      11.561  56.731  95.301  1.00  0.00     0.032 C 
HETATM   29  C13 UNL     1      11.311  55.433  96.033  1.00  0.00     0.273 C 
ENDBRANCH  24  25
ENDBRANCH  23  24
ENDBRANCH  11  22
ENDBRANCH   1  11
BRANCH   7  30
HETATM   30  N5  UNL     1      11.158  52.957  86.161  1.00  0.00    -0.342 N 
ATOM     31  H5  UNL     1      10.392  53.479  85.735  1.00  0.00     0.167 HD
BRANCH  30  32
HETATM   32  C19 UNL     1      12.131  52.714  85.385  1.00  0.00     0.107 A 
HETATM   33  C20 UNL     1      13.262  53.526  85.511  1.00  0.00     0.049 A 
HETATM   34  C21 UNL     1      14.384  53.353  84.730  1.00  0.00     0.019 A 
HETATM   35  C22 UNL     1      14.413  52.356  83.792  1.00  0.00     0.009 A 
HETATM   36  C23 UNL     1      15.344  51.916  82.873  1.00  0.00     0.032 A 
HETATM   37  C25 UNL     1      13.294  51.564  83.678  1.00  0.00     0.117 A 
HETATM   38  C24 UNL     1      14.792  50.852  82.193  1.00  0.00     0.090 A 
HETATM   39  N6  UNL     1      13.564  50.674  82.705  1.00  0.00    -0.352 N 
ATOM     40  H6  UNL     1      12.913  49.952  82.395  1.00  0.00     0.166 HD
HETATM   41  N7  UNL     1      12.186  51.752  84.462  1.00  0.00    -0.328 N 
ATOM     42  H7  UNL     1      11.381  51.138  84.338  1.00  0.00     0.169 HD
ENDBRANCH  30  32
ENDBRANCH   7  30
TORSDOF 8
ENDMDL
MODEL 4
REMARK VINA RESULT: -8.034896788      0.778      1.107
REMARK  8 active torsions:
REMARK  status: ('A' for Active; 'I' for Inactive)
REMARK    1  A    between atoms: N2_9  and  C5_10 
REMARK    2  A    between atoms: C5_10  and  C6_11 
REMARK    3  A    between atoms: C6_11  and  C7_12 
REMARK    4  A    between atoms: C6_11  and  N4_20 
REMARK    5  A    between atoms: C8_13  and  C9_14 
REMARK    6  A    between atoms: C9_14  and  N3_15 
REMARK    7  A    between atoms: C18_26  and  N5_27 
REMARK    8  A    between atoms: N5_27  and  C19_29 
ROOT
HETATM    1  N4  UNL     1      12.444  53.900  91.120  1.00  0.00    -0.364 N 
HETATM    2  C14 UNL     1      13.391  54.980  91.390  1.00  0.00     0.151 C 
HETATM    3  C15 UNL     1      14.606  54.871  90.499  1.00  0.00     0.195 C 
HETATM    4  O2  UNL     1      14.346  54.248  89.284  1.00  0.00    -0.347 OA
HETATM    5  C16 UNL     1      13.184  53.672  88.856  1.00  0.00     0.097 A 
HETATM    6  C17 UNL     1      12.934  53.268  87.574  1.00  0.00     0.068 A 
HETATM    7  C18 UNL     1      11.732  52.681  87.173  1.00  0.00     0.036 A 
HETATM    8  C26 UNL     1      10.765  52.512  88.140  1.00  0.00     0.032 A 
HETATM    9  C27 UNL     1      10.960  52.901  89.455  1.00  0.00     0.034 A 
HETATM   10  C28 UNL     1      12.163  53.474  89.794  1.00  0.00     0.065 A 
ENDROOT
BRANCH   1  11
HETATM   11  C6  UNL     1      11.795  53.236  92.223  1.00  0.00     0.146 C 
BRANCH  11  12
HETATM   12  C5  UNL     1      11.844  53.957  93.501  1.00  0.00     0.096 C 
BRANCH  12  13
HETATM   13  N2  UNL     1      10.673  54.345  94.167  1.00  0.00    -0.327 N 
HETATM   14  C1  UNL     1      10.755  55.247  95.276  1.00  0.00     0.249 C 
HETATM   15  O1  UNL     1      11.719  55.263  96.074  1.00  0.00    -0.271 OA
HETATM   16  C2  UNL     1       9.656  56.225  95.527  1.00  0.00     0.335 C 
HETATM   17  N1  UNL     1       8.363  55.607  95.341  1.00  0.00    -0.065 N 
HETATM   18  C3  UNL     1       8.459  54.195  95.087  1.00  0.00     0.253 C 
ATOM     19  H12 UNL     1       7.749  55.796  96.132  1.00  0.00     0.277 HD
ATOM     20  H11 UNL     1       7.835  56.076  94.606  1.00  0.00     0.277 HD
HETATM   21  C4  UNL     1       9.317  53.938  93.854  1.00  0.00     0.158 C 
ENDBRANCH  12  13
ENDBRANCH  11  12
BRANCH  11  22
HETATM   22  C7  UNL     1      12.667  51.998  92.416  1.00  0.00     0.001 C 
HETATM   23  C8  UNL     1      13.423  51.840  93.493  1.00  0.00     0.001 C 
BRANCH  23  24
HETATM   24  C9  UNL     1      14.266  50.629  93.663  1.00  0.00     0.299 C 
BRANCH  24  25
HETATM   25  N3  UNL     1      14.004  49.893  94.866  1.00  0.00     0.091 N 
HETATM   26  C10 UNL     1      13.915  50.852  95.958  1.00  0.00     0.273 C 
HETATM   27  C11 UNL     1      15.242  50.899  96.639  1.00  0.00     0.032 C 
HETATM   28  C12 UNL     1      16.123  50.016  95.797  1.00  0.00     0.032 C 
HETATM   29  C13 UNL     1      15.137  49.055  95.177  1.00  0.00     0.273 C 
ENDBRANCH  24  25
ENDBRANCH  23  24
ENDBRANCH  11  22
ENDBRANCH   1  11
BRANCH   7  30
HETATM   30  N5  UNL     1      11.487  52.274  85.866  1.00  0.00    -0.342 N 
ATOM     31  H5  UNL     1      10.503  52.260  85.600  1.00  0.00     0.167 HD
BRANCH  30  32
HETATM   32  C19 UNL     1      12.290  51.917  84.951  1.00  0.00     0.107 A 
HETATM   33  C20 UNL     1      11.935  50.793  84.199  1.00  0.00     0.049 A 
HETATM   34  C21 UNL     1      12.721  50.315  83.173  1.00  0.00     0.019 A 
HETATM   35  C22 UNL     1      13.895  50.949  82.863  1.00  0.00     0.009 A 
HETATM   36  C23 UNL     1      14.889  50.746  81.927  1.00  0.00     0.032 A 
HETATM   37  C25 UNL     1      14.232  52.053  83.610  1.00  0.00     0.117 A 
HETATM   38  C24 UNL     1      15.838  51.730  82.104  1.00  0.00     0.090 A 
HETATM   39  N6  UNL     1      15.407  52.491  83.122  1.00  0.00    -0.352 N 
ATOM     40  H6  UNL     1      15.908  53.303  83.481  1.00  0.00     0.166 HD
HETATM   41  N7  UNL     1      13.438  52.514  84.628  1.00  0.00    -0.328 N 
ATOM     42  H7  UNL     1      13.733  53.337  85.154  1.00  0.00     0.169 HD
ENDBRANCH  30  32
ENDBRANCH   7  30
TORSDOF 8
ENDMDL
MODEL 5
REMARK VINA RESULT: -8.020744102      2.333      4.803
REMARK  8 active torsions:
REMARK  status: ('A' for Active; 'I' for Inactive)
REMARK    1  A    between atoms: N2_9  and  C5_10 
REMARK    2  A    between atoms: C5_10  and  C6_11 
REMARK    3  A    between atoms: C6_11  and  C7_12 
REMARK    4  A    between atoms: C6_11  and  N4_20 
REMARK    5  A    between atoms: C8_13  and  C9_14 
REMARK    6  A    between atoms: C9_14  and  N3_15 
REMARK    7  A    between atoms: C18_26  and  N5_27 
REMARK    8  A    between atoms: N5_27  and  C19_29 
ROOT
HETATM    1  N4  UNL     1      10.501  52.481  90.790  1.00  0.00    -0.364 N 
HETATM    2  C14 UNL     1       9.158  52.673  91.337  1.00  0.00     0.151 C 
HETATM    3  C15 UNL     1       8.362  53.640  90.491  1.00  0.00     0.195 C 
HETATM    4  O2  UNL     1       8.750  53.657  89.156  1.00  0.00    -0.347 OA
HETATM    5  C16 UNL     1       9.783  52.988  88.564  1.00  0.00     0.097 A 
HETATM    6  C17 UNL     1       9.979  52.882  87.215  1.00  0.00     0.068 A 
HETATM    7  C18 UNL     1      11.049  52.188  86.644  1.00  0.00     0.036 A 
HETATM    8  C26 UNL     1      11.939  51.590  87.509  1.00  0.00     0.032 A 
HETATM    9  C27 UNL     1      11.793  51.663  88.885  1.00  0.00     0.034 A 
HETATM   10  C28 UNL     1      10.722  52.358  89.392  1.00  0.00     0.065 A 
ENDROOT
BRANCH   1  11
HETATM   11  C6  UNL     1      11.629  52.437  91.686  1.00  0.00     0.146 C 
BRANCH  11  12
HETATM   12  C5  UNL     1      11.616  51.331  92.651  1.00  0.00     0.096 C 
BRANCH  12  13
HETATM   13  N2  UNL     1      12.012  50.037  92.287  1.00  0.00    -0.327 N 
HETATM   14  C1  UNL     1      13.356  49.611  92.535  1.00  0.00     0.249 C 
HETATM   15  O1  UNL     1      14.340  50.384  92.480  1.00  0.00    -0.271 OA
HETATM   16  C2  UNL     1      13.639  48.185  92.875  1.00  0.00     0.335 C 
HETATM   17  N1  UNL     1      12.863  47.294  92.041  1.00  0.00    -0.065 N 
HETATM   18  C3  UNL     1      12.122  47.993  91.028  1.00  0.00     0.253 C 
ATOM     19  H12 UNL     1      13.452  46.570  91.631  1.00  0.00     0.277 HD
ATOM     20  H11 UNL     1      12.249  46.707  92.605  1.00  0.00     0.277 HD
HETATM   21  C4  UNL     1      11.189  49.016  91.667  1.00  0.00     0.158 C 
ENDBRANCH  12  13
ENDBRANCH  11  12
BRANCH  11  22
HETATM   22  C7  UNL     1      11.438  53.706  92.512  1.00  0.00     0.001 C 
HETATM   23  C8  UNL     1      12.140  53.931  93.614  1.00  0.00     0.001 C 
BRANCH  23  24
HETATM   24  C9  UNL     1      11.939  55.171  94.407  1.00  0.00     0.299 C 
BRANCH  24  25
HETATM   25  N3  UNL     1      11.192  54.982  95.618  1.00  0.00     0.091 N 
HETATM   26  C10 UNL     1       9.779  55.025  95.273  1.00  0.00     0.273 C 
HETATM   27  C11 UNL     1       9.281  56.406  95.543  1.00  0.00     0.032 C 
HETATM   28  C12 UNL     1      10.514  57.175  95.934  1.00  0.00     0.032 C 
HETATM   29  C13 UNL     1      11.411  56.101  96.501  1.00  0.00     0.273 C 
ENDBRANCH  24  25
ENDBRANCH  23  24
ENDBRANCH  11  22
ENDBRANCH   1  11
BRANCH   7  30
HETATM   30  N5  UNL     1      11.238  52.086  85.270  1.00  0.00    -0.342 N 
ATOM     31  H5  UNL     1      10.379  52.043  84.723  1.00  0.00     0.167 HD
BRANCH  30  32
HETATM   32  C19 UNL     1      12.306  52.038  84.588  1.00  0.00     0.107 A 
HETATM   33  C20 UNL     1      13.313  52.948  84.920  1.00  0.00     0.049 A 
HETATM   34  C21 UNL     1      14.521  52.985  84.257  1.00  0.00     0.019 A 
HETATM   35  C22 UNL     1      14.762  52.107  83.233  1.00  0.00     0.009 A 
HETATM   36  C23 UNL     1      15.826  51.876  82.385  1.00  0.00     0.032 A 
HETATM   37  C25 UNL     1      13.763  51.217  82.917  1.00  0.00     0.117 A 
HETATM   38  C24 UNL     1      15.476  50.840  81.546  1.00  0.00     0.090 A 
HETATM   39  N6  UNL     1      14.233  50.475  81.897  1.00  0.00    -0.352 N 
ATOM     40  H6  UNL     1      13.708  49.725  81.447  1.00  0.00     0.166 HD
HETATM   41  N7  UNL     1      12.568  51.195  83.587  1.00  0.00    -0.328 N 
ATOM     42  H7  UNL     1      11.858  50.516  83.313  1.00  0.00     0.169 HD
ENDBRANCH  30  32
ENDBRANCH   7  30
TORSDOF 8
ENDMDL
