MODEL 1
REMARK VINA RESULT: -8.608311212      0.000      0.000
REMARK  8 active torsions:
REMARK  status: ('A' for Active; 'I' for Inactive)
REMARK    1  A    between atoms: C11_14  and  N3_15 
REMARK    2  A    between atoms: N3_15  and  C12_17 
REMARK    3  A    between atoms: C15_20  and  C16_21 
REMARK    4  A    between atoms: N7_32  and  C21_33 
REMARK    5  A    between atoms: C21_33  and  C22_34 
REMARK    6  A    between atoms: C22_34  and  C23_35 
REMARK    7  A    between atoms: C23_35  and  C24_36 
REMARK    8  A    between atoms: C24_36  and  N8_37 
ROOT
HETATM    1  N1  UNL     1      14.715  49.743  79.700  1.00  0.00    -0.191 NA
HETATM    2  C1  UNL     1      14.883  50.452  80.593  1.00  0.00     0.099 C 
HETATM    3  C2  UNL     1      15.111  51.344  81.718  1.00  0.00     0.045 A 
HETATM    4  C3  UNL     1      16.351  51.873  81.978  1.00  0.00     0.025 A 
HETATM    5  C4  UNL     1      16.507  52.712  83.059  1.00  0.00     0.032 A 
HETATM    6  C5  UNL     1      15.433  53.027  83.882  1.00  0.00     0.045 A 
HETATM    7  N2  UNL     1      15.357  53.814  84.978  1.00  0.00    -0.341 N 
ATOM      8  H2  UNL     1      16.134  54.330  85.391  1.00  0.00     0.167 HD
HETATM    9  C6  UNL     1      14.093  53.810  85.439  1.00  0.00     0.122 A 
HETATM   10  C7  UNL     1      13.353  52.995  84.605  1.00  0.00     0.038 A 
HETATM   11  C8  UNL     1      14.195  52.485  83.604  1.00  0.00     0.007 A 
HETATM   12  C9  UNL     1      14.014  51.645  82.531  1.00  0.00     0.037 A 
HETATM   13  C10 UNL     1      12.062  52.979  85.057  1.00  0.00     0.067 A 
HETATM   14  C11 UNL     1      10.899  52.369  84.657  1.00  0.00     0.121 A 
HETATM   15  N5  UNL     1       9.773  52.601  85.383  1.00  0.00    -0.338 N 
ATOM     16  H5  UNL     1       8.905  52.151  85.092  1.00  0.00     0.168 HD
HETATM   17  C19 UNL     1       9.751  53.390  86.460  1.00  0.00     0.183 A 
HETATM   18  N6  UNL     1      10.887  53.967  86.827  1.00  0.00    -0.338 N 
ATOM     19  H6  UNL     1      10.870  54.570  87.649  1.00  0.00     0.168 HD
HETATM   20  C20 UNL     1      12.053  53.813  86.191  1.00  0.00     0.125 A 
HETATM   21  N7  UNL     1      13.289  54.300  86.397  1.00  0.00    -0.318 N 
ENDROOT
BRANCH  21  22
HETATM   22  C21 UNL     1      13.687  55.176  87.447  1.00  0.00     0.133 C 
BRANCH  22  23
HETATM   23  C22 UNL     1      14.073  54.501  88.738  1.00  0.00     0.026 C 
BRANCH  23  24
HETATM   24  C23 UNL     1      12.917  54.113  89.580  1.00  0.00     0.064 C 
BRANCH  24  25
HETATM   25  C24 UNL     1      12.606  55.011  90.717  1.00  0.00     0.257 C 
BRANCH  25  26
HETATM   26  N8  UNL     1      13.234  54.789  91.959  1.00  0.00     0.100 N 
HETATM   27  O2  UNL     1      13.593  53.449  92.036  1.00  0.00    -0.052 OA
HETATM   28  C25 UNL     1      12.501  55.083  93.178  1.00  0.00     0.338 C 
HETATM   29  C26 UNL     1      13.808  55.536  93.817  1.00  0.00     0.159 C 
HETATM   30  C27 UNL     1      14.286  55.614  92.387  1.00  0.00     0.385 C 
HETATM   31  O3  UNL     1      15.216  56.178  91.875  1.00  0.00    -0.255 OA
ENDBRANCH  25  26
ENDBRANCH  24  25
ENDBRANCH  23  24
ENDBRANCH  22  23
ENDBRANCH  21  22
BRANCH  14  32
HETATM   32  N3  UNL     1      10.802  51.612  83.665  1.00  0.00    -0.342 N 
ATOM     33  H3  UNL     1      11.162  50.665  83.783  1.00  0.00     0.167 HD
BRANCH  32  34
HETATM   34  C12 UNL     1      10.255  51.919  82.409  1.00  0.00     0.033 A 
HETATM   35  C13 UNL     1      11.123  52.278  81.390  1.00  0.00     0.030 A 
HETATM   36  C14 UNL     1      10.669  52.597  80.123  1.00  0.00     0.019 A 
HETATM   37  C15 UNL     1       9.321  52.565  79.837  1.00  0.00     0.029 A 
HETATM   38  C17 UNL     1       8.451  52.210  80.840  1.00  0.00     0.019 A 
HETATM   39  C18 UNL     1       8.911  51.891  82.108  1.00  0.00     0.030 A 
BRANCH  37  40
HETATM   40  C16 UNL     1       8.836  52.900  78.504  1.00  0.00     0.264 C 
HETATM   41  N4  UNL     1       9.326  54.089  77.867  1.00  0.00    -0.057 NA
HETATM   42  O1  UNL     1       8.007  52.186  77.896  1.00  0.00    -0.271 OA
ENDBRANCH  37  40
ENDBRANCH  32  34
ENDBRANCH  14  32
TORSDOF 8
ENDMDL
MODEL 2
REMARK VINA RESULT: -8.606207153      1.708      2.621
REMARK  8 active torsions:
REMARK  status: ('A' for Active; 'I' for Inactive)
REMARK    1  A    between atoms: C11_14  and  N3_15 
REMARK    2  A    between atoms: N3_15  and  C12_17 
REMARK    3  A    between atoms: C15_20  and  C16_21 
REMARK    4  A    between atoms: N7_32  and  C21_33 
REMARK    5  A    between atoms: C21_33  and  C22_34 
REMARK    6  A    between atoms: C22_34  and  C23_35 
REMARK    7  A    between atoms: C23_35  and  C24_36 
REMARK    8  A    between atoms: C24_36  and  N8_37 
ROOT
HETATM    1  N1  UNL     1      15.748  51.645  81.875  1.00  0.00    -0.191 NA
HETATM    2  C1  UNL     1      15.243  52.128  82.790  1.00  0.00     0.099 C 
HETATM    3  C2  UNL     1      14.620  52.743  83.951  1.00  0.00     0.045 A 
HETATM    4  C3  UNL     1      15.242  53.744  84.656  1.00  0.00     0.025 A 
HETATM    5  C4  UNL     1      14.604  54.290  85.747  1.00  0.00     0.032 A 
HETATM    6  C5  UNL     1      13.348  53.843  86.140  1.00  0.00     0.045 A 
HETATM    7  N2  UNL     1      12.549  54.225  87.161  1.00  0.00    -0.341 N 
ATOM      8  H2  UNL     1      12.768  54.953  87.842  1.00  0.00     0.167 HD
HETATM    9  C6  UNL     1      11.419  53.495  87.137  1.00  0.00     0.122 A 
HETATM   10  C7  UNL     1      11.512  52.627  86.067  1.00  0.00     0.038 A 
HETATM   11  C8  UNL     1      12.740  52.835  85.418  1.00  0.00     0.007 A 
HETATM   12  C9  UNL     1      13.357  52.276  84.325  1.00  0.00     0.037 A 
HETATM   13  C10 UNL     1      10.370  51.877  86.024  1.00  0.00     0.067 A 
HETATM   14  C11 UNL     1       9.892  50.876  85.214  1.00  0.00     0.121 A 
HETATM   15  N5  UNL     1       8.669  50.355  85.494  1.00  0.00    -0.338 N 
ATOM     16  H5  UNL     1       8.308  49.611  84.896  1.00  0.00     0.168 HD
HETATM   17  C19 UNL     1       7.918  50.771  86.517  1.00  0.00     0.183 A 
HETATM   18  N6  UNL     1       8.400  51.738  87.285  1.00  0.00    -0.338 N 
ATOM     19  H6  UNL     1       7.826  52.056  88.066  1.00  0.00     0.168 HD
HETATM   20  C20 UNL     1       9.588  52.324  87.106  1.00  0.00     0.125 A 
HETATM   21  N7  UNL     1      10.244  53.299  87.757  1.00  0.00    -0.318 N 
ENDROOT
BRANCH  21  22
HETATM   22  C21 UNL     1       9.786  54.003  88.909  1.00  0.00     0.133 C 
BRANCH  22  23
HETATM   23  C22 UNL     1      10.260  53.453  90.230  1.00  0.00     0.026 C 
BRANCH  23  24
HETATM   24  C23 UNL     1      10.710  54.492  91.185  1.00  0.00     0.064 C 
BRANCH  24  25
HETATM   25  C24 UNL     1      11.783  55.397  90.710  1.00  0.00     0.257 C 
BRANCH  25  26
HETATM   26  N8  UNL     1      13.123  55.096  91.026  1.00  0.00     0.100 N 
HETATM   27  O2  UNL     1      13.658  54.334  89.996  1.00  0.00    -0.052 OA
HETATM   28  C25 UNL     1      13.408  54.374  92.255  1.00  0.00     0.338 C 
HETATM   29  C26 UNL     1      14.687  55.190  92.401  1.00  0.00     0.159 C 
HETATM   30  C27 UNL     1      14.014  56.111  91.412  1.00  0.00     0.385 C 
HETATM   31  O3  UNL     1      14.209  57.259  91.112  1.00  0.00    -0.255 OA
ENDBRANCH  25  26
ENDBRANCH  24  25
ENDBRANCH  23  24
ENDBRANCH  22  23
ENDBRANCH  21  22
BRANCH  14  32
HETATM   32  N3  UNL     1      10.509  50.410  84.229  1.00  0.00    -0.342 N 
ATOM     33  H3  UNL     1      11.140  49.632  84.419  1.00  0.00     0.167 HD
BRANCH  32  34
HETATM   34  C12 UNL     1      10.429  50.837  82.894  1.00  0.00     0.033 A 
HETATM   35  C13 UNL     1       9.447  51.757  82.561  1.00  0.00     0.030 A 
HETATM   36  C14 UNL     1       9.298  52.230  81.270  1.00  0.00     0.019 A 
HETATM   37  C15 UNL     1      10.134  51.791  80.265  1.00  0.00     0.029 A 
HETATM   38  C17 UNL     1      11.110  50.878  80.584  1.00  0.00     0.019 A 
HETATM   39  C18 UNL     1      11.256  50.407  81.880  1.00  0.00     0.030 A 
BRANCH  37  40
HETATM   40  C16 UNL     1       9.981  52.285  78.902  1.00  0.00     0.264 C 
HETATM   41  N4  UNL     1       9.507  51.386  77.889  1.00  0.00    -0.057 NA
HETATM   42  O1  UNL     1      10.249  53.465  78.587  1.00  0.00    -0.271 OA
ENDBRANCH  37  40
ENDBRANCH  32  34
ENDBRANCH  14  32
TORSDOF 8
ENDMDL
MODEL 3
REMARK VINA RESULT: -8.460950385      3.731      6.738
REMARK  8 active torsions:
REMARK  status: ('A' for Active; 'I' for Inactive)
REMARK    1  A    between atoms: C11_14  and  N3_15 
REMARK    2  A    between atoms: N3_15  and  C12_17 
REMARK    3  A    between atoms: C15_20  and  C16_21 
REMARK    4  A    between atoms: N7_32  and  C21_33 
REMARK    5  A    between atoms: C21_33  and  C22_34 
REMARK    6  A    between atoms: C22_34  and  C23_35 
REMARK    7  A    between atoms: C23_35  and  C24_36 
REMARK    8  A    between atoms: C24_36  and  N8_37 
ROOT
HETATM    1  N1  UNL     1       8.310  50.745  84.939  1.00  0.00    -0.191 NA
HETATM    2  C1  UNL     1       8.590  50.874  86.050  1.00  0.00     0.099 C 
HETATM    3  C2  UNL     1       8.929  51.032  87.455  1.00  0.00     0.045 A 
HETATM    4  C3  UNL     1       8.249  50.358  88.439  1.00  0.00     0.025 A 
HETATM    5  C4  UNL     1       8.614  50.546  89.753  1.00  0.00     0.032 A 
HETATM    6  C5  UNL     1       9.654  51.404  90.092  1.00  0.00     0.045 A 
HETATM    7  N2  UNL     1      10.173  51.736  91.294  1.00  0.00    -0.341 N 
ATOM      8  H2  UNL     1       9.855  51.379  92.195  1.00  0.00     0.167 HD
HETATM    9  C6  UNL     1      11.178  52.613  91.115  1.00  0.00     0.122 A 
HETATM   10  C7  UNL     1      11.292  52.837  89.757  1.00  0.00     0.038 A 
HETATM   11  C8  UNL     1      10.324  52.072  89.087  1.00  0.00     0.007 A 
HETATM   12  C9  UNL     1       9.978  51.900  87.769  1.00  0.00     0.037 A 
HETATM   13  C10 UNL     1      12.312  53.726  89.555  1.00  0.00     0.067 A 
HETATM   14  C11 UNL     1      12.884  54.317  88.455  1.00  0.00     0.121 A 
HETATM   15  N5  UNL     1      13.916  55.178  88.655  1.00  0.00    -0.338 N 
ATOM     16  H5  UNL     1      14.345  55.621  87.843  1.00  0.00     0.168 HD
HETATM   17  C19 UNL     1      14.393  55.472  89.868  1.00  0.00     0.183 A 
HETATM   18  N6  UNL     1      13.825  54.889  90.914  1.00  0.00    -0.338 N 
ATOM     19  H6  UNL     1      14.190  55.113  91.839  1.00  0.00     0.168 HD
HETATM   20  C20 UNL     1      12.805  54.027  90.838  1.00  0.00     0.125 A 
HETATM   21  N7  UNL     1      12.105  53.343  91.758  1.00  0.00    -0.318 N 
ENDROOT
BRANCH  21  22
HETATM   22  C21 UNL     1      12.299  53.382  93.169  1.00  0.00     0.133 C 
BRANCH  22  23
HETATM   23  C22 UNL     1      11.651  54.545  93.875  1.00  0.00     0.026 C 
BRANCH  23  24
HETATM   24  C23 UNL     1      12.319  54.925  95.142  1.00  0.00     0.064 C 
BRANCH  24  25
HETATM   25  C24 UNL     1      12.486  56.378  95.383  1.00  0.00     0.257 C 
BRANCH  25  26
HETATM   26  N8  UNL     1      11.723  56.997  96.394  1.00  0.00     0.100 N 
HETATM   27  O2  UNL     1      12.098  56.460  97.618  1.00  0.00    -0.052 OA
HETATM   28  C25 UNL     1      10.274  56.902  96.336  1.00  0.00     0.338 C 
HETATM   29  C26 UNL     1      10.191  58.313  96.908  1.00  0.00     0.159 C 
HETATM   30  C27 UNL     1      11.633  58.396  96.468  1.00  0.00     0.385 C 
HETATM   31  O3  UNL     1      12.367  59.329  96.275  1.00  0.00    -0.255 OA
ENDBRANCH  25  26
ENDBRANCH  24  25
ENDBRANCH  23  24
ENDBRANCH  22  23
ENDBRANCH  21  22
BRANCH  14  32
HETATM   32  N3  UNL     1      12.519  54.116  87.275  1.00  0.00    -0.342 N 
ATOM     33  H3  UNL     1      11.534  54.288  87.070  1.00  0.00     0.167 HD
BRANCH  32  34
HETATM   34  C12 UNL     1      13.311  53.679  86.201  1.00  0.00     0.033 A 
HETATM   35  C13 UNL     1      12.908  52.546  85.511  1.00  0.00     0.030 A 
HETATM   36  C14 UNL     1      13.629  52.048  84.442  1.00  0.00     0.019 A 
HETATM   37  C15 UNL     1      14.786  52.674  84.028  1.00  0.00     0.029 A 
HETATM   38  C17 UNL     1      15.195  53.797  84.705  1.00  0.00     0.019 A 
HETATM   39  C18 UNL     1      14.468  54.294  85.776  1.00  0.00     0.030 A 
BRANCH  37  40
HETATM   40  C16 UNL     1      15.551  52.153  82.902  1.00  0.00     0.264 C 
HETATM   41  N4  UNL     1      14.944  51.175  82.045  1.00  0.00    -0.057 NA
HETATM   42  O1  UNL     1      16.718  52.531  82.657  1.00  0.00    -0.271 OA
ENDBRANCH  37  40
ENDBRANCH  32  34
ENDBRANCH  14  32
TORSDOF 8
ENDMDL
MODEL 4
REMARK VINA RESULT: -8.261974684      1.396      1.775
REMARK  8 active torsions:
REMARK  status: ('A' for Active; 'I' for Inactive)
REMARK    1  A    between atoms: C11_14  and  N3_15 
REMARK    2  A    between atoms: N3_15  and  C12_17 
REMARK    3  A    between atoms: C15_20  and  C16_21 
REMARK    4  A    between atoms: N7_32  and  C21_33 
REMARK    5  A    between atoms: C21_33  and  C22_34 
REMARK    6  A    between atoms: C22_34  and  C23_35 
REMARK    7  A    between atoms: C23_35  and  C24_36 
REMARK    8  A    between atoms: C24_36  and  N8_37 
ROOT
HETATM    1  N1  UNL     1      15.677  50.375  79.380  1.00  0.00    -0.191 NA
HETATM    2  C1  UNL     1      15.493  50.906  80.386  1.00  0.00     0.099 C 
HETATM    3  C2  UNL     1      15.276  51.576  81.657  1.00  0.00     0.045 A 
HETATM    4  C3  UNL     1      16.270  52.303  82.267  1.00  0.00     0.025 A 
HETATM    5  C4  UNL     1      16.007  52.916  83.471  1.00  0.00     0.032 A 
HETATM    6  C5  UNL     1      14.759  52.809  84.072  1.00  0.00     0.045 A 
HETATM    7  N2  UNL     1      14.286  53.318  85.231  1.00  0.00    -0.341 N 
ATOM      8  H2  UNL     1      14.816  53.898  85.882  1.00  0.00     0.167 HD
HETATM    9  C6  UNL     1      13.005  52.939  85.391  1.00  0.00     0.122 A 
HETATM   10  C7  UNL     1      12.663  52.168  84.298  1.00  0.00     0.038 A 
HETATM   11  C8  UNL     1      13.774  52.074  83.443  1.00  0.00     0.007 A 
HETATM   12  C9  UNL     1      14.012  51.453  82.241  1.00  0.00     0.037 A 
HETATM   13  C10 UNL     1      11.362  51.774  84.441  1.00  0.00     0.067 A 
HETATM   14  C11 UNL     1      10.487  51.016  83.702  1.00  0.00     0.121 A 
HETATM   15  N5  UNL     1       9.229  50.838  84.185  1.00  0.00    -0.338 N 
ATOM     16  H5  UNL     1       8.574  50.276  83.641  1.00  0.00     0.168 HD
HETATM   17  C19 UNL     1       8.811  51.365  85.339  1.00  0.00     0.183 A 
HETATM   18  N6  UNL     1       9.673  52.093  86.034  1.00  0.00    -0.338 N 
ATOM     19  H6  UNL     1       9.354  52.496  86.915  1.00  0.00     0.168 HD
HETATM   20  C20 UNL     1      10.934  52.335  85.659  1.00  0.00     0.125 A 
HETATM   21  N7  UNL     1      11.943  53.031  86.209  1.00  0.00    -0.318 N 
ENDROOT
BRANCH  21  22
HETATM   22  C21 UNL     1      11.906  53.741  87.444  1.00  0.00     0.133 C 
BRANCH  22  23
HETATM   23  C22 UNL     1      11.906  52.879  88.681  1.00  0.00     0.026 C 
BRANCH  23  24
HETATM   24  C23 UNL     1      11.622  53.624  89.930  1.00  0.00     0.064 C 
BRANCH  24  25
HETATM   25  C24 UNL     1      12.764  53.807  90.857  1.00  0.00     0.257 C 
BRANCH  25  26
HETATM   26  N8  UNL     1      13.423  55.053  90.894  1.00  0.00     0.100 N 
HETATM   27  O2  UNL     1      12.472  56.057  90.776  1.00  0.00    -0.052 OA
HETATM   28  C25 UNL     1      14.440  55.338  89.896  1.00  0.00     0.338 C 
HETATM   29  C26 UNL     1      15.218  56.111  90.955  1.00  0.00     0.159 C 
HETATM   30  C27 UNL     1      14.339  55.348  91.917  1.00  0.00     0.385 C 
HETATM   31  O3  UNL     1      14.436  55.119  93.094  1.00  0.00    -0.255 OA
ENDBRANCH  25  26
ENDBRANCH  24  25
ENDBRANCH  23  24
ENDBRANCH  22  23
ENDBRANCH  21  22
BRANCH  14  32
HETATM   32  N3  UNL     1      10.770  50.476  82.609  1.00  0.00    -0.342 N 
ATOM     33  H3  UNL     1      11.292  49.601  82.659  1.00  0.00     0.167 HD
BRANCH  32  34
HETATM   34  C12 UNL     1      10.448  50.937  81.323  1.00  0.00     0.033 A 
HETATM   35  C13 UNL     1      10.691  52.270  81.028  1.00  0.00     0.030 A 
HETATM   36  C14 UNL     1      10.404  52.807  79.787  1.00  0.00     0.019 A 
HETATM   37  C15 UNL     1       9.860  52.019  78.794  1.00  0.00     0.029 A 
HETATM   38  C17 UNL     1       9.614  50.696  79.076  1.00  0.00     0.019 A 
HETATM   39  C18 UNL     1       9.905  50.162  80.321  1.00  0.00     0.030 A 
BRANCH  37  40
HETATM   40  C16 UNL     1       9.554  52.579  77.484  1.00  0.00     0.264 C 
HETATM   41  N4  UNL     1       9.574  54.004  77.317  1.00  0.00    -0.057 NA
HETATM   42  O1  UNL     1       9.276  51.859  76.499  1.00  0.00    -0.271 OA
ENDBRANCH  37  40
ENDBRANCH  32  34
ENDBRANCH  14  32
TORSDOF 8
ENDMDL
MODEL 5
REMARK VINA RESULT: -8.085681925      3.862      7.156
REMARK  8 active torsions:
REMARK  status: ('A' for Active; 'I' for Inactive)
REMARK    1  A    between atoms: C11_14  and  N3_15 
REMARK    2  A    between atoms: N3_15  and  C12_17 
REMARK    3  A    between atoms: C15_20  and  C16_21 
REMARK    4  A    between atoms: N7_32  and  C21_33 
REMARK    5  A    between atoms: C21_33  and  C22_34 
REMARK    6  A    between atoms: C22_34  and  C23_35 
REMARK    7  A    between atoms: C23_35  and  C24_36 
REMARK    8  A    between atoms: C24_36  and  N8_37 
ROOT
HETATM    1  N1  UNL     1       8.426  50.088  86.878  1.00  0.00    -0.191 NA
HETATM    2  C1  UNL     1       8.914  50.318  87.896  1.00  0.00     0.099 C 
HETATM    3  C2  UNL     1       9.517  50.602  89.188  1.00  0.00     0.045 A 
HETATM    4  C3  UNL     1       9.188  49.881  90.310  1.00  0.00     0.025 A 
HETATM    5  C4  UNL     1       9.792  50.194  91.507  1.00  0.00     0.032 A 
HETATM    6  C5  UNL     1      10.722  51.223  91.592  1.00  0.00     0.045 A 
HETATM    7  N2  UNL     1      11.427  51.697  92.644  1.00  0.00    -0.341 N 
ATOM      8  H2  UNL     1      11.375  51.341  93.598  1.00  0.00     0.167 HD
HETATM    9  C6  UNL     1      12.209  52.711  92.232  1.00  0.00     0.122 A 
HETATM   10  C7  UNL     1      11.988  52.879  90.879  1.00  0.00     0.038 A 
HETATM   11  C8  UNL     1      11.039  51.935  90.453  1.00  0.00     0.007 A 
HETATM   12  C9  UNL     1      10.450  51.641  89.247  1.00  0.00     0.037 A 
HETATM   13  C10 UNL     1      12.777  53.906  90.440  1.00  0.00     0.067 A 
HETATM   14  C11 UNL     1      12.991  54.521  89.232  1.00  0.00     0.121 A 
HETATM   15  N5  UNL     1      13.883  55.545  89.184  1.00  0.00    -0.338 N 
ATOM     16  H5  UNL     1      14.046  56.007  88.289  1.00  0.00     0.168 HD
HETATM   17  C19 UNL     1      14.556  55.975  90.255  1.00  0.00     0.183 A 
HETATM   18  N6  UNL     1      14.333  55.365  91.410  1.00  0.00    -0.338 N 
ATOM     19  H6  UNL     1      14.847  55.693  92.228  1.00  0.00     0.168 HD
HETATM   20  C20 UNL     1      13.479  54.349  91.577  1.00  0.00     0.125 A 
HETATM   21  N7  UNL     1      13.118  53.612  92.640  1.00  0.00    -0.318 N 
ENDROOT
BRANCH  21  22
HETATM   22  C21 UNL     1      13.603  53.755  93.973  1.00  0.00     0.133 C 
BRANCH  22  23
HETATM   23  C22 UNL     1      12.556  54.081  95.007  1.00  0.00     0.026 C 
BRANCH  23  24
HETATM   24  C23 UNL     1      11.909  55.399  94.810  1.00  0.00     0.064 C 
BRANCH  24  25
HETATM   25  C24 UNL     1      12.480  56.530  95.580  1.00  0.00     0.257 C 
BRANCH  25  26
HETATM   26  N8  UNL     1      11.679  57.178  96.542  1.00  0.00     0.100 N 
HETATM   27  O2  UNL     1      12.022  56.694  97.797  1.00  0.00    -0.052 OA
HETATM   28  C25 UNL     1      10.234  57.062  96.444  1.00  0.00     0.338 C 
HETATM   29  C26 UNL     1      10.116  58.493  96.957  1.00  0.00     0.159 C 
HETATM   30  C27 UNL     1      11.570  58.577  96.558  1.00  0.00     0.385 C 
HETATM   31  O3  UNL     1      12.299  59.511  96.351  1.00  0.00    -0.255 OA
ENDBRANCH  25  26
ENDBRANCH  24  25
ENDBRANCH  23  24
ENDBRANCH  22  23
ENDBRANCH  21  22
BRANCH  14  32
HETATM   32  N3  UNL     1      12.418  54.203  88.165  1.00  0.00    -0.342 N 
ATOM     33  H3  UNL     1      11.401  54.275  88.160  1.00  0.00     0.167 HD
BRANCH  32  34
HETATM   34  C12 UNL     1      13.017  53.757  86.976  1.00  0.00     0.033 A 
HETATM   35  C13 UNL     1      12.513  52.612  86.381  1.00  0.00     0.030 A 
HETATM   36  C14 UNL     1      13.044  52.103  85.210  1.00  0.00     0.019 A 
HETATM   37  C15 UNL     1      14.106  52.733  84.594  1.00  0.00     0.029 A 
HETATM   38  C17 UNL     1      14.614  53.869  85.177  1.00  0.00     0.019 A 
HETATM   39  C18 UNL     1      14.078  54.375  86.350  1.00  0.00     0.030 A 
BRANCH  37  40
HETATM   40  C16 UNL     1      14.671  52.202  83.360  1.00  0.00     0.264 C 
HETATM   41  N4  UNL     1      16.046  52.475  83.054  1.00  0.00    -0.057 NA
HETATM   42  O1  UNL     1      13.999  51.516  82.559  1.00  0.00    -0.271 OA
ENDBRANCH  37  40
ENDBRANCH  32  34
ENDBRANCH  14  32
TORSDOF 8
ENDMDL
