MODEL 1
REMARK VINA RESULT: -7.033859230      0.000      0.000
REMARK  6 active torsions:
REMARK  status: ('A' for Active; 'I' for Inactive)
REMARK    1  A    between atoms: N3_8  and  C4_10 
REMARK    2  A    between atoms: C4_10  and  C5_11 
REMARK    3  A    between atoms: C5_11  and  C6_12 
REMARK    4  A    between atoms: N5_21  and  C13_23 
REMARK    5  A    between atoms: C13_23  and  C14_24 
REMARK    6  A    between atoms: C14_24  and  O1_25 
ROOT
HETATM    1  C1  UNL     1       9.653   3.096  47.330  1.00  0.00     0.048 C 
HETATM    2  C2  UNL     1      10.089   2.026  46.683  1.00  0.00     0.083 A 
HETATM    3  N1  UNL     1      11.364   2.039  46.068  1.00  0.00    -0.284 N 
ATOM      4  H1  UNL     1      11.946   2.875  46.126  1.00  0.00     0.187 HD
HETATM    5  N2  UNL     1      11.835   0.902  45.377  1.00  0.00    -0.132 N 
ATOM      6  H2  UNL     1      12.757   0.940  44.943  1.00  0.00     0.205 HD
HETATM    7  C3  UNL     1      11.084  -0.278  45.263  1.00  0.00     0.694 A 
HETATM    8  N3  UNL     1      11.519  -1.288  44.640  1.00  0.00    -0.224 N 
ATOM      9  H3  UNL     1      10.904  -2.101  44.608  1.00  0.00     0.177 HD
HETATM   10  N4  UNL     1       9.797  -0.321  45.871  1.00  0.00    -0.173 N 
ATOM     11  H4  UNL     1       9.236  -1.169  45.798  1.00  0.00     0.186 HD
HETATM   12  C12 UNL     1       9.276   0.818  46.587  1.00  0.00     0.144 A 
HETATM   13  N5  UNL     1       8.129   0.817  47.145  1.00  0.00    -0.372 N 
ATOM     14  H5  UNL     1       7.840   1.665  47.632  1.00  0.00     0.161 HD
ENDROOT
BRANCH   8  15
HETATM   15  C4  UNL     1      12.775  -1.415  43.978  1.00  0.00     0.142 C 
BRANCH  15  16
HETATM   16  C5  UNL     1      13.700  -2.384  44.682  1.00  0.00     0.058 C 
BRANCH  16  17
HETATM   17  C6  UNL     1      14.527  -1.756  45.715  1.00  0.00    -0.057 A 
HETATM   18  C7  UNL     1      14.800  -2.361  46.934  1.00  0.00     0.007 A 
HETATM   19  C8  UNL     1      15.585  -1.727  47.871  1.00  0.00     0.001 A 
HETATM   20  C9  UNL     1      16.133  -0.467  47.641  1.00  0.00     0.000 A 
HETATM   21  C10 UNL     1      15.864   0.140  46.424  1.00  0.00     0.001 A 
HETATM   22  C11 UNL     1      15.072  -0.505  45.488  1.00  0.00     0.007 A 
ENDBRANCH  16  17
ENDBRANCH  15  16
ENDBRANCH   8  15
BRANCH  13  23
HETATM   23  C13 UNL     1       7.215  -0.291  47.139  1.00  0.00     0.147 C 
BRANCH  23  24
HETATM   24  C14 UNL     1       5.827   0.143  46.706  1.00  0.00     0.186 C 
BRANCH  24  25
HETATM   25  O1  UNL     1       5.469  -0.376  45.484  1.00  0.00    -0.394 OA
HETATM   26  C15 UNL     1       4.258  -1.027  45.473  1.00  0.00     0.201 C 
ENDBRANCH  24  25
ENDBRANCH  23  24
ENDBRANCH  13  23
TORSDOF 6
ENDMDL
MODEL 2
REMARK VINA RESULT: -6.949905352      0.126      1.043
REMARK  6 active torsions:
REMARK  status: ('A' for Active; 'I' for Inactive)
REMARK    1  A    between atoms: N3_8  and  C4_10 
REMARK    2  A    between atoms: C4_10  and  C5_11 
REMARK    3  A    between atoms: C5_11  and  C6_12 
REMARK    4  A    between atoms: N5_21  and  C13_23 
REMARK    5  A    between atoms: C13_23  and  C14_24 
REMARK    6  A    between atoms: C14_24  and  O1_25 
ROOT
HETATM    1  C1  UNL     1       9.589   3.088  47.489  1.00  0.00     0.048 C 
HETATM    2  C2  UNL     1      10.014   2.032  46.813  1.00  0.00     0.083 A 
HETATM    3  N1  UNL     1      11.296   2.041  46.214  1.00  0.00    -0.284 N 
ATOM      4  H1  UNL     1      11.893   2.864  46.306  1.00  0.00     0.187 HD
HETATM    5  N2  UNL     1      11.755   0.919  45.492  1.00  0.00    -0.132 N 
ATOM      6  H2  UNL     1      12.683   0.954  45.070  1.00  0.00     0.205 HD
HETATM    7  C3  UNL     1      10.985  -0.243  45.331  1.00  0.00     0.694 A 
HETATM    8  N3  UNL     1      11.409  -1.240  44.681  1.00  0.00    -0.224 N 
ATOM      9  H3  UNL     1      10.780  -2.040  44.615  1.00  0.00     0.177 HD
HETATM   10  N4  UNL     1       9.690  -0.282  45.921  1.00  0.00    -0.173 N 
ATOM     11  H4  UNL     1       9.114  -1.117  45.815  1.00  0.00     0.186 HD
HETATM   12  C12 UNL     1       9.181   0.842  46.668  1.00  0.00     0.144 A 
HETATM   13  N5  UNL     1       8.027   0.845  47.212  1.00  0.00    -0.372 N 
ATOM     14  H5  UNL     1       7.747   1.682  47.723  1.00  0.00     0.161 HD
ENDROOT
BRANCH   8  15
HETATM   15  C4  UNL     1      12.671  -1.369  44.030  1.00  0.00     0.142 C 
BRANCH  15  16
HETATM   16  C5  UNL     1      13.587  -2.341  44.741  1.00  0.00     0.058 C 
BRANCH  16  17
HETATM   17  C6  UNL     1      14.499  -1.698  45.690  1.00  0.00    -0.057 A 
HETATM   18  C7  UNL     1      15.039  -0.436  45.481  1.00  0.00     0.007 A 
HETATM   19  C8  UNL     1      15.892   0.123  46.406  1.00  0.00     0.001 A 
HETATM   20  C9  UNL     1      16.245  -0.542  47.578  1.00  0.00     0.000 A 
HETATM   21  C10 UNL     1      15.706  -1.802  47.791  1.00  0.00     0.001 A 
HETATM   22  C11 UNL     1      14.851  -2.357  46.854  1.00  0.00     0.007 A 
ENDBRANCH  16  17
ENDBRANCH  15  16
ENDBRANCH   8  15
BRANCH  13  23
HETATM   23  C13 UNL     1       7.093  -0.246  47.159  1.00  0.00     0.147 C 
BRANCH  23  24
HETATM   24  C14 UNL     1       5.744   0.210  46.633  1.00  0.00     0.186 C 
BRANCH  24  25
HETATM   25  O1  UNL     1       5.439  -0.345  45.412  1.00  0.00    -0.394 OA
HETATM   26  C15 UNL     1       4.241  -1.017  45.374  1.00  0.00     0.201 C 
ENDBRANCH  24  25
ENDBRANCH  23  24
ENDBRANCH  13  23
TORSDOF 6
ENDMDL
MODEL 3
REMARK VINA RESULT: -6.813956588      2.071      2.731
REMARK  6 active torsions:
REMARK  status: ('A' for Active; 'I' for Inactive)
REMARK    1  A    between atoms: N3_8  and  C4_10 
REMARK    2  A    between atoms: C4_10  and  C5_11 
REMARK    3  A    between atoms: C5_11  and  C6_12 
REMARK    4  A    between atoms: N5_21  and  C13_23 
REMARK    5  A    between atoms: C13_23  and  C14_24 
REMARK    6  A    between atoms: C14_24  and  O1_25 
ROOT
HETATM    1  C1  UNL     1      12.950   4.901  47.016  1.00  0.00     0.048 C 
HETATM    2  C2  UNL     1      12.558   3.683  46.678  1.00  0.00     0.083 A 
HETATM    3  N1  UNL     1      13.407   2.851  45.909  1.00  0.00    -0.284 N 
ATOM      4  H1  UNL     1      14.323   3.193  45.616  1.00  0.00     0.187 HD
HETATM    5  N2  UNL     1      12.996   1.551  45.546  1.00  0.00    -0.132 N 
ATOM      6  H2  UNL     1      13.628   0.974  44.990  1.00  0.00     0.205 HD
HETATM    7  C3  UNL     1      11.751   1.021  45.918  1.00  0.00     0.694 A 
HETATM    8  N3  UNL     1      11.396  -0.146  45.585  1.00  0.00    -0.224 N 
ATOM      9  H3  UNL     1      10.473  -0.446  45.899  1.00  0.00     0.177 HD
HETATM   10  N4  UNL     1      10.874   1.833  46.691  1.00  0.00    -0.173 N 
ATOM     11  H4  UNL     1       9.965   1.467  46.971  1.00  0.00     0.186 HD
HETATM   12  C12 UNL     1      11.254   3.168  47.085  1.00  0.00     0.144 A 
HETATM   13  N5  UNL     1      10.497   3.926  47.778  1.00  0.00    -0.372 N 
ATOM     14  H5  UNL     1      10.846   4.856  48.013  1.00  0.00     0.161 HD
ENDROOT
BRANCH   8  15
HETATM   15  C4  UNL     1      12.144  -1.086  44.817  1.00  0.00     0.142 C 
BRANCH  15  16
HETATM   16  C5  UNL     1      12.739  -2.182  45.675  1.00  0.00     0.058 C 
BRANCH  16  17
HETATM   17  C6  UNL     1      14.070  -1.859  46.195  1.00  0.00    -0.057 A 
HETATM   18  C7  UNL     1      14.485  -2.206  47.473  1.00  0.00     0.007 A 
HETATM   19  C8  UNL     1      15.749  -1.878  47.912  1.00  0.00     0.001 A 
HETATM   20  C9  UNL     1      16.654  -1.195  47.104  1.00  0.00     0.000 A 
HETATM   21  C10 UNL     1      16.243  -0.848  45.826  1.00  0.00     0.001 A 
HETATM   22  C11 UNL     1      14.970  -1.180  45.394  1.00  0.00     0.007 A 
ENDBRANCH  16  17
ENDBRANCH  15  16
ENDBRANCH   8  15
BRANCH  13  23
HETATM   23  C13 UNL     1       9.190   3.566  48.253  1.00  0.00     0.147 C 
BRANCH  23  24
HETATM   24  C14 UNL     1       8.105   4.103  47.337  1.00  0.00     0.186 C 
BRANCH  24  25
HETATM   25  O1  UNL     1       8.015   3.401  46.158  1.00  0.00    -0.394 OA
HETATM   26  C15 UNL     1       7.380   2.186  46.264  1.00  0.00     0.201 C 
ENDBRANCH  24  25
ENDBRANCH  23  24
ENDBRANCH  13  23
TORSDOF 6
ENDMDL
MODEL 4
REMARK VINA RESULT: -6.764850189      2.076      2.901
REMARK  6 active torsions:
REMARK  status: ('A' for Active; 'I' for Inactive)
REMARK    1  A    between atoms: N3_8  and  C4_10 
REMARK    2  A    between atoms: C4_10  and  C5_11 
REMARK    3  A    between atoms: C5_11  and  C6_12 
REMARK    4  A    between atoms: N5_21  and  C13_23 
REMARK    5  A    between atoms: C13_23  and  C14_24 
REMARK    6  A    between atoms: C14_24  and  O1_25 
ROOT
HETATM    1  C1  UNL     1      12.943   4.888  47.009  1.00  0.00     0.048 C 
HETATM    2  C2  UNL     1      12.542   3.671  46.675  1.00  0.00     0.083 A 
HETATM    3  N1  UNL     1      13.380   2.836  45.897  1.00  0.00    -0.284 N 
ATOM      4  H1  UNL     1      14.294   3.174  45.595  1.00  0.00     0.187 HD
HETATM    5  N2  UNL     1      12.958   1.538  45.538  1.00  0.00    -0.132 N 
ATOM      6  H2  UNL     1      13.582   0.958  44.976  1.00  0.00     0.205 HD
HETATM    7  C3  UNL     1      11.715   1.014  45.922  1.00  0.00     0.694 A 
HETATM    8  N3  UNL     1      11.351  -0.151  45.592  1.00  0.00    -0.224 N 
ATOM      9  H3  UNL     1      10.430  -0.448  45.915  1.00  0.00     0.177 HD
HETATM   10  N4  UNL     1      10.850   1.830  46.704  1.00  0.00    -0.173 N 
ATOM     11  H4  UNL     1       9.942   1.468  46.993  1.00  0.00     0.186 HD
HETATM   12  C12 UNL     1      11.240   3.163  47.095  1.00  0.00     0.144 A 
HETATM   13  N5  UNL     1      10.494   3.924  47.796  1.00  0.00    -0.372 N 
ATOM     14  H5  UNL     1      10.849   4.852  48.027  1.00  0.00     0.161 HD
ENDROOT
BRANCH   8  15
HETATM   15  C4  UNL     1      12.087  -1.095  44.817  1.00  0.00     0.142 C 
BRANCH  15  16
HETATM   16  C5  UNL     1      12.717  -2.172  45.672  1.00  0.00     0.058 C 
BRANCH  16  17
HETATM   17  C6  UNL     1      14.067  -1.838  46.133  1.00  0.00    -0.057 A 
HETATM   18  C7  UNL     1      14.993  -1.177  45.338  1.00  0.00     0.007 A 
HETATM   19  C8  UNL     1      16.250  -0.886  45.820  1.00  0.00     0.001 A 
HETATM   20  C9  UNL     1      16.642  -1.237  47.110  1.00  0.00     0.000 A 
HETATM   21  C10 UNL     1      15.720  -1.897  47.907  1.00  0.00     0.001 A 
HETATM   22  C11 UNL     1      14.459  -2.186  47.413  1.00  0.00     0.007 A 
ENDBRANCH  16  17
ENDBRANCH  15  16
ENDBRANCH   8  15
BRANCH  13  23
HETATM   23  C13 UNL     1       9.189   3.570  48.284  1.00  0.00     0.147 C 
BRANCH  23  24
HETATM   24  C14 UNL     1       8.098   4.113  47.380  1.00  0.00     0.186 C 
BRANCH  24  25
HETATM   25  O1  UNL     1       8.003   3.423  46.194  1.00  0.00    -0.394 OA
HETATM   26  C15 UNL     1       7.335   2.225  46.283  1.00  0.00     0.201 C 
ENDBRANCH  24  25
ENDBRANCH  23  24
ENDBRANCH  13  23
TORSDOF 6
ENDMDL
MODEL 5
REMARK VINA RESULT: -6.684760358      3.162      4.687
REMARK  6 active torsions:
REMARK  status: ('A' for Active; 'I' for Inactive)
REMARK    1  A    between atoms: N3_8  and  C4_10 
REMARK    2  A    between atoms: C4_10  and  C5_11 
REMARK    3  A    between atoms: C5_11  and  C6_12 
REMARK    4  A    between atoms: N5_21  and  C13_23 
REMARK    5  A    between atoms: C13_23  and  C14_24 
REMARK    6  A    between atoms: C14_24  and  O1_25 
ROOT
HETATM    1  C1  UNL     1       9.211   2.963  48.774  1.00  0.00     0.048 C 
HETATM    2  C2  UNL     1       9.963   2.306  47.905  1.00  0.00     0.083 A 
HETATM    3  N1  UNL     1       9.599   1.000  47.497  1.00  0.00    -0.284 N 
ATOM      4  H1  UNL     1       8.756   0.567  47.875  1.00  0.00     0.187 HD
HETATM    5  N2  UNL     1      10.396   0.294  46.571  1.00  0.00    -0.132 N 
ATOM      6  H2  UNL     1      10.111  -0.646  46.296  1.00  0.00     0.205 HD
HETATM    7  C3  UNL     1      11.565   0.834  46.014  1.00  0.00     0.694 A 
HETATM    8  N3  UNL     1      12.270   0.189  45.185  1.00  0.00    -0.224 N 
ATOM      9  H3  UNL     1      13.103   0.660  44.834  1.00  0.00     0.177 HD
HETATM   10  N4  UNL     1      11.957   2.145  46.405  1.00  0.00    -0.173 N 
ATOM     11  H4  UNL     1      12.804   2.555  46.012  1.00  0.00     0.186 HD
HETATM   12  C12 UNL     1      11.173   2.903  47.349  1.00  0.00     0.144 A 
HETATM   13  N5  UNL     1      11.490   4.081  47.723  1.00  0.00    -0.372 N 
ATOM     14  H5  UNL     1      10.877   4.545  48.393  1.00  0.00     0.161 HD
ENDROOT
BRANCH   8  15
HETATM   15  C4  UNL     1      12.026  -1.126  44.689  1.00  0.00     0.142 C 
BRANCH  15  16
HETATM   16  C5  UNL     1      13.307  -1.887  44.426  1.00  0.00     0.058 C 
BRANCH  16  17
HETATM   17  C6  UNL     1      14.295  -1.755  45.500  1.00  0.00    -0.057 A 
HETATM   18  C7  UNL     1      15.413  -0.938  45.402  1.00  0.00     0.007 A 
HETATM   19  C8  UNL     1      16.311  -0.851  46.442  1.00  0.00     0.001 A 
HETATM   20  C9  UNL     1      16.140  -1.568  47.624  1.00  0.00     0.000 A 
HETATM   21  C10 UNL     1      15.024  -2.385  47.726  1.00  0.00     0.001 A 
HETATM   22  C11 UNL     1      14.127  -2.467  46.674  1.00  0.00     0.007 A 
ENDBRANCH  16  17
ENDBRANCH  15  16
ENDBRANCH   8  15
BRANCH  13  23
HETATM   23  C13 UNL     1      12.647   4.802  47.268  1.00  0.00     0.147 C 
BRANCH  23  24
HETATM   24  C14 UNL     1      13.881   4.422  48.066  1.00  0.00     0.186 C 
BRANCH  24  25
HETATM   25  O1  UNL     1      14.554   3.354  47.520  1.00  0.00    -0.394 OA
HETATM   26  C15 UNL     1      14.899   2.375  48.421  1.00  0.00     0.201 C 
ENDBRANCH  24  25
ENDBRANCH  23  24
ENDBRANCH  13  23
TORSDOF 6
ENDMDL
