MODEL 1
REMARK VINA RESULT: -6.830280667      0.000      0.000
REMARK  7 active torsions:
REMARK  status: ('A' for Active; 'I' for Inactive)
REMARK    1  A    between atoms: N1_4  and  C4_5 
REMARK    2  A    between atoms: C4_5  and  C5_6 
REMARK    3  A    between atoms: C5_6  and  S1_7 
REMARK    4  A    between atoms: S1_7  and  C6_8 
REMARK    5  A    between atoms: C6_8  and  C7_9 
REMARK    6  A    between atoms: C7_9  and  N2_10 
REMARK    7  A    between atoms: C11_17  and  O1_18 
ROOT
HETATM    1  C1  UNL     1      16.976  -1.504  46.986  1.00  0.00     0.026 C 
HETATM    2  C2  UNL     1      15.804  -0.905  47.145  1.00  0.00    -0.017 A 
HETATM    3  C3  UNL     1      15.443   0.102  48.132  1.00  0.00     0.102 A 
HETATM    4  N1  UNL     1      14.200   0.459  47.983  1.00  0.00    -0.354 N 
HETATM    5  C9  UNL     1      13.631  -0.260  46.907  1.00  0.00     0.048 A 
HETATM    6  C10 UNL     1      12.374  -0.279  46.331  1.00  0.00     0.067 A 
HETATM    7  C11 UNL     1      12.047  -1.104  45.248  1.00  0.00     0.067 A 
HETATM    8  C12 UNL     1      13.023  -1.918  44.754  1.00  0.00     0.037 A 
HETATM    9  C13 UNL     1      14.304  -1.939  45.297  1.00  0.00     0.017 A 
HETATM   10  C14 UNL     1      14.596  -1.118  46.360  1.00  0.00     0.002 A 
ENDROOT
BRANCH   4  11
HETATM   11  C4  UNL     1      13.549   1.444  48.813  1.00  0.00     0.139 C 
BRANCH  11  12
HETATM   12  C5  UNL     1      14.109   2.832  48.604  1.00  0.00     0.094 C 
BRANCH  12  13
HETATM   13  S1  UNL     1      12.844   3.983  48.017  1.00  0.00    -0.166 SA
BRANCH  13  14
HETATM   14  C6  UNL     1      12.015   3.257  46.595  1.00  0.00     0.093 C 
BRANCH  14  15
HETATM   15  C7  UNL     1      10.597   2.846  46.918  1.00  0.00     0.132 C 
BRANCH  15  16
HETATM   16  N2  UNL     1      10.099   1.865  45.988  1.00  0.00    -0.366 N 
HETATM   17  C8  UNL     1       8.930   1.979  45.458  1.00  0.00     0.196 C 
HETATM   18  N3  UNL     1       8.411   1.036  44.541  1.00  0.00    -0.067 NA
HETATM   19  N4  UNL     1       8.128   3.100  45.806  1.00  0.00    -0.067 NA
ATOM     20  H2  UNL     1      10.683   1.065  45.745  1.00  0.00     0.161 HD
ENDBRANCH  15  16
ENDBRANCH  14  15
ENDBRANCH  13  14
ENDBRANCH  12  13
ENDBRANCH  11  12
ENDBRANCH   4  11
BRANCH   7  21
HETATM   21  O1  UNL     1      10.764  -1.062  44.727  1.00  0.00    -0.361 OA
ATOM     22  H1  UNL     1      10.370  -1.861  44.395  1.00  0.00     0.217 HD
ENDBRANCH   7  21
TORSDOF 7
ENDMDL
MODEL 2
REMARK VINA RESULT: -6.767283590      0.981      1.052
REMARK  7 active torsions:
REMARK  status: ('A' for Active; 'I' for Inactive)
REMARK    1  A    between atoms: N1_4  and  C4_5 
REMARK    2  A    between atoms: C4_5  and  C5_6 
REMARK    3  A    between atoms: C5_6  and  S1_7 
REMARK    4  A    between atoms: S1_7  and  C6_8 
REMARK    5  A    between atoms: C6_8  and  C7_9 
REMARK    6  A    between atoms: C7_9  and  N2_10 
REMARK    7  A    between atoms: C11_17  and  O1_18 
ROOT
HETATM    1  C1  UNL     1      16.595  -1.188  46.878  1.00  0.00     0.026 C 
HETATM    2  C2  UNL     1      15.394  -0.664  47.081  1.00  0.00    -0.017 A 
HETATM    3  C3  UNL     1      14.984   0.239  48.147  1.00  0.00     0.102 A 
HETATM    4  N1  UNL     1      13.724   0.544  48.024  1.00  0.00    -0.354 N 
HETATM    5  C9  UNL     1      13.191  -0.113  46.891  1.00  0.00     0.048 A 
HETATM    6  C10 UNL     1      11.936  -0.148  46.311  1.00  0.00     0.067 A 
HETATM    7  C11 UNL     1      11.650  -0.897  45.162  1.00  0.00     0.067 A 
HETATM    8  C12 UNL     1      12.666  -1.617  44.606  1.00  0.00     0.037 A 
HETATM    9  C13 UNL     1      13.946  -1.617  45.150  1.00  0.00     0.017 A 
HETATM   10  C14 UNL     1      14.197  -0.872  46.278  1.00  0.00     0.002 A 
ENDROOT
BRANCH   4  11
HETATM   11  C4  UNL     1      13.024   1.422  48.929  1.00  0.00     0.139 C 
BRANCH  11  12
HETATM   12  C5  UNL     1      13.245   2.880  48.601  1.00  0.00     0.094 C 
BRANCH  12  13
HETATM   13  S1  UNL     1      11.833   3.590  47.722  1.00  0.00    -0.166 SA
BRANCH  13  14
HETATM   14  C6  UNL     1      10.341   2.716  48.217  1.00  0.00     0.093 C 
BRANCH  14  15
HETATM   15  C7  UNL     1       9.139   3.149  47.411  1.00  0.00     0.132 C 
BRANCH  15  16
HETATM   16  N2  UNL     1       8.340   2.024  46.996  1.00  0.00    -0.366 N 
HETATM   17  C8  UNL     1       8.371   1.593  45.782  1.00  0.00     0.196 C 
HETATM   18  N3  UNL     1       7.601   0.492  45.342  1.00  0.00    -0.067 NA
HETATM   19  N4  UNL     1       9.217   2.249  44.846  1.00  0.00    -0.067 NA
ATOM     20  H2  UNL     1       7.737   1.561  47.677  1.00  0.00     0.161 HD
ENDBRANCH  15  16
ENDBRANCH  14  15
ENDBRANCH  13  14
ENDBRANCH  12  13
ENDBRANCH  11  12
ENDBRANCH   4  11
BRANCH   7  21
HETATM   21  O1  UNL     1      10.366  -0.878  44.643  1.00  0.00    -0.361 OA
ATOM     22  H1  UNL     1       9.745  -1.545  44.913  1.00  0.00     0.217 HD
ENDBRANCH   7  21
TORSDOF 7
ENDMDL
MODEL 3
REMARK VINA RESULT: -6.540253633      1.874      2.996
REMARK  7 active torsions:
REMARK  status: ('A' for Active; 'I' for Inactive)
REMARK    1  A    between atoms: N1_4  and  C4_5 
REMARK    2  A    between atoms: C4_5  and  C5_6 
REMARK    3  A    between atoms: C5_6  and  S1_7 
REMARK    4  A    between atoms: S1_7  and  C6_8 
REMARK    5  A    between atoms: C6_8  and  C7_9 
REMARK    6  A    between atoms: C7_9  and  N2_10 
REMARK    7  A    between atoms: C11_17  and  O1_18 
ROOT
HETATM    1  C1  UNL     1      15.793   2.184  49.473  1.00  0.00     0.026 C 
HETATM    2  C2  UNL     1      15.029   1.747  48.481  1.00  0.00    -0.017 A 
HETATM    3  C3  UNL     1      13.855   2.390  47.909  1.00  0.00     0.102 A 
HETATM    4  N1  UNL     1      13.363   1.663  46.948  1.00  0.00    -0.354 N 
HETATM    5  C9  UNL     1      14.145   0.495  46.794  1.00  0.00     0.048 A 
HETATM    6  C10 UNL     1      14.074  -0.598  45.950  1.00  0.00     0.067 A 
HETATM    7  C11 UNL     1      14.989  -1.657  45.997  1.00  0.00     0.067 A 
HETATM    8  C12 UNL     1      15.986  -1.591  46.924  1.00  0.00     0.037 A 
HETATM    9  C13 UNL     1      16.103  -0.515  47.799  1.00  0.00     0.017 A 
HETATM   10  C14 UNL     1      15.190   0.510  47.729  1.00  0.00     0.002 A 
ENDROOT
BRANCH   4  11
HETATM   11  C4  UNL     1      12.197   2.035  46.184  1.00  0.00     0.139 C 
BRANCH  11  12
HETATM   12  C5  UNL     1      11.284   2.967  46.947  1.00  0.00     0.094 C 
BRANCH  12  13
HETATM   13  S1  UNL     1      10.349   2.093  48.224  1.00  0.00    -0.166 SA
BRANCH  13  14
HETATM   14  C6  UNL     1       8.592   2.309  47.907  1.00  0.00     0.093 C 
BRANCH  14  15
HETATM   15  C7  UNL     1       7.969   1.068  47.312  1.00  0.00     0.132 C 
BRANCH  15  16
HETATM   16  N2  UNL     1       8.961   0.187  46.750  1.00  0.00    -0.366 N 
HETATM   17  C8  UNL     1       9.138   0.106  45.476  1.00  0.00     0.196 C 
HETATM   18  N3  UNL     1      10.103  -0.745  44.891  1.00  0.00    -0.067 NA
HETATM   19  N4  UNL     1       8.332   0.908  44.622  1.00  0.00    -0.067 NA
ATOM     20  H2  UNL     1       9.534  -0.382  47.372  1.00  0.00     0.161 HD
ENDBRANCH  15  16
ENDBRANCH  14  15
ENDBRANCH  13  14
ENDBRANCH  12  13
ENDBRANCH  11  12
ENDBRANCH   4  11
BRANCH   7  21
HETATM   21  O1  UNL     1      14.848  -2.714  45.114  1.00  0.00    -0.361 OA
ATOM     22  H1  UNL     1      15.579  -3.305  44.975  1.00  0.00     0.217 HD
ENDBRANCH   7  21
TORSDOF 7
ENDMDL
MODEL 4
REMARK VINA RESULT: -6.363109182      1.989      2.622
REMARK  7 active torsions:
REMARK  status: ('A' for Active; 'I' for Inactive)
REMARK    1  A    between atoms: N1_4  and  C4_5 
REMARK    2  A    between atoms: C4_5  and  C5_6 
REMARK    3  A    between atoms: C5_6  and  S1_7 
REMARK    4  A    between atoms: S1_7  and  C6_8 
REMARK    5  A    between atoms: C6_8  and  C7_9 
REMARK    6  A    between atoms: C7_9  and  N2_10 
REMARK    7  A    between atoms: C11_17  and  O1_18 
ROOT
HETATM    1  C1  UNL     1      16.527  -1.059  47.215  1.00  0.00     0.026 C 
HETATM    2  C2  UNL     1      15.273  -0.643  47.321  1.00  0.00    -0.017 A 
HETATM    3  C3  UNL     1      14.690   0.171  48.379  1.00  0.00     0.102 A 
HETATM    4  N1  UNL     1      13.426   0.380  48.146  1.00  0.00    -0.354 N 
HETATM    5  C9  UNL     1      13.059  -0.259  46.940  1.00  0.00     0.048 A 
HETATM    6  C10 UNL     1      11.871  -0.365  46.239  1.00  0.00     0.067 A 
HETATM    7  C11 UNL     1      11.758  -1.076  45.038  1.00  0.00     0.067 A 
HETATM    8  C12 UNL     1      12.878  -1.685  44.554  1.00  0.00     0.037 A 
HETATM    9  C13 UNL     1      14.097  -1.611  45.220  1.00  0.00     0.017 A 
HETATM   10  C14 UNL     1      14.178  -0.905  46.397  1.00  0.00     0.002 A 
ENDROOT
BRANCH   4  11
HETATM   11  C4  UNL     1      12.574   1.154  49.015  1.00  0.00     0.139 C 
BRANCH  11  12
HETATM   12  C5  UNL     1      13.283   1.593  50.275  1.00  0.00     0.094 C 
BRANCH  12  13
HETATM   13  S1  UNL     1      13.651   3.363  50.254  1.00  0.00    -0.166 SA
BRANCH  13  14
HETATM   14  C6  UNL     1      15.110   3.641  49.240  1.00  0.00     0.093 C 
BRANCH  14  15
HETATM   15  C7  UNL     1      14.781   4.399  47.974  1.00  0.00     0.132 C 
BRANCH  15  16
HETATM   16  N2  UNL     1      14.113   3.563  47.009  1.00  0.00    -0.366 N 
HETATM   17  C8  UNL     1      12.951   3.873  46.546  1.00  0.00     0.196 C 
HETATM   18  N3  UNL     1      12.268   3.078  45.598  1.00  0.00    -0.067 NA
HETATM   19  N4  UNL     1      12.329   5.066  47.006  1.00  0.00    -0.067 NA
ATOM     20  H2  UNL     1      14.569   2.710  46.685  1.00  0.00     0.161 HD
ENDBRANCH  15  16
ENDBRANCH  14  15
ENDBRANCH  13  14
ENDBRANCH  12  13
ENDBRANCH  11  12
ENDBRANCH   4  11
BRANCH   7  21
HETATM   21  O1  UNL     1      10.531  -1.133  44.397  1.00  0.00    -0.361 OA
ATOM     22  H1  UNL     1      10.202  -1.972  44.095  1.00  0.00     0.217 HD
ENDBRANCH   7  21
TORSDOF 7
ENDMDL
MODEL 5
REMARK VINA RESULT: -6.148914875      1.541      1.668
REMARK  7 active torsions:
REMARK  status: ('A' for Active; 'I' for Inactive)
REMARK    1  A    between atoms: N1_4  and  C4_5 
REMARK    2  A    between atoms: C4_5  and  C5_6 
REMARK    3  A    between atoms: C5_6  and  S1_7 
REMARK    4  A    between atoms: S1_7  and  C6_8 
REMARK    5  A    between atoms: C6_8  and  C7_9 
REMARK    6  A    between atoms: C7_9  and  N2_10 
REMARK    7  A    between atoms: C11_17  and  O1_18 
ROOT
HETATM    1  C1  UNL     1      16.271   0.753  44.305  1.00  0.00     0.026 C 
HETATM    2  C2  UNL     1      15.458   0.361  45.277  1.00  0.00    -0.017 A 
HETATM    3  C3  UNL     1      15.140   1.065  46.511  1.00  0.00     0.102 A 
HETATM    4  N1  UNL     1      14.302   0.370  47.226  1.00  0.00    -0.354 N 
HETATM    5  C9  UNL     1      13.993  -0.833  46.550  1.00  0.00     0.048 A 
HETATM    6  C10 UNL     1      13.183  -1.913  46.847  1.00  0.00     0.067 A 
HETATM    7  C11 UNL     1      13.042  -3.015  45.995  1.00  0.00     0.067 A 
HETATM    8  C12 UNL     1      13.743  -3.005  44.825  1.00  0.00     0.037 A 
HETATM    9  C13 UNL     1      14.573  -1.943  44.478  1.00  0.00     0.017 A 
HETATM   10  C14 UNL     1      14.691  -0.875  45.335  1.00  0.00     0.002 A 
ENDROOT
BRANCH   4  11
HETATM   11  C4  UNL     1      13.796   0.804  48.505  1.00  0.00     0.139 C 
BRANCH  11  12
HETATM   12  C5  UNL     1      14.071   2.266  48.766  1.00  0.00     0.094 C 
BRANCH  12  13
HETATM   13  S1  UNL     1      12.581   3.273  48.576  1.00  0.00    -0.166 SA
BRANCH  13  14
HETATM   14  C6  UNL     1      11.276   2.251  47.878  1.00  0.00     0.093 C 
BRANCH  14  15
HETATM   15  C7  UNL     1      11.093   2.501  46.399  1.00  0.00     0.132 C 
BRANCH  15  16
HETATM   16  N2  UNL     1      10.339   1.448  45.768  1.00  0.00    -0.366 N 
HETATM   17  C8  UNL     1       9.168   1.667  45.275  1.00  0.00     0.196 C 
HETATM   18  N3  UNL     1       8.402   0.658  44.647  1.00  0.00    -0.067 NA
HETATM   19  N4  UNL     1       8.624   2.977  45.362  1.00  0.00    -0.067 NA
ATOM     20  H2  UNL     1      10.739   0.512  45.710  1.00  0.00     0.161 HD
ENDBRANCH  15  16
ENDBRANCH  14  15
ENDBRANCH  13  14
ENDBRANCH  12  13
ENDBRANCH  11  12
ENDBRANCH   4  11
BRANCH   7  21
HETATM   21  O1  UNL     1      12.209  -4.058  46.366  1.00  0.00    -0.361 OA
ATOM     22  H1  UNL     1      12.397  -4.544  47.160  1.00  0.00     0.217 HD
ENDBRANCH   7  21
TORSDOF 7
ENDMDL
