MODEL 1
REMARK VINA RESULT: -6.873254544      0.000      0.000
REMARK  9 active torsions:
REMARK  status: ('A' for Active; 'I' for Inactive)
REMARK    1  A    between atoms: C3_5  and  N2_6 
REMARK    2  A    between atoms: N2_6  and  C4_8 
REMARK    3  A    between atoms: C4_8  and  C5_9 
REMARK    4  A    between atoms: C5_9  and  O1_10 
REMARK    5  A    between atoms: C6_14  and  N4_15 
REMARK    6  A    between atoms: C7_18  and  C8_19 
REMARK    7  A    between atoms: C8_19  and  C9_20 
REMARK    8  A    between atoms: C9_20  and  C10_21 
REMARK    9  A    between atoms: C10_21  and  N5_22 
ROOT
HETATM    1  C1  UNL     1      13.807  -3.342  47.269  1.00  0.00     0.069 C 
HETATM    2  C2  UNL     1      13.497  -2.325  46.236  1.00  0.00     0.032 A 
HETATM    3  N1  UNL     1      12.211  -2.149  45.825  1.00  0.00    -0.195 N 
ATOM      4  H1  UNL     1      11.461  -2.713  46.225  1.00  0.00     0.184 HD
HETATM    5  C3  UNL     1      11.935  -1.220  44.882  1.00  0.00     0.679 A 
HETATM    6  N3  UNL     1      12.925  -0.497  44.373  1.00  0.00    -0.177 N 
ATOM      7  H3  UNL     1      12.708   0.201  43.663  1.00  0.00     0.186 HD
HETATM    8  C6  UNL     1      14.201  -0.651  44.761  1.00  0.00     0.122 A 
HETATM    9  C7  UNL     1      14.528  -1.584  45.719  1.00  0.00     0.009 A 
ENDROOT
BRANCH   9  10
HETATM   10  C8  UNL     1      15.900  -1.772  46.159  1.00  0.00     0.046 C 
BRANCH  10  11
HETATM   11  C9  UNL     1      16.435  -0.725  47.095  1.00  0.00     0.025 C 
BRANCH  11  12
HETATM   12  C10 UNL     1      15.553  -0.480  48.277  1.00  0.00     0.128 C 
BRANCH  12  13
HETATM   13  N5  UNL     1      15.290   0.951  48.347  1.00  0.00    -0.366 N 
HETATM   14  C11 UNL     1      14.706   1.611  47.330  1.00  0.00     0.090 A 
HETATM   15  C12 UNL     1      14.440   2.973  47.360  1.00  0.00     0.017 A 
HETATM   16  C13 UNL     1      14.782   3.710  48.475  1.00  0.00     0.003 A 
HETATM   17  C14 UNL     1      15.381   3.038  49.520  1.00  0.00     0.017 A 
HETATM   18  C15 UNL     1      15.619   1.683  49.431  1.00  0.00     0.090 A 
ENDBRANCH  12  13
ENDBRANCH  11  12
ENDBRANCH  10  11
ENDBRANCH   9  10
BRANCH   8  19
HETATM   19  N4  UNL     1      15.147   0.058  44.260  1.00  0.00    -0.385 N 
ATOM     20  H42 UNL     1      15.292   0.020  43.252  1.00  0.00     0.157 HD
ATOM     21  H41 UNL     1      15.744   0.644  44.845  1.00  0.00     0.157 HD
ENDBRANCH   8  19
BRANCH   5  22
HETATM   22  N2  UNL     1      10.721  -1.043  44.486  1.00  0.00    -0.224 N 
ATOM     23  H2  UNL     1      10.491  -1.122  43.496  1.00  0.00     0.177 HD
BRANCH  22  24
HETATM   24  C4  UNL     1       9.691  -0.734  45.441  1.00  0.00     0.164 C 
BRANCH  24  25
HETATM   25  C5  UNL     1       9.333   0.736  45.375  1.00  0.00     0.184 C 
BRANCH  25  26
HETATM   26  O1  UNL     1       8.377   0.947  44.398  1.00  0.00    -0.399 OA
ATOM     27  H1  UNL     1       7.540   1.150  44.800  1.00  0.00     0.209 HD
ENDBRANCH  25  26
ENDBRANCH  24  25
ENDBRANCH  22  24
ENDBRANCH   5  22
TORSDOF 9
ENDMDL
MODEL 2
REMARK VINA RESULT: -6.727017032      2.075      4.081
REMARK  9 active torsions:
REMARK  status: ('A' for Active; 'I' for Inactive)
REMARK    1  A    between atoms: C3_5  and  N2_6 
REMARK    2  A    between atoms: N2_6  and  C4_8 
REMARK    3  A    between atoms: C4_8  and  C5_9 
REMARK    4  A    between atoms: C5_9  and  O1_10 
REMARK    5  A    between atoms: C6_14  and  N4_15 
REMARK    6  A    between atoms: C7_18  and  C8_19 
REMARK    7  A    between atoms: C8_19  and  C9_20 
REMARK    8  A    between atoms: C9_20  and  C10_21 
REMARK    9  A    between atoms: C10_21  and  N5_22 
ROOT
HETATM    1  C1  UNL     1      12.542   1.263  49.567  1.00  0.00     0.069 C 
HETATM    2  C2  UNL     1      12.454   1.617  48.131  1.00  0.00     0.032 A 
HETATM    3  N1  UNL     1      11.235   1.716  47.532  1.00  0.00    -0.195 N 
ATOM      4  H1  UNL     1      10.384   1.547  48.069  1.00  0.00     0.184 HD
HETATM    5  C3  UNL     1      11.162   2.039  46.221  1.00  0.00     0.679 A 
HETATM    6  N3  UNL     1      12.282   2.254  45.542  1.00  0.00    -0.177 N 
ATOM      7  H3  UNL     1      12.217   2.497  44.554  1.00  0.00     0.186 HD
HETATM    8  C6  UNL     1      13.495   2.163  46.108  1.00  0.00     0.122 A 
HETATM    9  C7  UNL     1      13.618   1.837  47.440  1.00  0.00     0.009 A 
ENDROOT
BRANCH   9  10
HETATM   10  C8  UNL     1      14.918   1.733  48.081  1.00  0.00     0.046 C 
BRANCH  10  11
HETATM   11  C9  UNL     1      15.426   0.336  48.302  1.00  0.00     0.025 C 
BRANCH  11  12
HETATM   12  C10 UNL     1      15.987  -0.294  47.067  1.00  0.00     0.128 C 
BRANCH  12  13
HETATM   13  N5  UNL     1      15.036  -1.299  46.611  1.00  0.00    -0.366 N 
HETATM   14  C11 UNL     1      14.541  -1.286  45.360  1.00  0.00     0.090 A 
HETATM   15  C12 UNL     1      13.634  -2.226  44.891  1.00  0.00     0.017 A 
HETATM   16  C13 UNL     1      13.202  -3.234  45.728  1.00  0.00     0.003 A 
HETATM   17  C14 UNL     1      13.707  -3.252  47.012  1.00  0.00     0.017 A 
HETATM   18  C15 UNL     1      14.606  -2.289  47.420  1.00  0.00     0.090 A 
ENDBRANCH  12  13
ENDBRANCH  11  12
ENDBRANCH  10  11
ENDBRANCH   9  10
BRANCH   8  19
HETATM   19  N4  UNL     1      14.569   2.375  45.437  1.00  0.00    -0.385 N 
ATOM     20  H42 UNL     1      15.378   2.747  45.934  1.00  0.00     0.157 HD
ATOM     21  H41 UNL     1      14.622   2.183  44.437  1.00  0.00     0.157 HD
ENDBRANCH   8  19
BRANCH   5  22
HETATM   22  N2  UNL     1      10.013   2.137  45.644  1.00  0.00    -0.224 N 
ATOM     23  H2  UNL     1       9.960   2.332  44.645  1.00  0.00     0.177 HD
BRANCH  22  24
HETATM   24  C4  UNL     1       8.807   1.972  46.409  1.00  0.00     0.164 C 
BRANCH  24  25
HETATM   25  C5  UNL     1       7.886   0.976  45.736  1.00  0.00     0.184 C 
BRANCH  25  26
HETATM   26  O1  UNL     1       8.223   0.847  44.400  1.00  0.00    -0.399 OA
ATOM     27  H1  UNL     1       9.106   1.167  44.254  1.00  0.00     0.209 HD
ENDBRANCH  25  26
ENDBRANCH  24  25
ENDBRANCH  22  24
ENDBRANCH   5  22
TORSDOF 9
ENDMDL
MODEL 3
REMARK VINA RESULT: -6.723853616      2.073      4.182
REMARK  9 active torsions:
REMARK  status: ('A' for Active; 'I' for Inactive)
REMARK    1  A    between atoms: C3_5  and  N2_6 
REMARK    2  A    between atoms: N2_6  and  C4_8 
REMARK    3  A    between atoms: C4_8  and  C5_9 
REMARK    4  A    between atoms: C5_9  and  O1_10 
REMARK    5  A    between atoms: C6_14  and  N4_15 
REMARK    6  A    between atoms: C7_18  and  C8_19 
REMARK    7  A    between atoms: C8_19  and  C9_20 
REMARK    8  A    between atoms: C9_20  and  C10_21 
REMARK    9  A    between atoms: C10_21  and  N5_22 
ROOT
HETATM    1  C1  UNL     1      12.543   1.258  49.565  1.00  0.00     0.069 C 
HETATM    2  C2  UNL     1      12.458   1.614  48.129  1.00  0.00     0.032 A 
HETATM    3  N1  UNL     1      11.241   1.716  47.528  1.00  0.00    -0.195 N 
ATOM      4  H1  UNL     1      10.388   1.548  48.063  1.00  0.00     0.184 HD
HETATM    5  C3  UNL     1      11.170   2.041  46.217  1.00  0.00     0.679 A 
HETATM    6  N3  UNL     1      12.292   2.254  45.540  1.00  0.00    -0.177 N 
ATOM      7  H3  UNL     1      12.230   2.499  44.552  1.00  0.00     0.186 HD
HETATM    8  C6  UNL     1      13.504   2.160  46.108  1.00  0.00     0.122 A 
HETATM    9  C7  UNL     1      13.623   1.832  47.441  1.00  0.00     0.009 A 
ENDROOT
BRANCH   9  10
HETATM   10  C8  UNL     1      14.922   1.725  48.083  1.00  0.00     0.046 C 
BRANCH  10  11
HETATM   11  C9  UNL     1      15.426   0.327  48.306  1.00  0.00     0.025 C 
BRANCH  11  12
HETATM   12  C10 UNL     1      15.987  -0.306  47.074  1.00  0.00     0.128 C 
BRANCH  12  13
HETATM   13  N5  UNL     1      15.031  -1.304  46.611  1.00  0.00    -0.366 N 
HETATM   14  C11 UNL     1      14.597  -2.291  47.416  1.00  0.00     0.090 A 
HETATM   15  C12 UNL     1      13.688  -3.259  47.010  1.00  0.00     0.017 A 
HETATM   16  C13 UNL     1      13.189  -3.229  45.724  1.00  0.00     0.003 A 
HETATM   17  C14 UNL     1      13.632  -2.218  44.896  1.00  0.00     0.017 A 
HETATM   18  C15 UNL     1      14.537  -1.286  45.357  1.00  0.00     0.090 A 
ENDBRANCH  12  13
ENDBRANCH  11  12
ENDBRANCH  10  11
ENDBRANCH   9  10
BRANCH   8  19
HETATM   19  N4  UNL     1      14.579   2.371  45.440  1.00  0.00    -0.385 N 
ATOM     20  H42 UNL     1      14.899   1.641  44.804  1.00  0.00     0.157 HD
ATOM     21  H41 UNL     1      15.108   3.239  45.536  1.00  0.00     0.157 HD
ENDBRANCH   8  19
BRANCH   5  22
HETATM   22  N2  UNL     1      10.022   2.142  45.639  1.00  0.00    -0.224 N 
ATOM     23  H2  UNL     1       9.972   2.338  44.639  1.00  0.00     0.177 HD
BRANCH  22  24
HETATM   24  C4  UNL     1       8.815   1.981  46.402  1.00  0.00     0.164 C 
BRANCH  24  25
HETATM   25  C5  UNL     1       7.897   0.979  45.734  1.00  0.00     0.184 C 
BRANCH  25  26
HETATM   26  O1  UNL     1       8.231   0.847  44.398  1.00  0.00    -0.399 OA
ATOM     27  H1  UNL     1       8.005   1.640  43.925  1.00  0.00     0.209 HD
ENDBRANCH  25  26
ENDBRANCH  24  25
ENDBRANCH  22  24
ENDBRANCH   5  22
TORSDOF 9
ENDMDL
MODEL 4
REMARK VINA RESULT: -6.538110137      1.030      2.088
REMARK  9 active torsions:
REMARK  status: ('A' for Active; 'I' for Inactive)
REMARK    1  A    between atoms: C3_5  and  N2_6 
REMARK    2  A    between atoms: N2_6  and  C4_8 
REMARK    3  A    between atoms: C4_8  and  C5_9 
REMARK    4  A    between atoms: C5_9  and  O1_10 
REMARK    5  A    between atoms: C6_14  and  N4_15 
REMARK    6  A    between atoms: C7_18  and  C8_19 
REMARK    7  A    between atoms: C8_19  and  C9_20 
REMARK    8  A    between atoms: C9_20  and  C10_21 
REMARK    9  A    between atoms: C10_21  and  N5_22 
ROOT
HETATM    1  C1  UNL     1      15.224   0.294  44.670  1.00  0.00     0.069 C 
HETATM    2  C2  UNL     1      14.128  -0.635  45.035  1.00  0.00     0.032 A 
HETATM    3  N1  UNL     1      12.851  -0.355  44.658  1.00  0.00    -0.195 N 
ATOM      4  H1  UNL     1      12.646   0.491  44.125  1.00  0.00     0.184 HD
HETATM    5  C3  UNL     1      11.855  -1.206  44.994  1.00  0.00     0.679 A 
HETATM    6  N3  UNL     1      12.144  -2.300  45.688  1.00  0.00    -0.177 N 
ATOM      7  H3  UNL     1      11.388  -2.937  45.938  1.00  0.00     0.186 HD
HETATM    8  C6  UNL     1      13.395  -2.599  46.073  1.00  0.00     0.122 A 
HETATM    9  C7  UNL     1      14.440  -1.762  45.751  1.00  0.00     0.009 A 
ENDROOT
BRANCH   9  10
HETATM   10  C8  UNL     1      15.804  -2.060  46.152  1.00  0.00     0.046 C 
BRANCH  10  11
HETATM   11  C9  UNL     1      16.378  -1.174  47.222  1.00  0.00     0.025 C 
BRANCH  11  12
HETATM   12  C10 UNL     1      15.499  -1.049  48.424  1.00  0.00     0.128 C 
BRANCH  12  13
HETATM   13  N5  UNL     1      14.782   0.215  48.321  1.00  0.00    -0.366 N 
HETATM   14  C11 UNL     1      15.433   1.386  48.188  1.00  0.00     0.090 A 
HETATM   15  C12 UNL     1      14.783   2.609  48.087  1.00  0.00     0.017 A 
HETATM   16  C13 UNL     1      13.405   2.654  48.122  1.00  0.00     0.003 A 
HETATM   17  C14 UNL     1      12.734   1.456  48.258  1.00  0.00     0.017 A 
HETATM   18  C15 UNL     1      13.435   0.273  48.354  1.00  0.00     0.090 A 
ENDBRANCH  12  13
ENDBRANCH  11  12
ENDBRANCH  10  11
ENDBRANCH   9  10
BRANCH   8  19
HETATM   19  N4  UNL     1      13.658  -3.662  46.742  1.00  0.00    -0.385 N 
ATOM     20  H42 UNL     1      14.487  -3.662  47.335  1.00  0.00     0.157 HD
ATOM     21  H41 UNL     1      13.062  -4.489  46.690  1.00  0.00     0.157 HD
ENDBRANCH   8  19
BRANCH   5  22
HETATM   22  N2  UNL     1      10.642  -0.952  44.641  1.00  0.00    -0.224 N 
ATOM     23  H2  UNL     1      10.364  -1.052  43.665  1.00  0.00     0.177 HD
BRANCH  22  24
HETATM   24  C4  UNL     1       9.681  -0.528  45.622  1.00  0.00     0.164 C 
BRANCH  24  25
HETATM   25  C5  UNL     1       9.245   0.897  45.353  1.00  0.00     0.184 C 
BRANCH  25  26
HETATM   26  O1  UNL     1       8.275   0.919  44.368  1.00  0.00    -0.399 OA
ATOM     27  H1  UNL     1       7.771   0.113  44.389  1.00  0.00     0.209 HD
ENDBRANCH  25  26
ENDBRANCH  24  25
ENDBRANCH  22  24
ENDBRANCH   5  22
TORSDOF 9
ENDMDL
MODEL 5
REMARK VINA RESULT: -6.512507742      3.561      6.461
REMARK  9 active torsions:
REMARK  status: ('A' for Active; 'I' for Inactive)
REMARK    1  A    between atoms: C3_5  and  N2_6 
REMARK    2  A    between atoms: N2_6  and  C4_8 
REMARK    3  A    between atoms: C4_8  and  C5_9 
REMARK    4  A    between atoms: C5_9  and  O1_10 
REMARK    5  A    between atoms: C6_14  and  N4_15 
REMARK    6  A    between atoms: C7_18  and  C8_19 
REMARK    7  A    between atoms: C8_19  and  C9_20 
REMARK    8  A    between atoms: C9_20  and  C10_21 
REMARK    9  A    between atoms: C10_21  and  N5_22 
ROOT
HETATM    1  C1  UNL     1      11.651   1.731  49.634  1.00  0.00     0.069 C 
HETATM    2  C2  UNL     1      12.705   2.426  48.858  1.00  0.00     0.032 A 
HETATM    3  N1  UNL     1      13.723   3.051  49.510  1.00  0.00    -0.195 N 
ATOM      4  H1  UNL     1      13.764   3.042  50.530  1.00  0.00     0.184 HD
HETATM    5  C3  UNL     1      14.682   3.684  48.796  1.00  0.00     0.679 A 
HETATM    6  N3  UNL     1      14.611   3.684  47.471  1.00  0.00    -0.177 N 
ATOM      7  H3  UNL     1      15.337   4.164  46.940  1.00  0.00     0.186 HD
HETATM    8  C6  UNL     1      13.617   3.076  46.804  1.00  0.00     0.122 A 
HETATM    9  C7  UNL     1      12.620   2.418  47.490  1.00  0.00     0.009 A 
ENDROOT
BRANCH   9  10
HETATM   10  C8  UNL     1      11.533   1.750  46.795  1.00  0.00     0.046 C 
BRANCH  10  11
HETATM   11  C9  UNL     1      11.639   0.253  46.706  1.00  0.00     0.025 C 
BRANCH  11  12
HETATM   12  C10 UNL     1      12.454  -0.216  45.543  1.00  0.00     0.128 C 
BRANCH  12  13
HETATM   13  N5  UNL     1      13.733  -0.685  46.058  1.00  0.00    -0.366 N 
HETATM   14  C11 UNL     1      13.813  -1.438  47.170  1.00  0.00     0.090 A 
HETATM   15  C12 UNL     1      15.014  -1.902  47.690  1.00  0.00     0.017 A 
HETATM   16  C13 UNL     1      16.198  -1.591  47.053  1.00  0.00     0.003 A 
HETATM   17  C14 UNL     1      16.121  -0.819  45.912  1.00  0.00     0.017 A 
HETATM   18  C15 UNL     1      14.897  -0.388  45.445  1.00  0.00     0.090 A 
ENDBRANCH  12  13
ENDBRANCH  11  12
ENDBRANCH  10  11
ENDBRANCH   9  10
BRANCH   8  19
HETATM   19  N4  UNL     1      13.563   3.084  45.521  1.00  0.00    -0.385 N 
ATOM     20  H42 UNL     1      14.312   3.553  45.013  1.00  0.00     0.157 HD
ATOM     21  H41 UNL     1      12.798   2.638  45.015  1.00  0.00     0.157 HD
ENDBRANCH   8  19
BRANCH   5  22
HETATM   22  N2  UNL     1      15.652   4.278  49.403  1.00  0.00    -0.224 N 
ATOM     23  H2  UNL     1      15.990   5.179  49.064  1.00  0.00     0.177 HD
BRANCH  22  24
HETATM   24  C4  UNL     1      16.258   3.670  50.556  1.00  0.00     0.164 C 
BRANCH  24  25
HETATM   25  C5  UNL     1      16.911   4.724  51.426  1.00  0.00     0.184 C 
BRANCH  25  26
HETATM   26  O1  UNL     1      18.212   4.358  51.719  1.00  0.00    -0.399 OA
ATOM     27  H1  UNL     1      18.718   5.123  51.968  1.00  0.00     0.209 HD
ENDBRANCH  25  26
ENDBRANCH  24  25
ENDBRANCH  22  24
ENDBRANCH   5  22
TORSDOF 9
ENDMDL
