MODEL 1
REMARK VINA RESULT: -7.439690704      0.000      0.000
REMARK  4 active torsions:
REMARK  status: ('A' for Active; 'I' for Inactive)
REMARK    1  A    between atoms: C2_2  and  O1_3 
REMARK    2  A    between atoms: C2_2  and  C3_5 
REMARK    3  A    between atoms: C5_7  and  C6_8 
REMARK    4  A    between atoms: C6_8  and  C7_9 
ROOT
HETATM    1  C7  UNL     1      -4.051   3.549  13.106  1.00  0.00    -0.052 A 
HETATM    2  C8  UNL     1      -4.597   4.801  13.346  1.00  0.00     0.029 A 
HETATM    3  C9  UNL     1      -5.287   5.028  14.524  1.00  0.00     0.047 A 
HETATM    4 BR1  UNL     1      -6.061   6.750  14.904  1.00  0.00    -0.048 Br
HETATM    5  C10 UNL     1      -5.464   4.060  15.489  1.00  0.00     0.119 A 
HETATM    6  C11 UNL     1      -4.922   2.814  15.250  1.00  0.00     0.104 A 
HETATM    7  C12 UNL     1      -4.225   2.573  14.066  1.00  0.00     0.047 A 
HETATM    8  O2  UNL     1      -5.079   1.813  16.196  1.00  0.00    -0.346 OA
HETATM    9  C13 UNL     1      -6.061   2.013  17.198  1.00  0.00     0.202 C 
HETATM   10  C14 UNL     1      -5.854   3.408  17.753  1.00  0.00     0.202 C 
HETATM   11  O3  UNL     1      -6.162   4.304  16.671  1.00  0.00    -0.345 OA
ENDROOT
BRANCH   1  12
HETATM   12  C6  UNL     1      -3.298   3.248  11.852  1.00  0.00     0.062 C 
BRANCH  12  13
HETATM   13  C5  UNL     1      -2.630   4.530  11.416  1.00  0.00     0.113 C 
HETATM   14  C4  UNL     1      -1.138   4.277  11.405  1.00  0.00     0.060 C 
HETATM   15  C3  UNL     1      -0.742   4.882  10.069  1.00  0.00     0.177 C 
HETATM   16  O4  UNL     1      -1.852   5.641   9.706  1.00  0.00    -0.278 OA
HETATM   17  N1  UNL     1      -2.883   4.790  10.004  1.00  0.00    -0.095 NA
BRANCH  15  18
HETATM   18  C2  UNL     1       0.485   5.763  10.209  1.00  0.00     0.145 C 
HETATM   19  C1  UNL     1       1.577   5.358   9.265  1.00  0.00     0.042 C 
BRANCH  18  20
HETATM   20  O1  UNL     1       0.933   5.600  11.534  1.00  0.00    -0.393 OA
ATOM     21  H1  UNL     1       0.213   5.770  12.131  1.00  0.00     0.210 HD
ENDBRANCH  18  20
ENDBRANCH  15  18
ENDBRANCH  12  13
ENDBRANCH   1  12
TORSDOF 4
ENDMDL
MODEL 2
REMARK VINA RESULT: -7.257636207      2.955      6.643
REMARK  4 active torsions:
REMARK  status: ('A' for Active; 'I' for Inactive)
REMARK    1  A    between atoms: C2_2  and  O1_3 
REMARK    2  A    between atoms: C2_2  and  C3_5 
REMARK    3  A    between atoms: C5_7  and  C6_8 
REMARK    4  A    between atoms: C6_8  and  C7_9 
ROOT
HETATM    1  C7  UNL     1      -3.876   4.894  13.054  1.00  0.00    -0.052 A 
HETATM    2  C8  UNL     1      -2.709   5.174  12.361  1.00  0.00     0.029 A 
HETATM    3  C9  UNL     1      -2.190   4.230  11.491  1.00  0.00     0.047 A 
HETATM    4 BR1  UNL     1      -0.572   4.573  10.505  1.00  0.00    -0.048 Br
HETATM    5  C10 UNL     1      -2.783   3.006  11.272  1.00  0.00     0.119 A 
HETATM    6  C11 UNL     1      -3.945   2.726  11.962  1.00  0.00     0.104 A 
HETATM    7  C12 UNL     1      -4.476   3.669  12.841  1.00  0.00     0.047 A 
HETATM    8  O2  UNL     1      -4.571   1.505  11.770  1.00  0.00    -0.346 OA
HETATM    9  C13 UNL     1      -3.822   0.481  11.139  1.00  0.00     0.202 C 
HETATM   10  C14 UNL     1      -3.187   1.090   9.904  1.00  0.00     0.202 C 
HETATM   11  O3  UNL     1      -2.249   2.065  10.392  1.00  0.00    -0.345 OA
ENDROOT
BRANCH   1  12
HETATM   12  C6  UNL     1      -4.480   5.875  14.005  1.00  0.00     0.062 C 
BRANCH  12  13
HETATM   13  C5  UNL     1      -4.535   5.206  15.358  1.00  0.00     0.113 C 
HETATM   14  C4  UNL     1      -5.840   4.441  15.425  1.00  0.00     0.060 C 
HETATM   15  C3  UNL     1      -5.376   3.107  15.984  1.00  0.00     0.177 C 
HETATM   16  O4  UNL     1      -4.093   3.373  16.457  1.00  0.00    -0.278 OA
HETATM   17  N1  UNL     1      -3.566   4.119  15.436  1.00  0.00    -0.095 NA
BRANCH  15  18
HETATM   18  C2  UNL     1      -6.276   2.641  17.113  1.00  0.00     0.145 C 
HETATM   19  C1  UNL     1      -6.119   3.488  18.339  1.00  0.00     0.042 C 
BRANCH  18  20
HETATM   20  O1  UNL     1      -5.880   1.322  17.406  1.00  0.00    -0.393 OA
ATOM     21  H1  UNL     1      -5.019   1.335  17.808  1.00  0.00     0.210 HD
ENDBRANCH  18  20
ENDBRANCH  15  18
ENDBRANCH  12  13
ENDBRANCH   1  12
TORSDOF 4
ENDMDL
MODEL 3
REMARK VINA RESULT: -7.093242919      2.750      7.267
REMARK  4 active torsions:
REMARK  status: ('A' for Active; 'I' for Inactive)
REMARK    1  A    between atoms: C2_2  and  O1_3 
REMARK    2  A    between atoms: C2_2  and  C3_5 
REMARK    3  A    between atoms: C5_7  and  C6_8 
REMARK    4  A    between atoms: C6_8  and  C7_9 
ROOT
HETATM    1  C7  UNL     1      -3.107   5.890  13.356  1.00  0.00    -0.052 A 
HETATM    2  C8  UNL     1      -3.171   7.062  14.093  1.00  0.00     0.029 A 
HETATM    3  C9  UNL     1      -2.207   8.037  13.905  1.00  0.00     0.047 A 
HETATM    4 BR1  UNL     1      -2.253   9.683  14.903  1.00  0.00    -0.048 Br
HETATM    5  C10 UNL     1      -1.168   7.903  13.009  1.00  0.00     0.119 A 
HETATM    6  C11 UNL     1      -1.104   6.736  12.276  1.00  0.00     0.104 A 
HETATM    7  C12 UNL     1      -2.069   5.747  12.457  1.00  0.00     0.047 A 
HETATM    8  O2  UNL     1      -0.074   6.563  11.364  1.00  0.00    -0.346 OA
HETATM    9  C13 UNL     1       1.039   7.435  11.467  1.00  0.00     0.202 C 
HETATM   10  C14 UNL     1       0.492   8.845  11.573  1.00  0.00     0.202 C 
HETATM   11  O3  UNL     1      -0.204   8.895  12.831  1.00  0.00    -0.345 OA
ENDROOT
BRANCH   1  12
HETATM   12  C6  UNL     1      -4.120   4.804  13.518  1.00  0.00     0.062 C 
BRANCH  12  13
HETATM   13  C5  UNL     1      -4.208   4.496  14.993  1.00  0.00     0.113 C 
HETATM   14  C4  UNL     1      -5.472   3.690  15.208  1.00  0.00     0.060 C 
HETATM   15  C3  UNL     1      -4.966   2.573  16.104  1.00  0.00     0.177 C 
HETATM   16  O4  UNL     1      -3.725   3.033  16.539  1.00  0.00    -0.278 OA
HETATM   17  N1  UNL     1      -3.188   3.529  15.381  1.00  0.00    -0.095 NA
BRANCH  15  18
HETATM   18  C2  UNL     1      -5.896   2.351  17.282  1.00  0.00     0.145 C 
HETATM   19  C1  UNL     1      -7.306   2.747  16.964  1.00  0.00     0.042 C 
BRANCH  18  20
HETATM   20  O1  UNL     1      -5.408   3.166  18.322  1.00  0.00    -0.393 OA
ATOM     21  H1  UNL     1      -4.496   2.955  18.483  1.00  0.00     0.210 HD
ENDBRANCH  18  20
ENDBRANCH  15  18
ENDBRANCH  12  13
ENDBRANCH   1  12
TORSDOF 4
ENDMDL
MODEL 4
REMARK VINA RESULT: -6.953463635      4.062      5.204
REMARK  4 active torsions:
REMARK  status: ('A' for Active; 'I' for Inactive)
REMARK    1  A    between atoms: C2_2  and  O1_3 
REMARK    2  A    between atoms: C2_2  and  C3_5 
REMARK    3  A    between atoms: C5_7  and  C6_8 
REMARK    4  A    between atoms: C6_8  and  C7_9 
ROOT
HETATM    1  C7  UNL     1      -3.781   5.166  11.313  1.00  0.00    -0.052 A 
HETATM    2  C8  UNL     1      -3.904   3.854  10.881  1.00  0.00     0.029 A 
HETATM    3  C9  UNL     1      -4.073   2.844  11.812  1.00  0.00     0.047 A 
HETATM    4 BR1  UNL     1      -4.250   1.007  11.263  1.00  0.00    -0.048 Br
HETATM    5  C10 UNL     1      -4.126   3.076  13.170  1.00  0.00     0.119 A 
HETATM    6  C11 UNL     1      -4.002   4.382  13.600  1.00  0.00     0.104 A 
HETATM    7  C12 UNL     1      -3.832   5.407  12.671  1.00  0.00     0.047 A 
HETATM    8  O2  UNL     1      -4.050   4.656  14.958  1.00  0.00    -0.346 OA
HETATM    9  C13 UNL     1      -3.889   3.565  15.848  1.00  0.00     0.202 C 
HETATM   10  C14 UNL     1      -4.813   2.461  15.373  1.00  0.00     0.202 C 
HETATM   11  O3  UNL     1      -4.296   2.047  14.096  1.00  0.00    -0.345 OA
ENDROOT
BRANCH   1  12
HETATM   12  C6  UNL     1      -3.596   6.295  10.352  1.00  0.00     0.062 C 
BRANCH  12  13
HETATM   13  C5  UNL     1      -4.846   7.141  10.416  1.00  0.00     0.113 C 
HETATM   14  C4  UNL     1      -4.496   8.499   9.847  1.00  0.00     0.060 C 
HETATM   15  C3  UNL     1      -5.674   8.747   8.921  1.00  0.00     0.177 C 
HETATM   16  O4  UNL     1      -6.612   7.795   9.312  1.00  0.00    -0.278 OA
HETATM   17  N1  UNL     1      -5.834   6.676   9.450  1.00  0.00    -0.095 NA
BRANCH  15  18
HETATM   18  C2  UNL     1      -6.228  10.148   9.101  1.00  0.00     0.145 C 
HETATM   19  C1  UNL     1      -6.730  10.377  10.495  1.00  0.00     0.042 C 
BRANCH  18  20
HETATM   20  O1  UNL     1      -7.302  10.260   8.197  1.00  0.00    -0.393 OA
ATOM     21  H1  UNL     1      -7.001  10.694   7.406  1.00  0.00     0.210 HD
ENDBRANCH  18  20
ENDBRANCH  15  18
ENDBRANCH  12  13
ENDBRANCH   1  12
TORSDOF 4
ENDMDL
MODEL 5
REMARK VINA RESULT: -6.952371485      3.962      7.366
REMARK  4 active torsions:
REMARK  status: ('A' for Active; 'I' for Inactive)
REMARK    1  A    between atoms: C2_2  and  O1_3 
REMARK    2  A    between atoms: C2_2  and  C3_5 
REMARK    3  A    between atoms: C5_7  and  C6_8 
REMARK    4  A    between atoms: C6_8  and  C7_9 
ROOT
HETATM    1  C7  UNL     1      -2.625   6.073  13.313  1.00  0.00    -0.052 A 
HETATM    2  C8  UNL     1      -1.615   6.232  12.377  1.00  0.00     0.029 A 
HETATM    3  C9  UNL     1      -0.943   7.440  12.299  1.00  0.00     0.047 A 
HETATM    4 BR1  UNL     1       0.468   7.709  11.017  1.00  0.00    -0.048 Br
HETATM    5  C10 UNL     1      -1.230   8.512  13.116  1.00  0.00     0.119 A 
HETATM    6  C11 UNL     1      -2.236   8.354  14.047  1.00  0.00     0.104 A 
HETATM    7  C12 UNL     1      -2.920   7.142  14.135  1.00  0.00     0.047 A 
HETATM    8  O2  UNL     1      -2.554   9.410  14.887  1.00  0.00    -0.346 OA
HETATM    9  C13 UNL     1      -2.069  10.693  14.532  1.00  0.00     0.202 C 
HETATM   10  C14 UNL     1      -0.596  10.539  14.208  1.00  0.00     0.202 C 
HETATM   11  O3  UNL     1      -0.544   9.723  13.025  1.00  0.00    -0.345 OA
ENDROOT
BRANCH   1  12
HETATM   12  C6  UNL     1      -3.383   4.792  13.441  1.00  0.00     0.062 C 
BRANCH  12  13
HETATM   13  C5  UNL     1      -3.876   4.708  14.866  1.00  0.00     0.113 C 
HETATM   14  C4  UNL     1      -5.316   4.243  14.814  1.00  0.00     0.060 C 
HETATM   15  C3  UNL     1      -5.322   3.169  15.888  1.00  0.00     0.177 C 
HETATM   16  O4  UNL     1      -4.136   3.390  16.586  1.00  0.00    -0.278 OA
HETATM   17  N1  UNL     1      -3.245   3.597  15.567  1.00  0.00    -0.095 NA
BRANCH  15  18
HETATM   18  C2  UNL     1      -6.519   3.319  16.808  1.00  0.00     0.145 C 
HETATM   19  C1  UNL     1      -6.110   3.666  18.207  1.00  0.00     0.042 C 
BRANCH  18  20
HETATM   20  O1  UNL     1      -7.165   2.067  16.810  1.00  0.00    -0.393 OA
ATOM     21  H1  UNL     1      -7.565   1.923  17.660  1.00  0.00     0.210 HD
ENDBRANCH  18  20
ENDBRANCH  15  18
ENDBRANCH  12  13
ENDBRANCH   1  12
TORSDOF 4
ENDMDL
