MODEL 1
REMARK VINA RESULT: -7.989684077      0.000      0.000
REMARK  6 active torsions:
REMARK  status: ('A' for Active; 'I' for Inactive)
REMARK    1  A    between atoms: O1_1  and  C1_3 
REMARK    2  A    between atoms: C1_3  and  N1_4 
REMARK    3  A    between atoms: C1_3  and  C7_14 
REMARK       I    between atoms: N1_4  and  C2_6 
REMARK       I    between atoms: C2_6  and  N2_8 
REMARK    4  A    between atoms: C7_14  and  C8_15 
REMARK    5  A    between atoms: C7_14  and  C15_25 
REMARK       I    between atoms: C8_15  and  N3_17 
REMARK    6  A    between atoms: N3_17  and  C9_19 
ROOT
HETATM    1  C7  UNL     1      -3.141   5.488  12.004  1.00  0.00     0.158 C 
ENDROOT
BRANCH   1   2
HETATM    2  C1  UNL     1      -3.191   5.704  13.476  1.00  0.00     0.133 C 
BRANCH   2   3
HETATM    3  O1  UNL     1      -2.509   6.713  13.939  1.00  0.00    -0.349 OA
ATOM      4  H1  UNL     1      -1.641   6.511  14.265  1.00  0.00     0.219 HD
ENDBRANCH   2   3
BRANCH   2   5
HETATM    5  N1  UNL     1      -3.881   4.959  14.420  1.00  0.00    -0.292 N 
HETATM    6  C2  UNL     1      -5.196   5.057  14.881  1.00  0.00     0.324 C 
HETATM    7  O2  UNL     1      -5.988   5.928  14.468  1.00  0.00    -0.247 OA
HETATM    8  N2  UNL     1      -5.733   4.160  15.868  1.00  0.00    -0.330 N 
HETATM    9  C3  UNL     1      -4.862   3.131  16.372  1.00  0.00     0.153 C 
HETATM   10  C6  UNL     1      -7.083   4.286  16.334  1.00  0.00     0.153 C 
HETATM   11  C4  UNL     1      -5.553   2.134  17.262  1.00  0.00     0.187 C 
HETATM   12  O3  UNL     1      -6.865   1.959  16.760  1.00  0.00    -0.388 OA
HETATM   13  C5  UNL     1      -7.547   3.104  17.114  1.00  0.00     0.187 C 
ATOM     14  H1  UNL     1      -3.336   4.211  14.851  1.00  0.00     0.172 HD
ENDBRANCH   2   5
ENDBRANCH   1   2
BRANCH   1  15
HETATM   15  C8  UNL     1      -4.216   6.169  11.270  1.00  0.00     0.230 C 
HETATM   16  O4  UNL     1      -4.908   5.490  10.438  1.00  0.00    -0.273 OA
HETATM   17  N3  UNL     1      -4.541   7.526  11.423  1.00  0.00    -0.356 N 
ATOM     18  H3  UNL     1      -4.010   8.100  12.078  1.00  0.00     0.162 HD
BRANCH  17  19
HETATM   19  C9  UNL     1      -5.642   8.134  10.646  1.00  0.00     0.084 C 
HETATM   20  C10 UNL     1      -5.008   8.985   9.602  1.00  0.00     0.025 C 
HETATM   21  C11 UNL     1      -5.966   9.883   8.874  1.00  0.00     0.002 C 
HETATM   22  C12 UNL     1      -7.242  10.126   9.635  1.00  0.00     0.000 C 
HETATM   23  C13 UNL     1      -7.005  10.189  11.127  1.00  0.00     0.002 C 
HETATM   24  C14 UNL     1      -6.539   8.854  11.590  1.00  0.00     0.025 C 
ENDBRANCH  17  19
ENDBRANCH   1  15
BRANCH   1  25
HETATM   25  C15 UNL     1      -1.779   6.040  11.562  1.00  0.00     0.025 C 
HETATM   26  C16 UNL     1      -1.748   6.536  10.170  1.00  0.00     0.007 C 
HETATM   27  C17 UNL     1      -0.487   6.022   9.524  1.00  0.00     0.002 C 
HETATM   28  C18 UNL     1       0.348   5.436  10.670  1.00  0.00     0.020 C 
HETATM   29  C19 UNL     1      -0.713   4.991  11.671  1.00  0.00     0.087 C 
HETATM   30 CL1  UNL     1      -1.303   3.390  11.111  1.00  0.00    -0.125 Cl
ENDBRANCH   1  25
TORSDOF 6
ENDMDL
MODEL 2
REMARK VINA RESULT: -7.890839034      3.276      4.682
REMARK  6 active torsions:
REMARK  status: ('A' for Active; 'I' for Inactive)
REMARK    1  A    between atoms: O1_1  and  C1_3 
REMARK    2  A    between atoms: C1_3  and  N1_4 
REMARK    3  A    between atoms: C1_3  and  C7_14 
REMARK       I    between atoms: N1_4  and  C2_6 
REMARK       I    between atoms: C2_6  and  N2_8 
REMARK    4  A    between atoms: C7_14  and  C8_15 
REMARK    5  A    between atoms: C7_14  and  C15_25 
REMARK       I    between atoms: C8_15  and  N3_17 
REMARK    6  A    between atoms: N3_17  and  C9_19 
ROOT
HETATM    1  C7  UNL     1      -2.848   4.412  11.739  1.00  0.00     0.158 C 
ENDROOT
BRANCH   1   2
HETATM    2  C1  UNL     1      -3.218   5.021  13.046  1.00  0.00     0.133 C 
BRANCH   2   3
HETATM    3  O1  UNL     1      -2.847   6.255  13.239  1.00  0.00    -0.349 OA
ATOM      4  H1  UNL     1      -3.267   6.904  12.688  1.00  0.00     0.219 HD
ENDBRANCH   2   3
BRANCH   2   5
HETATM    5  N1  UNL     1      -3.918   4.431  14.088  1.00  0.00    -0.292 N 
HETATM    6  C2  UNL     1      -5.159   4.740  14.649  1.00  0.00     0.324 C 
HETATM    7  O2  UNL     1      -5.856   5.694  14.249  1.00  0.00    -0.247 OA
HETATM    8  N2  UNL     1      -5.723   3.980  15.731  1.00  0.00    -0.330 N 
HETATM    9  C3  UNL     1      -4.962   2.863  16.225  1.00  0.00     0.153 C 
HETATM   10  C6  UNL     1      -6.996   4.323  16.298  1.00  0.00     0.153 C 
HETATM   11  C4  UNL     1      -5.701   2.022  17.229  1.00  0.00     0.187 C 
HETATM   12  O3  UNL     1      -7.065   2.013  16.849  1.00  0.00    -0.388 OA
HETATM   13  C5  UNL     1      -7.546   3.260  17.185  1.00  0.00     0.187 C 
ATOM     14  H1  UNL     1      -3.445   3.636  14.518  1.00  0.00     0.172 HD
ENDBRANCH   2   5
ENDBRANCH   1   2
BRANCH   1  15
HETATM   15  C8  UNL     1      -1.516   4.806  11.260  1.00  0.00     0.230 C 
HETATM   16  O4  UNL     1      -0.516   4.633  12.037  1.00  0.00    -0.273 OA
HETATM   17  N3  UNL     1      -1.262   5.363   9.997  1.00  0.00    -0.356 N 
ATOM     18  H3  UNL     1      -2.036   5.517   9.350  1.00  0.00     0.162 HD
BRANCH  17  19
HETATM   19  C9  UNL     1       0.111   5.729   9.592  1.00  0.00     0.084 C 
HETATM   20  C10 UNL     1       0.290   7.165   9.944  1.00  0.00     0.025 C 
HETATM   21  C11 UNL     1       1.535   7.787   9.379  1.00  0.00     0.002 C 
HETATM   22  C12 UNL     1       2.088   7.034   8.199  1.00  0.00     0.000 C 
HETATM   23  C13 UNL     1       0.991   6.436   7.347  1.00  0.00     0.002 C 
HETATM   24  C14 UNL     1       0.276   5.407   8.149  1.00  0.00     0.025 C 
ENDBRANCH  17  19
ENDBRANCH   1  15
BRANCH   1  25
HETATM   25  C15 UNL     1      -2.889   2.896  11.975  1.00  0.00     0.025 C 
HETATM   26  C16 UNL     1      -2.298   2.096  10.882  1.00  0.00     0.007 C 
HETATM   27  C17 UNL     1      -3.226   0.943  10.598  1.00  0.00     0.002 C 
HETATM   28  C18 UNL     1      -4.243   0.948  11.747  1.00  0.00     0.020 C 
HETATM   29  C19 UNL     1      -4.300   2.418  12.147  1.00  0.00     0.087 C 
HETATM   30 CL1  UNL     1      -5.414   3.218  10.987  1.00  0.00    -0.125 Cl
ENDBRANCH   1  25
TORSDOF 6
ENDMDL
MODEL 3
REMARK VINA RESULT: -7.848689902      3.080      3.577
REMARK  6 active torsions:
REMARK  status: ('A' for Active; 'I' for Inactive)
REMARK    1  A    between atoms: O1_1  and  C1_3 
REMARK    2  A    between atoms: C1_3  and  N1_4 
REMARK    3  A    between atoms: C1_3  and  C7_14 
REMARK       I    between atoms: N1_4  and  C2_6 
REMARK       I    between atoms: C2_6  and  N2_8 
REMARK    4  A    between atoms: C7_14  and  C8_15 
REMARK    5  A    between atoms: C7_14  and  C15_25 
REMARK       I    between atoms: C8_15  and  N3_17 
REMARK    6  A    between atoms: N3_17  and  C9_19 
ROOT
HETATM    1  C7  UNL     1      -2.916   6.437  13.057  1.00  0.00     0.158 C 
ENDROOT
BRANCH   1   2
HETATM    2  C1  UNL     1      -2.621   5.702  14.319  1.00  0.00     0.133 C 
BRANCH   2   3
HETATM    3  O1  UNL     1      -1.402   5.788  14.770  1.00  0.00    -0.349 OA
ATOM      4  H1  UNL     1      -0.810   5.099  14.494  1.00  0.00     0.219 HD
ENDBRANCH   2   3
BRANCH   2   5
HETATM    5  N1  UNL     1      -3.493   4.935  15.077  1.00  0.00    -0.292 N 
HETATM    6  C2  UNL     1      -4.853   5.096  15.351  1.00  0.00     0.324 C 
HETATM    7  O2  UNL     1      -5.515   6.058  14.913  1.00  0.00    -0.247 OA
HETATM    8  N2  UNL     1      -5.589   4.163  16.160  1.00  0.00    -0.330 N 
HETATM    9  C3  UNL     1      -4.873   3.030  16.684  1.00  0.00     0.153 C 
HETATM   10  C6  UNL     1      -6.984   4.355  16.436  1.00  0.00     0.153 C 
HETATM   11  C4  UNL     1      -5.753   2.018  17.365  1.00  0.00     0.187 C 
HETATM   12  O3  UNL     1      -6.983   1.990  16.665  1.00  0.00    -0.388 OA
HETATM   13  C5  UNL     1      -7.635   3.150  17.024  1.00  0.00     0.187 C 
ATOM     14  H1  UNL     1      -3.069   4.114  15.509  1.00  0.00     0.172 HD
ENDBRANCH   2   5
ENDBRANCH   1   2
BRANCH   1  15
HETATM   15  C8  UNL     1      -2.862   7.898  13.199  1.00  0.00     0.230 C 
HETATM   16  O4  UNL     1      -3.824   8.590  12.721  1.00  0.00    -0.273 OA
HETATM   17  N3  UNL     1      -1.817   8.593  13.828  1.00  0.00    -0.356 N 
ATOM     18  H3  UNL     1      -1.032   8.074  14.221  1.00  0.00     0.162 HD
BRANCH  17  19
HETATM   19  C9  UNL     1      -1.841  10.067  13.930  1.00  0.00     0.084 C 
HETATM   20  C10 UNL     1      -0.919  10.582  12.881  1.00  0.00     0.025 C 
HETATM   21  C11 UNL     1      -0.616  12.048  12.992  1.00  0.00     0.002 C 
HETATM   22  C12 UNL     1      -0.873  12.601  14.369  1.00  0.00     0.000 C 
HETATM   23  C13 UNL     1      -0.550  11.595  15.451  1.00  0.00     0.002 C 
HETATM   24  C14 UNL     1      -1.487  10.446  15.325  1.00  0.00     0.025 C 
ENDBRANCH  17  19
ENDBRANCH   1  15
BRANCH   1  25
HETATM   25  C15 UNL     1      -1.847   5.970  12.060  1.00  0.00     0.025 C 
HETATM   26  C16 UNL     1      -1.718   6.827  10.863  1.00  0.00     0.007 C 
HETATM   27  C17 UNL     1      -1.627   5.928   9.658  1.00  0.00     0.002 C 
HETATM   28  C18 UNL     1      -1.434   4.513  10.219  1.00  0.00     0.020 C 
HETATM   29  C19 UNL     1      -2.139   4.583  11.570  1.00  0.00     0.087 C 
HETATM   30 CL1  UNL     1      -3.890   4.353  11.243  1.00  0.00    -0.125 Cl
ENDBRANCH   1  25
TORSDOF 6
ENDMDL
MODEL 4
REMARK VINA RESULT: -7.838547008      0.953      1.334
REMARK  6 active torsions:
REMARK  status: ('A' for Active; 'I' for Inactive)
REMARK    1  A    between atoms: O1_1  and  C1_3 
REMARK    2  A    between atoms: C1_3  and  N1_4 
REMARK    3  A    between atoms: C1_3  and  C7_14 
REMARK       I    between atoms: N1_4  and  C2_6 
REMARK       I    between atoms: C2_6  and  N2_8 
REMARK    4  A    between atoms: C7_14  and  C8_15 
REMARK    5  A    between atoms: C7_14  and  C15_25 
REMARK       I    between atoms: C8_15  and  N3_17 
REMARK    6  A    between atoms: N3_17  and  C9_19 
ROOT
HETATM    1  C7  UNL     1      -2.991   6.003  12.146  1.00  0.00     0.158 C 
ENDROOT
BRANCH   1   2
HETATM    2  C1  UNL     1      -2.792   5.829  13.612  1.00  0.00     0.133 C 
BRANCH   2   3
HETATM    3  O1  UNL     1      -1.794   6.474  14.144  1.00  0.00    -0.349 OA
ATOM      4  H1  UNL     1      -1.846   6.616  15.081  1.00  0.00     0.219 HD
ENDBRANCH   2   3
BRANCH   2   5
HETATM    5  N1  UNL     1      -3.549   5.061  14.484  1.00  0.00    -0.292 N 
HETATM    6  C2  UNL     1      -4.843   5.242  14.977  1.00  0.00     0.324 C 
HETATM    7  O2  UNL     1      -5.544   6.227  14.673  1.00  0.00    -0.247 OA
HETATM    8  N2  UNL     1      -5.461   4.304  15.874  1.00  0.00    -0.330 N 
HETATM    9  C3  UNL     1      -4.697   3.144  16.251  1.00  0.00     0.153 C 
HETATM   10  C6  UNL     1      -6.788   4.515  16.375  1.00  0.00     0.153 C 
HETATM   11  C4  UNL     1      -5.479   2.133  17.043  1.00  0.00     0.187 C 
HETATM   12  O3  UNL     1      -6.807   2.146  16.551  1.00  0.00    -0.388 OA
HETATM   13  C5  UNL     1      -7.365   3.310  17.035  1.00  0.00     0.187 C 
ATOM     14  H1  UNL     1      -3.080   4.221  14.824  1.00  0.00     0.172 HD
ENDBRANCH   2   5
ENDBRANCH   1   2
BRANCH   1  15
HETATM   15  C8  UNL     1      -3.713   7.231  11.789  1.00  0.00     0.230 C 
HETATM   16  O4  UNL     1      -3.304   8.339  12.276  1.00  0.00    -0.273 OA
HETATM   17  N3  UNL     1      -4.831   7.273  10.942  1.00  0.00    -0.356 N 
ATOM     18  H3  UNL     1      -5.187   6.408  10.535  1.00  0.00     0.162 HD
BRANCH  17  19
HETATM   19  C9  UNL     1      -5.500   8.554  10.631  1.00  0.00     0.084 C 
HETATM   20  C10 UNL     1      -6.572   8.733  11.648  1.00  0.00     0.025 C 
HETATM   21  C11 UNL     1      -7.526   9.853  11.349  1.00  0.00     0.002 C 
HETATM   22  C12 UNL     1      -7.536  10.246   9.895  1.00  0.00     0.000 C 
HETATM   23  C13 UNL     1      -7.333   9.055   8.987  1.00  0.00     0.002 C 
HETATM   24  C14 UNL     1      -5.968   8.508   9.220  1.00  0.00     0.025 C 
ENDBRANCH  17  19
ENDBRANCH   1  15
BRANCH   1  25
HETATM   25  C15 UNL     1      -1.576   6.039  11.550  1.00  0.00     0.025 C 
HETATM   26  C16 UNL     1      -1.501   6.639  10.202  1.00  0.00     0.007 C 
HETATM   27  C17 UNL     1      -0.621   5.760   9.353  1.00  0.00     0.002 C 
HETATM   28  C18 UNL     1       0.033   4.773  10.330  1.00  0.00     0.020 C 
HETATM   29  C19 UNL     1      -1.004   4.657  11.441  1.00  0.00     0.087 C 
HETATM   30 CL1  UNL     1      -2.232   3.477  10.871  1.00  0.00    -0.125 Cl
ENDBRANCH   1  25
TORSDOF 6
ENDMDL
MODEL 5
REMARK VINA RESULT: -7.804143525      2.496      7.044
REMARK  6 active torsions:
REMARK  status: ('A' for Active; 'I' for Inactive)
REMARK    1  A    between atoms: O1_1  and  C1_3 
REMARK    2  A    between atoms: C1_3  and  N1_4 
REMARK    3  A    between atoms: C1_3  and  C7_14 
REMARK       I    between atoms: N1_4  and  C2_6 
REMARK       I    between atoms: C2_6  and  N2_8 
REMARK    4  A    between atoms: C7_14  and  C8_15 
REMARK    5  A    between atoms: C7_14  and  C15_25 
REMARK       I    between atoms: C8_15  and  N3_17 
REMARK    6  A    between atoms: N3_17  and  C9_19 
ROOT
HETATM    1  C7  UNL     1      -3.646   4.172  12.197  1.00  0.00     0.158 C 
ENDROOT
BRANCH   1   2
HETATM    2  C1  UNL     1      -4.385   5.162  11.365  1.00  0.00     0.133 C 
BRANCH   2   3
HETATM    3  O1  UNL     1      -5.462   4.732  10.771  1.00  0.00    -0.349 OA
ATOM      4  H1  UNL     1      -5.795   5.282  10.072  1.00  0.00     0.219 HD
ENDBRANCH   2   3
BRANCH   2   5
HETATM    5  N1  UNL     1      -4.066   6.493  11.148  1.00  0.00    -0.292 N 
HETATM    6  C2  UNL     1      -4.806   7.532  10.579  1.00  0.00     0.324 C 
HETATM    7  O2  UNL     1      -5.961   7.367  10.136  1.00  0.00    -0.247 OA
HETATM    8  N2  UNL     1      -4.290   8.868  10.461  1.00  0.00    -0.330 N 
HETATM    9  C3  UNL     1      -2.964   9.114  10.964  1.00  0.00     0.153 C 
HETATM   10  C6  UNL     1      -5.065   9.917   9.864  1.00  0.00     0.153 C 
HETATM   11  C4  UNL     1      -2.574  10.566  10.963  1.00  0.00     0.187 C 
HETATM   12  O3  UNL     1      -3.740  11.316  11.252  1.00  0.00    -0.388 OA
HETATM   13  C5  UNL     1      -4.497  11.274  10.101  1.00  0.00     0.187 C 
ATOM     14  H1  UNL     1      -3.131   6.760  11.457  1.00  0.00     0.172 HD
ENDBRANCH   2   5
ENDBRANCH   1   2
BRANCH   1  15
HETATM   15  C8  UNL     1      -3.906   4.298  13.637  1.00  0.00     0.230 C 
HETATM   16  O4  UNL     1      -3.036   4.887  14.363  1.00  0.00    -0.273 OA
HETATM   17  N3  UNL     1      -5.058   3.812  14.277  1.00  0.00    -0.356 N 
ATOM     18  H3  UNL     1      -5.775   3.335  13.730  1.00  0.00     0.162 HD
BRANCH  17  19
HETATM   19  C9  UNL     1      -5.244   3.983  15.733  1.00  0.00     0.084 C 
HETATM   20  C10 UNL     1      -5.348   2.616  16.313  1.00  0.00     0.025 C 
HETATM   21  C11 UNL     1      -5.793   2.587  17.747  1.00  0.00     0.002 C 
HETATM   22  C12 UNL     1      -6.510   3.843  18.168  1.00  0.00     0.000 C 
HETATM   23  C13 UNL     1      -7.342   4.421  17.045  1.00  0.00     0.002 C 
HETATM   24  C14 UNL     1      -6.428   4.856  15.955  1.00  0.00     0.025 C 
ENDBRANCH  17  19
ENDBRANCH   1  15
BRANCH   1  25
HETATM   25  C15 UNL     1      -4.117   2.798  11.701  1.00  0.00     0.025 C 
HETATM   26  C16 UNL     1      -4.177   1.761  12.753  1.00  0.00     0.007 C 
HETATM   27  C17 UNL     1      -3.566   0.502  12.196  1.00  0.00     0.002 C 
HETATM   28  C18 UNL     1      -3.394   0.762  10.693  1.00  0.00     0.020 C 
HETATM   29  C19 UNL     1      -3.209   2.273  10.628  1.00  0.00     0.087 C 
HETATM   30 CL1  UNL     1      -1.483   2.592  11.010  1.00  0.00    -0.125 Cl
ENDBRANCH   1  25
TORSDOF 6
ENDMDL
