MODEL 1
REMARK VINA RESULT: -8.160046948      0.000      0.000
REMARK  4 active torsions:
REMARK  status: ('A' for Active; 'I' for Inactive)
REMARK    1  A    between atoms: N1_3  and  C3_4 
REMARK    2  A    between atoms: C3_4  and  C4_5 
REMARK    3  A    between atoms: C4_5  and  N2_6 
REMARK       I    between atoms: N4_19  and  C14_20 
REMARK       I    between atoms: C14_20  and  N5_22 
REMARK    4  A    between atoms: N5_22  and  C15_24 
ROOT
HETATM    1  C1  UNL     1      -2.859   7.546   9.843  1.00  0.00     0.041 C 
HETATM    2  C2  UNL     1      -2.159   6.505  10.230  1.00  0.00     0.035 C 
HETATM    3  N1  UNL     1      -0.784   6.306  10.001  1.00  0.00    -0.381 N 
HETATM    4  C10 UNL     1      -0.490   4.898  10.140  1.00  0.00     0.126 C 
HETATM    5  C11 UNL     1      -1.779   4.222  10.508  1.00  0.00     0.067 C 
HETATM    6  C12 UNL     1      -2.655   5.326  10.997  1.00  0.00     0.131 C 
HETATM    7  C13 UNL     1      -2.593   5.557  12.463  1.00  0.00     0.184 C 
HETATM    8  N4  UNL     1      -3.781   4.877  12.996  1.00  0.00    -0.242 N 
HETATM    9  C14 UNL     1      -4.040   4.732  14.394  1.00  0.00     0.327 C 
HETATM   10  O1  UNL     1      -3.237   5.173  15.261  1.00  0.00    -0.247 OA
HETATM   11  N5  UNL     1      -5.208   4.090  14.850  1.00  0.00    -0.338 N 
ATOM     12  H5  UNL     1      -5.875   3.720  14.172  1.00  0.00     0.164 HD
HETATM   13  C20 UNL     1      -4.515   4.452  11.870  1.00  0.00     0.372 C 
HETATM   14  O2  UNL     1      -5.459   3.620  11.896  1.00  0.00    -0.238 OA
HETATM   15  O3  UNL     1      -4.024   5.101  10.729  1.00  0.00    -0.284 OA
ENDROOT
BRANCH   3  16
HETATM   16  C3  UNL     1       0.239   7.289   9.666  1.00  0.00     0.142 C 
BRANCH  16  17
HETATM   17  C4  UNL     1       0.826   7.727  10.985  1.00  0.00     0.140 C 
BRANCH  17  18
HETATM   18  N2  UNL     1       0.252   8.925  11.503  1.00  0.00    -0.378 N 
HETATM   19  C5  UNL     1      -0.603   9.029  12.437  1.00  0.00     0.072 C 
HETATM   20  C6  UNL     1      -1.517   9.140  13.437  1.00  0.00     0.076 C 
HETATM   21  N3  UNL     1      -0.590  10.745  12.144  1.00  0.00    -0.380 N 
HETATM   22  C7  UNL     1      -1.126  10.137  14.544  1.00  0.00     0.009 C 
HETATM   23  C8  UNL     1      -1.854  11.425  14.087  1.00  0.00     0.020 C 
HETATM   24  C9  UNL     1      -1.719  11.407  12.542  1.00  0.00     0.121 C 
ATOM     25  H3  UNL     1       0.200  11.220  11.707  1.00  0.00     0.160 HD
ATOM     26  H2  UNL     1       0.562   9.797  11.074  1.00  0.00     0.160 HD
ENDBRANCH  17  18
ENDBRANCH  16  17
ENDBRANCH   3  16
BRANCH  11  27
HETATM   27  C15 UNL     1      -5.484   3.943  16.288  1.00  0.00     0.086 C 
HETATM   28  C16 UNL     1      -6.970   4.148  16.463  1.00  0.00     0.025 C 
HETATM   29  C17 UNL     1      -7.523   2.865  17.019  1.00  0.00     0.002 C 
HETATM   30  C18 UNL     1      -6.338   2.183  17.624  1.00  0.00     0.002 C 
HETATM   31  C19 UNL     1      -5.195   2.527  16.676  1.00  0.00     0.025 C 
ENDBRANCH  11  27
TORSDOF 4
ENDMDL
MODEL 2
REMARK VINA RESULT: -8.050682299      0.789      1.019
REMARK  4 active torsions:
REMARK  status: ('A' for Active; 'I' for Inactive)
REMARK    1  A    between atoms: N1_3  and  C3_4 
REMARK    2  A    between atoms: C3_4  and  C4_5 
REMARK    3  A    between atoms: C4_5  and  N2_6 
REMARK       I    between atoms: N4_19  and  C14_20 
REMARK       I    between atoms: C14_20  and  N5_22 
REMARK    4  A    between atoms: N5_22  and  C15_24 
ROOT
HETATM    1  C1  UNL     1      -3.199   6.835   9.210  1.00  0.00     0.041 C 
HETATM    2  C2  UNL     1      -2.312   6.047   9.773  1.00  0.00     0.035 C 
HETATM    3  N1  UNL     1      -0.917   6.119   9.594  1.00  0.00    -0.381 N 
HETATM    4  C10 UNL     1      -0.336   4.850   9.969  1.00  0.00     0.126 C 
HETATM    5  C11 UNL     1      -1.467   3.977  10.430  1.00  0.00     0.067 C 
HETATM    6  C12 UNL     1      -2.580   4.926  10.719  1.00  0.00     0.131 C 
HETATM    7  C13 UNL     1      -2.637   5.397  12.127  1.00  0.00     0.184 C 
HETATM    8  N4  UNL     1      -3.676   4.568  12.752  1.00  0.00    -0.242 N 
HETATM    9  C14 UNL     1      -3.962   4.595  14.153  1.00  0.00     0.327 C 
HETATM   10  O1  UNL     1      -3.314   5.333  14.942  1.00  0.00    -0.247 OA
HETATM   11  N5  UNL     1      -4.987   3.794  14.696  1.00  0.00    -0.338 N 
ATOM     12  H5  UNL     1      -5.527   3.185  14.082  1.00  0.00     0.164 HD
HETATM   13  C20 UNL     1      -4.248   3.818  11.706  1.00  0.00     0.372 C 
HETATM   14  O2  UNL     1      -4.994   2.816  11.859  1.00  0.00    -0.238 OA
HETATM   15  O3  UNL     1      -3.855   4.367  10.478  1.00  0.00    -0.284 OA
ENDROOT
BRANCH   3  16
HETATM   16  C3  UNL     1      -0.112   7.235   9.111  1.00  0.00     0.142 C 
BRANCH  16  17
HETATM   17  C4  UNL     1       0.586   7.787  10.330  1.00  0.00     0.140 C 
BRANCH  17  18
HETATM   18  N2  UNL     1      -0.302   8.190  11.370  1.00  0.00    -0.378 N 
HETATM   19  C5  UNL     1      -0.123   9.116  12.221  1.00  0.00     0.072 C 
HETATM   20  C6  UNL     1       0.068  10.108  13.131  1.00  0.00     0.076 C 
HETATM   21  N3  UNL     1      -1.651   8.657  12.917  1.00  0.00    -0.380 N 
HETATM   22  C7  UNL     1      -1.098  11.109  13.232  1.00  0.00     0.009 C 
HETATM   23  C8  UNL     1      -1.914  10.534  14.415  1.00  0.00     0.020 C 
HETATM   24  C9  UNL     1      -1.812   8.998  14.233  1.00  0.00     0.121 C 
ATOM     25  H3  UNL     1      -2.372   8.170  12.384  1.00  0.00     0.160 HD
ATOM     26  H2  UNL     1      -1.181   7.676  11.439  1.00  0.00     0.160 HD
ENDBRANCH  17  18
ENDBRANCH  16  17
ENDBRANCH   3  16
BRANCH  11  27
HETATM   27  C15 UNL     1      -5.291   3.823  16.136  1.00  0.00     0.086 C 
HETATM   28  C16 UNL     1      -6.738   4.238  16.259  1.00  0.00     0.025 C 
HETATM   29  C17 UNL     1      -7.463   3.099  16.922  1.00  0.00     0.002 C 
HETATM   30  C18 UNL     1      -6.384   2.327  17.612  1.00  0.00     0.002 C 
HETATM   31  C19 UNL     1      -5.197   2.424  16.660  1.00  0.00     0.025 C 
ENDBRANCH  11  27
TORSDOF 4
ENDMDL
MODEL 3
REMARK VINA RESULT: -7.998044961      1.134      1.370
REMARK  4 active torsions:
REMARK  status: ('A' for Active; 'I' for Inactive)
REMARK    1  A    between atoms: N1_3  and  C3_4 
REMARK    2  A    between atoms: C3_4  and  C4_5 
REMARK    3  A    between atoms: C4_5  and  N2_6 
REMARK       I    between atoms: N4_19  and  C14_20 
REMARK       I    between atoms: C14_20  and  N5_22 
REMARK    4  A    between atoms: N5_22  and  C15_24 
ROOT
HETATM    1  C1  UNL     1      -4.499   7.895   9.481  1.00  0.00     0.041 C 
HETATM    2  C2  UNL     1      -3.468   7.174   9.855  1.00  0.00     0.035 C 
HETATM    3  N1  UNL     1      -2.120   7.441   9.545  1.00  0.00    -0.381 N 
HETATM    4  C10 UNL     1      -1.357   6.224   9.708  1.00  0.00     0.126 C 
HETATM    5  C11 UNL     1      -2.319   5.171  10.178  1.00  0.00     0.067 C 
HETATM    6  C12 UNL     1      -3.493   5.936  10.687  1.00  0.00     0.131 C 
HETATM    7  C13 UNL     1      -3.442   6.248  12.139  1.00  0.00     0.184 C 
HETATM    8  N4  UNL     1      -4.299   5.233  12.765  1.00  0.00    -0.242 N 
HETATM    9  C14 UNL     1      -4.424   5.079  14.182  1.00  0.00     0.327 C 
HETATM   10  O1  UNL     1      -3.778   5.808  14.982  1.00  0.00    -0.247 OA
HETATM   11  N5  UNL     1      -5.279   4.102  14.729  1.00  0.00    -0.338 N 
ATOM     12  H5  UNL     1      -5.813   3.496  14.106  1.00  0.00     0.164 HD
HETATM   13  C20 UNL     1      -4.898   4.528  11.702  1.00  0.00     0.372 C 
HETATM   14  O2  UNL     1      -5.500   3.429  11.813  1.00  0.00    -0.238 OA
HETATM   15  O3  UNL     1      -4.715   5.247  10.514  1.00  0.00    -0.284 OA
ENDROOT
BRANCH   3  16
HETATM   16  C3  UNL     1      -1.511   8.694   9.116  1.00  0.00     0.142 C 
BRANCH  16  17
HETATM   17  C4  UNL     1      -0.587   9.099  10.238  1.00  0.00     0.140 C 
BRANCH  17  18
HETATM   18  N2  UNL     1      -1.243   9.273  11.492  1.00  0.00    -0.378 N 
HETATM   19  C5  UNL     1      -0.769   9.805  12.544  1.00  0.00     0.072 C 
HETATM   20  C6  UNL     1      -0.261  10.375  13.669  1.00  0.00     0.076 C 
HETATM   21  N3  UNL     1      -2.278   9.416  13.319  1.00  0.00    -0.380 N 
HETATM   22  C7  UNL     1      -1.152  11.473  14.280  1.00  0.00     0.009 C 
HETATM   23  C8  UNL     1      -1.946  10.683  15.350  1.00  0.00     0.020 C 
HETATM   24  C9  UNL     1      -2.215   9.309  14.683  1.00  0.00     0.121 C 
ATOM     25  H3  UNL     1      -3.143   9.278  12.797  1.00  0.00     0.160 HD
ATOM     26  H2  UNL     1      -2.203   8.932  11.551  1.00  0.00     0.160 HD
ENDBRANCH  17  18
ENDBRANCH  16  17
ENDBRANCH   3  16
BRANCH  11  27
HETATM   27  C15 UNL     1      -5.417   3.943  16.186  1.00  0.00     0.086 C 
HETATM   28  C16 UNL     1      -6.877   4.163  16.505  1.00  0.00     0.025 C 
HETATM   29  C17 UNL     1      -7.390   2.880  17.100  1.00  0.00     0.002 C 
HETATM   30  C18 UNL     1      -6.160   2.178  17.581  1.00  0.00     0.002 C 
HETATM   31  C19 UNL     1      -5.109   2.520  16.530  1.00  0.00     0.025 C 
ENDBRANCH  11  27
TORSDOF 4
ENDMDL
MODEL 4
REMARK VINA RESULT: -7.992932562      0.912      1.036
REMARK  4 active torsions:
REMARK  status: ('A' for Active; 'I' for Inactive)
REMARK    1  A    between atoms: N1_3  and  C3_4 
REMARK    2  A    between atoms: C3_4  and  C4_5 
REMARK    3  A    between atoms: C4_5  and  N2_6 
REMARK       I    between atoms: N4_19  and  C14_20 
REMARK       I    between atoms: C14_20  and  N5_22 
REMARK    4  A    between atoms: N5_22  and  C15_24 
ROOT
HETATM    1  C1  UNL     1      -2.627   7.519   9.886  1.00  0.00     0.041 C 
HETATM    2  C2  UNL     1      -2.007   6.420  10.250  1.00  0.00     0.035 C 
HETATM    3  N1  UNL     1      -0.653   6.122  10.008  1.00  0.00    -0.381 N 
HETATM    4  C10 UNL     1      -0.466   4.693  10.119  1.00  0.00     0.126 C 
HETATM    5  C11 UNL     1      -1.802   4.110  10.483  1.00  0.00     0.067 C 
HETATM    6  C12 UNL     1      -2.588   5.268  10.998  1.00  0.00     0.131 C 
HETATM    7  C13 UNL     1      -2.501   5.466  12.467  1.00  0.00     0.184 C 
HETATM    8  N4  UNL     1      -3.735   4.869  12.995  1.00  0.00    -0.242 N 
HETATM    9  C14 UNL     1      -3.997   4.717  14.392  1.00  0.00     0.327 C 
HETATM   10  O1  UNL     1      -3.158   5.079  15.261  1.00  0.00    -0.247 OA
HETATM   11  N5  UNL     1      -5.209   4.157  14.843  1.00  0.00    -0.338 N 
ATOM     12  H5  UNL     1      -5.905   3.853  14.163  1.00  0.00     0.164 HD
HETATM   13  C20 UNL     1      -4.505   4.522  11.866  1.00  0.00     0.372 C 
HETATM   14  O2  UNL     1      -5.510   3.765  11.883  1.00  0.00    -0.238 OA
HETATM   15  O3  UNL     1      -3.972   5.153  10.735  1.00  0.00    -0.284 OA
ENDROOT
BRANCH   3  16
HETATM   16  C3  UNL     1       0.442   7.029   9.684  1.00  0.00     0.142 C 
BRANCH  16  17
HETATM   17  C4  UNL     1       1.424   6.900  10.822  1.00  0.00     0.140 C 
BRANCH  17  18
HETATM   18  N2  UNL     1       1.468   8.039  11.679  1.00  0.00    -0.378 N 
HETATM   19  C5  UNL     1       0.535   8.872  11.903  1.00  0.00     0.072 C 
HETATM   20  C6  UNL     1      -0.464   9.763  12.144  1.00  0.00     0.076 C 
HETATM   21  N3  UNL     1       1.662   9.735  12.910  1.00  0.00    -0.380 N 
HETATM   22  C7  UNL     1      -0.750  10.005  13.638  1.00  0.00     0.009 C 
HETATM   23  C8  UNL     1       0.096  11.269  13.925  1.00  0.00     0.020 C 
HETATM   24  C9  UNL     1       1.382  11.063  13.083  1.00  0.00     0.121 C 
ATOM     25  H3  UNL     1       2.471   9.284  13.339  1.00  0.00     0.160 HD
ATOM     26  H2  UNL     1       2.349   8.204  12.166  1.00  0.00     0.160 HD
ENDBRANCH  17  18
ENDBRANCH  16  17
ENDBRANCH   3  16
BRANCH  11  27
HETATM   27  C15 UNL     1      -5.487   4.004  16.280  1.00  0.00     0.086 C 
HETATM   28  C16 UNL     1      -6.979   4.168  16.447  1.00  0.00     0.025 C 
HETATM   29  C17 UNL     1      -7.499   2.870  17.003  1.00  0.00     0.002 C 
HETATM   30  C18 UNL     1      -6.298   2.223  17.615  1.00  0.00     0.002 C 
HETATM   31  C19 UNL     1      -5.160   2.598  16.672  1.00  0.00     0.025 C 
ENDBRANCH  11  27
TORSDOF 4
ENDMDL
MODEL 5
REMARK VINA RESULT: -7.816962059      1.210      1.425
REMARK  4 active torsions:
REMARK  status: ('A' for Active; 'I' for Inactive)
REMARK    1  A    between atoms: N1_3  and  C3_4 
REMARK    2  A    between atoms: C3_4  and  C4_5 
REMARK    3  A    between atoms: C4_5  and  N2_6 
REMARK       I    between atoms: N4_19  and  C14_20 
REMARK       I    between atoms: C14_20  and  N5_22 
REMARK    4  A    between atoms: N5_22  and  C15_24 
ROOT
HETATM    1  C1  UNL     1      -2.825   7.213   9.410  1.00  0.00     0.041 C 
HETATM    2  C2  UNL     1      -2.152   6.178   9.858  1.00  0.00     0.035 C 
HETATM    3  N1  UNL     1      -0.787   5.922   9.626  1.00  0.00    -0.381 N 
HETATM    4  C10 UNL     1      -0.534   4.517   9.855  1.00  0.00     0.126 C 
HETATM    5  C11 UNL     1      -1.839   3.908  10.281  1.00  0.00     0.067 C 
HETATM    6  C12 UNL     1      -2.674   5.068  10.706  1.00  0.00     0.131 C 
HETATM    7  C13 UNL     1      -2.586   5.392  12.152  1.00  0.00     0.184 C 
HETATM    8  N4  UNL     1      -3.787   4.786  12.741  1.00  0.00    -0.242 N 
HETATM    9  C14 UNL     1      -4.032   4.741  14.149  1.00  0.00     0.327 C 
HETATM   10  O1  UNL     1      -3.205   5.212  14.976  1.00  0.00    -0.247 OA
HETATM   11  N5  UNL     1      -5.214   4.166  14.659  1.00  0.00    -0.338 N 
ATOM     12  H5  UNL     1      -5.900   3.775  14.013  1.00  0.00     0.164 HD
HETATM   13  C20 UNL     1      -4.548   4.311  11.654  1.00  0.00     0.372 C 
HETATM   14  O2  UNL     1      -5.517   3.514  11.745  1.00  0.00    -0.238 OA
HETATM   15  O3  UNL     1      -4.053   4.869  10.468  1.00  0.00    -0.284 OA
ENDROOT
BRANCH   3  16
HETATM   16  C3  UNL     1       0.262   6.848   9.216  1.00  0.00     0.142 C 
BRANCH  16  17
HETATM   17  C4  UNL     1       1.114   7.062  10.443  1.00  0.00     0.140 C 
BRANCH  17  18
HETATM   18  N2  UNL     1       0.735   8.196  11.218  1.00  0.00    -0.378 N 
HETATM   19  C5  UNL     1       1.486   8.921  11.943  1.00  0.00     0.072 C 
HETATM   20  C6  UNL     1       2.290   9.697  12.718  1.00  0.00     0.076 C 
HETATM   21  N3  UNL     1       0.057   9.812  12.384  1.00  0.00    -0.380 N 
HETATM   22  C7  UNL     1       2.172  11.207  12.440  1.00  0.00     0.009 C 
HETATM   23  C8  UNL     1       1.146  11.651  13.511  1.00  0.00     0.020 C 
HETATM   24  C9  UNL     1       0.138  10.476  13.579  1.00  0.00     0.121 C 
ATOM     25  H3  UNL     1      -0.776   9.838  11.797  1.00  0.00     0.160 HD
ATOM     26  H2  UNL     1      -0.251   8.456  11.188  1.00  0.00     0.160 HD
ENDBRANCH  17  18
ENDBRANCH  16  17
ENDBRANCH   3  16
BRANCH  11  27
HETATM   27  C15 UNL     1      -5.475   4.122  16.107  1.00  0.00     0.086 C 
HETATM   28  C16 UNL     1      -6.967   4.275  16.277  1.00  0.00     0.025 C 
HETATM   29  C17 UNL     1      -7.460   3.018  16.939  1.00  0.00     0.002 C 
HETATM   30  C18 UNL     1      -6.243   2.439  17.585  1.00  0.00     0.002 C 
HETATM   31  C19 UNL     1      -5.121   2.756  16.603  1.00  0.00     0.025 C 
ENDBRANCH  11  27
TORSDOF 4
ENDMDL
