MODEL 1
REMARK VINA RESULT: -6.775140763      0.000      0.000
REMARK  5 active torsions:
REMARK  status: ('A' for Active; 'I' for Inactive)
REMARK       I    between atoms: C1_2  and  N1_3 
REMARK    1  A    between atoms: C1_2  and  O2_14 
REMARK    2  A    between atoms: N1_3  and  C2_5 
REMARK    3  A    between atoms: O2_14  and  C11_15 
REMARK    4  A    between atoms: C11_15  and  C12_16 
REMARK    5  A    between atoms: C12_16  and  N2_17 
ROOT
HETATM    1  O1  UNL     1      -5.296   2.600  11.252  1.00  0.00    -0.238 OA
HETATM    2  C1  UNL     1      -4.135   2.627  11.689  1.00  0.00     0.361 C 
HETATM    3  N1  UNL     1      -3.804   3.155  12.962  1.00  0.00    -0.332 N 
ATOM      4  H1  UNL     1      -2.834   3.157  13.278  1.00  0.00     0.165 HD
ENDROOT
BRANCH   2   5
HETATM    5  O2  UNL     1      -3.113   2.109  10.874  1.00  0.00    -0.299 OA
BRANCH   5   6
HETATM    6  C11 UNL     1      -1.809   2.575  11.065  1.00  0.00     0.225 C 
BRANCH   6   7
HETATM    7  C12 UNL     1      -1.411   3.531   9.969  1.00  0.00     0.090 C 
BRANCH   7   8
HETATM    8  N2  UNL     1      -1.463   4.856  10.427  1.00  0.00    -0.368 N 
HETATM    9  C13 UNL     1      -0.677   5.251  11.527  1.00  0.00     0.089 C 
HETATM   10  C14 UNL     1      -1.479   6.018  12.572  1.00  0.00     0.212 C 
HETATM   11  O3  UNL     1      -2.266   6.958  11.956  1.00  0.00    -0.385 OA
HETATM   12  C15 UNL     1      -3.269   6.304  11.222  1.00  0.00     0.188 C 
HETATM   13  C16 UNL     1      -2.554   5.669  10.046  1.00  0.00     0.153 C 
ENDBRANCH   7   8
ENDBRANCH   6   7
ENDBRANCH   5   6
ENDBRANCH   2   5
BRANCH   3  14
HETATM   14  C2  UNL     1      -4.834   3.688  13.805  1.00  0.00     0.087 C 
HETATM   15  C3  UNL     1      -4.383   4.980  14.489  1.00  0.00     0.030 C 
HETATM   16  C4  UNL     1      -4.916   4.823  15.922  1.00  0.00    -0.008 C 
HETATM   17  C5  UNL     1      -6.386   5.124  15.843  1.00  0.00     0.005 C 
HETATM   18  C9  UNL     1      -4.634   3.353  16.129  1.00  0.00    -0.008 C 
HETATM   19  C6  UNL     1      -7.181   4.503  16.942  1.00  0.00     0.000 C 
HETATM   20  C7  UNL     1      -6.771   3.132  17.342  1.00  0.00     0.000 C 
HETATM   21  C8  UNL     1      -5.309   2.863  17.387  1.00  0.00     0.005 C 
HETATM   22  C10 UNL     1      -5.198   2.721  14.905  1.00  0.00     0.030 C 
ENDBRANCH   3  14
TORSDOF 5
ENDMDL
MODEL 2
REMARK VINA RESULT: -6.622383918      1.445      1.801
REMARK  5 active torsions:
REMARK  status: ('A' for Active; 'I' for Inactive)
REMARK       I    between atoms: C1_2  and  N1_3 
REMARK    1  A    between atoms: C1_2  and  O2_14 
REMARK    2  A    between atoms: N1_3  and  C2_5 
REMARK    3  A    between atoms: O2_14  and  C11_15 
REMARK    4  A    between atoms: C11_15  and  C12_16 
REMARK    5  A    between atoms: C12_16  and  N2_17 
ROOT
HETATM    1  O1  UNL     1      -4.764   3.886  10.406  1.00  0.00    -0.238 OA
HETATM    2  C1  UNL     1      -3.728   3.516  10.979  1.00  0.00     0.361 C 
HETATM    3  N1  UNL     1      -3.531   3.652  12.377  1.00  0.00    -0.332 N 
ATOM      4  H1  UNL     1      -2.661   3.334  12.803  1.00  0.00     0.165 HD
ENDROOT
BRANCH   2   5
HETATM    5  O2  UNL     1      -2.712   2.940  10.197  1.00  0.00    -0.299 OA
BRANCH   5   6
HETATM    6  C11 UNL     1      -1.383   3.266  10.486  1.00  0.00     0.225 C 
BRANCH   6   7
HETATM    7  C12 UNL     1      -1.026   4.618   9.925  1.00  0.00     0.090 C 
BRANCH   7   8
HETATM    8  N2  UNL     1      -0.261   5.349  10.848  1.00  0.00    -0.368 N 
HETATM    9  C13 UNL     1      -0.893   6.004  11.922  1.00  0.00     0.089 C 
HETATM   10  C14 UNL     1      -0.443   7.453  12.068  1.00  0.00     0.212 C 
HETATM   11  O3  UNL     1       0.922   7.528  11.965  1.00  0.00    -0.385 OA
HETATM   12  C15 UNL     1       1.299   7.224  10.647  1.00  0.00     0.188 C 
HETATM   13  C16 UNL     1       1.051   5.736  10.494  1.00  0.00     0.153 C 
ENDBRANCH   7   8
ENDBRANCH   6   7
ENDBRANCH   5   6
ENDBRANCH   2   5
BRANCH   3  14
HETATM   14  C2  UNL     1      -4.557   4.238  13.190  1.00  0.00     0.087 C 
HETATM   15  C3  UNL     1      -4.082   5.542  13.833  1.00  0.00     0.030 C 
HETATM   16  C4  UNL     1      -4.634   5.448  15.264  1.00  0.00    -0.008 C 
HETATM   17  C5  UNL     1      -6.096   5.781  15.158  1.00  0.00     0.005 C 
HETATM   18  C9  UNL     1      -4.389   3.979  15.526  1.00  0.00    -0.008 C 
HETATM   19  C6  UNL     1      -6.917   5.217  16.269  1.00  0.00     0.000 C 
HETATM   20  C7  UNL     1      -6.544   3.851  16.721  1.00  0.00     0.000 C 
HETATM   21  C8  UNL     1      -5.089   3.550  16.792  1.00  0.00     0.005 C 
HETATM   22  C10 UNL     1      -4.955   3.319  14.318  1.00  0.00     0.030 C 
ENDBRANCH   3  14
TORSDOF 5
ENDMDL
MODEL 3
REMARK VINA RESULT: -6.506089017      1.443      1.654
REMARK  5 active torsions:
REMARK  status: ('A' for Active; 'I' for Inactive)
REMARK       I    between atoms: C1_2  and  N1_3 
REMARK    1  A    between atoms: C1_2  and  O2_14 
REMARK    2  A    between atoms: N1_3  and  C2_5 
REMARK    3  A    between atoms: O2_14  and  C11_15 
REMARK    4  A    between atoms: C11_15  and  C12_16 
REMARK    5  A    between atoms: C12_16  and  N2_17 
ROOT
HETATM    1  O1  UNL     1      -4.588   4.168  10.349  1.00  0.00    -0.238 OA
HETATM    2  C1  UNL     1      -3.589   3.732  10.941  1.00  0.00     0.361 C 
HETATM    3  N1  UNL     1      -3.458   3.760  12.353  1.00  0.00    -0.332 N 
ATOM      4  H1  UNL     1      -2.616   3.391  12.795  1.00  0.00     0.165 HD
ENDROOT
BRANCH   2   5
HETATM    5  O2  UNL     1      -2.548   3.192  10.166  1.00  0.00    -0.299 OA
BRANCH   5   6
HETATM    6  C11 UNL     1      -1.288   3.795  10.230  1.00  0.00     0.225 C 
BRANCH   6   7
HETATM    7  C12 UNL     1      -1.199   4.959   9.278  1.00  0.00     0.090 C 
BRANCH   7   8
HETATM    8  N2  UNL     1      -0.734   6.105   9.941  1.00  0.00    -0.368 N 
HETATM    9  C13 UNL     1       0.634   6.435   9.902  1.00  0.00     0.089 C 
HETATM   10  C14 UNL     1       1.198   6.747  11.283  1.00  0.00     0.212 C 
HETATM   11  O3  UNL     1       0.342   7.579  11.958  1.00  0.00    -0.385 OA
HETATM   12  C15 UNL     1      -0.834   6.875  12.262  1.00  0.00     0.188 C 
HETATM   13  C16 UNL     1      -1.547   6.695  10.936  1.00  0.00     0.153 C 
ENDBRANCH   7   8
ENDBRANCH   6   7
ENDBRANCH   5   6
ENDBRANCH   2   5
BRANCH   3  14
HETATM   14  C2  UNL     1      -4.510   4.308  13.158  1.00  0.00     0.087 C 
HETATM   15  C3  UNL     1      -4.084   5.625  13.811  1.00  0.00     0.030 C 
HETATM   16  C4  UNL     1      -4.646   5.507  15.236  1.00  0.00    -0.008 C 
HETATM   17  C5  UNL     1      -6.117   5.792  15.118  1.00  0.00     0.005 C 
HETATM   18  C9  UNL     1      -4.355   4.046  15.494  1.00  0.00    -0.008 C 
HETATM   19  C6  UNL     1      -6.929   5.197  16.219  1.00  0.00     0.000 C 
HETATM   20  C7  UNL     1      -6.516   3.842  16.669  1.00  0.00     0.000 C 
HETATM   21  C8  UNL     1      -5.052   3.589  16.752  1.00  0.00     0.005 C 
HETATM   22  C10 UNL     1      -4.888   3.372  14.279  1.00  0.00     0.030 C 
ENDBRANCH   3  14
TORSDOF 5
ENDMDL
MODEL 4
REMARK VINA RESULT: -6.425455696      2.028      2.474
REMARK  5 active torsions:
REMARK  status: ('A' for Active; 'I' for Inactive)
REMARK       I    between atoms: C1_2  and  N1_3 
REMARK    1  A    between atoms: C1_2  and  O2_14 
REMARK    2  A    between atoms: N1_3  and  C2_5 
REMARK    3  A    between atoms: O2_14  and  C11_15 
REMARK    4  A    between atoms: C11_15  and  C12_16 
REMARK    5  A    between atoms: C12_16  and  N2_17 
ROOT
HETATM    1  O1  UNL     1      -4.591   4.221  10.326  1.00  0.00    -0.238 OA
HETATM    2  C1  UNL     1      -3.571   3.827  10.910  1.00  0.00     0.361 C 
HETATM    3  N1  UNL     1      -3.430   3.858  12.321  1.00  0.00    -0.332 N 
ATOM      4  H1  UNL     1      -2.571   3.523  12.756  1.00  0.00     0.165 HD
ENDROOT
BRANCH   2   5
HETATM    5  O2  UNL     1      -2.513   3.332  10.127  1.00  0.00    -0.299 OA
BRANCH   5   6
HETATM    6  C11 UNL     1      -1.285   4.000  10.167  1.00  0.00     0.225 C 
BRANCH   6   7
HETATM    7  C12 UNL     1      -1.382   5.347   9.498  1.00  0.00     0.090 C 
BRANCH   7   8
HETATM    8  N2  UNL     1      -0.130   5.981   9.482  1.00  0.00    -0.368 N 
HETATM    9  C13 UNL     1       0.814   5.650   8.491  1.00  0.00     0.089 C 
HETATM   10  C14 UNL     1       2.194   5.364   9.071  1.00  0.00     0.212 C 
HETATM   11  O3  UNL     1       2.520   6.326   9.993  1.00  0.00    -0.385 OA
HETATM   12  C15 UNL     1       1.684   6.187  11.113  1.00  0.00     0.188 C 
HETATM   13  C16 UNL     1       0.315   6.644  10.649  1.00  0.00     0.153 C 
ENDBRANCH   7   8
ENDBRANCH   6   7
ENDBRANCH   5   6
ENDBRANCH   2   5
BRANCH   3  14
HETATM   14  C2  UNL     1      -4.499   4.359  13.135  1.00  0.00     0.087 C 
HETATM   15  C3  UNL     1      -4.116   5.680  13.805  1.00  0.00     0.030 C 
HETATM   16  C4  UNL     1      -4.672   5.523  15.230  1.00  0.00    -0.008 C 
HETATM   17  C5  UNL     1      -6.151   5.761  15.117  1.00  0.00     0.005 C 
HETATM   18  C9  UNL     1      -4.333   4.070  15.467  1.00  0.00    -0.008 C 
HETATM   19  C6  UNL     1      -6.942   5.124  16.210  1.00  0.00     0.000 C 
HETATM   20  C7  UNL     1      -6.484   3.778  16.641  1.00  0.00     0.000 C 
HETATM   21  C8  UNL     1      -5.012   3.571  16.719  1.00  0.00     0.005 C 
HETATM   22  C10 UNL     1      -4.845   3.395  14.242  1.00  0.00     0.030 C 
ENDBRANCH   3  14
TORSDOF 5
ENDMDL
MODEL 5
REMARK VINA RESULT: -6.380401010      1.438      1.743
REMARK  5 active torsions:
REMARK  status: ('A' for Active; 'I' for Inactive)
REMARK       I    between atoms: C1_2  and  N1_3 
REMARK    1  A    between atoms: C1_2  and  O2_14 
REMARK    2  A    between atoms: N1_3  and  C2_5 
REMARK    3  A    between atoms: O2_14  and  C11_15 
REMARK    4  A    between atoms: C11_15  and  C12_16 
REMARK    5  A    between atoms: C12_16  and  N2_17 
ROOT
HETATM    1  O1  UNL     1      -5.238   4.297  10.691  1.00  0.00    -0.238 OA
HETATM    2  C1  UNL     1      -4.101   4.149  11.165  1.00  0.00     0.361 C 
HETATM    3  N1  UNL     1      -3.854   4.048  12.558  1.00  0.00    -0.332 N 
ATOM      4  H1  UNL     1      -2.901   3.928  12.900  1.00  0.00     0.165 HD
ENDROOT
BRANCH   2   5
HETATM    5  O2  UNL     1      -3.019   4.080  10.270  1.00  0.00    -0.299 OA
BRANCH   5   6
HETATM    6  C11 UNL     1      -1.929   4.931  10.477  1.00  0.00     0.225 C 
BRANCH   6   7
HETATM    7  C12 UNL     1      -2.325   6.372  10.281  1.00  0.00     0.090 C 
BRANCH   7   8
HETATM    8  N2  UNL     1      -1.915   7.150  11.374  1.00  0.00    -0.368 N 
HETATM    9  C13 UNL     1      -1.125   6.576  12.389  1.00  0.00     0.089 C 
HETATM   10  C14 UNL     1      -1.662   6.873  13.784  1.00  0.00     0.212 C 
HETATM   11  O3  UNL     1      -1.993   8.201  13.882  1.00  0.00    -0.385 OA
HETATM   12  C15 UNL     1      -3.108   8.455  13.067  1.00  0.00     0.188 C 
HETATM   13  C16 UNL     1      -2.593   8.361  11.644  1.00  0.00     0.153 C 
ENDBRANCH   7   8
ENDBRANCH   6   7
ENDBRANCH   5   6
ENDBRANCH   2   5
BRANCH   3  14
HETATM   14  C2  UNL     1      -4.947   4.117  13.484  1.00  0.00     0.087 C 
HETATM   15  C3  UNL     1      -4.930   5.430  14.270  1.00  0.00     0.030 C 
HETATM   16  C4  UNL     1      -5.278   4.986  15.699  1.00  0.00    -0.008 C 
HETATM   17  C5  UNL     1      -6.763   4.753  15.702  1.00  0.00     0.005 C 
HETATM   18  C9  UNL     1      -4.488   3.699  15.756  1.00  0.00    -0.008 C 
HETATM   19  C6  UNL     1      -7.216   3.809  16.765  1.00  0.00     0.000 C 
HETATM   20  C7  UNL     1      -6.328   2.645  17.019  1.00  0.00     0.000 C 
HETATM   21  C8  UNL     1      -4.864   2.908  16.985  1.00  0.00     0.005 C 
HETATM   22  C10 UNL     1      -4.876   3.003  14.499  1.00  0.00     0.030 C 
ENDBRANCH   3  14
TORSDOF 5
ENDMDL
