MODEL 1
REMARK VINA RESULT: -7.719184817      0.000      0.000
REMARK  9 active torsions:
REMARK  status: ('A' for Active; 'I' for Inactive)
REMARK    1  A    between atoms: C5_6  and  O2_7 
REMARK    2  A    between atoms: O2_7  and  C6_8 
REMARK       I    between atoms: C6_8  and  N1_10 
REMARK    3  A    between atoms: N1_10  and  C7_12 
REMARK    4  A    between atoms: C7_12  and  C8_13 
REMARK    5  A    between atoms: C8_13  and  O5_25 
REMARK    6  A    between atoms: N2_14  and  C9_16 
REMARK    7  A    between atoms: C9_16  and  C10_17 
REMARK    8  A    between atoms: C10_17  and  O4_18 
REMARK    9  A    between atoms: O5_25  and  N3_26 
ROOT
HETATM    1  C8  UNL     1      -3.222   6.812  14.152  1.00  0.00     0.160 C 
HETATM    2  N2  UNL     1      -3.992   6.647  15.166  1.00  0.00    -0.368 N 
ATOM      3  H2  UNL     1      -3.610   6.562  16.107  1.00  0.00     0.161 HD
ENDROOT
BRANCH   1   4
HETATM    4  C7  UNL     1      -3.734   6.940  12.772  1.00  0.00     0.211 C 
BRANCH   4   5
HETATM    5  N1  UNL     1      -3.507   5.728  12.009  1.00  0.00    -0.329 N 
HETATM    6  C6  UNL     1      -4.377   5.348  10.954  1.00  0.00     0.363 C 
HETATM    7  O3  UNL     1      -5.351   6.074  10.685  1.00  0.00    -0.238 OA
ATOM      8  H1  UNL     1      -2.706   5.138  12.234  1.00  0.00     0.165 HD
BRANCH   6   9
HETATM    9  O2  UNL     1      -4.185   4.197  10.211  1.00  0.00    -0.270 OA
BRANCH   9  10
HETATM   10  C5  UNL     1      -4.905   3.045  10.542  1.00  0.00     0.298 C 
HETATM   11  C4  UNL     1      -4.896   2.795  12.050  1.00  0.00     0.232 C 
HETATM   12  O1  UNL     1      -3.539   2.438  12.212  1.00  0.00    -0.351 OA
HETATM   13  C2  UNL     1      -3.158   1.798  11.055  1.00  0.00     0.160 C 
HETATM   14  C1  UNL     1      -1.883   2.360  10.475  1.00  0.00     0.078 C 
HETATM   15  C3  UNL     1      -2.933   0.329  11.413  1.00  0.00     0.078 C 
HETATM   16  O6  UNL     1      -4.156   1.946  10.119  1.00  0.00    -0.323 OA
ENDBRANCH   9  10
ENDBRANCH   6   9
ENDBRANCH   4   5
ENDBRANCH   1   4
BRANCH   1  17
HETATM   17  O5  UNL     1      -1.858   6.871  14.359  1.00  0.00    -0.230 OA
BRANCH  17  18
HETATM   18  N3  UNL     1      -1.196   5.719  14.726  1.00  0.00    -0.304 N 
ATOM     19  H32 UNL     1      -1.700   4.979  15.214  1.00  0.00     0.184 HD
ATOM     20  H31 UNL     1      -0.206   5.633  14.499  1.00  0.00     0.184 HD
ENDBRANCH  17  18
ENDBRANCH   1  17
BRANCH   2  21
HETATM   21  C9  UNL     1      -5.418   6.586  14.933  1.00  0.00     0.159 C 
BRANCH  21  22
HETATM   22  C10 UNL     1      -5.962   5.187  15.164  1.00  0.00     0.074 C 
HETATM   23  C11 UNL     1      -4.790   4.268  15.329  1.00  0.00     0.039 C 
HETATM   24  C12 UNL     1      -4.811   3.571  16.677  1.00  0.00     0.003 C 
HETATM   25  C13 UNL     1      -6.173   2.873  16.763  1.00  0.00     0.000 C 
HETATM   26  C14 UNL     1      -7.265   3.902  16.885  1.00  0.00     0.003 C 
HETATM   27  C15 UNL     1      -6.821   5.266  16.419  1.00  0.00     0.039 C 
BRANCH  22  28
HETATM   28  O4  UNL     1      -6.802   4.790  14.129  1.00  0.00    -0.388 OA
ATOM     29  H4  UNL     1      -7.103   3.897  14.249  1.00  0.00     0.210 HD
ENDBRANCH  22  28
ENDBRANCH  21  22
ENDBRANCH   2  21
TORSDOF 9
ENDMDL
MODEL 2
REMARK VINA RESULT: -7.693921562      3.072      4.474
REMARK  9 active torsions:
REMARK  status: ('A' for Active; 'I' for Inactive)
REMARK    1  A    between atoms: C5_6  and  O2_7 
REMARK    2  A    between atoms: O2_7  and  C6_8 
REMARK       I    between atoms: C6_8  and  N1_10 
REMARK    3  A    between atoms: N1_10  and  C7_12 
REMARK    4  A    between atoms: C7_12  and  C8_13 
REMARK    5  A    between atoms: C8_13  and  O5_25 
REMARK    6  A    between atoms: N2_14  and  C9_16 
REMARK    7  A    between atoms: C9_16  and  C10_17 
REMARK    8  A    between atoms: C10_17  and  O4_18 
REMARK    9  A    between atoms: O5_25  and  N3_26 
ROOT
HETATM    1  C8  UNL     1      -4.250   1.701  12.620  1.00  0.00     0.160 C 
HETATM    2  N2  UNL     1      -4.385   1.973  13.867  1.00  0.00    -0.368 N 
ATOM      3  H2  UNL     1      -4.263   1.251  14.577  1.00  0.00     0.161 HD
ENDROOT
BRANCH   1   4
HETATM    4  C7  UNL     1      -4.419   2.715  11.558  1.00  0.00     0.211 C 
BRANCH   4   5
HETATM    5  N1  UNL     1      -3.172   3.398  11.275  1.00  0.00    -0.329 N 
HETATM    6  C6  UNL     1      -3.143   4.588  10.501  1.00  0.00     0.363 C 
HETATM    7  O3  UNL     1      -4.212   5.047  10.061  1.00  0.00    -0.238 OA
ATOM      8  H1  UNL     1      -2.299   3.017  11.639  1.00  0.00     0.165 HD
BRANCH   6   9
HETATM    9  O2  UNL     1      -1.968   5.259  10.215  1.00  0.00    -0.270 OA
BRANCH   9  10
HETATM   10  C5  UNL     1      -0.834   4.523   9.857  1.00  0.00     0.298 C 
HETATM   11  C4  UNL     1       0.443   5.344  10.031  1.00  0.00     0.232 C 
HETATM   12  O1  UNL     1       0.262   6.270   8.980  1.00  0.00    -0.351 OA
HETATM   13  C2  UNL     1      -0.414   5.607   7.982  1.00  0.00     0.160 C 
HETATM   14  C1  UNL     1      -1.623   6.369   7.495  1.00  0.00     0.078 C 
HETATM   15  C3  UNL     1       0.564   5.438   6.819  1.00  0.00     0.078 C 
HETATM   16  O6  UNL     1      -0.839   4.392   8.467  1.00  0.00    -0.323 OA
ENDBRANCH   9  10
ENDBRANCH   6   9
ENDBRANCH   4   5
ENDBRANCH   1   4
BRANCH   1  17
HETATM   17  O5  UNL     1      -3.934   0.408  12.253  1.00  0.00    -0.230 OA
BRANCH  17  18
HETATM   18  N3  UNL     1      -3.368   0.194  11.015  1.00  0.00    -0.304 N 
ATOM     19  H32 UNL     1      -2.970   0.978  10.498  1.00  0.00     0.184 HD
ATOM     20  H31 UNL     1      -3.360  -0.754  10.639  1.00  0.00     0.184 HD
ENDBRANCH  17  18
ENDBRANCH   1  17
BRANCH   2  21
HETATM   21  C9  UNL     1      -4.717   3.331  14.235  1.00  0.00     0.159 C 
BRANCH  21  22
HETATM   22  C10 UNL     1      -4.834   3.489  15.741  1.00  0.00     0.074 C 
HETATM   23  C11 UNL     1      -5.543   4.782  16.005  1.00  0.00     0.039 C 
HETATM   24  C12 UNL     1      -6.823   4.567  16.791  1.00  0.00     0.003 C 
HETATM   25  C13 UNL     1      -6.413   3.806  18.056  1.00  0.00     0.000 C 
HETATM   26  C14 UNL     1      -5.988   2.408  17.693  1.00  0.00     0.003 C 
HETATM   27  C15 UNL     1      -5.620   2.282  16.236  1.00  0.00     0.039 C 
BRANCH  22  28
HETATM   28  O4  UNL     1      -3.588   3.435  16.356  1.00  0.00    -0.388 OA
ATOM     29  H4  UNL     1      -3.562   2.765  17.030  1.00  0.00     0.210 HD
ENDBRANCH  22  28
ENDBRANCH  21  22
ENDBRANCH   2  21
TORSDOF 9
ENDMDL
MODEL 3
REMARK VINA RESULT: -7.611508560      3.001      4.798
REMARK  9 active torsions:
REMARK  status: ('A' for Active; 'I' for Inactive)
REMARK    1  A    between atoms: C5_6  and  O2_7 
REMARK    2  A    between atoms: O2_7  and  C6_8 
REMARK       I    between atoms: C6_8  and  N1_10 
REMARK    3  A    between atoms: N1_10  and  C7_12 
REMARK    4  A    between atoms: C7_12  and  C8_13 
REMARK    5  A    between atoms: C8_13  and  O5_25 
REMARK    6  A    between atoms: N2_14  and  C9_16 
REMARK    7  A    between atoms: C9_16  and  C10_17 
REMARK    8  A    between atoms: C10_17  and  O4_18 
REMARK    9  A    between atoms: O5_25  and  N3_26 
ROOT
HETATM    1  C8  UNL     1      -4.075   1.822  12.596  1.00  0.00     0.160 C 
HETATM    2  N2  UNL     1      -4.412   2.022  13.818  1.00  0.00    -0.368 N 
ATOM      3  H2  UNL     1      -4.450   1.252  14.485  1.00  0.00     0.161 HD
ENDROOT
BRANCH   1   4
HETATM    4  C7  UNL     1      -4.007   2.908  11.597  1.00  0.00     0.211 C 
BRANCH   4   5
HETATM    5  N1  UNL     1      -2.765   3.649  11.703  1.00  0.00    -0.329 N 
HETATM    6  C6  UNL     1      -1.742   3.516  10.728  1.00  0.00     0.363 C 
HETATM    7  O3  UNL     1      -1.922   2.748   9.766  1.00  0.00    -0.238 OA
ATOM      8  H1  UNL     1      -2.624   4.277  12.494  1.00  0.00     0.165 HD
BRANCH   6   9
HETATM    9  O2  UNL     1      -0.548   4.210  10.806  1.00  0.00    -0.270 OA
BRANCH   9  10
HETATM   10  C5  UNL     1      -0.225   5.124   9.798  1.00  0.00     0.298 C 
HETATM   11  C4  UNL     1       1.222   5.602   9.919  1.00  0.00     0.232 C 
HETATM   12  O1  UNL     1       1.106   6.379  11.093  1.00  0.00    -0.351 OA
HETATM   13  C2  UNL     1      -0.163   6.910  11.091  1.00  0.00     0.160 C 
HETATM   14  C1  UNL     1      -0.890   6.682  12.393  1.00  0.00     0.078 C 
HETATM   15  C3  UNL     1      -0.013   8.416  10.866  1.00  0.00     0.078 C 
HETATM   16  O6  UNL     1      -0.889   6.318  10.084  1.00  0.00    -0.323 OA
ENDBRANCH   9  10
ENDBRANCH   6   9
ENDBRANCH   4   5
ENDBRANCH   1   4
BRANCH   1  17
HETATM   17  O5  UNL     1      -3.763   0.537  12.196  1.00  0.00    -0.230 OA
BRANCH  17  18
HETATM   18  N3  UNL     1      -3.354   0.333  10.896  1.00  0.00    -0.304 N 
ATOM     19  H32 UNL     1      -2.583   0.881  10.515  1.00  0.00     0.184 HD
ATOM     20  H31 UNL     1      -3.839  -0.369  10.337  1.00  0.00     0.184 HD
ENDBRANCH  17  18
ENDBRANCH   1  17
BRANCH   2  21
HETATM   21  C9  UNL     1      -4.736   3.373  14.221  1.00  0.00     0.159 C 
BRANCH  21  22
HETATM   22  C10 UNL     1      -4.842   3.495  15.730  1.00  0.00     0.074 C 
HETATM   23  C11 UNL     1      -5.549   4.782  16.031  1.00  0.00     0.039 C 
HETATM   24  C12 UNL     1      -6.823   4.549  16.820  1.00  0.00     0.003 C 
HETATM   25  C13 UNL     1      -6.405   3.757  18.064  1.00  0.00     0.000 C 
HETATM   26  C14 UNL     1      -5.984   2.369  17.665  1.00  0.00     0.003 C 
HETATM   27  C15 UNL     1      -5.626   2.277  16.202  1.00  0.00     0.039 C 
BRANCH  22  28
HETATM   28  O4  UNL     1      -3.592   3.425  16.336  1.00  0.00    -0.388 OA
ATOM     29  H4  UNL     1      -3.011   2.838  15.867  1.00  0.00     0.210 HD
ENDBRANCH  22  28
ENDBRANCH  21  22
ENDBRANCH   2  21
TORSDOF 9
ENDMDL
MODEL 4
REMARK VINA RESULT: -7.606341287      2.821      4.264
REMARK  9 active torsions:
REMARK  status: ('A' for Active; 'I' for Inactive)
REMARK    1  A    between atoms: C5_6  and  O2_7 
REMARK    2  A    between atoms: O2_7  and  C6_8 
REMARK       I    between atoms: C6_8  and  N1_10 
REMARK    3  A    between atoms: N1_10  and  C7_12 
REMARK    4  A    between atoms: C7_12  and  C8_13 
REMARK    5  A    between atoms: C8_13  and  O5_25 
REMARK    6  A    between atoms: N2_14  and  C9_16 
REMARK    7  A    between atoms: C9_16  and  C10_17 
REMARK    8  A    between atoms: C10_17  and  O4_18 
REMARK    9  A    between atoms: O5_25  and  N3_26 
ROOT
HETATM    1  C8  UNL     1      -4.311   1.694  12.559  1.00  0.00     0.160 C 
HETATM    2  N2  UNL     1      -4.319   1.996  13.806  1.00  0.00    -0.368 N 
ATOM      3  H2  UNL     1      -4.056   1.311  14.514  1.00  0.00     0.161 HD
ENDROOT
BRANCH   1   4
HETATM    4  C7  UNL     1      -4.685   2.655  11.501  1.00  0.00     0.211 C 
BRANCH   4   5
HETATM    5  N1  UNL     1      -3.598   3.567  11.205  1.00  0.00    -0.329 N 
HETATM    6  C6  UNL     1      -3.847   4.906  10.806  1.00  0.00     0.363 C 
HETATM    7  O3  UNL     1      -5.024   5.298  10.711  1.00  0.00    -0.238 OA
ATOM      8  H1  UNL     1      -2.635   3.239  11.285  1.00  0.00     0.165 HD
BRANCH   6   9
HETATM    9  O2  UNL     1      -2.828   5.796  10.516  1.00  0.00    -0.270 OA
BRANCH   9  10
HETATM   10  C5  UNL     1      -1.712   5.850  11.357  1.00  0.00     0.298 C 
HETATM   11  C4  UNL     1      -0.964   7.174  11.210  1.00  0.00     0.232 C 
HETATM   12  O1  UNL     1      -0.436   6.993   9.912  1.00  0.00    -0.351 OA
HETATM   13  C2  UNL     1      -0.193   5.647   9.769  1.00  0.00     0.160 C 
HETATM   14  C1  UNL     1      -0.785   5.082   8.501  1.00  0.00     0.078 C 
HETATM   15  C3  UNL     1       1.325   5.470   9.727  1.00  0.00     0.078 C 
HETATM   16  O6  UNL     1      -0.752   4.981  10.836  1.00  0.00    -0.323 OA
ENDBRANCH   9  10
ENDBRANCH   6   9
ENDBRANCH   4   5
ENDBRANCH   1   4
BRANCH   1  17
HETATM   17  O5  UNL     1      -3.938   0.417  12.188  1.00  0.00    -0.230 OA
BRANCH  17  18
HETATM   18  N3  UNL     1      -3.189   0.256  11.042  1.00  0.00    -0.304 N 
ATOM     19  H32 UNL     1      -3.657   0.081  10.153  1.00  0.00     0.184 HD
ATOM     20  H31 UNL     1      -2.174   0.315  11.111  1.00  0.00     0.184 HD
ENDBRANCH  17  18
ENDBRANCH   1  17
BRANCH   2  21
HETATM   21  C9  UNL     1      -4.714   3.337  14.178  1.00  0.00     0.159 C 
BRANCH  21  22
HETATM   22  C10 UNL     1      -4.823   3.489  15.685  1.00  0.00     0.074 C 
HETATM   23  C11 UNL     1      -5.535   4.779  15.958  1.00  0.00     0.039 C 
HETATM   24  C12 UNL     1      -6.811   4.557  16.749  1.00  0.00     0.003 C 
HETATM   25  C13 UNL     1      -6.392   3.792  18.009  1.00  0.00     0.000 C 
HETATM   26  C14 UNL     1      -5.965   2.398  17.639  1.00  0.00     0.003 C 
HETATM   27  C15 UNL     1      -5.604   2.277  16.179  1.00  0.00     0.039 C 
BRANCH  22  28
HETATM   28  O4  UNL     1      -3.575   3.436  16.295  1.00  0.00    -0.388 OA
ATOM     29  H4  UNL     1      -3.623   3.030  17.153  1.00  0.00     0.210 HD
ENDBRANCH  22  28
ENDBRANCH  21  22
ENDBRANCH   2  21
TORSDOF 9
ENDMDL
MODEL 5
REMARK VINA RESULT: -7.545768459      3.258      4.788
REMARK  9 active torsions:
REMARK  status: ('A' for Active; 'I' for Inactive)
REMARK    1  A    between atoms: C5_6  and  O2_7 
REMARK    2  A    between atoms: O2_7  and  C6_8 
REMARK       I    between atoms: C6_8  and  N1_10 
REMARK    3  A    between atoms: N1_10  and  C7_12 
REMARK    4  A    between atoms: C7_12  and  C8_13 
REMARK    5  A    between atoms: C8_13  and  O5_25 
REMARK    6  A    between atoms: N2_14  and  C9_16 
REMARK    7  A    between atoms: C9_16  and  C10_17 
REMARK    8  A    between atoms: C10_17  and  O4_18 
REMARK    9  A    between atoms: O5_25  and  N3_26 
ROOT
HETATM    1  C8  UNL     1      -4.053   1.831  12.596  1.00  0.00     0.160 C 
HETATM    2  N2  UNL     1      -4.406   2.020  13.815  1.00  0.00    -0.368 N 
ATOM      3  H2  UNL     1      -4.445   1.245  14.477  1.00  0.00     0.161 HD
ENDROOT
BRANCH   1   4
HETATM    4  C7  UNL     1      -3.983   2.925  11.605  1.00  0.00     0.211 C 
BRANCH   4   5
HETATM    5  N1  UNL     1      -2.763   3.694  11.750  1.00  0.00    -0.329 N 
HETATM    6  C6  UNL     1      -1.730   3.627  10.779  1.00  0.00     0.363 C 
HETATM    7  O3  UNL     1      -1.882   2.893   9.786  1.00  0.00    -0.238 OA
ATOM      8  H1  UNL     1      -2.645   4.294  12.566  1.00  0.00     0.165 HD
BRANCH   6   9
HETATM    9  O2  UNL     1      -0.555   4.349  10.893  1.00  0.00    -0.270 OA
BRANCH   9  10
HETATM   10  C5  UNL     1      -0.604   5.651  11.402  1.00  0.00     0.298 C 
HETATM   11  C4  UNL     1      -1.335   6.597  10.450  1.00  0.00     0.232 C 
HETATM   12  O1  UNL     1      -0.383   6.647   9.407  1.00  0.00    -0.351 OA
HETATM   13  C2  UNL     1       0.854   6.524   9.995  1.00  0.00     0.160 C 
HETATM   14  C1  UNL     1       1.704   5.461   9.342  1.00  0.00     0.078 C 
HETATM   15  C3  UNL     1       1.554   7.875   9.847  1.00  0.00     0.078 C 
HETATM   16  O6  UNL     1       0.683   6.184  11.317  1.00  0.00    -0.323 OA
ENDBRANCH   9  10
ENDBRANCH   6   9
ENDBRANCH   4   5
ENDBRANCH   1   4
BRANCH   1  17
HETATM   17  O5  UNL     1      -3.726   0.552  12.191  1.00  0.00    -0.230 OA
BRANCH  17  18
HETATM   18  N3  UNL     1      -3.320   0.357  10.888  1.00  0.00    -0.304 N 
ATOM     19  H32 UNL     1      -3.153  -0.589  10.546  1.00  0.00     0.184 HD
ATOM     20  H31 UNL     1      -3.195   1.172  10.290  1.00  0.00     0.184 HD
ENDBRANCH  17  18
ENDBRANCH   1  17
BRANCH   2  21
HETATM   21  C9  UNL     1      -4.746   3.365  14.224  1.00  0.00     0.159 C 
BRANCH  21  22
HETATM   22  C10 UNL     1      -4.846   3.482  15.734  1.00  0.00     0.074 C 
HETATM   23  C11 UNL     1      -5.535   4.776  16.043  1.00  0.00     0.039 C 
HETATM   24  C12 UNL     1      -6.811   4.555  16.835  1.00  0.00     0.003 C 
HETATM   25  C13 UNL     1      -6.399   3.752  18.074  1.00  0.00     0.000 C 
HETATM   26  C14 UNL     1      -5.996   2.361  17.667  1.00  0.00     0.003 C 
HETATM   27  C15 UNL     1      -5.643   2.271  16.202  1.00  0.00     0.039 C 
BRANCH  22  28
HETATM   28  O4  UNL     1      -3.595   3.393  16.336  1.00  0.00    -0.388 OA
ATOM     29  H4  UNL     1      -3.451   2.533  16.713  1.00  0.00     0.210 HD
ENDBRANCH  22  28
ENDBRANCH  21  22
ENDBRANCH   2  21
TORSDOF 9
ENDMDL
