MODEL 1
REMARK VINA RESULT: -7.586502562      0.000      0.000
REMARK  7 active torsions:
REMARK  status: ('A' for Active; 'I' for Inactive)
REMARK    1  A    between atoms: C3_3  and  C4_4 
REMARK    2  A    between atoms: C4_4  and  C5_5 
REMARK    3  A    between atoms: C8_11  and  N1_12 
REMARK    4  A    between atoms: N1_12  and  C9_14 
REMARK    5  A    between atoms: C13_20  and  N3_21 
REMARK    6  A    between atoms: N3_21  and  C14_23 
REMARK    7  A    between atoms: C14_23  and  C15_24 
ROOT
HETATM    1  C9  UNL     1      -4.488   3.042  12.985  1.00  0.00     0.684 A 
HETATM    2  N2  UNL     1      -4.269   2.048  13.862  1.00  0.00    -0.201 N 
ATOM      3  H2  UNL     1      -3.891   1.167  13.514  1.00  0.00     0.183 HD
HETATM    4  C10 UNL     1      -4.528   2.163  15.185  1.00  0.00     0.116 A 
HETATM    5  C11 UNL     1      -5.040   3.339  15.687  1.00  0.00    -0.002 A 
HETATM    6  C12 UNL     1      -5.338   3.507  17.121  1.00  0.00     0.054 C 
HETATM    7  C13 UNL     1      -5.270   4.378  14.778  1.00  0.00     0.124 A 
HETATM    8  N4  UNL     1      -4.988   4.191  13.474  1.00  0.00    -0.176 N 
ATOM      9  H4  UNL     1      -5.161   4.959  12.826  1.00  0.00     0.186 HD
ENDROOT
BRANCH   1  10
HETATM   10  N1  UNL     1      -4.252   2.959  11.719  1.00  0.00    -0.188 N 
ATOM     11  H1  UNL     1      -4.914   2.435  11.147  1.00  0.00     0.184 HD
BRANCH  10  12
HETATM   12  C8  UNL     1      -3.152   3.538  11.074  1.00  0.00     0.094 A 
HETATM   13  C7  UNL     1      -1.992   2.777  10.879  1.00  0.00     0.144 A 
HETATM   14  C6  UNL     1      -0.891   3.315  10.253  1.00  0.00     0.052 A 
HETATM   15  F1  UNL     1      -1.918   1.489  11.295  1.00  0.00    -0.204 F 
HETATM   16  C3  UNL     1      -0.881   4.633   9.788  1.00  0.00    -0.039 A 
HETATM   17  C2  UNL     1      -2.001   5.389   9.969  1.00  0.00    -0.047 A 
HETATM   18  C1  UNL     1      -2.018   6.801   9.507  1.00  0.00     0.049 C 
HETATM   19  C18 UNL     1      -3.104   4.829  10.604  1.00  0.00    -0.025 A 
HETATM   20  C19 UNL     1      -4.298   5.671  10.787  1.00  0.00     0.051 C 
BRANCH  16  21
HETATM   21  C4  UNL     1       0.328   5.174   9.095  1.00  0.00     0.152 C 
BRANCH  21  22
HETATM   22  C5  UNL     1       1.430   5.475   9.996  1.00  0.00     0.176 C 
HETATM   23  O1  UNL     1       1.236   5.995  11.121  1.00  0.00    -0.648 OA
HETATM   24  O2  UNL     1       2.733   5.165   9.567  1.00  0.00    -0.648 OA
ENDBRANCH  21  22
ENDBRANCH  16  21
ENDBRANCH  10  12
ENDBRANCH   1  10
BRANCH   7  25
HETATM   25  N3  UNL     1      -5.741   5.454  15.260  1.00  0.00    -0.375 N 
ATOM     26  H3  UNL     1      -6.236   5.374  16.148  1.00  0.00     0.161 HD
BRANCH  25  27
HETATM   27  C14 UNL     1      -5.654   6.767  14.699  1.00  0.00     0.126 C 
BRANCH  27  28
HETATM   28  C15 UNL     1      -4.289   7.387  14.911  1.00  0.00     0.003 A 
HETATM   29  C16 UNL     1      -3.744   8.143  13.659  1.00  0.00     0.007 A 
HETATM   30  C17 UNL     1      -3.090   6.937  14.199  1.00  0.00     0.007 A 
ENDBRANCH  27  28
ENDBRANCH  25  27
ENDBRANCH   7  25
TORSDOF 7
ENDMDL
MODEL 2
REMARK VINA RESULT: -7.556431556      3.809      6.630
REMARK  7 active torsions:
REMARK  status: ('A' for Active; 'I' for Inactive)
REMARK    1  A    between atoms: C3_3  and  C4_4 
REMARK    2  A    between atoms: C4_4  and  C5_5 
REMARK    3  A    between atoms: C8_11  and  N1_12 
REMARK    4  A    between atoms: N1_12  and  C9_14 
REMARK    5  A    between atoms: C13_20  and  N3_21 
REMARK    6  A    between atoms: N3_21  and  C14_23 
REMARK    7  A    between atoms: C14_23  and  C15_24 
ROOT
HETATM    1  C9  UNL     1      -2.752   5.372  11.582  1.00  0.00     0.684 A 
HETATM    2  N2  UNL     1      -1.987   4.531  10.866  1.00  0.00    -0.201 N 
ATOM      3  H2  UNL     1      -2.411   3.676  10.505  1.00  0.00     0.183 HD
HETATM    4  C10 UNL     1      -0.681   4.768  10.600  1.00  0.00     0.116 A 
HETATM    5  C11 UNL     1      -0.079   5.912  11.073  1.00  0.00    -0.002 A 
HETATM    6  C12 UNL     1       1.341   6.208  10.809  1.00  0.00     0.054 C 
HETATM    7  C13 UNL     1      -0.870   6.791  11.821  1.00  0.00     0.124 A 
HETATM    8  N4  UNL     1      -2.164   6.491  12.045  1.00  0.00    -0.176 N 
ATOM      9  H4  UNL     1      -2.726   7.143  12.591  1.00  0.00     0.186 HD
ENDROOT
BRANCH   1  10
HETATM   10  N1  UNL     1      -3.998   5.171  11.852  1.00  0.00    -0.188 N 
ATOM     11  H1  UNL     1      -4.664   5.232  11.082  1.00  0.00     0.184 HD
BRANCH  10  12
HETATM   12  C8  UNL     1      -4.501   4.876  13.125  1.00  0.00     0.094 A 
HETATM   13  C7  UNL     1      -4.369   3.576  13.630  1.00  0.00     0.144 A 
HETATM   14  C6  UNL     1      -4.856   3.251  14.876  1.00  0.00     0.052 A 
HETATM   15  F1  UNL     1      -3.758   2.602  12.914  1.00  0.00    -0.204 F 
HETATM   16  C3  UNL     1      -5.496   4.193  15.685  1.00  0.00    -0.039 A 
HETATM   17  C2  UNL     1      -5.633   5.464  15.209  1.00  0.00    -0.047 A 
HETATM   18  C1  UNL     1      -6.328   6.486  16.033  1.00  0.00     0.049 C 
HETATM   19  C18 UNL     1      -5.136   5.775  13.949  1.00  0.00    -0.025 A 
HETATM   20  C19 UNL     1      -5.301   7.155  13.461  1.00  0.00     0.051 C 
BRANCH  16  21
HETATM   21  C4  UNL     1      -5.992   3.805  17.040  1.00  0.00     0.152 C 
BRANCH  21  22
HETATM   22  C5  UNL     1      -6.714   2.540  17.055  1.00  0.00     0.176 C 
HETATM   23  O1  UNL     1      -7.917   2.466  16.707  1.00  0.00    -0.648 OA
HETATM   24  O2  UNL     1      -6.020   1.393  17.476  1.00  0.00    -0.648 OA
ENDBRANCH  21  22
ENDBRANCH  16  21
ENDBRANCH  10  12
ENDBRANCH   1  10
BRANCH   7  25
HETATM   25  N3  UNL     1      -0.297   7.842  12.246  1.00  0.00    -0.375 N 
ATOM     26  H3  UNL     1       0.715   7.789  12.362  1.00  0.00     0.161 HD
BRANCH  25  27
HETATM   27  C14 UNL     1      -0.910   9.090  12.581  1.00  0.00     0.126 C 
BRANCH  27  28
HETATM   28  C15 UNL     1      -1.069   9.262  14.077  1.00  0.00     0.003 A 
HETATM   29  C16 UNL     1      -2.557   9.333  14.544  1.00  0.00     0.007 A 
HETATM   30  C17 UNL     1      -1.630  10.471  14.685  1.00  0.00     0.007 A 
ENDBRANCH  27  28
ENDBRANCH  25  27
ENDBRANCH   7  25
TORSDOF 7
ENDMDL
MODEL 3
REMARK VINA RESULT: -7.349426032      3.706      7.166
REMARK  7 active torsions:
REMARK  status: ('A' for Active; 'I' for Inactive)
REMARK    1  A    between atoms: C3_3  and  C4_4 
REMARK    2  A    between atoms: C4_4  and  C5_5 
REMARK    3  A    between atoms: C8_11  and  N1_12 
REMARK    4  A    between atoms: N1_12  and  C9_14 
REMARK    5  A    between atoms: C13_20  and  N3_21 
REMARK    6  A    between atoms: N3_21  and  C14_23 
REMARK    7  A    between atoms: C14_23  and  C15_24 
ROOT
HETATM    1  C9  UNL     1      -2.831   4.914  11.211  1.00  0.00     0.684 A 
HETATM    2  N2  UNL     1      -1.776   4.685  12.010  1.00  0.00    -0.201 N 
ATOM      3  H2  UNL     1      -1.948   4.388  12.970  1.00  0.00     0.183 HD
HETATM    4  C10 UNL     1      -0.495   4.830  11.598  1.00  0.00     0.116 A 
HETATM    5  C11 UNL     1      -0.227   5.230  10.308  1.00  0.00    -0.002 A 
HETATM    6  C12 UNL     1       1.152   5.402   9.819  1.00  0.00     0.054 C 
HETATM    7  C13 UNL     1      -1.323   5.471   9.471  1.00  0.00     0.124 A 
HETATM    8  N4  UNL     1      -2.571   5.305   9.950  1.00  0.00    -0.176 N 
ATOM      9  H4  UNL     1      -3.358   5.484   9.326  1.00  0.00     0.186 HD
ENDROOT
BRANCH   1  10
HETATM   10  N1  UNL     1      -4.062   4.785  11.577  1.00  0.00    -0.188 N 
ATOM     11  H1  UNL     1      -4.780   4.845  10.855  1.00  0.00     0.184 HD
BRANCH  10  12
HETATM   12  C8  UNL     1      -4.483   4.569  12.895  1.00  0.00     0.094 A 
HETATM   13  C7  UNL     1      -4.399   3.281  13.440  1.00  0.00     0.144 A 
HETATM   14  C6  UNL     1      -4.807   3.032  14.730  1.00  0.00     0.052 A 
HETATM   15  F1  UNL     1      -3.912   2.242  12.718  1.00  0.00    -0.204 F 
HETATM   16  C3  UNL     1      -5.319   4.043  15.548  1.00  0.00    -0.039 A 
HETATM   17  C2  UNL     1      -5.408   5.303  15.035  1.00  0.00    -0.047 A 
HETATM   18  C1  UNL     1      -5.968   6.399  15.868  1.00  0.00     0.049 C 
HETATM   19  C18 UNL     1      -4.991   5.536  13.729  1.00  0.00    -0.025 A 
HETATM   20  C19 UNL     1      -5.102   6.908  13.202  1.00  0.00     0.051 C 
BRANCH  16  21
HETATM   21  C4  UNL     1      -5.733   3.736  16.950  1.00  0.00     0.152 C 
BRANCH  21  22
HETATM   22  C5  UNL     1      -6.578   2.556  17.063  1.00  0.00     0.176 C 
HETATM   23  O1  UNL     1      -7.810   2.605  16.830  1.00  0.00    -0.648 OA
HETATM   24  O2  UNL     1      -5.970   1.347  17.445  1.00  0.00    -0.648 OA
ENDBRANCH  21  22
ENDBRANCH  16  21
ENDBRANCH  10  12
ENDBRANCH   1  10
BRANCH   7  25
HETATM   25  N3  UNL     1      -1.056   5.837   8.285  1.00  0.00    -0.375 N 
ATOM     26  H3  UNL     1      -0.574   5.156   7.699  1.00  0.00     0.161 HD
BRANCH  25  27
HETATM   27  C14 UNL     1      -1.355   7.097   7.677  1.00  0.00     0.126 C 
BRANCH  27  28
HETATM   28  C15 UNL     1      -2.385   6.967   6.575  1.00  0.00     0.003 A 
HETATM   29  C16 UNL     1      -3.285   8.230   6.406  1.00  0.00     0.007 A 
HETATM   30  C17 UNL     1      -3.827   6.927   6.831  1.00  0.00     0.007 A 
ENDBRANCH  27  28
ENDBRANCH  25  27
ENDBRANCH   7  25
TORSDOF 7
ENDMDL
MODEL 4
REMARK VINA RESULT: -7.310979510      3.913      7.142
REMARK  7 active torsions:
REMARK  status: ('A' for Active; 'I' for Inactive)
REMARK    1  A    between atoms: C3_3  and  C4_4 
REMARK    2  A    between atoms: C4_4  and  C5_5 
REMARK    3  A    between atoms: C8_11  and  N1_12 
REMARK    4  A    between atoms: N1_12  and  C9_14 
REMARK    5  A    between atoms: C13_20  and  N3_21 
REMARK    6  A    between atoms: N3_21  and  C14_23 
REMARK    7  A    between atoms: C14_23  and  C15_24 
ROOT
HETATM    1  C9  UNL     1      -1.424   6.129  13.089  1.00  0.00     0.684 A 
HETATM    2  N2  UNL     1      -0.390   6.762  12.511  1.00  0.00    -0.201 N 
ATOM      3  H2  UNL     1       0.015   7.569  12.987  1.00  0.00     0.183 HD
HETATM    4  C10 UNL     1       0.140   6.378  11.326  1.00  0.00     0.116 A 
HETATM    5  C11 UNL     1      -0.383   5.294  10.657  1.00  0.00    -0.002 A 
HETATM    6  C12 UNL     1       0.161   4.843   9.364  1.00  0.00     0.054 C 
HETATM    7  C13 UNL     1      -1.461   4.631  11.254  1.00  0.00     0.124 A 
HETATM    8  N4  UNL     1      -1.935   5.070  12.437  1.00  0.00    -0.176 N 
ATOM      9  H4  UNL     1      -2.721   4.574  12.858  1.00  0.00     0.186 HD
ENDROOT
BRANCH   1  10
HETATM   10  N1  UNL     1      -1.949   6.474  14.217  1.00  0.00    -0.188 N 
ATOM     11  H1  UNL     1      -1.404   7.085  14.825  1.00  0.00     0.184 HD
BRANCH  10  12
HETATM   12  C8  UNL     1      -3.213   6.070  14.664  1.00  0.00     0.094 A 
HETATM   13  C7  UNL     1      -3.319   4.959  15.510  1.00  0.00     0.144 A 
HETATM   14  C6  UNL     1      -4.546   4.532  15.964  1.00  0.00     0.052 A 
HETATM   15  F1  UNL     1      -2.221   4.272  15.910  1.00  0.00    -0.204 F 
HETATM   16  C3  UNL     1      -5.730   5.182  15.605  1.00  0.00    -0.039 A 
HETATM   17  C2  UNL     1      -5.646   6.266  14.782  1.00  0.00    -0.047 A 
HETATM   18  C1  UNL     1      -6.887   6.968  14.363  1.00  0.00     0.049 C 
HETATM   19  C18 UNL     1      -4.398   6.683  14.333  1.00  0.00    -0.025 A 
HETATM   20  C19 UNL     1      -4.341   7.855  13.442  1.00  0.00     0.051 C 
BRANCH  16  21
HETATM   21  C4  UNL     1      -7.041   4.699  16.137  1.00  0.00     0.152 C 
BRANCH  21  22
HETATM   22  C5  UNL     1      -6.919   3.576  17.055  1.00  0.00     0.176 C 
HETATM   23  O1  UNL     1      -6.569   3.737  18.248  1.00  0.00    -0.648 OA
HETATM   24  O2  UNL     1      -7.209   2.291  16.562  1.00  0.00    -0.648 OA
ENDBRANCH  21  22
ENDBRANCH  16  21
ENDBRANCH  10  12
ENDBRANCH   1  10
BRANCH   7  25
HETATM   25  N3  UNL     1      -1.928   3.633  10.623  1.00  0.00    -0.375 N 
ATOM     26  H3  UNL     1      -2.177   3.791   9.647  1.00  0.00     0.161 HD
BRANCH  25  27
HETATM   27  C14 UNL     1      -2.146   2.312  11.127  1.00  0.00     0.126 C 
BRANCH  27  28
HETATM   28  C15 UNL     1      -3.619   1.971  11.211  1.00  0.00     0.003 A 
HETATM   29  C16 UNL     1      -4.181   1.976  12.667  1.00  0.00     0.007 A 
HETATM   30  C17 UNL     1      -4.119   0.751  11.849  1.00  0.00     0.007 A 
ENDBRANCH  27  28
ENDBRANCH  25  27
ENDBRANCH   7  25
TORSDOF 7
ENDMDL
MODEL 5
REMARK VINA RESULT: -7.283629912      3.567      6.863
REMARK  7 active torsions:
REMARK  status: ('A' for Active; 'I' for Inactive)
REMARK    1  A    between atoms: C3_3  and  C4_4 
REMARK    2  A    between atoms: C4_4  and  C5_5 
REMARK    3  A    between atoms: C8_11  and  N1_12 
REMARK    4  A    between atoms: N1_12  and  C9_14 
REMARK    5  A    between atoms: C13_20  and  N3_21 
REMARK    6  A    between atoms: N3_21  and  C14_23 
REMARK    7  A    between atoms: C14_23  and  C15_24 
ROOT
HETATM    1  C9  UNL     1      -1.546   5.825  10.216  1.00  0.00     0.684 A 
HETATM    2  N2  UNL     1      -1.099   5.276   9.074  1.00  0.00    -0.201 N 
ATOM      3  H2  UNL     1      -1.782   4.949   8.391  1.00  0.00     0.183 HD
HETATM    4  C10 UNL     1       0.217   5.137   8.789  1.00  0.00     0.116 A 
HETATM    5  C11 UNL     1       1.166   5.567   9.690  1.00  0.00    -0.002 A 
HETATM    6  C12 UNL     1       2.609   5.432   9.420  1.00  0.00     0.054 C 
HETATM    7  C13 UNL     1       0.706   6.139  10.881  1.00  0.00     0.124 A 
HETATM    8  N4  UNL     1      -0.619   6.246  11.096  1.00  0.00    -0.176 N 
ATOM      9  H4  UNL     1      -0.937   6.666  11.970  1.00  0.00     0.186 HD
ENDROOT
BRANCH   1  10
HETATM   10  N1  UNL     1      -2.793   5.969  10.514  1.00  0.00    -0.188 N 
ATOM     11  H1  UNL     1      -3.375   6.504   9.869  1.00  0.00     0.184 HD
BRANCH  10  12
HETATM   12  C8  UNL     1      -3.405   5.443  11.658  1.00  0.00     0.094 A 
HETATM   13  C7  UNL     1      -3.595   4.059  11.760  1.00  0.00     0.144 A 
HETATM   14  C6  UNL     1      -4.196   3.509  12.869  1.00  0.00     0.052 A 
HETATM   15  F1  UNL     1      -3.191   3.219  10.776  1.00  0.00    -0.204 F 
HETATM   16  C3  UNL     1      -4.640   4.299  13.933  1.00  0.00    -0.039 A 
HETATM   17  C2  UNL     1      -4.464   5.648  13.851  1.00  0.00    -0.047 A 
HETATM   18  C1  UNL     1      -4.943   6.521  14.954  1.00  0.00     0.049 C 
HETATM   19  C18 UNL     1      -3.854   6.186  12.723  1.00  0.00    -0.025 A 
HETATM   20  C19 UNL     1      -3.680   7.648  12.663  1.00  0.00     0.051 C 
BRANCH  16  21
HETATM   21  C4  UNL     1      -5.270   3.660  15.128  1.00  0.00     0.152 C 
BRANCH  21  22
HETATM   22  C5  UNL     1      -4.502   2.548  15.668  1.00  0.00     0.176 C 
HETATM   23  O1  UNL     1      -3.530   2.732  16.439  1.00  0.00    -0.648 OA
HETATM   24  O2  UNL     1      -4.882   1.246  15.297  1.00  0.00    -0.648 OA
ENDBRANCH  21  22
ENDBRANCH  16  21
ENDBRANCH  10  12
ENDBRANCH   1  10
BRANCH   7  25
HETATM   25  N3  UNL     1       1.596   6.530  11.698  1.00  0.00    -0.375 N 
ATOM     26  H3  UNL     1       1.999   5.816  12.304  1.00  0.00     0.161 HD
BRANCH  25  27
HETATM   27  C14 UNL     1       2.097   7.860  11.865  1.00  0.00     0.126 C 
BRANCH  27  28
HETATM   28  C15 UNL     1       3.379   7.887  12.670  1.00  0.00     0.003 A 
HETATM   29  C16 UNL     1       4.670   7.873  11.792  1.00  0.00     0.007 A 
HETATM   30  C17 UNL     1       4.324   6.767  12.703  1.00  0.00     0.007 A 
ENDBRANCH  27  28
ENDBRANCH  25  27
ENDBRANCH   7  25
TORSDOF 7
ENDMDL
