MODEL 1
REMARK VINA RESULT: -7.681884277      0.000      0.000
REMARK  6 active torsions:
REMARK  status: ('A' for Active; 'I' for Inactive)
REMARK    1  A    between atoms: C2_2  and  O1_3 
REMARK    2  A    between atoms: O1_3  and  C3_4 
REMARK    3  A    between atoms: C3_4  and  C4_5 
REMARK    4  A    between atoms: C4_5  and  N1_6 
REMARK       I    between atoms: N1_6  and  C5_8 
REMARK       I    between atoms: C5_8  and  N3_15 
REMARK       I    between atoms: N2_9  and  C6_11 
REMARK    5  A    between atoms: C6_11  and  O3_13 
REMARK    6  A    between atoms: N3_15  and  C8_17 
ROOT
HETATM    1  N1  UNL     1      -4.552   2.888  12.121  1.00  0.00    -0.224 N 
ATOM      2  H1  UNL     1      -5.516   2.942  11.793  1.00  0.00     0.177 HD
HETATM    3  C5  UNL     1      -4.226   3.085  13.505  1.00  0.00     0.679 C 
HETATM    4  N2  UNL     1      -4.667   2.215  14.323  1.00  0.00    -0.135 N 
ATOM      5  H2  UNL     1      -5.216   1.450  13.931  1.00  0.00     0.189 HD
HETATM    6  C6  UNL     1      -4.470   2.208  15.722  1.00  0.00     0.378 C 
HETATM    7  O2  UNL     1      -3.449   2.660  16.301  1.00  0.00    -0.238 OA
HETATM    8  N3  UNL     1      -3.450   4.220  13.833  1.00  0.00    -0.217 N 
ATOM      9  H3  UNL     1      -2.473   4.069  14.083  1.00  0.00     0.178 HD
ENDROOT
BRANCH   1  10
HETATM   10  C4  UNL     1      -3.463   2.610  11.207  1.00  0.00     0.164 C 
BRANCH  10  11
HETATM   11  C3  UNL     1      -3.868   1.398  10.394  1.00  0.00     0.187 C 
BRANCH  11  12
HETATM   12  O1  UNL     1      -4.130   0.301  11.214  1.00  0.00    -0.390 OA
BRANCH  12  13
HETATM   13  C2  UNL     1      -2.948  -0.346  11.537  1.00  0.00     0.163 C 
HETATM   14  C1  UNL     1      -3.052  -1.856  11.318  1.00  0.00     0.033 C 
ENDBRANCH  12  13
ENDBRANCH  11  12
ENDBRANCH  10  11
ENDBRANCH   1  10
BRANCH   8  15
HETATM   15  C8  UNL     1      -3.938   5.574  13.839  1.00  0.00     0.050 C 
HETATM   16  C9  UNL     1      -5.052   5.753  14.848  1.00  0.00     0.036 C 
HETATM   17  C10 UNL     1      -5.532   7.180  14.822  1.00  0.00    -0.010 C 
HETATM   18  C11 UNL     1      -6.017   7.616  13.470  1.00  0.00     0.009 C 
HETATM   19  C15 UNL     1      -4.349   8.050  15.231  1.00  0.00     0.030 C 
HETATM   20  C12 UNL     1      -4.909   7.388  12.463  1.00  0.00    -0.010 C 
HETATM   21  C13 UNL     1      -3.768   8.321  12.851  1.00  0.00     0.030 C 
HETATM   22  C17 UNL     1      -4.418   5.972  12.472  1.00  0.00     0.036 C 
HETATM   23  C14 UNL     1      -3.269   7.907  14.211  1.00  0.00     0.040 C 
HETATM   24 CL1  UNL     1      -1.909   8.983  14.661  1.00  0.00    -0.119 Cl
HETATM   25  C16 UNL     1      -2.777   6.477  14.218  1.00  0.00     0.057 C 
ENDBRANCH   8  15
BRANCH   6  26
HETATM   26  O3  UNL     1      -5.469   1.667  16.519  1.00  0.00    -0.308 OA
HETATM   27  C7  UNL     1      -6.442   2.472  17.131  1.00  0.00     0.215 C 
ENDBRANCH   6  26
TORSDOF 6
ENDMDL
MODEL 2
REMARK VINA RESULT: -7.617064190      1.068      1.794
REMARK  6 active torsions:
REMARK  status: ('A' for Active; 'I' for Inactive)
REMARK    1  A    between atoms: C2_2  and  O1_3 
REMARK    2  A    between atoms: O1_3  and  C3_4 
REMARK    3  A    between atoms: C3_4  and  C4_5 
REMARK    4  A    between atoms: C4_5  and  N1_6 
REMARK       I    between atoms: N1_6  and  C5_8 
REMARK       I    between atoms: C5_8  and  N3_15 
REMARK       I    between atoms: N2_9  and  C6_11 
REMARK    5  A    between atoms: C6_11  and  O3_13 
REMARK    6  A    between atoms: N3_15  and  C8_17 
ROOT
HETATM    1  N1  UNL     1      -4.906   2.946  12.185  1.00  0.00    -0.224 N 
ATOM      2  H1  UNL     1      -5.891   3.057  11.947  1.00  0.00     0.177 HD
HETATM    3  C5  UNL     1      -4.447   3.099  13.537  1.00  0.00     0.679 C 
HETATM    4  N2  UNL     1      -4.860   2.238  14.379  1.00  0.00    -0.135 N 
ATOM      5  H2  UNL     1      -5.482   1.511  14.028  1.00  0.00     0.189 HD
HETATM    6  C6  UNL     1      -4.538   2.195  15.754  1.00  0.00     0.378 C 
HETATM    7  O2  UNL     1      -3.446   2.581  16.245  1.00  0.00    -0.238 OA
HETATM    8  N3  UNL     1      -3.584   4.185  13.808  1.00  0.00    -0.217 N 
ATOM      9  H3  UNL     1      -2.598   3.978  13.968  1.00  0.00     0.178 HD
ENDROOT
BRANCH   1  10
HETATM   10  C4  UNL     1      -3.920   2.628  11.172  1.00  0.00     0.164 C 
BRANCH  10  11
HETATM   11  C3  UNL     1      -4.346   1.319  10.538  1.00  0.00     0.187 C 
BRANCH  11  12
HETATM   12  O1  UNL     1      -4.294   0.270  11.455  1.00  0.00    -0.390 OA
BRANCH  12  13
HETATM   13  C2  UNL     1      -3.015  -0.264  11.496  1.00  0.00     0.163 C 
HETATM   14  C1  UNL     1      -3.030  -1.780  11.299  1.00  0.00     0.033 C 
ENDBRANCH  12  13
ENDBRANCH  11  12
ENDBRANCH  10  11
ENDBRANCH   1  10
BRANCH   8  15
HETATM   15  C8  UNL     1      -3.996   5.563  13.877  1.00  0.00     0.050 C 
HETATM   16  C9  UNL     1      -2.890   6.441  14.422  1.00  0.00     0.036 C 
HETATM   17  C10 UNL     1      -3.361   7.870  14.477  1.00  0.00    -0.010 C 
HETATM   18  C11 UNL     1      -4.595   8.054  15.312  1.00  0.00     0.009 C 
HETATM   19  C15 UNL     1      -3.663   8.289  13.043  1.00  0.00     0.030 C 
HETATM   20  C12 UNL     1      -5.678   7.136  14.784  1.00  0.00    -0.010 C 
HETATM   21  C13 UNL     1      -6.013   7.620  13.378  1.00  0.00     0.030 C 
HETATM   22  C17 UNL     1      -5.228   5.707  14.723  1.00  0.00     0.036 C 
HETATM   23  C14 UNL     1      -4.784   7.452  12.521  1.00  0.00     0.040 C 
HETATM   24 CL1  UNL     1      -5.180   7.994  10.860  1.00  0.00    -0.119 Cl
HETATM   25  C16 UNL     1      -4.332   6.010  12.465  1.00  0.00     0.057 C 
ENDBRANCH   8  15
BRANCH   6  26
HETATM   26  O3  UNL     1      -5.490   1.693  16.631  1.00  0.00    -0.308 OA
HETATM   27  C7  UNL     1      -6.591   2.458  17.042  1.00  0.00     0.215 C 
ENDBRANCH   6  26
TORSDOF 6
ENDMDL
MODEL 3
REMARK VINA RESULT: -7.505341181      1.080      1.698
REMARK  6 active torsions:
REMARK  status: ('A' for Active; 'I' for Inactive)
REMARK    1  A    between atoms: C2_2  and  O1_3 
REMARK    2  A    between atoms: O1_3  and  C3_4 
REMARK    3  A    between atoms: C3_4  and  C4_5 
REMARK    4  A    between atoms: C4_5  and  N1_6 
REMARK       I    between atoms: N1_6  and  C5_8 
REMARK       I    between atoms: C5_8  and  N3_15 
REMARK       I    between atoms: N2_9  and  C6_11 
REMARK    5  A    between atoms: C6_11  and  O3_13 
REMARK    6  A    between atoms: N3_15  and  C8_17 
ROOT
HETATM    1  N1  UNL     1      -4.896   2.946  11.917  1.00  0.00    -0.224 N 
ATOM      2  H1  UNL     1      -5.879   3.043  11.666  1.00  0.00     0.177 HD
HETATM    3  C5  UNL     1      -4.460   3.083  13.279  1.00  0.00     0.679 C 
HETATM    4  N2  UNL     1      -4.869   2.200  14.099  1.00  0.00    -0.135 N 
ATOM      5  H2  UNL     1      -5.473   1.467  13.726  1.00  0.00     0.189 HD
HETATM    6  C6  UNL     1      -4.568   2.138  15.478  1.00  0.00     0.378 C 
HETATM    7  O2  UNL     1      -3.491   2.536  15.992  1.00  0.00    -0.238 OA
HETATM    8  N3  UNL     1      -3.622   4.180  13.582  1.00  0.00    -0.217 N 
ATOM      9  H3  UNL     1      -2.635   3.988  13.753  1.00  0.00     0.178 HD
ENDROOT
BRANCH   1  10
HETATM   10  C4  UNL     1      -3.889   2.664  10.914  1.00  0.00     0.164 C 
BRANCH  10  11
HETATM   11  C3  UNL     1      -2.979   1.598  11.490  1.00  0.00     0.187 C 
BRANCH  11  12
HETATM   12  O1  UNL     1      -1.639   1.972  11.405  1.00  0.00    -0.390 OA
BRANCH  12  13
HETATM   13  C2  UNL     1      -1.503   3.068  10.568  1.00  0.00     0.163 C 
HETATM   14  C1  UNL     1      -0.820   4.238  11.276  1.00  0.00     0.033 C 
ENDBRANCH  12  13
ENDBRANCH  11  12
ENDBRANCH  10  11
ENDBRANCH   1  10
BRANCH   8  15
HETATM   15  C8  UNL     1      -4.060   5.548  13.669  1.00  0.00     0.050 C 
HETATM   16  C9  UNL     1      -5.166   5.709  14.690  1.00  0.00     0.036 C 
HETATM   17  C10 UNL     1      -5.594   7.151  14.748  1.00  0.00    -0.010 C 
HETATM   18  C11 UNL     1      -6.062   7.683  13.425  1.00  0.00     0.009 C 
HETATM   19  C15 UNL     1      -4.380   7.951  15.206  1.00  0.00     0.030 C 
HETATM   20  C12 UNL     1      -4.963   7.474  12.404  1.00  0.00    -0.010 C 
HETATM   21  C13 UNL     1      -3.788   8.341  12.845  1.00  0.00     0.030 C 
HETATM   22  C17 UNL     1      -4.524   6.043  12.329  1.00  0.00     0.036 C 
HETATM   23  C14 UNL     1      -3.305   7.829  14.177  1.00  0.00     0.040 C 
HETATM   24 CL1  UNL     1      -1.906   8.826  14.687  1.00  0.00    -0.119 Cl
HETATM   25  C16 UNL     1      -2.866   6.384  14.099  1.00  0.00     0.057 C 
ENDBRANCH   8  15
BRANCH   6  26
HETATM   26  O3  UNL     1      -5.523   1.603  16.331  1.00  0.00    -0.308 OA
HETATM   27  C7  UNL     1      -6.105   2.362  17.357  1.00  0.00     0.215 C 
ENDBRANCH   6  26
TORSDOF 6
ENDMDL
MODEL 4
REMARK VINA RESULT: -7.412390384      1.088      1.870
REMARK  6 active torsions:
REMARK  status: ('A' for Active; 'I' for Inactive)
REMARK    1  A    between atoms: C2_2  and  O1_3 
REMARK    2  A    between atoms: O1_3  and  C3_4 
REMARK    3  A    between atoms: C3_4  and  C4_5 
REMARK    4  A    between atoms: C4_5  and  N1_6 
REMARK       I    between atoms: N1_6  and  C5_8 
REMARK       I    between atoms: C5_8  and  N3_15 
REMARK       I    between atoms: N2_9  and  C6_11 
REMARK    5  A    between atoms: C6_11  and  O3_13 
REMARK    6  A    between atoms: N3_15  and  C8_17 
ROOT
HETATM    1  N1  UNL     1      -4.493   2.908  11.901  1.00  0.00    -0.224 N 
ATOM      2  H1  UNL     1      -5.446   3.027  11.559  1.00  0.00     0.177 HD
HETATM    3  C5  UNL     1      -4.179   3.059  13.294  1.00  0.00     0.679 C 
HETATM    4  N2  UNL     1      -4.686   2.203  14.088  1.00  0.00    -0.135 N 
ATOM      5  H2  UNL     1      -5.273   1.480  13.673  1.00  0.00     0.189 HD
HETATM    6  C6  UNL     1      -4.512   2.159  15.489  1.00  0.00     0.378 C 
HETATM    7  O2  UNL     1      -3.476   2.537  16.093  1.00  0.00    -0.238 OA
HETATM    8  N3  UNL     1      -3.340   4.138  13.655  1.00  0.00    -0.217 N 
ATOM      9  H3  UNL     1      -2.379   3.923  13.918  1.00  0.00     0.178 HD
ENDROOT
BRANCH   1  10
HETATM   10  C4  UNL     1      -3.407   2.580  10.999  1.00  0.00     0.164 C 
BRANCH  10  11
HETATM   11  C3  UNL     1      -3.723   1.224  10.403  1.00  0.00     0.187 C 
BRANCH  11  12
HETATM   12  O1  UNL     1      -3.961   0.275  11.396  1.00  0.00    -0.390 OA
BRANCH  12  13
HETATM   13  C2  UNL     1      -2.823  -0.487  11.609  1.00  0.00     0.163 C 
HETATM   14  C1  UNL     1      -3.060  -1.960  11.276  1.00  0.00     0.033 C 
ENDBRANCH  12  13
ENDBRANCH  11  12
ENDBRANCH  10  11
ENDBRANCH   1  10
BRANCH   8  15
HETATM   15  C8  UNL     1      -3.746   5.519  13.679  1.00  0.00     0.050 C 
HETATM   16  C9  UNL     1      -4.221   5.978  12.317  1.00  0.00     0.036 C 
HETATM   17  C10 UNL     1      -4.634   7.423  12.387  1.00  0.00    -0.010 C 
HETATM   18  C11 UNL     1      -3.535   8.331  12.857  1.00  0.00     0.009 C 
HETATM   19  C15 UNL     1      -5.799   7.501  13.367  1.00  0.00     0.030 C 
HETATM   20  C12 UNL     1      -3.039   7.833  14.199  1.00  0.00    -0.010 C 
HETATM   21  C13 UNL     1      -4.198   7.990  15.177  1.00  0.00     0.030 C 
HETATM   22  C17 UNL     1      -2.620   6.395  14.150  1.00  0.00     0.036 C 
HETATM   23  C14 UNL     1      -5.318   7.092  14.720  1.00  0.00     0.040 C 
HETATM   24 CL1  UNL     1      -6.673   7.250  15.882  1.00  0.00    -0.119 Cl
HETATM   25  C16 UNL     1      -4.892   5.642  14.669  1.00  0.00     0.057 C 
ENDBRANCH   8  15
BRANCH   6  26
HETATM   26  O3  UNL     1      -5.556   1.666  16.260  1.00  0.00    -0.308 OA
HETATM   27  C7  UNL     1      -6.360   2.509  17.041  1.00  0.00     0.215 C 
ENDBRANCH   6  26
TORSDOF 6
ENDMDL
MODEL 5
REMARK VINA RESULT: -7.359257765      1.749      4.815
REMARK  6 active torsions:
REMARK  status: ('A' for Active; 'I' for Inactive)
REMARK    1  A    between atoms: C2_2  and  O1_3 
REMARK    2  A    between atoms: O1_3  and  C3_4 
REMARK    3  A    between atoms: C3_4  and  C4_5 
REMARK    4  A    between atoms: C4_5  and  N1_6 
REMARK       I    between atoms: N1_6  and  C5_8 
REMARK       I    between atoms: C5_8  and  N3_15 
REMARK       I    between atoms: N2_9  and  C6_11 
REMARK    5  A    between atoms: C6_11  and  O3_13 
REMARK    6  A    between atoms: N3_15  and  C8_17 
ROOT
HETATM    1  N1  UNL     1      -4.097   3.064  14.265  1.00  0.00    -0.224 N 
ATOM      2  H1  UNL     1      -3.202   2.907  14.729  1.00  0.00     0.177 HD
HETATM    3  C5  UNL     1      -4.226   2.946  12.840  1.00  0.00     0.679 C 
HETATM    4  N2  UNL     1      -4.051   1.786  12.346  1.00  0.00    -0.135 N 
ATOM      5  H2  UNL     1      -3.832   1.034  13.000  1.00  0.00     0.189 HD
HETATM    6  C6  UNL     1      -4.129   1.440  10.979  1.00  0.00     0.378 C 
HETATM    7  O2  UNL     1      -4.883   2.001  10.143  1.00  0.00    -0.238 OA
HETATM    8  N3  UNL     1      -4.535   4.122  12.119  1.00  0.00    -0.217 N 
ATOM      9  H3  UNL     1      -5.481   4.217  11.751  1.00  0.00     0.178 HD
ENDROOT
BRANCH   1  10
HETATM   10  C4  UNL     1      -5.283   3.413  15.022  1.00  0.00     0.164 C 
BRANCH  10  11
HETATM   11  C3  UNL     1      -5.266   2.572  16.282  1.00  0.00     0.187 C 
BRANCH  11  12
HETATM   12  O1  UNL     1      -6.520   2.023  16.544  1.00  0.00    -0.390 OA
BRANCH  12  13
HETATM   13  C2  UNL     1      -7.284   2.912  17.284  1.00  0.00     0.163 C 
HETATM   14  C1  UNL     1      -6.427   3.712  18.265  1.00  0.00     0.033 C 
ENDBRANCH  12  13
ENDBRANCH  11  12
ENDBRANCH  10  11
ENDBRANCH   1  10
BRANCH   8  15
HETATM   15  C8  UNL     1      -3.610   5.195  11.866  1.00  0.00     0.050 C 
HETATM   16  C9  UNL     1      -3.979   5.955  10.610  1.00  0.00     0.036 C 
HETATM   17  C10 UNL     1      -2.989   7.066  10.383  1.00  0.00    -0.010 C 
HETATM   18  C11 UNL     1      -1.572   6.582  10.269  1.00  0.00     0.009 C 
HETATM   19  C15 UNL     1      -3.100   8.005  11.578  1.00  0.00     0.030 C 
HETATM   20  C12 UNL     1      -1.233   5.785  11.511  1.00  0.00    -0.010 C 
HETATM   21  C13 UNL     1      -1.279   6.761  12.681  1.00  0.00     0.030 C 
HETATM   22  C17 UNL     1      -2.207   4.672  11.754  1.00  0.00     0.036 C 
HETATM   23  C14 UNL     1      -2.692   7.268  12.811  1.00  0.00     0.040 C 
HETATM   24 CL1  UNL     1      -2.759   8.394  14.203  1.00  0.00    -0.119 Cl
HETATM   25  C16 UNL     1      -3.672   6.142  13.052  1.00  0.00     0.057 C 
ENDBRANCH   8  15
BRANCH   6  26
HETATM   26  O3  UNL     1      -3.319   0.411  10.520  1.00  0.00    -0.308 OA
HETATM   27  C7  UNL     1      -2.951  -0.663  11.343  1.00  0.00     0.215 C 
ENDBRANCH   6  26
TORSDOF 6
ENDMDL
