MODEL 1
REMARK VINA RESULT: -7.844381458      0.000      0.000
REMARK  7 active torsions:
REMARK  status: ('A' for Active; 'I' for Inactive)
REMARK    1  A    between atoms: C5_8  and  N2_9 
REMARK    2  A    between atoms: C6_11  and  C7_12 
REMARK    3  A    between atoms: C7_12  and  C8_13 
REMARK    4  A    between atoms: C8_13  and  C9_14 
REMARK    5  A    between atoms: C9_14  and  N3_15 
REMARK    6  A    between atoms: N3_15  and  C10_17 
REMARK    7  A    between atoms: C16_25  and  C17_26 
ROOT
HETATM    1  C8  UNL     1      -2.931   1.403  10.370  1.00  0.00     0.049 C 
ENDROOT
BRANCH   1   2
HETATM    2  C7  UNL     1      -4.264   1.504  11.167  1.00  0.00     0.050 C 
BRANCH   2   3
HETATM    3  C6  UNL     1      -4.870   2.878  11.050  1.00  0.00     0.079 C 
HETATM    4  N2  UNL     1      -4.879   3.609  12.190  1.00  0.00    -0.205 N 
ATOM      5  H2  UNL     1      -4.805   4.553  11.812  1.00  0.00     0.183 HD
BRANCH   4   6
HETATM    6  C5  UNL     1      -4.919   3.841  13.362  1.00  0.00     0.684 A 
HETATM    7  N1  UNL     1      -4.297   2.982  14.255  1.00  0.00    -0.156 N 
HETATM    8  C4  UNL     1      -4.332   3.198  15.568  1.00  0.00     0.261 A 
ATOM      9  H1  UNL     1      -3.802   2.164  13.898  1.00  0.00     0.187 HD
HETATM   10  C3  UNL     1      -5.003   4.298  16.047  1.00  0.00     0.100 A 
HETATM   11  O1  UNL     1      -3.760   2.415  16.396  1.00  0.00    -0.268 OA
HETATM   12  C2  UNL     1      -5.629   5.172  15.184  1.00  0.00     0.028 A 
HETATM   13  C1  UNL     1      -6.335   6.383  15.734  1.00  0.00     0.069 C 
HETATM   14  N5  UNL     1      -5.573   4.924  13.866  1.00  0.00    -0.196 N 
ATOM     15  H5  UNL     1      -6.034   5.566  13.221  1.00  0.00     0.184 HD
ENDBRANCH   4   6
ENDBRANCH   2   3
ENDBRANCH   1   2
BRANCH   1  16
HETATM   16  C9  UNL     1      -1.903   2.137  11.135  1.00  0.00     0.063 C 
BRANCH  16  17
HETATM   17  N3  UNL     1      -1.253   3.260  10.620  1.00  0.00    -0.355 N 
ATOM     18  H3  UNL     1      -0.881   3.159   9.675  1.00  0.00     0.166 HD
BRANCH  17  19
HETATM   19  C10 UNL     1      -1.058   4.406  11.175  1.00  0.00     0.112 A 
HETATM   20  N4  UNL     1      -1.608   4.729  12.352  1.00  0.00    -0.346 N 
HETATM   21  C11 UNL     1      -1.574   5.987  12.830  1.00  0.00     0.007 A 
ATOM     22  H4  UNL     1      -2.065   4.002  12.902  1.00  0.00     0.167 HD
HETATM   23  C12 UNL     1      -2.189   6.315  14.149  1.00  0.00     0.068 C 
HETATM   24  C13 UNL     1      -0.948   6.913  12.054  1.00  0.00     0.032 A 
HETATM   25  C14 UNL     1      -0.347   6.637  10.803  1.00  0.00    -0.050 A 
HETATM   26  C15 UNL     1       0.395   7.687  10.111  1.00  0.00     0.049 C 
HETATM   27  C16 UNL     1      -0.403   5.349  10.347  1.00  0.00    -0.005 A 
BRANCH  27  28
HETATM   28  C17 UNL     1       0.213   4.901   9.106  1.00  0.00     0.015 C 
HETATM   29  C18 UNL     1      -0.459   5.528   7.866  1.00  0.00     0.015 C 
HETATM   30  C19 UNL     1       1.721   5.251   9.017  1.00  0.00     0.015 C 
ENDBRANCH  27  28
ENDBRANCH  17  19
ENDBRANCH  16  17
ENDBRANCH   1  16
TORSDOF 7
ENDMDL
MODEL 2
REMARK VINA RESULT: -7.683570745      1.906      6.136
REMARK  7 active torsions:
REMARK  status: ('A' for Active; 'I' for Inactive)
REMARK    1  A    between atoms: C5_8  and  N2_9 
REMARK    2  A    between atoms: C6_11  and  C7_12 
REMARK    3  A    between atoms: C7_12  and  C8_13 
REMARK    4  A    between atoms: C8_13  and  C9_14 
REMARK    5  A    between atoms: C9_14  and  N3_15 
REMARK    6  A    between atoms: N3_15  and  C10_17 
REMARK    7  A    between atoms: C16_25  and  C17_26 
ROOT
HETATM    1  C8  UNL     1      -4.713   2.516  11.586  1.00  0.00     0.049 C 
ENDROOT
BRANCH   1   2
HETATM    2  C7  UNL     1      -3.956   1.596  10.585  1.00  0.00     0.050 C 
BRANCH   2   3
HETATM    3  C6  UNL     1      -2.551   1.316  11.053  1.00  0.00     0.079 C 
HETATM    4  N2  UNL     1      -1.716   2.382  11.058  1.00  0.00    -0.205 N 
ATOM      5  H2  UNL     1      -1.100   2.138  11.832  1.00  0.00     0.183 HD
BRANCH   4   6
HETATM    6  C5  UNL     1      -1.249   3.430  10.723  1.00  0.00     0.684 A 
HETATM    7  N1  UNL     1      -1.051   4.428  11.664  1.00  0.00    -0.156 N 
HETATM    8  C4  UNL     1      -0.546   5.612  11.327  1.00  0.00     0.261 A 
ATOM      9  H1  UNL     1      -1.298   4.251  12.638  1.00  0.00     0.187 HD
HETATM   10  C3  UNL     1      -0.217   5.850  10.014  1.00  0.00     0.100 A 
HETATM   11  O1  UNL     1      -0.358   6.534  12.187  1.00  0.00    -0.268 OA
HETATM   12  C2  UNL     1      -0.400   4.877   9.055  1.00  0.00     0.028 A 
HETATM   13  C1  UNL     1      -0.007   5.154   7.628  1.00  0.00     0.069 C 
HETATM   14  N5  UNL     1      -0.910   3.693   9.430  1.00  0.00    -0.196 N 
ATOM     15  H5  UNL     1      -1.048   2.968   8.726  1.00  0.00     0.184 HD
ENDBRANCH   4   6
ENDBRANCH   2   3
ENDBRANCH   1   2
BRANCH   1  16
HETATM   16  C9  UNL     1      -4.373   2.061  12.948  1.00  0.00     0.063 C 
BRANCH  16  17
HETATM   17  N3  UNL     1      -4.006   2.950  13.959  1.00  0.00    -0.355 N 
ATOM     18  H3  UNL     1      -3.005   3.126  14.050  1.00  0.00     0.166 HD
BRANCH  17  19
HETATM   19  C10 UNL     1      -4.759   3.580  14.794  1.00  0.00     0.112 A 
HETATM   20  N4  UNL     1      -5.565   2.938  15.648  1.00  0.00    -0.346 N 
HETATM   21  C11 UNL     1      -6.496   3.588  16.372  1.00  0.00     0.007 A 
ATOM     22  H4  UNL     1      -5.473   1.928  15.753  1.00  0.00     0.167 HD
HETATM   23  C12 UNL     1      -7.376   2.847  17.321  1.00  0.00     0.068 C 
HETATM   24  C13 UNL     1      -6.571   4.936  16.191  1.00  0.00     0.032 A 
HETATM   25  C14 UNL     1      -5.749   5.672  15.306  1.00  0.00    -0.050 A 
HETATM   26  C15 UNL     1      -5.842   7.129  15.278  1.00  0.00     0.049 C 
HETATM   27  C16 UNL     1      -4.816   4.979  14.586  1.00  0.00    -0.005 A 
BRANCH  27  28
HETATM   28  C17 UNL     1      -3.866   5.603  13.676  1.00  0.00     0.015 C 
HETATM   29  C18 UNL     1      -4.565   6.261  12.468  1.00  0.00     0.015 C 
HETATM   30  C19 UNL     1      -3.016   6.709  14.353  1.00  0.00     0.015 C 
ENDBRANCH  27  28
ENDBRANCH  17  19
ENDBRANCH  16  17
ENDBRANCH   1  16
TORSDOF 7
ENDMDL
MODEL 3
REMARK VINA RESULT: -7.623558543      1.787      6.658
REMARK  7 active torsions:
REMARK  status: ('A' for Active; 'I' for Inactive)
REMARK    1  A    between atoms: C5_8  and  N2_9 
REMARK    2  A    between atoms: C6_11  and  C7_12 
REMARK    3  A    between atoms: C7_12  and  C8_13 
REMARK    4  A    between atoms: C8_13  and  C9_14 
REMARK    5  A    between atoms: C9_14  and  N3_15 
REMARK    6  A    between atoms: N3_15  and  C10_17 
REMARK    7  A    between atoms: C16_25  and  C17_26 
ROOT
HETATM    1  C8  UNL     1      -4.468   2.015  12.387  1.00  0.00     0.049 C 
ENDROOT
BRANCH   1   2
HETATM    2  C7  UNL     1      -3.454   0.988  11.804  1.00  0.00     0.050 C 
BRANCH   2   3
HETATM    3  C6  UNL     1      -3.027   1.369  10.410  1.00  0.00     0.079 C 
HETATM    4  N2  UNL     1      -2.117   2.370  10.334  1.00  0.00    -0.205 N 
ATOM      5  H2  UNL     1      -1.616   2.108   9.486  1.00  0.00     0.183 HD
BRANCH   4   6
HETATM    6  C5  UNL     1      -1.534   3.368  10.638  1.00  0.00     0.684 A 
HETATM    7  N1  UNL     1      -1.875   4.036  11.804  1.00  0.00    -0.156 N 
HETATM    8  C4  UNL     1      -1.259   5.157  12.169  1.00  0.00     0.261 A 
ATOM      9  H1  UNL     1      -2.616   3.659  12.396  1.00  0.00     0.187 HD
HETATM   10  C3  UNL     1      -0.263   5.665  11.369  1.00  0.00     0.100 A 
HETATM   11  O1  UNL     1      -1.564   5.776  13.241  1.00  0.00    -0.268 OA
HETATM   12  C2  UNL     1       0.100   5.022  10.205  1.00  0.00     0.028 A 
HETATM   13  C1  UNL     1       1.212   5.585   9.360  1.00  0.00     0.069 C 
HETATM   14  N5  UNL     1      -0.542   3.892   9.867  1.00  0.00    -0.196 N 
ATOM     15  H5  UNL     1      -0.278   3.411   9.007  1.00  0.00     0.184 HD
ENDBRANCH   4   6
ENDBRANCH   2   3
ENDBRANCH   1   2
BRANCH   1  16
HETATM   16  C9  UNL     1      -4.443   1.875  13.856  1.00  0.00     0.063 C 
BRANCH  16  17
HETATM   17  N3  UNL     1      -4.269   2.969  14.705  1.00  0.00    -0.355 N 
ATOM     18  H3  UNL     1      -3.555   2.859  15.425  1.00  0.00     0.166 HD
BRANCH  17  19
HETATM   19  C10 UNL     1      -4.886   4.100  14.702  1.00  0.00     0.112 A 
HETATM   20  N4  UNL     1      -4.579   5.076  13.839  1.00  0.00    -0.346 N 
HETATM   21  C11 UNL     1      -5.077   6.321  13.967  1.00  0.00     0.007 A 
ATOM     22  H4  UNL     1      -3.950   4.872  13.063  1.00  0.00     0.167 HD
HETATM   23  C12 UNL     1      -4.722   7.386  12.986  1.00  0.00     0.068 C 
HETATM   24  C13 UNL     1      -5.912   6.533  15.021  1.00  0.00     0.032 A 
HETATM   25  C14 UNL     1      -6.277   5.546  15.966  1.00  0.00    -0.050 A 
HETATM   26  C15 UNL     1      -7.270   5.858  16.990  1.00  0.00     0.049 C 
HETATM   27  C16 UNL     1      -5.751   4.294  15.806  1.00  0.00    -0.005 A 
BRANCH  27  28
HETATM   28  C17 UNL     1      -6.073   3.163  16.666  1.00  0.00     0.015 C 
HETATM   29  C18 UNL     1      -5.651   3.409  18.130  1.00  0.00     0.015 C 
HETATM   30  C19 UNL     1      -7.587   2.832  16.690  1.00  0.00     0.015 C 
ENDBRANCH  27  28
ENDBRANCH  17  19
ENDBRANCH  16  17
ENDBRANCH   1  16
TORSDOF 7
ENDMDL
MODEL 4
REMARK VINA RESULT: -7.619585361      2.360      6.118
REMARK  7 active torsions:
REMARK  status: ('A' for Active; 'I' for Inactive)
REMARK    1  A    between atoms: C5_8  and  N2_9 
REMARK    2  A    between atoms: C6_11  and  C7_12 
REMARK    3  A    between atoms: C7_12  and  C8_13 
REMARK    4  A    between atoms: C8_13  and  C9_14 
REMARK    5  A    between atoms: C9_14  and  N3_15 
REMARK    6  A    between atoms: N3_15  and  C10_17 
REMARK    7  A    between atoms: C16_25  and  C17_26 
ROOT
HETATM    1  C8  UNL     1      -4.626   2.459  11.643  1.00  0.00     0.049 C 
ENDROOT
BRANCH   1   2
HETATM    2  C7  UNL     1      -3.722   1.617  10.697  1.00  0.00     0.050 C 
BRANCH   2   3
HETATM    3  C6  UNL     1      -2.322   1.495  11.242  1.00  0.00     0.079 C 
HETATM    4  N2  UNL     1      -1.586   2.632  11.214  1.00  0.00    -0.205 N 
ATOM      5  H2  UNL     1      -0.989   2.492  12.028  1.00  0.00     0.183 HD
BRANCH   4   6
HETATM    6  C5  UNL     1      -1.198   3.696  10.832  1.00  0.00     0.684 A 
HETATM    7  N1  UNL     1      -0.956   3.897   9.482  1.00  0.00    -0.156 N 
HETATM    8  C4  UNL     1      -0.510   5.063   9.022  1.00  0.00     0.261 A 
ATOM      9  H1  UNL     1      -1.122   3.133   8.827  1.00  0.00     0.187 HD
HETATM   10  C3  UNL     1      -0.283   6.090   9.906  1.00  0.00     0.100 A 
HETATM   11  O1  UNL     1      -0.288   5.257   7.781  1.00  0.00    -0.268 OA
HETATM   12  C2  UNL     1      -0.517   5.922  11.254  1.00  0.00     0.028 A 
HETATM   13  C1  UNL     1      -0.285   7.071  12.199  1.00  0.00     0.069 C 
HETATM   14  N5  UNL     1      -0.968   4.732  11.685  1.00  0.00    -0.196 N 
ATOM     15  H5  UNL     1      -1.143   4.601  12.682  1.00  0.00     0.184 HD
ENDBRANCH   4   6
ENDBRANCH   2   3
ENDBRANCH   1   2
BRANCH   1  16
HETATM   16  C9  UNL     1      -4.351   2.019  13.025  1.00  0.00     0.063 C 
BRANCH  16  17
HETATM   17  N3  UNL     1      -4.005   2.917  14.036  1.00  0.00    -0.355 N 
ATOM     18  H3  UNL     1      -3.005   3.086  14.152  1.00  0.00     0.166 HD
BRANCH  17  19
HETATM   19  C10 UNL     1      -4.775   3.561  14.843  1.00  0.00     0.112 A 
HETATM   20  N4  UNL     1      -5.602   2.934  15.689  1.00  0.00    -0.346 N 
HETATM   21  C11 UNL     1      -6.548   3.598  16.380  1.00  0.00     0.007 A 
ATOM     22  H4  UNL     1      -5.514   1.926  15.813  1.00  0.00     0.167 HD
HETATM   23  C12 UNL     1      -7.450   2.873  17.322  1.00  0.00     0.068 C 
HETATM   24  C13 UNL     1      -6.616   4.942  16.176  1.00  0.00     0.032 A 
HETATM   25  C14 UNL     1      -5.773   5.663  15.298  1.00  0.00    -0.050 A 
HETATM   26  C15 UNL     1      -5.863   7.119  15.244  1.00  0.00     0.049 C 
HETATM   27  C16 UNL     1      -4.826   4.956  14.610  1.00  0.00    -0.005 A 
BRANCH  27  28
HETATM   28  C17 UNL     1      -3.854   5.564  13.713  1.00  0.00     0.015 C 
HETATM   29  C18 UNL     1      -4.529   6.261  12.513  1.00  0.00     0.015 C 
HETATM   30  C19 UNL     1      -2.972   6.633  14.408  1.00  0.00     0.015 C 
ENDBRANCH  27  28
ENDBRANCH  17  19
ENDBRANCH  16  17
ENDBRANCH   1  16
TORSDOF 7
ENDMDL
MODEL 5
REMARK VINA RESULT: -7.617214827      1.459      3.465
REMARK  7 active torsions:
REMARK  status: ('A' for Active; 'I' for Inactive)
REMARK    1  A    between atoms: C5_8  and  N2_9 
REMARK    2  A    between atoms: C6_11  and  C7_12 
REMARK    3  A    between atoms: C7_12  and  C8_13 
REMARK    4  A    between atoms: C8_13  and  C9_14 
REMARK    5  A    between atoms: C9_14  and  N3_15 
REMARK    6  A    between atoms: N3_15  and  C10_17 
REMARK    7  A    between atoms: C16_25  and  C17_26 
ROOT
HETATM    1  C8  UNL     1      -2.541   7.747  13.940  1.00  0.00     0.049 C 
ENDROOT
BRANCH   1   2
HETATM    2  C7  UNL     1      -4.056   7.510  14.211  1.00  0.00     0.050 C 
BRANCH   2   3
HETATM    3  C6  UNL     1      -4.612   6.439  13.308  1.00  0.00     0.079 C 
HETATM    4  N2  UNL     1      -5.066   5.327  13.935  1.00  0.00    -0.205 N 
ATOM      5  H2  UNL     1      -5.808   5.039  13.298  1.00  0.00     0.183 HD
BRANCH   4   6
HETATM    6  C5  UNL     1      -5.141   4.473  14.767  1.00  0.00     0.684 A 
HETATM    7  N1  UNL     1      -4.655   3.203  14.495  1.00  0.00    -0.156 N 
HETATM    8  C4  UNL     1      -4.733   2.222  15.391  1.00  0.00     0.261 A 
ATOM      9  H1  UNL     1      -4.228   3.016  13.587  1.00  0.00     0.187 HD
HETATM   10  C3  UNL     1      -5.311   2.474  16.612  1.00  0.00     0.100 A 
HETATM   11  O1  UNL     1      -4.286   1.052  15.150  1.00  0.00    -0.268 OA
HETATM   12  C2  UNL     1      -5.801   3.728  16.912  1.00  0.00     0.028 A 
HETATM   13  C1  UNL     1      -6.407   3.985  18.267  1.00  0.00     0.069 C 
HETATM   14  N5  UNL     1      -5.705   4.695  15.986  1.00  0.00    -0.196 N 
ATOM     15  H5  UNL     1      -6.066   5.624  16.202  1.00  0.00     0.184 HD
ENDBRANCH   4   6
ENDBRANCH   2   3
ENDBRANCH   1   2
BRANCH   1  16
HETATM   16  C9  UNL     1      -1.849   6.459  14.147  1.00  0.00     0.063 C 
BRANCH  16  17
HETATM   17  N3  UNL     1      -0.908   5.967  13.242  1.00  0.00    -0.355 N 
ATOM     18  H3  UNL     1       0.067   6.175  13.462  1.00  0.00     0.166 HD
BRANCH  17  19
HETATM   19  C10 UNL     1      -1.101   5.288  12.164  1.00  0.00     0.112 A 
HETATM   20  N4  UNL     1      -1.963   4.264  12.114  1.00  0.00    -0.346 N 
HETATM   21  C11 UNL     1      -2.015   3.430  11.058  1.00  0.00     0.007 A 
ATOM     22  H4  UNL     1      -2.597   4.112  12.898  1.00  0.00     0.167 HD
HETATM   23  C12 UNL     1      -2.990   2.303  11.028  1.00  0.00     0.068 C 
HETATM   24  C13 UNL     1      -1.146   3.686  10.042  1.00  0.00     0.032 A 
HETATM   25  C14 UNL     1      -0.213   4.749  10.033  1.00  0.00    -0.050 A 
HETATM   26  C15 UNL     1       0.591   4.994   8.839  1.00  0.00     0.049 C 
HETATM   27  C16 UNL     1      -0.186   5.575  11.123  1.00  0.00    -0.005 A 
BRANCH  27  28
HETATM   28  C17 UNL     1       0.680   6.739  11.236  1.00  0.00     0.015 C 
HETATM   29  C18 UNL     1       2.172   6.368  11.102  1.00  0.00     0.015 C 
HETATM   30  C19 UNL     1       0.392   7.816  10.159  1.00  0.00     0.015 C 
ENDBRANCH  27  28
ENDBRANCH  17  19
ENDBRANCH  16  17
ENDBRANCH   1  16
TORSDOF 7
ENDMDL
