MODEL 1
REMARK VINA RESULT: -6.797155195      0.000      0.000
REMARK  8 active torsions:
REMARK  status: ('A' for Active; 'I' for Inactive)
REMARK    1  A    between atoms: C2_2  and  N1_3 
REMARK    2  A    between atoms: C2_2  and  C3_7 
REMARK    3  A    between atoms: C2_2  and  C5_13 
REMARK    4  A    between atoms: C3_7  and  C4_8 
REMARK    5  A    between atoms: C4_8  and  N2_9 
REMARK    6  A    between atoms: N3_17  and  C9_18 
REMARK    7  A    between atoms: C9_18  and  C10_19 
REMARK    8  A    between atoms: C10_19  and  N4_20 
ROOT
HETATM    1  C5  UNL     1     -30.615 -51.947  18.792  1.00  0.00    -0.007 A 
HETATM    2  C6  UNL     1     -30.479 -50.582  19.066  1.00  0.00     0.012 A 
HETATM    3  C7  UNL     1     -29.272 -50.136  19.552  1.00  0.00     0.018 A 
HETATM    4  C8  UNL     1     -28.219 -50.981  19.772  1.00  0.00     0.090 A 
HETATM    5  N3  UNL     1     -28.351 -52.317  19.506  1.00  0.00    -0.364 N 
HETATM    6  C16 UNL     1     -29.525 -52.741  19.034  1.00  0.00     0.100 A 
ENDROOT
BRANCH   1   7
HETATM    7  C2  UNL     1     -31.910 -52.427  18.250  1.00  0.00     0.150 C 
HETATM    8  C1  UNL     1     -31.826 -52.400  16.727  1.00  0.00     0.051 C 
BRANCH   7   9
HETATM    9  N1  UNL     1     -32.944 -51.463  18.597  1.00  0.00    -0.066 N 
ATOM     10  H13 UNL     1     -32.801 -50.541  18.186  1.00  0.00     0.275 HD
ATOM     11  H12 UNL     1     -33.846 -51.651  18.157  1.00  0.00     0.275 HD
ATOM     12  H11 UNL     1     -32.978 -51.458  19.617  1.00  0.00     0.275 HD
ENDBRANCH   7   9
BRANCH   7  13
HETATM   13  C3  UNL     1     -32.197 -53.795  18.760  1.00  0.00     0.070 C 
BRANCH  13  14
HETATM   14  C4  UNL     1     -33.235 -53.792  19.869  1.00  0.00     0.232 C 
BRANCH  14  15
HETATM   15  N2  UNL     1     -32.622 -54.263  21.076  1.00  0.00    -0.079 N 
ATOM     16  H23 UNL     1     -31.744 -54.752  20.902  1.00  0.00     0.274 HD
ATOM     17  H22 UNL     1     -32.251 -53.504  21.647  1.00  0.00     0.274 HD
ATOM     18  H21 UNL     1     -33.295 -54.839  21.582  1.00  0.00     0.274 HD
ENDBRANCH  14  15
ENDBRANCH  13  14
ENDBRANCH   7  13
ENDBRANCH   1   7
BRANCH   5  19
HETATM   19  C9  UNL     1     -27.191 -53.142  19.767  1.00  0.00     0.148 C 
BRANCH  19  20
HETATM   20  C10 UNL     1     -26.323 -53.287  18.562  1.00  0.00     0.148 C 
BRANCH  20  21
HETATM   21  N4  UNL     1     -26.746 -54.280  17.615  1.00  0.00    -0.365 N 
HETATM   22  C11 UNL     1     -27.029 -53.931  16.357  1.00  0.00     0.092 A 
HETATM   23  C12 UNL     1     -27.438 -54.845  15.381  1.00  0.00     0.043 A 
HETATM   24  C13 UNL     1     -27.565 -56.168  15.709  1.00  0.00     0.049 A 
HETATM   25  N5  UNL     1     -27.977 -57.166  14.788  1.00  0.00    -0.102 NA
HETATM   26  C14 UNL     1     -27.267 -56.527  17.027  1.00  0.00     0.043 A 
HETATM   27  C15 UNL     1     -26.873 -55.579  17.924  1.00  0.00     0.092 A 
ENDBRANCH  20  21
ENDBRANCH  19  20
ENDBRANCH   5  19
TORSDOF 8
ENDMDL
MODEL 2
REMARK VINA RESULT: -6.788704563      0.024      1.013
REMARK  8 active torsions:
REMARK  status: ('A' for Active; 'I' for Inactive)
REMARK    1  A    between atoms: C2_2  and  N1_3 
REMARK    2  A    between atoms: C2_2  and  C3_7 
REMARK    3  A    between atoms: C2_2  and  C5_13 
REMARK    4  A    between atoms: C3_7  and  C4_8 
REMARK    5  A    between atoms: C4_8  and  N2_9 
REMARK    6  A    between atoms: N3_17  and  C9_18 
REMARK    7  A    between atoms: C9_18  and  C10_19 
REMARK    8  A    between atoms: C10_19  and  N4_20 
ROOT
HETATM    1  C5  UNL     1     -30.621 -51.950  18.788  1.00  0.00    -0.007 A 
HETATM    2  C6  UNL     1     -30.481 -50.587  19.067  1.00  0.00     0.012 A 
HETATM    3  C7  UNL     1     -29.274 -50.146  19.556  1.00  0.00     0.018 A 
HETATM    4  C8  UNL     1     -28.223 -50.995  19.774  1.00  0.00     0.090 A 
HETATM    5  N3  UNL     1     -28.359 -52.329  19.503  1.00  0.00    -0.364 N 
HETATM    6  C16 UNL     1     -29.534 -52.749  19.028  1.00  0.00     0.100 A 
ENDROOT
BRANCH   1   7
HETATM    7  C2  UNL     1     -31.917 -52.424  18.243  1.00  0.00     0.150 C 
HETATM    8  C1  UNL     1     -31.831 -52.393  16.720  1.00  0.00     0.051 C 
BRANCH   7   9
HETATM    9  N1  UNL     1     -32.949 -51.458  18.591  1.00  0.00    -0.066 N 
ATOM     10  H13 UNL     1     -32.732 -50.504  18.303  1.00  0.00     0.275 HD
ATOM     11  H12 UNL     1     -33.805 -51.557  18.045  1.00  0.00     0.275 HD
ATOM     12  H11 UNL     1     -33.088 -51.562  19.596  1.00  0.00     0.275 HD
ENDBRANCH   7   9
BRANCH   7  13
HETATM   13  C3  UNL     1     -32.209 -53.793  18.748  1.00  0.00     0.070 C 
BRANCH  13  14
HETATM   14  C4  UNL     1     -33.248 -53.789  19.856  1.00  0.00     0.232 C 
BRANCH  14  15
HETATM   15  N2  UNL     1     -32.637 -54.261  21.064  1.00  0.00    -0.079 N 
ATOM     16  H23 UNL     1     -31.879 -53.655  21.379  1.00  0.00     0.274 HD
ATOM     17  H22 UNL     1     -33.248 -54.158  21.875  1.00  0.00     0.274 HD
ATOM     18  H21 UNL     1     -32.334 -55.224  20.924  1.00  0.00     0.274 HD
ENDBRANCH  14  15
ENDBRANCH  13  14
ENDBRANCH   7  13
ENDBRANCH   1   7
BRANCH   5  19
HETATM   19  C9  UNL     1     -27.202 -53.159  19.762  1.00  0.00     0.148 C 
BRANCH  19  20
HETATM   20  C10 UNL     1     -26.322 -53.284  18.564  1.00  0.00     0.148 C 
BRANCH  20  21
HETATM   21  N4  UNL     1     -26.740 -54.256  17.593  1.00  0.00    -0.365 N 
HETATM   22  C11 UNL     1     -26.867 -55.541  17.939  1.00  0.00     0.092 A 
HETATM   23  C12 UNL     1     -27.276 -56.538  17.050  1.00  0.00     0.043 A 
HETATM   24  C13 UNL     1     -27.565 -56.207  15.752  1.00  0.00     0.049 A 
HETATM   25  N5  UNL     1     -27.982 -57.150  14.779  1.00  0.00    -0.102 NA
HETATM   26  C14 UNL     1     -27.430 -54.861  15.396  1.00  0.00     0.043 A 
HETATM   27  C15 UNL     1     -27.026 -53.944  16.320  1.00  0.00     0.092 A 
ENDBRANCH  20  21
ENDBRANCH  19  20
ENDBRANCH   5  19
TORSDOF 8
ENDMDL
MODEL 3
REMARK VINA RESULT: -6.698550049      2.086      2.629
REMARK  8 active torsions:
REMARK  status: ('A' for Active; 'I' for Inactive)
REMARK    1  A    between atoms: C2_2  and  N1_3 
REMARK    2  A    between atoms: C2_2  and  C3_7 
REMARK    3  A    between atoms: C2_2  and  C5_13 
REMARK    4  A    between atoms: C3_7  and  C4_8 
REMARK    5  A    between atoms: C4_8  and  N2_9 
REMARK    6  A    between atoms: N3_17  and  C9_18 
REMARK    7  A    between atoms: C9_18  and  C10_19 
REMARK    8  A    between atoms: C10_19  and  N4_20 
ROOT
HETATM    1  C5  UNL     1     -29.715 -52.316  18.553  1.00  0.00    -0.007 A 
HETATM    2  C6  UNL     1     -28.945 -51.541  19.426  1.00  0.00     0.012 A 
HETATM    3  C7  UNL     1     -27.643 -51.921  19.655  1.00  0.00     0.018 A 
HETATM    4  C8  UNL     1     -27.092 -53.023  19.059  1.00  0.00     0.090 A 
HETATM    5  N3  UNL     1     -27.844 -53.783  18.206  1.00  0.00    -0.364 N 
HETATM    6  C16 UNL     1     -29.106 -53.406  17.989  1.00  0.00     0.100 A 
ENDROOT
BRANCH   1   7
HETATM    7  C2  UNL     1     -31.113 -51.896  18.291  1.00  0.00     0.150 C 
HETATM    8  C1  UNL     1     -31.371 -52.015  16.792  1.00  0.00     0.051 C 
BRANCH   7   9
HETATM    9  N1  UNL     1     -31.235 -50.476  18.592  1.00  0.00    -0.066 N 
ATOM     10  H13 UNL     1     -30.668 -49.879  17.991  1.00  0.00     0.275 HD
ATOM     11  H12 UNL     1     -32.140 -50.079  18.337  1.00  0.00     0.275 HD
ATOM     12  H11 UNL     1     -31.013 -50.390  19.584  1.00  0.00     0.275 HD
ENDBRANCH   7   9
BRANCH   7  13
HETATM   13  C3  UNL     1     -32.052 -52.739  19.079  1.00  0.00     0.070 C 
BRANCH  13  14
HETATM   14  C4  UNL     1     -33.008 -53.520  18.194  1.00  0.00     0.232 C 
BRANCH  14  15
HETATM   15  N2  UNL     1     -34.213 -53.773  18.927  1.00  0.00    -0.079 N 
ATOM     16  H23 UNL     1     -34.815 -54.453  18.463  1.00  0.00     0.274 HD
ATOM     17  H22 UNL     1     -34.044 -54.296  19.787  1.00  0.00     0.274 HD
ATOM     18  H21 UNL     1     -34.686 -52.886  19.098  1.00  0.00     0.274 HD
ENDBRANCH  14  15
ENDBRANCH  13  14
ENDBRANCH   7  13
ENDBRANCH   1   7
BRANCH   5  19
HETATM   19  C9  UNL     1     -27.187 -54.931  17.619  1.00  0.00     0.148 C 
BRANCH  19  20
HETATM   20  C10 UNL     1     -27.669 -55.205  16.233  1.00  0.00     0.148 C 
BRANCH  20  21
HETATM   21  N4  UNL     1     -26.643 -55.294  15.232  1.00  0.00    -0.365 N 
HETATM   22  C11 UNL     1     -26.125 -54.182  14.701  1.00  0.00     0.092 A 
HETATM   23  C12 UNL     1     -25.120 -54.193  13.729  1.00  0.00     0.043 A 
HETATM   24  C13 UNL     1     -24.628 -55.390  13.282  1.00  0.00     0.049 A 
HETATM   25  N5  UNL     1     -23.614 -55.500  12.297  1.00  0.00    -0.102 NA
HETATM   26  C14 UNL     1     -25.175 -56.549  13.842  1.00  0.00     0.043 A 
HETATM   27  C15 UNL     1     -26.153 -56.460  14.787  1.00  0.00     0.092 A 
ENDBRANCH  20  21
ENDBRANCH  19  20
ENDBRANCH   5  19
TORSDOF 8
ENDMDL
MODEL 4
REMARK VINA RESULT: -6.693529870      2.071      2.744
REMARK  8 active torsions:
REMARK  status: ('A' for Active; 'I' for Inactive)
REMARK    1  A    between atoms: C2_2  and  N1_3 
REMARK    2  A    between atoms: C2_2  and  C3_7 
REMARK    3  A    between atoms: C2_2  and  C5_13 
REMARK    4  A    between atoms: C3_7  and  C4_8 
REMARK    5  A    between atoms: C4_8  and  N2_9 
REMARK    6  A    between atoms: N3_17  and  C9_18 
REMARK    7  A    between atoms: C9_18  and  C10_19 
REMARK    8  A    between atoms: C10_19  and  N4_20 
ROOT
HETATM    1  C5  UNL     1     -29.722 -52.320  18.566  1.00  0.00    -0.007 A 
HETATM    2  C6  UNL     1     -28.951 -51.527  19.422  1.00  0.00     0.012 A 
HETATM    3  C7  UNL     1     -27.649 -51.902  19.657  1.00  0.00     0.018 A 
HETATM    4  C8  UNL     1     -27.098 -53.015  19.083  1.00  0.00     0.090 A 
HETATM    5  N3  UNL     1     -27.851 -53.793  18.247  1.00  0.00    -0.364 N 
HETATM    6  C16 UNL     1     -29.113 -53.422  18.024  1.00  0.00     0.100 A 
ENDROOT
BRANCH   1   7
HETATM    7  C2  UNL     1     -31.120 -51.906  18.297  1.00  0.00     0.150 C 
HETATM    8  C1  UNL     1     -31.380 -52.054  16.801  1.00  0.00     0.051 C 
BRANCH   7   9
HETATM    9  N1  UNL     1     -31.244 -50.481  18.572  1.00  0.00    -0.066 N 
ATOM     10  H13 UNL     1     -30.501 -49.918  18.160  1.00  0.00     0.275 HD
ATOM     11  H12 UNL     1     -32.019 -50.034  18.082  1.00  0.00     0.275 HD
ATOM     12  H11 UNL     1     -31.302 -50.406  19.588  1.00  0.00     0.275 HD
ENDBRANCH   7   9
BRANCH   7  13
HETATM   13  C3  UNL     1     -32.058 -52.736  19.102  1.00  0.00     0.070 C 
BRANCH  13  14
HETATM   14  C4  UNL     1     -33.016 -53.531  18.232  1.00  0.00     0.232 C 
BRANCH  14  15
HETATM   15  N2  UNL     1     -34.221 -53.770  18.971  1.00  0.00    -0.079 N 
ATOM     16  H23 UNL     1     -34.047 -53.899  19.968  1.00  0.00     0.274 HD
ATOM     17  H22 UNL     1     -34.809 -52.939  19.036  1.00  0.00     0.274 HD
ATOM     18  H21 UNL     1     -34.710 -54.562  18.555  1.00  0.00     0.274 HD
ENDBRANCH  14  15
ENDBRANCH  13  14
ENDBRANCH   7  13
ENDBRANCH   1   7
BRANCH   5  19
HETATM   19  C9  UNL     1     -27.195 -54.953  17.683  1.00  0.00     0.148 C 
BRANCH  19  20
HETATM   20  C10 UNL     1     -27.671 -55.251  16.301  1.00  0.00     0.148 C 
BRANCH  20  21
HETATM   21  N4  UNL     1     -26.650 -55.284  15.292  1.00  0.00    -0.365 N 
HETATM   22  C11 UNL     1     -26.150 -56.453  14.880  1.00  0.00     0.092 A 
HETATM   23  C12 UNL     1     -25.161 -56.561  13.898  1.00  0.00     0.043 A 
HETATM   24  C13 UNL     1     -24.662 -55.426  13.317  1.00  0.00     0.049 A 
HETATM   25  N5  UNL     1     -23.656 -55.436  12.317  1.00  0.00    -0.102 NA
HETATM   26  C14 UNL     1     -25.189 -54.206  13.752  1.00  0.00     0.043 A 
HETATM   27  C15 UNL     1     -26.154 -54.179  14.715  1.00  0.00     0.092 A 
ENDBRANCH  20  21
ENDBRANCH  19  20
ENDBRANCH   5  19
TORSDOF 8
ENDMDL
MODEL 5
REMARK VINA RESULT: -6.675681104      2.170      2.887
REMARK  8 active torsions:
REMARK  status: ('A' for Active; 'I' for Inactive)
REMARK    1  A    between atoms: C2_2  and  N1_3 
REMARK    2  A    between atoms: C2_2  and  C3_7 
REMARK    3  A    between atoms: C2_2  and  C5_13 
REMARK    4  A    between atoms: C3_7  and  C4_8 
REMARK    5  A    between atoms: C4_8  and  N2_9 
REMARK    6  A    between atoms: N3_17  and  C9_18 
REMARK    7  A    between atoms: C9_18  and  C10_19 
REMARK    8  A    between atoms: C10_19  and  N4_20 
ROOT
HETATM    1  C5  UNL     1     -29.631 -52.305  18.721  1.00  0.00    -0.007 A 
HETATM    2  C6  UNL     1     -28.815 -51.692  19.677  1.00  0.00     0.012 A 
HETATM    3  C7  UNL     1     -27.474 -51.996  19.676  1.00  0.00     0.018 A 
HETATM    4  C8  UNL     1     -26.927 -52.870  18.776  1.00  0.00     0.090 A 
HETATM    5  N3  UNL     1     -27.724 -53.471  17.840  1.00  0.00    -0.364 N 
HETATM    6  C16 UNL     1     -29.024 -53.170  17.849  1.00  0.00     0.100 A 
ENDROOT
BRANCH   1   7
HETATM    7  C2  UNL     1     -31.074 -51.963  18.709  1.00  0.00     0.150 C 
HETATM    8  C1  UNL     1     -31.683 -52.514  17.423  1.00  0.00     0.051 C 
BRANCH   7   9
HETATM    9  N1  UNL     1     -31.208 -50.517  18.612  1.00  0.00    -0.066 N 
ATOM     10  H13 UNL     1     -30.718 -50.112  17.814  1.00  0.00     0.275 HD
ATOM     11  H12 UNL     1     -32.144 -50.208  18.347  1.00  0.00     0.275 HD
ATOM     12  H11 UNL     1     -30.896 -50.155  19.513  1.00  0.00     0.275 HD
ENDBRANCH   7   9
BRANCH   7  13
HETATM   13  C3  UNL     1     -31.738 -52.527  19.916  1.00  0.00     0.070 C 
BRANCH  13  14
HETATM   14  C4  UNL     1     -33.124 -53.071  19.612  1.00  0.00     0.232 C 
BRANCH  14  15
HETATM   15  N2  UNL     1     -34.101 -52.157  20.123  1.00  0.00    -0.079 N 
ATOM     16  H23 UNL     1     -33.800 -51.710  20.990  1.00  0.00     0.274 HD
ATOM     17  H22 UNL     1     -34.185 -51.316  19.552  1.00  0.00     0.274 HD
ATOM     18  H21 UNL     1     -34.988 -52.648  20.226  1.00  0.00     0.274 HD
ENDBRANCH  14  15
ENDBRANCH  13  14
ENDBRANCH   7  13
ENDBRANCH   1   7
BRANCH   5  19
HETATM   19  C9  UNL     1     -27.069 -54.383  16.928  1.00  0.00     0.148 C 
BRANCH  19  20
HETATM   20  C10 UNL     1     -27.406 -54.090  15.504  1.00  0.00     0.148 C 
BRANCH  20  21
HETATM   21  N4  UNL     1     -26.578 -54.742  14.529  1.00  0.00    -0.365 N 
HETATM   22  C11 UNL     1     -26.987 -55.874  13.948  1.00  0.00     0.092 A 
HETATM   23  C12 UNL     1     -26.238 -56.558  12.987  1.00  0.00     0.043 A 
HETATM   24  C13 UNL     1     -25.019 -56.063  12.607  1.00  0.00     0.049 A 
HETATM   25  N5  UNL     1     -24.187 -56.690  11.644  1.00  0.00    -0.102 NA
HETATM   26  C14 UNL     1     -24.596 -54.879  13.217  1.00  0.00     0.043 A 
HETATM   27  C15 UNL     1     -25.383 -54.267  14.148  1.00  0.00     0.092 A 
ENDBRANCH  20  21
ENDBRANCH  19  20
ENDBRANCH   5  19
TORSDOF 8
ENDMDL
