MODEL 1
REMARK VINA RESULT: -6.782725157      0.000      0.000
REMARK  6 active torsions:
REMARK  status: ('A' for Active; 'I' for Inactive)
REMARK    1  A    between atoms: N2_8  and  C5_10 
REMARK    2  A    between atoms: C5_10  and  C6_11 
REMARK    3  A    between atoms: C6_11  and  C7_12 
REMARK    4  A    between atoms: C7_12  and  C8_13 
REMARK    5  A    between atoms: C8_13  and  C9_14 
REMARK    6  A    between atoms: C9_14  and  C10_15 
ROOT
HETATM    1  C1  UNL     1     -34.238 -53.399  20.090  1.00  0.00     0.064 C 
HETATM    2  C2  UNL     1     -32.957 -53.113  20.177  1.00  0.00     0.101 A 
HETATM    3  N1  UNL     1     -32.115 -53.851  21.053  1.00  0.00    -0.308 N 
ATOM      4  H1  UNL     1     -32.488 -54.608  21.625  1.00  0.00     0.170 HD
HETATM    5  C3  UNL     1     -30.750 -53.504  21.108  1.00  0.00     0.279 A 
HETATM    6  O1  UNL     1     -30.001 -54.150  21.880  1.00  0.00    -0.265 OA
HETATM    7  C4  UNL     1     -30.139 -52.424  20.314  1.00  0.00     0.165 A 
HETATM    8  N2  UNL     1     -28.893 -52.178  20.427  1.00  0.00    -0.381 N 
ATOM      9  H2  UNL     1     -28.418 -52.787  21.092  1.00  0.00     0.160 HD
HETATM   10  C14 UNL     1     -31.035 -51.695  19.431  1.00  0.00     0.279 A 
HETATM   11  O2  UNL     1     -30.632 -50.740  18.692  1.00  0.00    -0.265 OA
HETATM   12  N4  UNL     1     -32.422 -52.069  19.394  1.00  0.00    -0.308 N 
ATOM     13  H4  UNL     1     -33.048 -51.556  18.774  1.00  0.00     0.170 HD
ENDROOT
BRANCH   8  14
HETATM   14  C5  UNL     1     -28.048 -51.243  19.824  1.00  0.00     0.120 C 
BRANCH  14  15
HETATM   15  C6  UNL     1     -26.696 -51.103  20.544  1.00  0.00     0.020 C 
BRANCH  15  16
HETATM   16  C7  UNL     1     -26.450 -52.375  21.282  1.00  0.00     0.002 C 
BRANCH  16  17
HETATM   17  C8  UNL     1     -25.279 -53.153  20.759  1.00  0.00     0.006 C 
BRANCH  17  18
HETATM   18  C9  UNL     1     -25.604 -54.615  20.555  1.00  0.00     0.057 C 
BRANCH  18  19
HETATM   19  C10 UNL     1     -26.692 -54.775  19.554  1.00  0.00     0.009 A 
HETATM   20  C11 UNL     1     -26.707 -54.320  18.238  1.00  0.00     0.026 A 
HETATM   21  C12 UNL     1     -27.915 -54.699  17.690  1.00  0.00     0.019 A 
HETATM   22  C13 UNL     1     -28.617 -55.374  18.667  1.00  0.00     0.088 A 
HETATM   23  N3  UNL     1     -27.859 -55.404  19.774  1.00  0.00    -0.369 N 
ATOM     24  H3  UNL     1     -28.130 -55.841  20.655  1.00  0.00     0.165 HD
ENDBRANCH  18  19
ENDBRANCH  17  18
ENDBRANCH  16  17
ENDBRANCH  15  16
ENDBRANCH  14  15
ENDBRANCH   8  14
TORSDOF 6
ENDMDL
MODEL 2
REMARK VINA RESULT: -6.646764658      2.041      5.331
REMARK  6 active torsions:
REMARK  status: ('A' for Active; 'I' for Inactive)
REMARK    1  A    between atoms: N2_8  and  C5_10 
REMARK    2  A    between atoms: C5_10  and  C6_11 
REMARK    3  A    between atoms: C6_11  and  C7_12 
REMARK    4  A    between atoms: C7_12  and  C8_13 
REMARK    5  A    between atoms: C8_13  and  C9_14 
REMARK    6  A    between atoms: C9_14  and  C10_15 
ROOT
HETATM    1  C1  UNL     1     -25.246 -52.719  20.909  1.00  0.00     0.064 C 
HETATM    2  C2  UNL     1     -26.357 -52.402  20.282  1.00  0.00     0.101 A 
HETATM    3  N1  UNL     1     -26.979 -51.145  20.515  1.00  0.00    -0.308 N 
ATOM      4  H1  UNL     1     -26.576 -50.473  21.168  1.00  0.00     0.170 HD
HETATM    5  C3  UNL     1     -28.168 -50.854  19.817  1.00  0.00     0.279 A 
HETATM    6  O1  UNL     1     -28.722 -49.747  20.017  1.00  0.00    -0.265 OA
HETATM    7  C4  UNL     1     -28.809 -51.773  18.859  1.00  0.00     0.165 A 
HETATM    8  N2  UNL     1     -29.887 -51.427  18.271  1.00  0.00    -0.381 N 
ATOM      9  H2  UNL     1     -30.215 -50.499  18.537  1.00  0.00     0.160 HD
HETATM   10  C14 UNL     1     -28.142 -53.047  18.651  1.00  0.00     0.279 A 
HETATM   11  O2  UNL     1     -28.594 -53.927  17.850  1.00  0.00    -0.265 OA
HETATM   12  N4  UNL     1     -26.931 -53.317  19.375  1.00  0.00    -0.308 N 
ATOM     13  H4  UNL     1     -26.465 -54.212  19.227  1.00  0.00     0.170 HD
ENDROOT
BRANCH   8  14
HETATM   14  C5  UNL     1     -30.709 -52.063  17.337  1.00  0.00     0.120 C 
BRANCH  14  15
HETATM   15  C6  UNL     1     -32.146 -52.270  17.844  1.00  0.00     0.020 C 
BRANCH  15  16
HETATM   16  C7  UNL     1     -32.122 -53.419  18.794  1.00  0.00     0.002 C 
BRANCH  16  17
HETATM   17  C8  UNL     1     -32.722 -53.102  20.132  1.00  0.00     0.006 C 
BRANCH  17  18
HETATM   18  C9  UNL     1     -31.678 -52.724  21.157  1.00  0.00     0.057 C 
BRANCH  18  19
HETATM   19  C10 UNL     1     -31.026 -53.938  21.714  1.00  0.00     0.009 A 
HETATM   20  C11 UNL     1     -29.841 -54.534  21.289  1.00  0.00     0.026 A 
HETATM   21  C12 UNL     1     -29.623 -55.631  22.097  1.00  0.00     0.019 A 
HETATM   22  C13 UNL     1     -30.667 -55.693  22.996  1.00  0.00     0.088 A 
HETATM   23  N3  UNL     1     -31.492 -54.666  22.742  1.00  0.00    -0.369 N 
ATOM     24  H3  UNL     1     -32.351 -54.466  23.256  1.00  0.00     0.165 HD
ENDBRANCH  18  19
ENDBRANCH  17  18
ENDBRANCH  16  17
ENDBRANCH  15  16
ENDBRANCH  14  15
ENDBRANCH   8  14
TORSDOF 6
ENDMDL
MODEL 3
REMARK VINA RESULT: -6.562315034      1.977      5.240
REMARK  6 active torsions:
REMARK  status: ('A' for Active; 'I' for Inactive)
REMARK    1  A    between atoms: N2_8  and  C5_10 
REMARK    2  A    between atoms: C5_10  and  C6_11 
REMARK    3  A    between atoms: C6_11  and  C7_12 
REMARK    4  A    between atoms: C7_12  and  C8_13 
REMARK    5  A    between atoms: C8_13  and  C9_14 
REMARK    6  A    between atoms: C9_14  and  C10_15 
ROOT
HETATM    1  C1  UNL     1     -25.215 -52.708  20.942  1.00  0.00     0.064 C 
HETATM    2  C2  UNL     1     -26.300 -52.565  20.211  1.00  0.00     0.101 A 
HETATM    3  N1  UNL     1     -26.550 -53.440  19.119  1.00  0.00    -0.308 N 
ATOM      4  H1  UNL     1     -25.897 -54.188  18.886  1.00  0.00     0.170 HD
HETATM    5  C3  UNL     1     -27.726 -53.243  18.369  1.00  0.00     0.279 A 
HETATM    6  O1  UNL     1     -27.954 -54.011  17.404  1.00  0.00    -0.265 OA
HETATM    7  C4  UNL     1     -28.715 -52.186  18.645  1.00  0.00     0.165 A 
HETATM    8  N2  UNL     1     -29.754 -52.080  17.912  1.00  0.00    -0.381 N 
ATOM      9  H2  UNL     1     -29.799 -52.776  17.169  1.00  0.00     0.160 HD
HETATM   10  C14 UNL     1     -28.420 -51.313  19.769  1.00  0.00     0.279 A 
HETATM   11  O2  UNL     1     -29.194 -50.361  20.111  1.00  0.00    -0.265 OA
HETATM   12  N4  UNL     1     -27.215 -51.536  20.517  1.00  0.00    -0.308 N 
ATOM     13  H4  UNL     1     -27.011 -50.922  21.305  1.00  0.00     0.170 HD
ENDROOT
BRANCH   8  14
HETATM   14  C5  UNL     1     -30.842 -51.204  17.922  1.00  0.00     0.120 C 
BRANCH  14  15
HETATM   15  C6  UNL     1     -32.198 -51.929  17.894  1.00  0.00     0.020 C 
BRANCH  15  16
HETATM   16  C7  UNL     1     -32.055 -53.174  18.700  1.00  0.00     0.002 C 
BRANCH  16  17
HETATM   17  C8  UNL     1     -32.693 -53.087  20.055  1.00  0.00     0.006 C 
BRANCH  17  18
HETATM   18  C9  UNL     1     -31.707 -52.700  21.132  1.00  0.00     0.057 C 
BRANCH  18  19
HETATM   19  C10 UNL     1     -31.020 -53.902  21.671  1.00  0.00     0.009 A 
HETATM   20  C11 UNL     1     -29.833 -54.475  21.219  1.00  0.00     0.026 A 
HETATM   21  C12 UNL     1     -29.577 -55.570  22.018  1.00  0.00     0.019 A 
HETATM   22  C13 UNL     1     -30.600 -55.653  22.940  1.00  0.00     0.088 A 
HETATM   23  N3  UNL     1     -31.450 -54.642  22.707  1.00  0.00    -0.369 N 
ATOM     24  H3  UNL     1     -32.300 -54.460  23.241  1.00  0.00     0.165 HD
ENDBRANCH  18  19
ENDBRANCH  17  18
ENDBRANCH  16  17
ENDBRANCH  15  16
ENDBRANCH  14  15
ENDBRANCH   8  14
TORSDOF 6
ENDMDL
MODEL 4
REMARK VINA RESULT: -6.413626207      1.328      1.747
REMARK  6 active torsions:
REMARK  status: ('A' for Active; 'I' for Inactive)
REMARK    1  A    between atoms: N2_8  and  C5_10 
REMARK    2  A    between atoms: C5_10  and  C6_11 
REMARK    3  A    between atoms: C6_11  and  C7_12 
REMARK    4  A    between atoms: C7_12  and  C8_13 
REMARK    5  A    between atoms: C8_13  and  C9_14 
REMARK    6  A    between atoms: C9_14  and  C10_15 
ROOT
HETATM    1  C1  UNL     1     -34.325 -53.441  20.042  1.00  0.00     0.064 C 
HETATM    2  C2  UNL     1     -33.052 -53.132  20.162  1.00  0.00     0.101 A 
HETATM    3  N1  UNL     1     -32.230 -53.823  21.093  1.00  0.00    -0.308 N 
ATOM      4  H1  UNL     1     -32.612 -54.565  21.680  1.00  0.00     0.170 HD
HETATM    5  C3  UNL     1     -30.874 -53.454  21.181  1.00  0.00     0.279 A 
HETATM    6  O1  UNL     1     -30.143 -54.060  22.001  1.00  0.00    -0.265 OA
HETATM    7  C4  UNL     1     -30.251 -52.395  20.368  1.00  0.00     0.165 A 
HETATM    8  N2  UNL     1     -29.013 -52.126  20.514  1.00  0.00    -0.381 N 
ATOM      9  H2  UNL     1     -28.552 -52.703  21.217  1.00  0.00     0.160 HD
HETATM   10  C14 UNL     1     -31.126 -51.713  19.429  1.00  0.00     0.279 A 
HETATM   11  O2  UNL     1     -30.711 -50.779  18.669  1.00  0.00    -0.265 OA
HETATM   12  N4  UNL     1     -32.505 -52.109  19.359  1.00  0.00    -0.308 N 
ATOM     13  H4  UNL     1     -33.117 -51.629  18.700  1.00  0.00     0.170 HD
ENDROOT
BRANCH   8  14
HETATM   14  C5  UNL     1     -28.160 -51.201  19.906  1.00  0.00     0.120 C 
BRANCH  14  15
HETATM   15  C6  UNL     1     -26.735 -51.740  19.702  1.00  0.00     0.020 C 
BRANCH  15  16
HETATM   16  C7  UNL     1     -26.148 -51.970  21.053  1.00  0.00     0.002 C 
BRANCH  16  17
HETATM   17  C8  UNL     1     -25.159 -53.097  21.093  1.00  0.00     0.006 C 
BRANCH  17  18
HETATM   18  C9  UNL     1     -25.519 -54.213  20.140  1.00  0.00     0.057 C 
BRANCH  18  19
HETATM   19  C10 UNL     1     -26.157 -55.341  20.869  1.00  0.00     0.009 A 
HETATM   20  C11 UNL     1     -25.658 -56.630  21.038  1.00  0.00     0.026 A 
HETATM   21  C12 UNL     1     -26.585 -57.332  21.782  1.00  0.00     0.019 A 
HETATM   22  C13 UNL     1     -27.629 -56.472  22.054  1.00  0.00     0.088 A 
HETATM   23  N3  UNL     1     -27.345 -55.287  21.494  1.00  0.00    -0.369 N 
ATOM     24  H3  UNL     1     -27.944 -54.462  21.537  1.00  0.00     0.165 HD
ENDBRANCH  18  19
ENDBRANCH  17  18
ENDBRANCH  16  17
ENDBRANCH  15  16
ENDBRANCH  14  15
ENDBRANCH   8  14
TORSDOF 6
ENDMDL
MODEL 5
REMARK VINA RESULT: -6.411922134      2.421      4.885
REMARK  6 active torsions:
REMARK  status: ('A' for Active; 'I' for Inactive)
REMARK    1  A    between atoms: N2_8  and  C5_10 
REMARK    2  A    between atoms: C5_10  and  C6_11 
REMARK    3  A    between atoms: C6_11  and  C7_12 
REMARK    4  A    between atoms: C7_12  and  C8_13 
REMARK    5  A    between atoms: C8_13  and  C9_14 
REMARK    6  A    between atoms: C9_14  and  C10_15 
ROOT
HETATM    1  C1  UNL     1     -29.142 -58.908  22.248  1.00  0.00     0.064 C 
HETATM    2  C2  UNL     1     -28.892 -57.624  22.110  1.00  0.00     0.101 A 
HETATM    3  N1  UNL     1     -29.921 -56.666  22.322  1.00  0.00    -0.308 N 
ATOM      4  H1  UNL     1     -30.863 -56.957  22.584  1.00  0.00     0.170 HD
HETATM    5  C3  UNL     1     -29.601 -55.303  22.162  1.00  0.00     0.279 A 
HETATM    6  O1  UNL     1     -30.503 -54.452  22.348  1.00  0.00    -0.265 OA
HETATM    7  C4  UNL     1     -28.265 -54.807  21.786  1.00  0.00     0.165 A 
HETATM    8  N2  UNL     1     -28.064 -53.554  21.662  1.00  0.00    -0.381 N 
ATOM      9  H2  UNL     1     -28.893 -52.990  21.846  1.00  0.00     0.160 HD
HETATM   10  C14 UNL     1     -27.243 -55.820  21.577  1.00  0.00     0.279 A 
HETATM   11  O2  UNL     1     -26.049 -55.522  21.250  1.00  0.00    -0.265 OA
HETATM   12  N4  UNL     1     -27.596 -57.201  21.748  1.00  0.00    -0.308 N 
ATOM     13  H4  UNL     1     -26.877 -57.909  21.602  1.00  0.00     0.170 HD
ENDROOT
BRANCH   8  14
HETATM   14  C5  UNL     1     -26.938 -52.798  21.326  1.00  0.00     0.120 C 
BRANCH  14  15
HETATM   15  C6  UNL     1     -27.024 -52.186  19.917  1.00  0.00     0.020 C 
BRANCH  15  16
HETATM   16  C7  UNL     1     -27.476 -50.774  20.072  1.00  0.00     0.002 C 
BRANCH  16  17
HETATM   17  C8  UNL     1     -28.922 -50.567  19.729  1.00  0.00     0.006 C 
BRANCH  17  18
HETATM   18  C9  UNL     1     -29.508 -51.739  18.976  1.00  0.00     0.057 C 
BRANCH  18  19
HETATM   19  C10 UNL     1     -30.801 -52.156  19.580  1.00  0.00     0.009 A 
HETATM   20  C11 UNL     1     -31.745 -53.029  19.044  1.00  0.00     0.026 A 
HETATM   21  C12 UNL     1     -32.780 -53.119  19.951  1.00  0.00     0.019 A 
HETATM   22  C13 UNL     1     -32.461 -52.307  21.020  1.00  0.00     0.088 A 
HETATM   23  N3  UNL     1     -31.270 -51.743  20.769  1.00  0.00    -0.369 N 
ATOM     24  H3  UNL     1     -30.790 -51.093  21.392  1.00  0.00     0.165 HD
ENDBRANCH  18  19
ENDBRANCH  17  18
ENDBRANCH  16  17
ENDBRANCH  15  16
ENDBRANCH  14  15
ENDBRANCH   8  14
TORSDOF 6
ENDMDL
