MODEL 1
REMARK VINA RESULT: -6.819299266      0.000      0.000
REMARK  7 active torsions:
REMARK  status: ('A' for Active; 'I' for Inactive)
REMARK    1  A    between atoms: N1_1  and  C1_5 
REMARK    2  A    between atoms: C1_5  and  C2_6 
REMARK    3  A    between atoms: C2_6  and  C3_7 
REMARK    4  A    between atoms: N2_11  and  C7_12 
REMARK    5  A    between atoms: C7_12  and  C8_13 
REMARK    6  A    between atoms: C11_16  and  C12_17 
REMARK    7  A    between atoms: C12_17  and  N3_18 
ROOT
HETATM    1  C7  UNL     1     -28.405 -53.791  17.741  1.00  0.00     0.166 C 
ENDROOT
BRANCH   1   2
HETATM    2  N2  UNL     1     -29.668 -53.062  17.922  1.00  0.00    -0.362 N 
HETATM    3  C6  UNL     1     -30.020 -52.057  17.114  1.00  0.00     0.090 A 
HETATM    4  C5  UNL     1     -31.226 -51.413  17.342  1.00  0.00     0.018 A 
HETATM    5  C4  UNL     1     -32.061 -51.781  18.370  1.00  0.00     0.010 A 
HETATM    6  C3  UNL     1     -31.685 -52.814  19.190  1.00  0.00    -0.041 A 
HETATM    7  C16 UNL     1     -30.475 -53.417  18.916  1.00  0.00     0.098 A 
BRANCH   6   8
HETATM    8  C2  UNL     1     -32.531 -53.270  20.322  1.00  0.00     0.067 C 
BRANCH   8   9
HETATM    9  C1  UNL     1     -31.687 -53.682  21.502  1.00  0.00     0.234 C 
BRANCH   9  10
HETATM   10  N1  UNL     1     -31.525 -52.583  22.439  1.00  0.00    -0.079 N 
ATOM     11  H13 UNL     1     -30.601 -52.157  22.360  1.00  0.00     0.274 HD
ATOM     12  H12 UNL     1     -32.091 -51.778  22.174  1.00  0.00     0.274 HD
ATOM     13  H11 UNL     1     -31.720 -52.883  23.394  1.00  0.00     0.274 HD
ENDBRANCH   9  10
ENDBRANCH   8   9
ENDBRANCH   6   8
ENDBRANCH   1   2
BRANCH   1  14
HETATM   14  C8  UNL     1     -28.086 -54.616  18.918  1.00  0.00    -0.040 A 
HETATM   15  C9  UNL     1     -27.687 -54.026  20.099  1.00  0.00     0.009 A 
HETATM   16  C10 UNL     1     -27.382 -54.776  21.223  1.00  0.00     0.009 A 
HETATM   17  C11 UNL     1     -27.467 -56.148  21.199  1.00  0.00    -0.041 A 
HETATM   18  C14 UNL     1     -27.865 -56.747  20.022  1.00  0.00     0.009 A 
HETATM   19  C15 UNL     1     -28.171 -55.994  18.899  1.00  0.00     0.009 A 
BRANCH  17  20
HETATM   20  C12 UNL     1     -27.137 -56.968  22.413  1.00  0.00     0.160 C 
BRANCH  20  21
HETATM   21  N3  UNL     1     -28.318 -57.521  23.010  1.00  0.00    -0.363 N 
HETATM   22  C13 UNL     1     -28.834 -56.952  24.033  1.00  0.00     0.197 C 
HETATM   23  N4  UNL     1     -28.244 -55.789  24.571  1.00  0.00    -0.067 NA
HETATM   24  N5  UNL     1     -29.995 -57.495  24.620  1.00  0.00    -0.067 NA
ATOM     25  H3  UNL     1     -28.745 -58.362  22.622  1.00  0.00     0.162 HD
ENDBRANCH  20  21
ENDBRANCH  17  20
ENDBRANCH   1  14
TORSDOF 7
ENDMDL
MODEL 2
REMARK VINA RESULT: -6.811507538      0.057      1.030
REMARK  7 active torsions:
REMARK  status: ('A' for Active; 'I' for Inactive)
REMARK    1  A    between atoms: N1_1  and  C1_5 
REMARK    2  A    between atoms: C1_5  and  C2_6 
REMARK    3  A    between atoms: C2_6  and  C3_7 
REMARK    4  A    between atoms: N2_11  and  C7_12 
REMARK    5  A    between atoms: C7_12  and  C8_13 
REMARK    6  A    between atoms: C11_16  and  C12_17 
REMARK    7  A    between atoms: C12_17  and  N3_18 
ROOT
HETATM    1  C7  UNL     1     -28.485 -53.845  17.715  1.00  0.00     0.166 C 
ENDROOT
BRANCH   1   2
HETATM    2  N2  UNL     1     -29.714 -53.063  17.916  1.00  0.00    -0.362 N 
HETATM    3  C6  UNL     1     -30.022 -52.028  17.130  1.00  0.00     0.090 A 
HETATM    4  C5  UNL     1     -31.198 -51.335  17.376  1.00  0.00     0.018 A 
HETATM    5  C4  UNL     1     -32.045 -51.687  18.399  1.00  0.00     0.010 A 
HETATM    6  C3  UNL     1     -31.713 -52.752  19.196  1.00  0.00    -0.041 A 
HETATM    7  C16 UNL     1     -30.533 -53.403  18.905  1.00  0.00     0.098 A 
BRANCH   6   8
HETATM    8  C2  UNL     1     -32.576 -53.193  20.322  1.00  0.00     0.067 C 
BRANCH   8   9
HETATM    9  C1  UNL     1     -31.748 -53.700  21.476  1.00  0.00     0.234 C 
BRANCH   9  10
HETATM   10  N1  UNL     1     -31.500 -52.647  22.445  1.00  0.00    -0.079 N 
ATOM     11  H13 UNL     1     -30.512 -52.394  22.479  1.00  0.00     0.274 HD
ATOM     12  H12 UNL     1     -31.879 -51.753  22.133  1.00  0.00     0.274 HD
ATOM     13  H11 UNL     1     -31.853 -52.903  23.366  1.00  0.00     0.274 HD
ENDBRANCH   9  10
ENDBRANCH   8   9
ENDBRANCH   6   8
ENDBRANCH   1   2
BRANCH   1  14
HETATM   14  C8  UNL     1     -28.135 -54.617  18.919  1.00  0.00    -0.040 A 
HETATM   15  C9  UNL     1     -28.203 -55.994  18.910  1.00  0.00     0.009 A 
HETATM   16  C10 UNL     1     -27.879 -56.748  20.027  1.00  0.00     0.009 A 
HETATM   17  C11 UNL     1     -27.476 -56.142  21.194  1.00  0.00    -0.041 A 
HETATM   18  C14 UNL     1     -27.405 -54.764  21.211  1.00  0.00     0.009 A 
HETATM   19  C15 UNL     1     -27.729 -54.013  20.092  1.00  0.00     0.009 A 
BRANCH  17  20
HETATM   20  C12 UNL     1     -27.124 -56.951  22.408  1.00  0.00     0.160 C 
BRANCH  20  21
HETATM   21  N3  UNL     1     -28.292 -57.518  23.018  1.00  0.00    -0.363 N 
HETATM   22  C13 UNL     1     -28.809 -56.950  24.040  1.00  0.00     0.197 C 
HETATM   23  N4  UNL     1     -28.233 -55.774  24.565  1.00  0.00    -0.067 NA
HETATM   24  N5  UNL     1     -29.957 -57.507  24.640  1.00  0.00    -0.067 NA
ATOM     25  H3  UNL     1     -28.708 -58.369  22.638  1.00  0.00     0.162 HD
ENDBRANCH  20  21
ENDBRANCH  17  20
ENDBRANCH   1  14
TORSDOF 7
ENDMDL
MODEL 3
REMARK VINA RESULT: -6.769263307      1.988      2.498
REMARK  7 active torsions:
REMARK  status: ('A' for Active; 'I' for Inactive)
REMARK    1  A    between atoms: N1_1  and  C1_5 
REMARK    2  A    between atoms: C1_5  and  C2_6 
REMARK    3  A    between atoms: C2_6  and  C3_7 
REMARK    4  A    between atoms: N2_11  and  C7_12 
REMARK    5  A    between atoms: C7_12  and  C8_13 
REMARK    6  A    between atoms: C11_16  and  C12_17 
REMARK    7  A    between atoms: C12_17  and  N3_18 
ROOT
HETATM    1  C7  UNL     1     -28.045 -53.695  17.600  1.00  0.00     0.166 C 
ENDROOT
BRANCH   1   2
HETATM    2  N2  UNL     1     -29.110 -52.706  17.821  1.00  0.00    -0.362 N 
HETATM    3  C6  UNL     1     -30.269 -52.765  17.158  1.00  0.00     0.090 A 
HETATM    4  C5  UNL     1     -31.230 -51.799  17.415  1.00  0.00     0.018 A 
HETATM    5  C4  UNL     1     -31.021 -50.794  18.329  1.00  0.00     0.010 A 
HETATM    6  C3  UNL     1     -29.826 -50.749  19.001  1.00  0.00    -0.041 A 
HETATM    7  C16 UNL     1     -28.908 -51.734  18.704  1.00  0.00     0.098 A 
BRANCH   6   8
HETATM    8  C2  UNL     1     -29.524 -49.695  20.002  1.00  0.00     0.067 C 
BRANCH   8   9
HETATM    9  C1  UNL     1     -28.042 -49.420  20.074  1.00  0.00     0.234 C 
BRANCH   9  10
HETATM   10  N1  UNL     1     -27.760 -48.010  19.867  1.00  0.00    -0.079 N 
ATOM     11  H13 UNL     1     -28.394 -47.598  19.182  1.00  0.00     0.274 HD
ATOM     12  H12 UNL     1     -28.023 -47.452  20.678  1.00  0.00     0.274 HD
ATOM     13  H11 UNL     1     -26.784 -47.864  19.610  1.00  0.00     0.274 HD
ENDBRANCH   9  10
ENDBRANCH   8   9
ENDBRANCH   6   8
ENDBRANCH   1   2
BRANCH   1  14
HETATM   14  C8  UNL     1     -27.796 -54.497  18.810  1.00  0.00    -0.040 A 
HETATM   15  C9  UNL     1     -28.780 -55.319  19.318  1.00  0.00     0.009 A 
HETATM   16  C10 UNL     1     -28.575 -56.087  20.453  1.00  0.00     0.009 A 
HETATM   17  C11 UNL     1     -27.372 -56.054  21.119  1.00  0.00    -0.041 A 
HETATM   18  C14 UNL     1     -26.382 -55.235  20.617  1.00  0.00     0.009 A 
HETATM   19  C15 UNL     1     -26.589 -54.469  19.481  1.00  0.00     0.009 A 
BRANCH  17  20
HETATM   20  C12 UNL     1     -27.142 -56.882  22.350  1.00  0.00     0.160 C 
BRANCH  20  21
HETATM   21  N3  UNL     1     -28.379 -57.356  22.902  1.00  0.00    -0.363 N 
HETATM   22  C13 UNL     1     -28.857 -56.799  23.949  1.00  0.00     0.197 C 
HETATM   23  N4  UNL     1     -28.171 -55.726  24.558  1.00  0.00    -0.067 NA
HETATM   24  N5  UNL     1     -30.071 -57.265  24.493  1.00  0.00    -0.067 NA
ATOM     25  H3  UNL     1     -28.874 -58.131  22.462  1.00  0.00     0.162 HD
ENDBRANCH  20  21
ENDBRANCH  17  20
ENDBRANCH   1  14
TORSDOF 7
ENDMDL
MODEL 4
REMARK VINA RESULT: -6.712836464      1.680      2.243
REMARK  7 active torsions:
REMARK  status: ('A' for Active; 'I' for Inactive)
REMARK    1  A    between atoms: N1_1  and  C1_5 
REMARK    2  A    between atoms: C1_5  and  C2_6 
REMARK    3  A    between atoms: C2_6  and  C3_7 
REMARK    4  A    between atoms: N2_11  and  C7_12 
REMARK    5  A    between atoms: C7_12  and  C8_13 
REMARK    6  A    between atoms: C11_16  and  C12_17 
REMARK    7  A    between atoms: C12_17  and  N3_18 
ROOT
HETATM    1  C7  UNL     1     -27.172 -53.681  18.437  1.00  0.00     0.166 C 
ENDROOT
BRANCH   1   2
HETATM    2  N2  UNL     1     -27.934 -52.497  18.860  1.00  0.00    -0.362 N 
HETATM    3  C6  UNL     1     -27.396 -51.561  19.646  1.00  0.00     0.090 A 
HETATM    4  C5  UNL     1     -28.173 -50.470  20.006  1.00  0.00     0.018 A 
HETATM    5  C4  UNL     1     -29.471 -50.331  19.575  1.00  0.00     0.010 A 
HETATM    6  C3  UNL     1     -30.007 -51.301  18.768  1.00  0.00    -0.041 A 
HETATM    7  C16 UNL     1     -29.189 -52.362  18.444  1.00  0.00     0.098 A 
BRANCH   6   8
HETATM    8  C2  UNL     1     -31.401 -51.223  18.263  1.00  0.00     0.067 C 
BRANCH   8   9
HETATM    9  C1  UNL     1     -32.261 -52.305  18.867  1.00  0.00     0.234 C 
BRANCH   9  10
HETATM   10  N1  UNL     1     -32.949 -51.826  20.054  1.00  0.00    -0.079 N 
ATOM     11  H13 UNL     1     -33.787 -51.298  19.813  1.00  0.00     0.274 HD
ATOM     12  H12 UNL     1     -33.387 -52.590  20.567  1.00  0.00     0.274 HD
ATOM     13  H11 UNL     1     -32.322 -51.286  20.649  1.00  0.00     0.274 HD
ENDBRANCH   9  10
ENDBRANCH   8   9
ENDBRANCH   6   8
ENDBRANCH   1   2
BRANCH   1  14
HETATM   14  C8  UNL     1     -27.130 -54.701  19.498  1.00  0.00    -0.040 A 
HETATM   15  C9  UNL     1     -28.217 -55.518  19.726  1.00  0.00     0.009 A 
HETATM   16  C10 UNL     1     -28.207 -56.487  20.716  1.00  0.00     0.009 A 
HETATM   17  C11 UNL     1     -27.101 -56.669  21.514  1.00  0.00    -0.041 A 
HETATM   18  C14 UNL     1     -26.009 -55.856  21.292  1.00  0.00     0.009 A 
HETATM   19  C15 UNL     1     -26.022 -54.887  20.301  1.00  0.00     0.009 A 
BRANCH  17  20
HETATM   20  C12 UNL     1     -27.083 -57.716  22.589  1.00  0.00     0.160 C 
BRANCH  20  21
HETATM   21  N3  UNL     1     -28.379 -57.885  23.180  1.00  0.00    -0.363 N 
HETATM   22  C13 UNL     1     -28.790 -57.042  24.049  1.00  0.00     0.197 C 
HETATM   23  N4  UNL     1     -27.974 -55.954  24.425  1.00  0.00    -0.067 NA
HETATM   24  N5  UNL     1     -30.064 -57.208  24.631  1.00  0.00    -0.067 NA
ATOM     25  H3  UNL     1     -28.968 -58.672  22.909  1.00  0.00     0.162 HD
ENDBRANCH  20  21
ENDBRANCH  17  20
ENDBRANCH   1  14
TORSDOF 7
ENDMDL
MODEL 5
REMARK VINA RESULT: -6.704293430      2.060      2.554
REMARK  7 active torsions:
REMARK  status: ('A' for Active; 'I' for Inactive)
REMARK    1  A    between atoms: N1_1  and  C1_5 
REMARK    2  A    between atoms: C1_5  and  C2_6 
REMARK    3  A    between atoms: C2_6  and  C3_7 
REMARK    4  A    between atoms: N2_11  and  C7_12 
REMARK    5  A    between atoms: C7_12  and  C8_13 
REMARK    6  A    between atoms: C11_16  and  C12_17 
REMARK    7  A    between atoms: C12_17  and  N3_18 
ROOT
HETATM    1  C7  UNL     1     -26.497 -52.435  20.055  1.00  0.00     0.166 C 
ENDROOT
BRANCH   1   2
HETATM    2  N2  UNL     1     -27.749 -51.759  19.683  1.00  0.00    -0.362 N 
HETATM    3  C6  UNL     1     -28.039 -50.530  20.120  1.00  0.00     0.090 A 
HETATM    4  C5  UNL     1     -29.238 -49.952  19.729  1.00  0.00     0.018 A 
HETATM    5  C4  UNL     1     -30.125 -50.609  18.911  1.00  0.00     0.010 A 
HETATM    6  C3  UNL     1     -29.812 -51.870  18.472  1.00  0.00    -0.041 A 
HETATM    7  C16 UNL     1     -28.608 -52.394  18.892  1.00  0.00     0.098 A 
BRANCH   6   8
HETATM    8  C2  UNL     1     -30.719 -52.644  17.587  1.00  0.00     0.067 C 
BRANCH   8   9
HETATM    9  C1  UNL     1     -32.149 -52.191  17.742  1.00  0.00     0.234 C 
BRANCH   9  10
HETATM   10  N1  UNL     1     -32.929 -53.163  18.488  1.00  0.00    -0.079 N 
ATOM     11  H13 UNL     1     -32.361 -53.961  18.773  1.00  0.00     0.274 HD
ATOM     12  H12 UNL     1     -33.179 -52.813  19.413  1.00  0.00     0.274 HD
ATOM     13  H11 UNL     1     -33.752 -53.456  17.963  1.00  0.00     0.274 HD
ENDBRANCH   9  10
ENDBRANCH   8   9
ENDBRANCH   6   8
ENDBRANCH   1   2
BRANCH   1  14
HETATM   14  C8  UNL     1     -26.754 -53.764  20.634  1.00  0.00    -0.040 A 
HETATM   15  C9  UNL     1     -27.713 -53.927  21.612  1.00  0.00     0.009 A 
HETATM   16  C10 UNL     1     -27.978 -55.164  22.176  1.00  0.00     0.009 A 
HETATM   17  C11 UNL     1     -27.286 -56.284  21.775  1.00  0.00    -0.041 A 
HETATM   18  C14 UNL     1     -26.326 -56.130  20.797  1.00  0.00     0.009 A 
HETATM   19  C15 UNL     1     -26.064 -54.890  20.234  1.00  0.00     0.009 A 
BRANCH  17  20
HETATM   20  C12 UNL     1     -27.567 -57.628  22.380  1.00  0.00     0.160 C 
BRANCH  20  21
HETATM   21  N3  UNL     1     -28.863 -57.668  22.993  1.00  0.00    -0.363 N 
HETATM   22  C13 UNL     1     -28.974 -58.040  24.212  1.00  0.00     0.197 C 
HETATM   23  N4  UNL     1     -27.829 -58.409  24.948  1.00  0.00    -0.067 NA
HETATM   24  N5  UNL     1     -30.248 -58.080  24.814  1.00  0.00    -0.067 NA
ATOM     25  H3  UNL     1     -29.691 -57.402  22.460  1.00  0.00     0.162 HD
ENDBRANCH  20  21
ENDBRANCH  17  20
ENDBRANCH   1  14
TORSDOF 7
ENDMDL
