MODEL 1
REMARK VINA RESULT: -6.090825697      0.000      0.000
REMARK  9 active torsions:
REMARK  status: ('A' for Active; 'I' for Inactive)
REMARK    1  A    between atoms: C2_2  and  C3_3 
REMARK    2  A    between atoms: C3_3  and  C4_4 
REMARK    3  A    between atoms: C5_7  and  C6_8 
REMARK    4  A    between atoms: C6_8  and  C7_9 
REMARK    5  A    between atoms: N2_17  and  C14_18 
REMARK    6  A    between atoms: C14_18  and  C15_19 
REMARK    7  A    between atoms: C15_19  and  C16_20 
REMARK    8  A    between atoms: C16_20  and  C17_21 
REMARK    9  A    between atoms: C17_21  and  N3_22 
ROOT
HETATM    1  C4  UNL     1     -29.770 -54.177  19.708  1.00  0.00     0.114 A 
HETATM    2  N1  UNL     1     -30.430 -54.924  20.584  1.00  0.00    -0.338 N 
ATOM      3  H1  UNL     1     -31.324 -55.379  20.397  1.00  0.00     0.167 HD
HETATM    4  C5  UNL     1     -29.749 -55.001  21.774  1.00  0.00     0.103 A 
HETATM    5  C13 UNL     1     -28.633 -54.258  21.569  1.00  0.00     0.279 A 
HETATM    6  O1  UNL     1     -27.719 -54.047  22.391  1.00  0.00    -0.265 OA
HETATM    7  N2  UNL     1     -28.623 -53.749  20.324  1.00  0.00    -0.277 N 
ENDROOT
BRANCH   7   8
HETATM    8  C14 UNL     1     -27.622 -52.966  19.728  1.00  0.00     0.075 C 
BRANCH   8   9
HETATM    9  C15 UNL     1     -27.532 -51.534  19.978  1.00  0.00     0.047 C 
BRANCH   9  10
HETATM   10  C16 UNL     1     -28.791 -50.756  19.727  1.00  0.00     0.032 C 
BRANCH  10  11
HETATM   11  C17 UNL     1     -28.650 -49.297  20.012  1.00  0.00     0.230 C 
BRANCH  11  12
HETATM   12  N3  UNL     1     -29.941 -48.670  19.720  1.00  0.00    -0.079 N 
ATOM     13  H33 UNL     1     -30.034 -47.738  20.126  1.00  0.00     0.274 HD
ATOM     14  H32 UNL     1     -30.040 -48.397  18.742  1.00  0.00     0.274 HD
ATOM     15  H31 UNL     1     -30.668 -49.314  20.030  1.00  0.00     0.274 HD
ENDBRANCH  11  12
ENDBRANCH  10  11
ENDBRANCH   9  10
ENDBRANCH   8   9
ENDBRANCH   7   8
BRANCH   1  16
HETATM   16  C3  UNL     1     -30.162 -53.893  18.482  1.00  0.00     0.048 C 
BRANCH  16  17
HETATM   17  C2  UNL     1     -31.129 -53.030  17.937  1.00  0.00    -0.007 C 
HETATM   18  C1  UNL     1     -31.030 -52.051  17.116  1.00  0.00     0.011 C 
ENDBRANCH  16  17
ENDBRANCH   1  16
BRANCH   4  19
HETATM   19  C6  UNL     1     -30.114 -55.652  22.848  1.00  0.00     0.046 C 
BRANCH  19  20
HETATM   20  C7  UNL     1     -29.587 -56.952  23.223  1.00  0.00    -0.034 A 
HETATM   21  C8  UNL     1     -28.420 -57.137  23.933  1.00  0.00     0.011 A 
HETATM   22  C9  UNL     1     -27.948 -58.386  24.273  1.00  0.00     0.001 A 
HETATM   23  C10 UNL     1     -28.644 -59.520  23.906  1.00  0.00     0.000 A 
HETATM   24  C11 UNL     1     -29.813 -59.356  23.196  1.00  0.00     0.001 A 
HETATM   25  C12 UNL     1     -30.272 -58.090  22.863  1.00  0.00     0.011 A 
ENDBRANCH  19  20
ENDBRANCH   4  19
TORSDOF 9
ENDMDL
MODEL 2
REMARK VINA RESULT: -6.082153523      2.161      6.766
REMARK  9 active torsions:
REMARK  status: ('A' for Active; 'I' for Inactive)
REMARK    1  A    between atoms: C2_2  and  C3_3 
REMARK    2  A    between atoms: C3_3  and  C4_4 
REMARK    3  A    between atoms: C5_7  and  C6_8 
REMARK    4  A    between atoms: C6_8  and  C7_9 
REMARK    5  A    between atoms: N2_17  and  C14_18 
REMARK    6  A    between atoms: C14_18  and  C15_19 
REMARK    7  A    between atoms: C15_19  and  C16_20 
REMARK    8  A    between atoms: C16_20  and  C17_21 
REMARK    9  A    between atoms: C17_21  and  N3_22 
ROOT
HETATM    1  C4  UNL     1     -28.061 -55.246  21.405  1.00  0.00     0.114 A 
HETATM    2  N1  UNL     1     -28.914 -54.508  20.704  1.00  0.00    -0.338 N 
ATOM      3  H1  UNL     1     -28.693 -54.053  19.818  1.00  0.00     0.167 HD
HETATM    4  C5  UNL     1     -30.133 -54.438  21.334  1.00  0.00     0.103 A 
HETATM    5  C13 UNL     1     -29.972 -55.181  22.457  1.00  0.00     0.279 A 
HETATM    6  O1  UNL     1     -30.830 -55.395  23.336  1.00  0.00    -0.265 OA
HETATM    7  N2  UNL     1     -28.724 -55.681  22.522  1.00  0.00    -0.277 N 
ENDROOT
BRANCH   7   8
HETATM    8  C14 UNL     1     -28.192 -56.526  23.507  1.00  0.00     0.075 C 
BRANCH   8   9
HETATM    9  C15 UNL     1     -28.388 -57.969  23.452  1.00  0.00     0.047 C 
BRANCH   9  10
HETATM   10  C16 UNL     1     -29.480 -58.504  24.333  1.00  0.00     0.032 C 
BRANCH  10  11
HETATM   11  C17 UNL     1     -30.465 -59.355  23.602  1.00  0.00     0.230 C 
BRANCH  11  12
HETATM   12  N3  UNL     1     -31.248 -58.469  22.737  1.00  0.00    -0.079 N 
ATOM     13  H33 UNL     1     -30.777 -58.250  21.859  1.00  0.00     0.274 HD
ATOM     14  H32 UNL     1     -32.068 -58.926  22.336  1.00  0.00     0.274 HD
ATOM     15  H31 UNL     1     -31.481 -57.640  23.284  1.00  0.00     0.274 HD
ENDBRANCH  11  12
ENDBRANCH  10  11
ENDBRANCH   9  10
ENDBRANCH   8   9
ENDBRANCH   7   8
BRANCH   1  16
HETATM   16  C3  UNL     1     -26.807 -55.493  21.082  1.00  0.00     0.048 C 
BRANCH  16  17
HETATM   17  C2  UNL     1     -25.752 -54.712  20.580  1.00  0.00    -0.007 C 
HETATM   18  C1  UNL     1     -25.408 -53.499  20.807  1.00  0.00     0.011 C 
ENDBRANCH  16  17
ENDBRANCH   1  16
BRANCH   4  19
HETATM   19  C6  UNL     1     -31.196 -53.797  20.921  1.00  0.00     0.046 C 
BRANCH  19  20
HETATM   20  C7  UNL     1     -31.197 -52.869  19.805  1.00  0.00    -0.034 A 
HETATM   21  C8  UNL     1     -30.513 -51.672  19.794  1.00  0.00     0.011 A 
HETATM   22  C9  UNL     1     -30.535 -50.813  18.717  1.00  0.00     0.001 A 
HETATM   23  C10 UNL     1     -31.261 -51.130  17.586  1.00  0.00     0.000 A 
HETATM   24  C11 UNL     1     -31.952 -52.322  17.576  1.00  0.00     0.001 A 
HETATM   25  C12 UNL     1     -31.917 -53.173  18.671  1.00  0.00     0.011 A 
ENDBRANCH  19  20
ENDBRANCH   4  19
TORSDOF 9
ENDMDL
MODEL 3
REMARK VINA RESULT: -6.067891311      1.788      2.560
REMARK  9 active torsions:
REMARK  status: ('A' for Active; 'I' for Inactive)
REMARK    1  A    between atoms: C2_2  and  C3_3 
REMARK    2  A    between atoms: C3_3  and  C4_4 
REMARK    3  A    between atoms: C5_7  and  C6_8 
REMARK    4  A    between atoms: C6_8  and  C7_9 
REMARK    5  A    between atoms: N2_17  and  C14_18 
REMARK    6  A    between atoms: C14_18  and  C15_19 
REMARK    7  A    between atoms: C15_19  and  C16_20 
REMARK    8  A    between atoms: C16_20  and  C17_21 
REMARK    9  A    between atoms: C17_21  and  N3_22 
ROOT
HETATM    1  C4  UNL     1     -31.052 -53.690  21.505  1.00  0.00     0.114 A 
HETATM    2  N1  UNL     1     -31.106 -54.606  22.465  1.00  0.00    -0.338 N 
ATOM      3  H1  UNL     1     -31.847 -54.668  23.163  1.00  0.00     0.167 HD
HETATM    4  C5  UNL     1     -30.030 -55.457  22.390  1.00  0.00     0.103 A 
HETATM    5  C13 UNL     1     -29.320 -55.006  21.327  1.00  0.00     0.279 A 
HETATM    6  O1  UNL     1     -28.254 -55.482  20.888  1.00  0.00    -0.265 OA
HETATM    7  N2  UNL     1     -29.920 -53.936  20.773  1.00  0.00    -0.277 N 
ENDROOT
BRANCH   7   8
HETATM    8  C14 UNL     1     -29.513 -53.219  19.638  1.00  0.00     0.075 C 
BRANCH   8   9
HETATM    9  C15 UNL     1     -30.157 -53.420  18.346  1.00  0.00     0.047 C 
BRANCH   9  10
HETATM   10  C16 UNL     1     -30.183 -52.219  17.446  1.00  0.00     0.032 C 
BRANCH  10  11
HETATM   11  C17 UNL     1     -31.424 -51.400  17.590  1.00  0.00     0.230 C 
BRANCH  11  12
HETATM   12  N3  UNL     1     -31.141 -50.348  18.569  1.00  0.00    -0.079 N 
ATOM     13  H33 UNL     1     -31.174 -50.680  19.533  1.00  0.00     0.274 HD
ATOM     14  H32 UNL     1     -30.164 -50.052  18.564  1.00  0.00     0.274 HD
ATOM     15  H31 UNL     1     -31.791 -49.582  18.388  1.00  0.00     0.274 HD
ENDBRANCH  11  12
ENDBRANCH  10  11
ENDBRANCH   9  10
ENDBRANCH   8   9
ENDBRANCH   7   8
BRANCH   1  16
HETATM   16  C3  UNL     1     -31.923 -52.720  21.313  1.00  0.00     0.048 C 
BRANCH  16  17
HETATM   17  C2  UNL     1     -33.122 -52.608  20.588  1.00  0.00    -0.007 C 
HETATM   18  C1  UNL     1     -33.785 -53.463  19.901  1.00  0.00     0.011 C 
ENDBRANCH  16  17
ENDBRANCH   1  16
BRANCH   4  19
HETATM   19  C6  UNL     1     -29.772 -56.469  23.178  1.00  0.00     0.046 C 
BRANCH  19  20
HETATM   20  C7  UNL     1     -29.971 -57.857  22.803  1.00  0.00    -0.034 A 
HETATM   21  C8  UNL     1     -29.032 -58.622  22.144  1.00  0.00     0.011 A 
HETATM   22  C9  UNL     1     -29.254 -59.938  21.802  1.00  0.00     0.001 A 
HETATM   23  C10 UNL     1     -30.452 -60.549  22.115  1.00  0.00     0.000 A 
HETATM   24  C11 UNL     1     -31.403 -59.801  22.774  1.00  0.00     0.001 A 
HETATM   25  C12 UNL     1     -31.161 -58.477  23.110  1.00  0.00     0.011 A 
ENDBRANCH  19  20
ENDBRANCH   4  19
TORSDOF 9
ENDMDL
MODEL 4
REMARK VINA RESULT: -6.063844578      2.149      6.838
REMARK  9 active torsions:
REMARK  status: ('A' for Active; 'I' for Inactive)
REMARK    1  A    between atoms: C2_2  and  C3_3 
REMARK    2  A    between atoms: C3_3  and  C4_4 
REMARK    3  A    between atoms: C5_7  and  C6_8 
REMARK    4  A    between atoms: C6_8  and  C7_9 
REMARK    5  A    between atoms: N2_17  and  C14_18 
REMARK    6  A    between atoms: C14_18  and  C15_19 
REMARK    7  A    between atoms: C15_19  and  C16_20 
REMARK    8  A    between atoms: C16_20  and  C17_21 
REMARK    9  A    between atoms: C17_21  and  N3_22 
ROOT
HETATM    1  C4  UNL     1     -28.059 -55.246  21.390  1.00  0.00     0.114 A 
HETATM    2  N1  UNL     1     -28.911 -54.512  20.684  1.00  0.00    -0.338 N 
ATOM      3  H1  UNL     1     -28.689 -54.061  19.796  1.00  0.00     0.167 HD
HETATM    4  C5  UNL     1     -30.132 -54.442  21.310  1.00  0.00     0.103 A 
HETATM    5  C13 UNL     1     -29.972 -55.179  22.438  1.00  0.00     0.279 A 
HETATM    6  O1  UNL     1     -30.832 -55.391  23.315  1.00  0.00    -0.265 OA
HETATM    7  N2  UNL     1     -28.724 -55.676  22.508  1.00  0.00    -0.277 N 
ENDROOT
BRANCH   7   8
HETATM    8  C14 UNL     1     -28.192 -56.517  23.498  1.00  0.00     0.075 C 
BRANCH   8   9
HETATM    9  C15 UNL     1     -28.385 -57.960  23.448  1.00  0.00     0.047 C 
BRANCH   9  10
HETATM   10  C16 UNL     1     -29.472 -58.495  24.334  1.00  0.00     0.032 C 
BRANCH  10  11
HETATM   11  C17 UNL     1     -30.451 -59.360  23.611  1.00  0.00     0.230 C 
BRANCH  11  12
HETATM   12  N3  UNL     1     -31.218 -58.493  22.713  1.00  0.00    -0.079 N 
ATOM     13  H33 UNL     1     -30.946 -57.512  22.778  1.00  0.00     0.274 HD
ATOM     14  H32 UNL     1     -30.983 -58.630  21.730  1.00  0.00     0.274 HD
ATOM     15  H31 UNL     1     -32.206 -58.648  22.913  1.00  0.00     0.274 HD
ENDBRANCH  11  12
ENDBRANCH  10  11
ENDBRANCH   9  10
ENDBRANCH   8   9
ENDBRANCH   7   8
BRANCH   1  16
HETATM   16  C3  UNL     1     -26.804 -55.492  21.072  1.00  0.00     0.048 C 
BRANCH  16  17
HETATM   17  C2  UNL     1     -25.748 -54.711  20.570  1.00  0.00    -0.007 C 
HETATM   18  C1  UNL     1     -25.412 -53.494  20.786  1.00  0.00     0.011 C 
ENDBRANCH  16  17
ENDBRANCH   1  16
BRANCH   4  19
HETATM   19  C6  UNL     1     -31.195 -53.804  20.892  1.00  0.00     0.046 C 
BRANCH  19  20
HETATM   20  C7  UNL     1     -31.203 -52.909  19.750  1.00  0.00    -0.034 A 
HETATM   21  C8  UNL     1     -31.838 -53.182  18.558  1.00  0.00     0.011 A 
HETATM   22  C9  UNL     1     -31.826 -52.309  17.492  1.00  0.00     0.001 A 
HETATM   23  C10 UNL     1     -31.161 -51.103  17.584  1.00  0.00     0.000 A 
HETATM   24  C11 UNL     1     -30.520 -50.810  18.768  1.00  0.00     0.001 A 
HETATM   25  C12 UNL     1     -30.543 -51.702  19.830  1.00  0.00     0.011 A 
ENDBRANCH  19  20
ENDBRANCH   4  19
TORSDOF 9
ENDMDL
MODEL 5
REMARK VINA RESULT: -6.055920908      3.216      5.721
REMARK  9 active torsions:
REMARK  status: ('A' for Active; 'I' for Inactive)
REMARK    1  A    between atoms: C2_2  and  C3_3 
REMARK    2  A    between atoms: C3_3  and  C4_4 
REMARK    3  A    between atoms: C5_7  and  C6_8 
REMARK    4  A    between atoms: C6_8  and  C7_9 
REMARK    5  A    between atoms: N2_17  and  C14_18 
REMARK    6  A    between atoms: C14_18  and  C15_19 
REMARK    7  A    between atoms: C15_19  and  C16_20 
REMARK    8  A    between atoms: C16_20  and  C17_21 
REMARK    9  A    between atoms: C17_21  and  N3_22 
ROOT
HETATM    1  C4  UNL     1     -27.338 -53.474  17.453  1.00  0.00     0.114 A 
HETATM    2  N1  UNL     1     -28.577 -53.090  17.172  1.00  0.00    -0.338 N 
ATOM      3  H1  UNL     1     -29.114 -53.413  16.366  1.00  0.00     0.167 HD
HETATM    4  C5  UNL     1     -29.040 -52.202  18.112  1.00  0.00     0.103 A 
HETATM    5  C13 UNL     1     -28.009 -52.069  18.983  1.00  0.00     0.279 A 
HETATM    6  O1  UNL     1     -27.985 -51.353  20.003  1.00  0.00    -0.265 OA
HETATM    7  N2  UNL     1     -26.966 -52.831  18.604  1.00  0.00    -0.277 N 
ENDROOT
BRANCH   7   8
HETATM    8  C14 UNL     1     -25.740 -52.992  19.266  1.00  0.00     0.075 C 
BRANCH   8   9
HETATM    9  C15 UNL     1     -25.668 -53.598  20.589  1.00  0.00     0.047 C 
BRANCH   9  10
HETATM   10  C16 UNL     1     -26.258 -54.974  20.700  1.00  0.00     0.032 C 
BRANCH  10  11
HETATM   11  C17 UNL     1     -27.594 -54.993  21.367  1.00  0.00     0.230 C 
BRANCH  11  12
HETATM   12  N3  UNL     1     -27.785 -53.683  21.995  1.00  0.00    -0.079 N 
ATOM     13  H33 UNL     1     -27.987 -53.745  22.993  1.00  0.00     0.274 HD
ATOM     14  H32 UNL     1     -26.921 -53.146  22.068  1.00  0.00     0.274 HD
ATOM     15  H31 UNL     1     -28.513 -53.199  21.469  1.00  0.00     0.274 HD
ENDBRANCH  11  12
ENDBRANCH  10  11
ENDBRANCH   9  10
ENDBRANCH   8   9
ENDBRANCH   7   8
BRANCH   1  16
HETATM   16  C3  UNL     1     -26.605 -54.305  16.739  1.00  0.00     0.048 C 
BRANCH  16  17
HETATM   17  C2  UNL     1     -26.742 -55.651  16.357  1.00  0.00    -0.007 C 
HETATM   18  C1  UNL     1     -27.378 -56.627  16.890  1.00  0.00     0.011 C 
ENDBRANCH  16  17
ENDBRANCH   1  16
BRANCH   4  19
HETATM   19  C6  UNL     1     -30.216 -51.629  18.141  1.00  0.00     0.046 C 
BRANCH  19  20
HETATM   20  C7  UNL     1     -31.377 -52.197  18.801  1.00  0.00    -0.034 A 
HETATM   21  C8  UNL     1     -32.348 -52.934  18.158  1.00  0.00     0.011 A 
HETATM   22  C9  UNL     1     -33.438 -53.460  18.816  1.00  0.00     0.001 A 
HETATM   23  C10 UNL     1     -33.598 -53.262  20.173  1.00  0.00     0.000 A 
HETATM   24  C11 UNL     1     -32.638 -52.529  20.834  1.00  0.00     0.001 A 
HETATM   25  C12 UNL     1     -31.547 -52.007  20.154  1.00  0.00     0.011 A 
ENDBRANCH  19  20
ENDBRANCH   4  19
TORSDOF 9
ENDMDL
