MODEL 1
REMARK VINA RESULT: -7.082229881      0.000      0.000
REMARK  6 active torsions:
REMARK  status: ('A' for Active; 'I' for Inactive)
REMARK    1  A    between atoms: N3_4  and  C2_6 
REMARK    2  A    between atoms: C2_6  and  C3_7 
REMARK    3  A    between atoms: C3_7  and  C4_8 
REMARK    4  A    between atoms: C4_8  and  C5_9 
REMARK    5  A    between atoms: C5_9  and  C6_10 
REMARK    6  A    between atoms: C6_10  and  N4_11 
ROOT
HETATM    1  N4  UNL     1     -29.108 -52.947  19.421  1.00  0.00     0.126 N 
HETATM    2  C7  UNL     1     -29.175 -54.212  18.620  1.00  0.00     0.378 C 
HETATM    3  C8  UNL     1     -27.991 -54.038  17.750  1.00  0.00     0.248 C 
HETATM    4  O1  UNL     1     -27.864 -54.442  16.558  1.00  0.00    -0.272 OA
HETATM    5  N5  UNL     1     -27.035 -53.328  18.525  1.00  0.00    -0.325 N 
ATOM      6  H5  UNL     1     -26.067 -53.123  18.278  1.00  0.00     0.165 HD
HETATM    7  C9  UNL     1     -27.741 -52.950  19.763  1.00  0.00     0.235 C 
HETATM    8  C10 UNL     1     -27.465 -54.003  20.840  1.00  0.00     0.064 C 
HETATM    9  C11 UNL     1     -26.003 -54.366  20.672  1.00  0.00     0.004 C 
HETATM   10  C12 UNL     1     -25.152 -53.131  20.862  1.00  0.00     0.000 C 
HETATM   11  C13 UNL     1     -25.971 -51.927  21.237  1.00  0.00     0.004 C 
HETATM   12  C14 UNL     1     -27.160 -51.687  20.327  1.00  0.00     0.064 C 
ENDROOT
BRANCH   1  13
HETATM   13  C6  UNL     1     -29.627 -51.971  18.544  1.00  0.00     0.276 C 
BRANCH  13  14
HETATM   14  C5  UNL     1     -30.951 -51.363  18.801  1.00  0.00     0.030 C 
BRANCH  14  15
HETATM   15  C4  UNL     1     -32.016 -51.956  17.859  1.00  0.00     0.003 C 
BRANCH  15  16
HETATM   16  C3  UNL     1     -32.640 -53.163  18.521  1.00  0.00     0.020 C 
BRANCH  16  17
HETATM   17  C2  UNL     1     -32.838 -52.877  19.993  1.00  0.00     0.122 C 
BRANCH  17  18
HETATM   18  N3  UNL     1     -32.251 -53.913  20.811  1.00  0.00    -0.367 N 
HETATM   19  C1  UNL     1     -31.621 -53.543  21.878  1.00  0.00     0.196 C 
HETATM   20  N1  UNL     1     -31.489 -52.200  22.261  1.00  0.00    -0.067 NA
HETATM   21  N2  UNL     1     -31.041 -54.571  22.684  1.00  0.00    -0.067 NA
ATOM     22  H3  UNL     1     -32.330 -54.898  20.558  1.00  0.00     0.161 HD
ENDBRANCH  17  18
ENDBRANCH  16  17
ENDBRANCH  15  16
ENDBRANCH  14  15
ENDBRANCH  13  14
ENDBRANCH   1  13
TORSDOF 6
ENDMDL
MODEL 2
REMARK VINA RESULT: -6.837500033      2.391      5.442
REMARK  6 active torsions:
REMARK  status: ('A' for Active; 'I' for Inactive)
REMARK    1  A    between atoms: N3_4  and  C2_6 
REMARK    2  A    between atoms: C2_6  and  C3_7 
REMARK    3  A    between atoms: C3_7  and  C4_8 
REMARK    4  A    between atoms: C4_8  and  C5_9 
REMARK    5  A    between atoms: C5_9  and  C6_10 
REMARK    6  A    between atoms: C6_10  and  N4_11 
ROOT
HETATM    1  N4  UNL     1     -29.399 -52.686  18.955  1.00  0.00     0.126 N 
HETATM    2  C7  UNL     1     -28.660 -51.725  19.836  1.00  0.00     0.378 C 
HETATM    3  C8  UNL     1     -29.513 -50.524  19.693  1.00  0.00     0.248 C 
HETATM    4  O1  UNL     1     -29.129 -49.319  19.708  1.00  0.00    -0.272 OA
HETATM    5  N5  UNL     1     -30.841 -51.003  19.533  1.00  0.00    -0.325 N 
ATOM      6  H5  UNL     1     -31.699 -50.452  19.508  1.00  0.00     0.165 HD
HETATM    7  C9  UNL     1     -30.715 -52.467  19.410  1.00  0.00     0.235 C 
HETATM    8  C10 UNL     1     -30.914 -53.105  20.788  1.00  0.00     0.064 C 
HETATM    9  C11 UNL     1     -32.038 -52.314  21.430  1.00  0.00     0.004 C 
HETATM   10  C12 UNL     1     -33.281 -52.419  20.576  1.00  0.00     0.000 C 
HETATM   11  C13 UNL     1     -33.085 -53.326  19.393  1.00  0.00     0.004 C 
HETATM   12  C14 UNL     1     -31.840 -53.017  18.584  1.00  0.00     0.064 C 
ENDROOT
BRANCH   1  13
HETATM   13  C6  UNL     1     -29.017 -52.305  17.652  1.00  0.00     0.276 C 
BRANCH  13  14
HETATM   14  C5  UNL     1     -28.490 -53.311  16.704  1.00  0.00     0.030 C 
BRANCH  14  15
HETATM   15  C4  UNL     1     -27.055 -53.721  17.084  1.00  0.00     0.003 C 
BRANCH  15  16
HETATM   16  C3  UNL     1     -27.039 -55.195  17.421  1.00  0.00     0.020 C 
BRANCH  16  17
HETATM   17  C2  UNL     1     -26.987 -55.362  18.924  1.00  0.00     0.122 C 
BRANCH  17  18
HETATM   18  N3  UNL     1     -26.355 -54.226  19.555  1.00  0.00    -0.367 N 
HETATM   19  C1  UNL     1     -25.512 -54.466  20.504  1.00  0.00     0.196 C 
HETATM   20  N1  UNL     1     -25.196 -55.762  20.937  1.00  0.00    -0.067 NA
HETATM   21  N2  UNL     1     -24.890 -53.340  21.126  1.00  0.00    -0.067 NA
ATOM     22  H3  UNL     1     -26.566 -53.271  19.262  1.00  0.00     0.161 HD
ENDBRANCH  17  18
ENDBRANCH  16  17
ENDBRANCH  15  16
ENDBRANCH  14  15
ENDBRANCH  13  14
ENDBRANCH   1  13
TORSDOF 6
ENDMDL
MODEL 3
REMARK VINA RESULT: -6.810202500      1.643      4.932
REMARK  6 active torsions:
REMARK  status: ('A' for Active; 'I' for Inactive)
REMARK    1  A    between atoms: N3_4  and  C2_6 
REMARK    2  A    between atoms: C2_6  and  C3_7 
REMARK    3  A    between atoms: C3_7  and  C4_8 
REMARK    4  A    between atoms: C4_8  and  C5_9 
REMARK    5  A    between atoms: C5_9  and  C6_10 
REMARK    6  A    between atoms: C6_10  and  N4_11 
ROOT
HETATM    1  N4  UNL     1     -29.348 -52.061  19.267  1.00  0.00     0.126 N 
HETATM    2  C7  UNL     1     -28.956 -52.829  18.042  1.00  0.00     0.378 C 
HETATM    3  C8  UNL     1     -29.316 -54.201  18.462  1.00  0.00     0.248 C 
HETATM    4  O1  UNL     1     -28.728 -55.272  18.134  1.00  0.00    -0.272 OA
HETATM    5  N5  UNL     1     -30.452 -54.067  19.307  1.00  0.00    -0.325 N 
ATOM      6  H5  UNL     1     -31.026 -54.815  19.695  1.00  0.00     0.165 HD
HETATM    7  C9  UNL     1     -30.622 -52.616  19.502  1.00  0.00     0.235 C 
HETATM    8  C10 UNL     1     -31.630 -52.087  18.477  1.00  0.00     0.064 C 
HETATM    9  C11 UNL     1     -32.706 -53.152  18.396  1.00  0.00     0.004 C 
HETATM   10  C12 UNL     1     -33.335 -53.339  19.758  1.00  0.00     0.000 C 
HETATM   11  C13 UNL     1     -32.784 -52.379  20.777  1.00  0.00     0.004 C 
HETATM   12  C14 UNL     1     -31.269 -52.343  20.828  1.00  0.00     0.064 C 
ENDROOT
BRANCH   1  13
HETATM   13  C6  UNL     1     -28.285 -52.297  20.163  1.00  0.00     0.276 C 
BRANCH  13  14
HETATM   14  C5  UNL     1     -26.952 -51.705  19.916  1.00  0.00     0.030 C 
BRANCH  14  15
HETATM   15  C4  UNL     1     -25.847 -52.556  20.569  1.00  0.00     0.003 C 
BRANCH  15  16
HETATM   16  C3  UNL     1     -25.774 -53.891  19.865  1.00  0.00     0.020 C 
BRANCH  16  17
HETATM   17  C2  UNL     1     -25.880 -55.000  20.888  1.00  0.00     0.122 C 
BRANCH  17  18
HETATM   18  N3  UNL     1     -27.116 -55.734  20.739  1.00  0.00    -0.367 N 
HETATM   19  C1  UNL     1     -28.022 -55.561  21.644  1.00  0.00     0.196 C 
HETATM   20  N1  UNL     1     -27.853 -54.706  22.743  1.00  0.00    -0.067 NA
HETATM   21  N2  UNL     1     -29.243 -56.289  21.493  1.00  0.00    -0.067 NA
ATOM     22  H3  UNL     1     -27.267 -56.363  19.951  1.00  0.00     0.161 HD
ENDBRANCH  17  18
ENDBRANCH  16  17
ENDBRANCH  15  16
ENDBRANCH  14  15
ENDBRANCH  13  14
ENDBRANCH   1  13
TORSDOF 6
ENDMDL
MODEL 4
REMARK VINA RESULT: -6.772082157      1.190      1.365
REMARK  6 active torsions:
REMARK  status: ('A' for Active; 'I' for Inactive)
REMARK    1  A    between atoms: N3_4  and  C2_6 
REMARK    2  A    between atoms: C2_6  and  C3_7 
REMARK    3  A    between atoms: C3_7  and  C4_8 
REMARK    4  A    between atoms: C4_8  and  C5_9 
REMARK    5  A    between atoms: C5_9  and  C6_10 
REMARK    6  A    between atoms: C6_10  and  N4_11 
ROOT
HETATM    1  N4  UNL     1     -28.316 -53.536  18.442  1.00  0.00     0.126 N 
HETATM    2  C7  UNL     1     -27.671 -54.377  17.382  1.00  0.00     0.378 C 
HETATM    3  C8  UNL     1     -26.540 -53.502  17.002  1.00  0.00     0.248 C 
HETATM    4  O1  UNL     1     -26.025 -53.390  15.852  1.00  0.00    -0.272 OA
HETATM    5  N5  UNL     1     -26.156 -52.819  18.188  1.00  0.00    -0.325 N 
ATOM      6  H5  UNL     1     -25.347 -52.212  18.318  1.00  0.00     0.165 HD
HETATM    7  C9  UNL     1     -27.177 -53.175  19.190  1.00  0.00     0.235 C 
HETATM    8  C10 UNL     1     -26.680 -54.367  20.011  1.00  0.00     0.064 C 
HETATM    9  C11 UNL     1     -25.203 -54.105  20.234  1.00  0.00     0.004 C 
HETATM   10  C12 UNL     1     -25.029 -52.799  20.977  1.00  0.00     0.000 C 
HETATM   11  C13 UNL     1     -26.346 -52.177  21.350  1.00  0.00     0.004 C 
HETATM   12  C14 UNL     1     -27.323 -52.071  20.196  1.00  0.00     0.064 C 
ENDROOT
BRANCH   1  13
HETATM   13  C6  UNL     1     -29.031 -52.566  17.709  1.00  0.00     0.276 C 
BRANCH  13  14
HETATM   14  C5  UNL     1     -30.457 -52.307  18.004  1.00  0.00     0.030 C 
BRANCH  14  15
HETATM   15  C4  UNL     1     -31.176 -53.607  18.408  1.00  0.00     0.003 C 
BRANCH  15  16
HETATM   16  C3  UNL     1     -32.332 -53.266  19.320  1.00  0.00     0.020 C 
BRANCH  16  17
HETATM   17  C2  UNL     1     -31.792 -52.768  20.643  1.00  0.00     0.122 C 
BRANCH  17  18
HETATM   18  N3  UNL     1     -32.036 -53.722  21.701  1.00  0.00    -0.367 N 
HETATM   19  C1  UNL     1     -31.009 -54.306  22.224  1.00  0.00     0.196 C 
HETATM   20  N1  UNL     1     -29.692 -54.053  21.810  1.00  0.00    -0.067 NA
HETATM   21  N2  UNL     1     -31.255 -55.249  23.269  1.00  0.00    -0.067 NA
ATOM     22  H3  UNL     1     -32.983 -53.927  22.022  1.00  0.00     0.161 HD
ENDBRANCH  17  18
ENDBRANCH  16  17
ENDBRANCH  15  16
ENDBRANCH  14  15
ENDBRANCH  13  14
ENDBRANCH   1  13
TORSDOF 6
ENDMDL
MODEL 5
REMARK VINA RESULT: -6.758537726      1.216      1.811
REMARK  6 active torsions:
REMARK  status: ('A' for Active; 'I' for Inactive)
REMARK    1  A    between atoms: N3_4  and  C2_6 
REMARK    2  A    between atoms: C2_6  and  C3_7 
REMARK    3  A    between atoms: C3_7  and  C4_8 
REMARK    4  A    between atoms: C4_8  and  C5_9 
REMARK    5  A    between atoms: C5_9  and  C6_10 
REMARK    6  A    between atoms: C6_10  and  N4_11 
ROOT
HETATM    1  N4  UNL     1     -28.409 -53.466  18.552  1.00  0.00     0.126 N 
HETATM    2  C7  UNL     1     -27.903 -54.562  17.663  1.00  0.00     0.378 C 
HETATM    3  C8  UNL     1     -26.653 -53.946  17.167  1.00  0.00     0.248 C 
HETATM    4  O1  UNL     1     -26.130 -54.109  16.027  1.00  0.00    -0.272 OA
HETATM    5  N5  UNL     1     -26.165 -53.137  18.230  1.00  0.00    -0.325 N 
ATOM      6  H5  UNL     1     -25.272 -52.646  18.275  1.00  0.00     0.165 HD
HETATM    7  C9  UNL     1     -27.226 -53.160  19.254  1.00  0.00     0.235 C 
HETATM    8  C10 UNL     1     -26.914 -54.257  20.275  1.00  0.00     0.064 C 
HETATM    9  C11 UNL     1     -25.414 -54.187  20.484  1.00  0.00     0.004 C 
HETATM   10  C12 UNL     1     -25.040 -52.816  21.000  1.00  0.00     0.000 C 
HETATM   11  C13 UNL     1     -26.245 -51.947  21.234  1.00  0.00     0.004 C 
HETATM   12  C14 UNL     1     -27.198 -51.892  20.056  1.00  0.00     0.064 C 
ENDROOT
BRANCH   1  13
HETATM   13  C6  UNL     1     -28.969 -52.538  17.650  1.00  0.00     0.276 C 
BRANCH  13  14
HETATM   14  C5  UNL     1     -30.338 -52.739  17.125  1.00  0.00     0.030 C 
BRANCH  14  15
HETATM   15  C4  UNL     1     -31.226 -51.519  17.434  1.00  0.00     0.003 C 
BRANCH  15  16
HETATM   16  C3  UNL     1     -30.656 -50.787  18.628  1.00  0.00     0.020 C 
BRANCH  16  17
HETATM   17  C2  UNL     1     -31.185 -51.419  19.897  1.00  0.00     0.122 C 
BRANCH  17  18
HETATM   18  N3  UNL     1     -32.522 -51.933  19.709  1.00  0.00    -0.367 N 
HETATM   19  C1  UNL     1     -32.812 -53.058  20.274  1.00  0.00     0.196 C 
HETATM   20  N1  UNL     1     -31.894 -53.785  21.046  1.00  0.00    -0.067 NA
HETATM   21  N2  UNL     1     -34.135 -53.563  20.084  1.00  0.00    -0.067 NA
ATOM     22  H3  UNL     1     -33.211 -51.427  19.151  1.00  0.00     0.161 HD
ENDBRANCH  17  18
ENDBRANCH  16  17
ENDBRANCH  15  16
ENDBRANCH  14  15
ENDBRANCH  13  14
ENDBRANCH   1  13
TORSDOF 6
ENDMDL
