MODEL 1
REMARK VINA RESULT: -6.583933134      0.000      0.000
REMARK  6 active torsions:
REMARK  status: ('A' for Active; 'I' for Inactive)
REMARK    1  A    between atoms: N4_13  and  C5_14 
REMARK    2  A    between atoms: C5_14  and  C6_15 
REMARK    3  A    between atoms: C6_15  and  C7_16 
REMARK    4  A    between atoms: C7_16  and  C8_17 
REMARK    5  A    between atoms: C8_17  and  C9_18 
REMARK    6  A    between atoms: C9_18  and  N5_19 
ROOT
HETATM    1  C1  UNL     1      42.848  -2.841  21.696  1.00  0.00     0.065 C 
HETATM    2  C2  UNL     1      43.455  -2.052  20.869  1.00  0.00     0.121 A 
HETATM    3  N1  UNL     1      42.787  -0.877  20.430  1.00  0.00    -0.177 N 
ATOM      4  H1  UNL     1      41.846  -0.675  20.767  1.00  0.00     0.185 HD
HETATM    5  C3  UNL     1      43.414   0.014  19.530  1.00  0.00     0.681 A 
HETATM    6  N2  UNL     1      42.832   1.097  19.107  1.00  0.00    -0.234 N 
ATOM      7  H21 UNL     1      43.286   1.740  18.458  1.00  0.00     0.174 HD
ATOM      8  H22 UNL     1      41.891   1.323  19.430  1.00  0.00     0.174 HD
HETATM    9  N3  UNL     1      44.726  -0.301  19.081  1.00  0.00    -0.141 N 
ATOM     10  H3  UNL     1      45.200   0.325  18.431  1.00  0.00     0.189 HD
HETATM   11  C4  UNL     1      45.376  -1.464  19.523  1.00  0.00     0.346 A 
HETATM   12  O1  UNL     1      46.546  -1.686  19.084  1.00  0.00    -0.246 OA
HETATM   13  N4  UNL     1      44.755  -2.391  20.444  1.00  0.00    -0.264 N 
ENDROOT
BRANCH  13  14
HETATM   14  C5  UNL     1      45.508  -3.511  20.806  1.00  0.00     0.076 C 
BRANCH  14  15
HETATM   15  C6  UNL     1      46.664  -3.334  21.720  1.00  0.00     0.045 C 
BRANCH  15  16
HETATM   16  C7  UNL     1      46.055  -3.089  23.095  1.00  0.00     0.007 C 
BRANCH  16  17
HETATM   17  C8  UNL     1      46.362  -1.683  23.589  1.00  0.00     0.021 C 
BRANCH  17  18
HETATM   18  C9  UNL     1      45.201  -1.298  24.473  1.00  0.00     0.128 C 
BRANCH  18  19
HETATM   19  N5  UNL     1      44.387  -0.254  23.913  1.00  0.00    -0.366 N 
HETATM   20  C10 UNL     1      43.069  -0.153  24.166  1.00  0.00     0.091 A 
HETATM   21  C11 UNL     1      42.282   0.847  23.632  1.00  0.00     0.024 A 
HETATM   22  C12 UNL     1      42.817   1.807  22.799  1.00  0.00    -0.059 A 
HETATM   23  C13 UNL     1      41.989   2.898  22.210  1.00  0.00     0.048 C 
HETATM   24  C14 UNL     1      44.170   1.696  22.545  1.00  0.00     0.024 A 
HETATM   25  C15 UNL     1      44.919   0.678  23.101  1.00  0.00     0.091 A 
ENDBRANCH  18  19
ENDBRANCH  17  18
ENDBRANCH  16  17
ENDBRANCH  15  16
ENDBRANCH  14  15
ENDBRANCH  13  14
TORSDOF 6
ENDMDL
MODEL 2
REMARK VINA RESULT: -6.470032011      1.383      2.181
REMARK  6 active torsions:
REMARK  status: ('A' for Active; 'I' for Inactive)
REMARK    1  A    between atoms: N4_13  and  C5_14 
REMARK    2  A    between atoms: C5_14  and  C6_15 
REMARK    3  A    between atoms: C6_15  and  C7_16 
REMARK    4  A    between atoms: C7_16  and  C8_17 
REMARK    5  A    between atoms: C8_17  and  C9_18 
REMARK    6  A    between atoms: C9_18  and  N5_19 
ROOT
HETATM    1  C1  UNL     1      46.880  -1.375  21.037  1.00  0.00     0.065 C 
HETATM    2  C2  UNL     1      45.607  -1.370  20.801  1.00  0.00     0.121 A 
HETATM    3  N1  UNL     1      45.059  -0.305  20.035  1.00  0.00    -0.177 N 
ATOM      4  H1  UNL     1      45.669   0.434  19.687  1.00  0.00     0.185 HD
HETATM    5  C3  UNL     1      43.675  -0.262  19.751  1.00  0.00     0.681 A 
HETATM    6  N2  UNL     1      43.139   0.696  19.054  1.00  0.00    -0.234 N 
ATOM      7  H21 UNL     1      42.141   0.727  18.849  1.00  0.00     0.174 HD
ATOM      8  H22 UNL     1      43.728   1.448  18.694  1.00  0.00     0.174 HD
HETATM    9  N3  UNL     1      42.855  -1.310  20.253  1.00  0.00    -0.141 N 
ATOM     10  H3  UNL     1      41.853  -1.301  20.063  1.00  0.00     0.189 HD
HETATM   11  C4  UNL     1      43.409  -2.355  21.008  1.00  0.00     0.346 A 
HETATM   12  O1  UNL     1      42.622  -3.259  21.426  1.00  0.00    -0.246 OA
HETATM   13  N4  UNL     1      44.822  -2.423  21.311  1.00  0.00    -0.264 N 
ENDROOT
BRANCH  13  14
HETATM   14  C5  UNL     1      45.247  -3.515  22.071  1.00  0.00     0.076 C 
BRANCH  14  15
HETATM   15  C6  UNL     1      44.950  -3.537  23.525  1.00  0.00     0.045 C 
BRANCH  15  16
HETATM   16  C7  UNL     1      46.160  -2.891  24.192  1.00  0.00     0.007 C 
BRANCH  16  17
HETATM   17  C8  UNL     1      45.870  -1.446  24.572  1.00  0.00     0.021 C 
BRANCH  17  18
HETATM   18  C9  UNL     1      44.366  -1.322  24.584  1.00  0.00     0.128 C 
BRANCH  18  19
HETATM   19  N5  UNL     1      43.890  -0.146  23.909  1.00  0.00    -0.366 N 
HETATM   20  C10 UNL     1      44.711   0.850  23.531  1.00  0.00     0.091 A 
HETATM   21  C11 UNL     1      44.262   1.982  22.881  1.00  0.00     0.024 A 
HETATM   22  C12 UNL     1      42.925   2.149  22.584  1.00  0.00    -0.059 A 
HETATM   23  C13 UNL     1      42.413   3.361  21.883  1.00  0.00     0.048 C 
HETATM   24  C14 UNL     1      42.089   1.122  22.976  1.00  0.00     0.024 A 
HETATM   25  C15 UNL     1      42.585   0.008  23.624  1.00  0.00     0.091 A 
ENDBRANCH  18  19
ENDBRANCH  17  18
ENDBRANCH  16  17
ENDBRANCH  15  16
ENDBRANCH  14  15
ENDBRANCH  13  14
TORSDOF 6
ENDMDL
MODEL 3
REMARK VINA RESULT: -6.463911641      2.117      5.087
REMARK  6 active torsions:
REMARK  status: ('A' for Active; 'I' for Inactive)
REMARK    1  A    between atoms: N4_13  and  C5_14 
REMARK    2  A    between atoms: C5_14  and  C6_15 
REMARK    3  A    between atoms: C6_15  and  C7_16 
REMARK    4  A    between atoms: C7_16  and  C8_17 
REMARK    5  A    between atoms: C8_17  and  C9_18 
REMARK    6  A    between atoms: C9_18  and  N5_19 
ROOT
HETATM    1  C1  UNL     1      41.420  -0.414  24.202  1.00  0.00     0.065 C 
HETATM    2  C2  UNL     1      42.559  -0.965  23.926  1.00  0.00     0.121 A 
HETATM    3  N1  UNL     1      42.566  -2.215  23.249  1.00  0.00    -0.177 N 
ATOM      4  H1  UNL     1      41.683  -2.657  22.994  1.00  0.00     0.185 HD
HETATM    5  C3  UNL     1      43.786  -2.850  22.925  1.00  0.00     0.681 A 
HETATM    6  N2  UNL     1      43.830  -3.993  22.307  1.00  0.00    -0.234 N 
ATOM      7  H21 UNL     1      44.711  -4.452  22.074  1.00  0.00     0.174 HD
ATOM      8  H22 UNL     1      42.962  -4.457  22.041  1.00  0.00     0.174 HD
HETATM    9  N3  UNL     1      44.997  -2.204  23.296  1.00  0.00    -0.141 N 
ATOM     10  H3  UNL     1      45.891  -2.642  23.075  1.00  0.00     0.189 HD
HETATM   11  C4  UNL     1      44.976  -0.970  23.964  1.00  0.00     0.346 A 
HETATM   12  O1  UNL     1      46.093  -0.446  24.266  1.00  0.00    -0.246 OA
HETATM   13  N4  UNL     1      43.741  -0.299  24.306  1.00  0.00    -0.264 N 
ENDROOT
BRANCH  13  14
HETATM   14  C5  UNL     1      43.857   0.925  24.970  1.00  0.00     0.076 C 
BRANCH  14  15
HETATM   15  C6  UNL     1      44.243   2.129  24.193  1.00  0.00     0.045 C 
BRANCH  15  16
HETATM   16  C7  UNL     1      42.987   2.536  23.432  1.00  0.00     0.007 C 
BRANCH  16  17
HETATM   17  C8  UNL     1      43.287   2.754  21.956  1.00  0.00     0.021 C 
BRANCH  17  18
HETATM   18  C9  UNL     1      42.365   1.821  21.210  1.00  0.00     0.128 C 
BRANCH  18  19
HETATM   19  N5  UNL     1      43.056   0.958  20.291  1.00  0.00    -0.366 N 
HETATM   20  C10 UNL     1      42.842   1.000  18.964  1.00  0.00     0.091 A 
HETATM   21  C11 UNL     1      43.503   0.174  18.076  1.00  0.00     0.024 A 
HETATM   22  C12 UNL     1      44.429  -0.747  18.515  1.00  0.00    -0.059 A 
HETATM   23  C13 UNL     1      45.157  -1.650  17.577  1.00  0.00     0.048 C 
HETATM   24  C14 UNL     1      44.643  -0.783  19.879  1.00  0.00     0.024 A 
HETATM   25  C15 UNL     1      43.958   0.062  20.730  1.00  0.00     0.091 A 
ENDBRANCH  18  19
ENDBRANCH  17  18
ENDBRANCH  16  17
ENDBRANCH  15  16
ENDBRANCH  14  15
ENDBRANCH  13  14
TORSDOF 6
ENDMDL
MODEL 4
REMARK VINA RESULT: -6.194257786      2.212      4.381
REMARK  6 active torsions:
REMARK  status: ('A' for Active; 'I' for Inactive)
REMARK    1  A    between atoms: N4_13  and  C5_14 
REMARK    2  A    between atoms: C5_14  and  C6_15 
REMARK    3  A    between atoms: C6_15  and  C7_16 
REMARK    4  A    between atoms: C7_16  and  C8_17 
REMARK    5  A    between atoms: C8_17  and  C9_18 
REMARK    6  A    between atoms: C9_18  and  N5_19 
ROOT
HETATM    1  C1  UNL     1      41.479   0.087  23.707  1.00  0.00     0.065 C 
HETATM    2  C2  UNL     1      42.029   0.882  22.847  1.00  0.00     0.121 A 
HETATM    3  N1  UNL     1      41.780   0.670  21.463  1.00  0.00    -0.177 N 
ATOM      4  H1  UNL     1      41.179  -0.101  21.171  1.00  0.00     0.185 HD
HETATM    5  C3  UNL     1      42.358   1.516  20.490  1.00  0.00     0.681 A 
HETATM    6  N2  UNL     1      42.152   1.351  19.217  1.00  0.00    -0.234 N 
ATOM      7  H21 UNL     1      42.569   1.962  18.515  1.00  0.00     0.174 HD
ATOM      8  H22 UNL     1      41.555   0.588  18.897  1.00  0.00     0.174 HD
HETATM    9  N3  UNL     1      43.190   2.579  20.937  1.00  0.00    -0.141 N 
ATOM     10  H3  UNL     1      43.620   3.204  20.254  1.00  0.00     0.189 HD
HETATM   11  C4  UNL     1      43.428   2.779  22.305  1.00  0.00     0.346 A 
HETATM   12  O1  UNL     1      44.180   3.746  22.636  1.00  0.00    -0.246 OA
HETATM   13  N4  UNL     1      42.848   1.927  23.320  1.00  0.00    -0.264 N 
ENDROOT
BRANCH  13  14
HETATM   14  C5  UNL     1      43.163   2.232  24.647  1.00  0.00     0.076 C 
BRANCH  14  15
HETATM   15  C6  UNL     1      43.998   1.282  25.423  1.00  0.00     0.045 C 
BRANCH  15  16
HETATM   16  C7  UNL     1      44.912   0.620  24.398  1.00  0.00     0.007 C 
BRANCH  16  17
HETATM   17  C8  UNL     1      44.876  -0.896  24.529  1.00  0.00     0.021 C 
BRANCH  17  18
HETATM   18  C9  UNL     1      45.841  -1.417  23.492  1.00  0.00     0.128 C 
BRANCH  18  19
HETATM   19  N5  UNL     1      45.252  -1.547  22.187  1.00  0.00    -0.366 N 
HETATM   20  C10 UNL     1      44.068  -2.154  21.988  1.00  0.00     0.091 A 
HETATM   21  C11 UNL     1      43.497  -2.282  20.737  1.00  0.00     0.024 A 
HETATM   22  C12 UNL     1      44.124  -1.784  19.614  1.00  0.00    -0.059 A 
HETATM   23  C13 UNL     1      43.529  -1.909  18.253  1.00  0.00     0.048 C 
HETATM   24  C14 UNL     1      45.338  -1.163  19.828  1.00  0.00     0.024 A 
HETATM   25  C15 UNL     1      45.872  -1.059  21.098  1.00  0.00     0.091 A 
ENDBRANCH  18  19
ENDBRANCH  17  18
ENDBRANCH  16  17
ENDBRANCH  15  16
ENDBRANCH  14  15
ENDBRANCH  13  14
TORSDOF 6
ENDMDL
MODEL 5
REMARK VINA RESULT: -6.168879630      2.030      4.277
REMARK  6 active torsions:
REMARK  status: ('A' for Active; 'I' for Inactive)
REMARK    1  A    between atoms: N4_13  and  C5_14 
REMARK    2  A    between atoms: C5_14  and  C6_15 
REMARK    3  A    between atoms: C6_15  and  C7_16 
REMARK    4  A    between atoms: C7_16  and  C8_17 
REMARK    5  A    between atoms: C8_17  and  C9_18 
REMARK    6  A    between atoms: C9_18  and  N5_19 
ROOT
HETATM    1  C1  UNL     1      41.883  -1.357  24.272  1.00  0.00     0.065 C 
HETATM    2  C2  UNL     1      42.350  -0.285  23.717  1.00  0.00     0.121 A 
HETATM    3  N1  UNL     1      41.461   0.548  22.984  1.00  0.00    -0.177 N 
ATOM      4  H1  UNL     1      40.477   0.290  22.905  1.00  0.00     0.185 HD
HETATM    5  C3  UNL     1      41.928   1.729  22.365  1.00  0.00     0.681 A 
HETATM    6  N2  UNL     1      41.143   2.513  21.687  1.00  0.00    -0.234 N 
ATOM      7  H21 UNL     1      41.481   3.366  21.241  1.00  0.00     0.174 HD
ATOM      8  H22 UNL     1      40.155   2.279  21.592  1.00  0.00     0.174 HD
HETATM    9  N3  UNL     1      43.305   2.055  22.498  1.00  0.00    -0.141 N 
ATOM     10  H3  UNL     1      43.667   2.902  22.060  1.00  0.00     0.189 HD
HETATM   11  C4  UNL     1      44.173   1.225  23.224  1.00  0.00     0.346 A 
HETATM   12  O1  UNL     1      45.391   1.574  23.305  1.00  0.00    -0.246 OA
HETATM   13  N4  UNL     1      43.719   0.011  23.868  1.00  0.00    -0.264 N 
ENDROOT
BRANCH  13  14
HETATM   14  C5  UNL     1      44.682  -0.727  24.560  1.00  0.00     0.076 C 
BRANCH  14  15
HETATM   15  C6  UNL     1      45.624  -1.578  23.791  1.00  0.00     0.045 C 
BRANCH  15  16
HETATM   16  C7  UNL     1      45.033  -2.983  23.848  1.00  0.00     0.007 C 
BRANCH  16  17
HETATM   17  C8  UNL     1      45.154  -3.683  22.502  1.00  0.00     0.021 C 
BRANCH  17  18
HETATM   18  C9  UNL     1      43.912  -3.305  21.733  1.00  0.00     0.128 C 
BRANCH  18  19
HETATM   19  N5  UNL     1      44.184  -2.470  20.595  1.00  0.00    -0.366 N 
HETATM   20  C10 UNL     1      43.640  -1.249  20.450  1.00  0.00     0.091 A 
HETATM   21  C11 UNL     1      43.897  -0.442  19.360  1.00  0.00     0.024 A 
HETATM   22  C12 UNL     1      44.739  -0.857  18.350  1.00  0.00    -0.059 A 
HETATM   23  C13 UNL     1      45.034  -0.006  17.162  1.00  0.00     0.048 C 
HETATM   24  C14 UNL     1      45.294  -2.112  18.507  1.00  0.00     0.024 A 
HETATM   25  C15 UNL     1      45.007  -2.885  19.615  1.00  0.00     0.091 A 
ENDBRANCH  18  19
ENDBRANCH  17  18
ENDBRANCH  16  17
ENDBRANCH  15  16
ENDBRANCH  14  15
ENDBRANCH  13  14
TORSDOF 6
ENDMDL
