MODEL 1
REMARK VINA RESULT: -5.842471346      0.000      0.000
REMARK  8 active torsions:
REMARK  status: ('A' for Active; 'I' for Inactive)
REMARK    1  A    between atoms: N1_1  and  C1_5 
REMARK    2  A    between atoms: C1_5  and  C2_6 
REMARK    3  A    between atoms: C2_6  and  C3_7 
REMARK    4  A    between atoms: C3_7  and  N2_8 
REMARK    5  A    between atoms: N2_8  and  C4_9 
REMARK    6  A    between atoms: N2_8  and  C12_21 
REMARK    7  A    between atoms: C4_9  and  C5_10 
REMARK    8  A    between atoms: C5_10  and  N3_11 
REMARK       I    between atoms: C6_13  and  N5_15 
ROOT
HETATM    1  C4  UNL     1      44.493  -4.163  22.225  1.00  0.00     0.150 C 
ENDROOT
BRANCH   1   2
HETATM    2  N2  UNL     1      45.750  -3.653  21.542  1.00  0.00    -0.335 N 
BRANCH   2   3
HETATM    3  C3  UNL     1      46.686  -3.144  22.437  1.00  0.00     0.090 C 
BRANCH   3   4
HETATM    4  C2  UNL     1      46.708  -1.815  23.038  1.00  0.00     0.017 C 
BRANCH   4   5
HETATM    5  C1  UNL     1      46.142  -1.530  24.360  1.00  0.00     0.258 C 
BRANCH   5   6
HETATM    6  N1  UNL     1      46.196  -2.831  25.109  1.00  0.00    -0.076 N 
ATOM      7  H13 UNL     1      45.339  -3.380  25.039  1.00  0.00     0.274 HD
ATOM      8  H12 UNL     1      46.816  -3.522  24.687  1.00  0.00     0.274 HD
ATOM      9  H11 UNL     1      46.448  -2.585  26.066  1.00  0.00     0.274 HD
ENDBRANCH   5   6
ENDBRANCH   4   5
ENDBRANCH   3   4
ENDBRANCH   2   3
BRANCH   2  10
HETATM   10  C12 UNL     1      45.765  -3.931  20.183  1.00  0.00     0.187 C 
HETATM   11  N6  UNL     1      45.586  -5.175  19.588  1.00  0.00    -0.070 NA
HETATM   12  S1  UNL     1      46.026  -2.692  19.103  1.00  0.00    -0.044 SA
ENDBRANCH   2  10
ENDBRANCH   1   2
BRANCH   1  13
HETATM   13  C5  UNL     1      43.292  -3.399  21.707  1.00  0.00     0.142 C 
BRANCH  13  14
HETATM   14  N3  UNL     1      43.304  -2.105  22.322  1.00  0.00    -0.363 N 
HETATM   15  C6  UNL     1      43.222  -0.959  21.782  1.00  0.00     0.186 C 
HETATM   16  N4  UNL     1      43.097  -0.671  20.419  1.00  0.00    -0.064 NA
HETATM   17  N5  UNL     1      43.283   0.152  22.684  1.00  0.00    -0.356 N 
HETATM   18  C7  UNL     1      44.102   1.293  22.436  1.00  0.00     0.125 C 
HETATM   19  C11 UNL     1      42.487   0.068  23.885  1.00  0.00     0.125 C 
HETATM   20  C8  UNL     1      44.730   1.807  23.730  1.00  0.00     0.020 C 
HETATM   21  C9  UNL     1      43.647   2.178  24.675  1.00  0.00     0.003 C 
HETATM   22  C10 UNL     1      42.444   1.305  24.704  1.00  0.00     0.020 C 
ATOM     23  H3  UNL     1      43.389  -2.105  23.338  1.00  0.00     0.162 HD
ENDBRANCH  13  14
ENDBRANCH   1  13
TORSDOF 8
ENDMDL
MODEL 2
REMARK VINA RESULT: -5.691804486      1.792      2.358
REMARK  8 active torsions:
REMARK  status: ('A' for Active; 'I' for Inactive)
REMARK    1  A    between atoms: N1_1  and  C1_5 
REMARK    2  A    between atoms: C1_5  and  C2_6 
REMARK    3  A    between atoms: C2_6  and  C3_7 
REMARK    4  A    between atoms: C3_7  and  N2_8 
REMARK    5  A    between atoms: N2_8  and  C4_9 
REMARK    6  A    between atoms: N2_8  and  C12_21 
REMARK    7  A    between atoms: C4_9  and  C5_10 
REMARK    8  A    between atoms: C5_10  and  N3_11 
REMARK       I    between atoms: C6_13  and  N5_15 
ROOT
HETATM    1  C4  UNL     1      47.235  -2.318  19.940  1.00  0.00     0.150 C 
ENDROOT
BRANCH   1   2
HETATM    2  N2  UNL     1      46.878  -3.374  20.971  1.00  0.00    -0.335 N 
BRANCH   2   3
HETATM    3  C3  UNL     1      47.164  -2.979  22.274  1.00  0.00     0.090 C 
BRANCH   3   4
HETATM    4  C2  UNL     1      46.231  -2.465  23.270  1.00  0.00     0.017 C 
BRANCH   4   5
HETATM    5  C1  UNL     1      45.224  -3.304  23.927  1.00  0.00     0.258 C 
BRANCH   5   6
HETATM    6  N1  UNL     1      43.958  -3.098  23.144  1.00  0.00    -0.076 N 
ATOM      7  H13 UNL     1      43.770  -2.122  22.918  1.00  0.00     0.274 HD
ATOM      8  H12 UNL     1      44.010  -3.436  22.183  1.00  0.00     0.274 HD
ATOM      9  H11 UNL     1      43.223  -3.541  23.694  1.00  0.00     0.274 HD
ENDBRANCH   5   6
ENDBRANCH   4   5
ENDBRANCH   3   4
ENDBRANCH   2   3
BRANCH   2  10
HETATM   10  C12 UNL     1      46.210  -4.455  20.415  1.00  0.00     0.187 C 
HETATM   11  N6  UNL     1      44.890  -4.827  20.652  1.00  0.00    -0.070 NA
HETATM   12  S1  UNL     1      47.015  -5.449  19.351  1.00  0.00    -0.044 SA
ENDBRANCH   2  10
ENDBRANCH   1   2
BRANCH   1  13
HETATM   13  C5  UNL     1      45.975  -1.850  19.240  1.00  0.00     0.142 C 
BRANCH  13  14
HETATM   14  N3  UNL     1      45.345  -0.882  20.088  1.00  0.00    -0.363 N 
HETATM   15  C6  UNL     1      44.147  -0.841  20.507  1.00  0.00     0.186 C 
HETATM   16  N4  UNL     1      43.123  -1.756  20.238  1.00  0.00    -0.064 NA
HETATM   17  N5  UNL     1      43.823   0.283  21.334  1.00  0.00    -0.356 N 
HETATM   18  C7  UNL     1      42.635   1.050  21.148  1.00  0.00     0.125 C 
HETATM   19  C11 UNL     1      44.765   0.630  22.370  1.00  0.00     0.125 C 
HETATM   20  C8  UNL     1      42.901   2.536  21.382  1.00  0.00     0.020 C 
HETATM   21  C9  UNL     1      43.391   2.722  22.770  1.00  0.00     0.003 C 
HETATM   22  C10 UNL     1      44.312   1.687  23.310  1.00  0.00     0.020 C 
ATOM     23  H3  UNL     1      45.943  -0.117  20.398  1.00  0.00     0.162 HD
ENDBRANCH  13  14
ENDBRANCH   1  13
TORSDOF 8
ENDMDL
MODEL 3
REMARK VINA RESULT: -5.683723706      1.415      1.605
REMARK  8 active torsions:
REMARK  status: ('A' for Active; 'I' for Inactive)
REMARK    1  A    between atoms: N1_1  and  C1_5 
REMARK    2  A    between atoms: C1_5  and  C2_6 
REMARK    3  A    between atoms: C2_6  and  C3_7 
REMARK    4  A    between atoms: C3_7  and  N2_8 
REMARK    5  A    between atoms: N2_8  and  C4_9 
REMARK    6  A    between atoms: N2_8  and  C12_21 
REMARK    7  A    between atoms: C4_9  and  C5_10 
REMARK    8  A    between atoms: C5_10  and  N3_11 
REMARK       I    between atoms: C6_13  and  N5_15 
ROOT
HETATM    1  C4  UNL     1      45.390  -1.873  19.654  1.00  0.00     0.150 C 
ENDROOT
BRANCH   1   2
HETATM    2  N2  UNL     1      46.018  -2.881  20.602  1.00  0.00    -0.335 N 
BRANCH   2   3
HETATM    3  C3  UNL     1      46.746  -2.283  21.626  1.00  0.00     0.090 C 
BRANCH   3   4
HETATM    4  C2  UNL     1      46.670  -2.569  23.053  1.00  0.00     0.017 C 
BRANCH   4   5
HETATM    5  C1  UNL     1      45.493  -2.251  23.868  1.00  0.00     0.258 C 
BRANCH   5   6
HETATM    6  N1  UNL     1      44.603  -3.458  23.776  1.00  0.00    -0.076 N 
ATOM      7  H13 UNL     1      44.592  -3.890  22.852  1.00  0.00     0.274 HD
ATOM      8  H12 UNL     1      44.957  -4.269  24.283  1.00  0.00     0.274 HD
ATOM      9  H11 UNL     1      43.686  -3.145  24.094  1.00  0.00     0.274 HD
ENDBRANCH   5   6
ENDBRANCH   4   5
ENDBRANCH   3   4
ENDBRANCH   2   3
BRANCH   2  10
HETATM   10  C12 UNL     1      45.617  -4.181  20.335  1.00  0.00     0.187 C 
HETATM   11  N6  UNL     1      44.689  -4.929  21.054  1.00  0.00    -0.070 NA
HETATM   12  S1  UNL     1      46.282  -4.987  19.040  1.00  0.00    -0.044 SA
ENDBRANCH   2  10
ENDBRANCH   1   2
BRANCH   1  13
HETATM   13  C5  UNL     1      43.897  -1.806  19.905  1.00  0.00     0.142 C 
BRANCH  13  14
HETATM   14  N3  UNL     1      43.682  -0.894  20.988  1.00  0.00    -0.363 N 
HETATM   15  C6  UNL     1      43.147   0.257  20.973  1.00  0.00     0.186 C 
HETATM   16  N4  UNL     1      42.622   0.934  19.866  1.00  0.00    -0.064 NA
HETATM   17  N5  UNL     1      43.098   0.930  22.237  1.00  0.00    -0.356 N 
HETATM   18  C7  UNL     1      43.468   2.300  22.388  1.00  0.00     0.125 C 
HETATM   19  C11 UNL     1      42.671   0.156  23.377  1.00  0.00     0.125 C 
HETATM   20  C8  UNL     1      44.212   2.523  23.703  1.00  0.00     0.020 C 
HETATM   21  C9  UNL     1      43.326   2.129  24.827  1.00  0.00     0.003 C 
HETATM   22  C10 UNL     1      42.469   0.930  24.628  1.00  0.00     0.020 C 
ATOM     23  H3  UNL     1      44.004  -1.214  21.901  1.00  0.00     0.162 HD
ENDBRANCH  13  14
ENDBRANCH   1  13
TORSDOF 8
ENDMDL
MODEL 4
REMARK VINA RESULT: -5.511805323      3.251      4.366
REMARK  8 active torsions:
REMARK  status: ('A' for Active; 'I' for Inactive)
REMARK    1  A    between atoms: N1_1  and  C1_5 
REMARK    2  A    between atoms: C1_5  and  C2_6 
REMARK    3  A    between atoms: C2_6  and  C3_7 
REMARK    4  A    between atoms: C3_7  and  N2_8 
REMARK    5  A    between atoms: N2_8  and  C4_9 
REMARK    6  A    between atoms: N2_8  and  C12_21 
REMARK    7  A    between atoms: C4_9  and  C5_10 
REMARK    8  A    between atoms: C5_10  and  N3_11 
REMARK       I    between atoms: C6_13  and  N5_15 
ROOT
HETATM    1  C4  UNL     1      45.065  -1.692  19.328  1.00  0.00     0.150 C 
ENDROOT
BRANCH   1   2
HETATM    2  N2  UNL     1      44.982  -1.544  17.819  1.00  0.00    -0.335 N 
BRANCH   2   3
HETATM    3  C3  UNL     1      44.887  -0.217  17.408  1.00  0.00     0.090 C 
BRANCH   3   4
HETATM    4  C2  UNL     1      45.314   0.350  16.134  1.00  0.00     0.017 C 
BRANCH   4   5
HETATM    5  C1  UNL     1      46.458   1.258  16.009  1.00  0.00     0.258 C 
BRANCH   5   6
HETATM    6  N1  UNL     1      45.881   2.643  16.076  1.00  0.00    -0.076 N 
ATOM      7  H13 UNL     1      44.864   2.668  15.992  1.00  0.00     0.274 HD
ATOM      8  H12 UNL     1      45.936   3.066  17.002  1.00  0.00     0.274 HD
ATOM      9  H11 UNL     1      46.365   3.175  15.353  1.00  0.00     0.274 HD
ENDBRANCH   5   6
ENDBRANCH   4   5
ENDBRANCH   3   4
ENDBRANCH   2   3
BRANCH   2  10
HETATM   10  C12 UNL     1      45.163  -2.748  17.156  1.00  0.00     0.187 C 
HETATM   11  N6  UNL     1      44.176  -3.516  16.545  1.00  0.00    -0.070 NA
HETATM   12  S1  UNL     1      46.691  -3.397  17.050  1.00  0.00    -0.044 SA
ENDBRANCH   2  10
ENDBRANCH   1   2
BRANCH   1  13
HETATM   13  C5  UNL     1      43.670  -1.854  19.896  1.00  0.00     0.142 C 
BRANCH  13  14
HETATM   14  N3  UNL     1      43.534  -0.926  20.979  1.00  0.00    -0.363 N 
HETATM   15  C6  UNL     1      43.045   0.245  20.975  1.00  0.00     0.186 C 
HETATM   16  N4  UNL     1      42.504   0.935  19.885  1.00  0.00    -0.064 NA
HETATM   17  N5  UNL     1      43.074   0.928  22.234  1.00  0.00    -0.356 N 
HETATM   18  C7  UNL     1      43.503   2.283  22.359  1.00  0.00     0.125 C 
HETATM   19  C11 UNL     1      42.661   0.179  23.397  1.00  0.00     0.125 C 
HETATM   20  C8  UNL     1      44.307   2.485  23.642  1.00  0.00     0.020 C 
HETATM   21  C9  UNL     1      43.451   2.134  24.804  1.00  0.00     0.003 C 
HETATM   22  C10 UNL     1      42.541   0.969  24.648  1.00  0.00     0.020 C 
ATOM     23  H3  UNL     1      43.880  -1.253  21.881  1.00  0.00     0.162 HD
ENDBRANCH  13  14
ENDBRANCH   1  13
TORSDOF 8
ENDMDL
MODEL 5
REMARK VINA RESULT: -5.502418400      1.903      2.880
REMARK  8 active torsions:
REMARK  status: ('A' for Active; 'I' for Inactive)
REMARK    1  A    between atoms: N1_1  and  C1_5 
REMARK    2  A    between atoms: C1_5  and  C2_6 
REMARK    3  A    between atoms: C2_6  and  C3_7 
REMARK    4  A    between atoms: C3_7  and  N2_8 
REMARK    5  A    between atoms: N2_8  and  C4_9 
REMARK    6  A    between atoms: N2_8  and  C12_21 
REMARK    7  A    between atoms: C4_9  and  C5_10 
REMARK    8  A    between atoms: C5_10  and  N3_11 
REMARK       I    between atoms: C6_13  and  N5_15 
ROOT
HETATM    1  C4  UNL     1      47.323  -1.984  20.253  1.00  0.00     0.150 C 
ENDROOT
BRANCH   1   2
HETATM    2  N2  UNL     1      47.148  -2.961  21.402  1.00  0.00    -0.335 N 
BRANCH   2   3
HETATM    3  C3  UNL     1      46.480  -4.124  21.030  1.00  0.00     0.090 C 
BRANCH   3   4
HETATM    4  C2  UNL     1      45.281  -4.691  21.636  1.00  0.00     0.017 C 
BRANCH   4   5
HETATM    5  C1  UNL     1      44.104  -3.885  21.978  1.00  0.00     0.258 C 
BRANCH   5   6
HETATM    6  N1  UNL     1      44.304  -3.467  23.407  1.00  0.00    -0.076 N 
ATOM      7  H13 UNL     1      44.029  -4.179  24.084  1.00  0.00     0.274 HD
ATOM      8  H12 UNL     1      45.284  -3.411  23.684  1.00  0.00     0.274 HD
ATOM      9  H11 UNL     1      43.799  -2.587  23.507  1.00  0.00     0.274 HD
ENDBRANCH   5   6
ENDBRANCH   4   5
ENDBRANCH   3   4
ENDBRANCH   2   3
BRANCH   2  10
HETATM   10  C12 UNL     1      47.815  -2.557  22.549  1.00  0.00     0.187 C 
HETATM   11  N6  UNL     1      47.296  -2.510  23.839  1.00  0.00    -0.070 NA
HETATM   12  S1  UNL     1      49.399  -2.061  22.436  1.00  0.00    -0.044 SA
ENDBRANCH   2  10
ENDBRANCH   1   2
BRANCH   1  13
HETATM   13  C5  UNL     1      45.966  -1.476  19.811  1.00  0.00     0.142 C 
BRANCH  13  14
HETATM   14  N3  UNL     1      45.446  -0.659  20.867  1.00  0.00    -0.363 N 
HETATM   15  C6  UNL     1      44.264  -0.229  21.041  1.00  0.00     0.186 C 
HETATM   16  N4  UNL     1      43.151  -0.455  20.223  1.00  0.00    -0.064 NA
HETATM   17  N5  UNL     1      44.071   0.590  22.200  1.00  0.00    -0.356 N 
HETATM   18  C7  UNL     1      43.347   1.818  22.156  1.00  0.00     0.125 C 
HETATM   19  C11 UNL     1      44.661   0.130  23.435  1.00  0.00     0.125 C 
HETATM   20  C8  UNL     1      43.997   2.868  23.054  1.00  0.00     0.020 C 
HETATM   21  C9  UNL     1      44.015   2.361  24.449  1.00  0.00     0.003 C 
HETATM   22  C10 UNL     1      44.294   0.913  24.641  1.00  0.00     0.020 C 
ATOM     23  H3  UNL     1      46.121  -0.384  21.579  1.00  0.00     0.162 HD
ENDBRANCH  13  14
ENDBRANCH   1  13
TORSDOF 8
ENDMDL
