MODEL 1
REMARK VINA RESULT: -7.674602042      0.000      0.000
REMARK  6 active torsions:
REMARK  status: ('A' for Active; 'I' for Inactive)
REMARK    1  A    between atoms: C1_2  and  C2_3 
REMARK       I    between atoms: C1_2  and  N1_9 
REMARK    2  A    between atoms: C2_3  and  C3_4 
REMARK    3  A    between atoms: N1_9  and  C8_11 
REMARK    4  A    between atoms: N2_16  and  C12_17 
REMARK    5  A    between atoms: C12_17  and  C13_18 
REMARK       I    between atoms: C13_18  and  N3_20 
REMARK    6  A    between atoms: N3_20  and  C14_22 
ROOT
HETATM    1  C8  UNL     1      91.808  91.718 -43.559  1.00  0.00     0.105 A 
HETATM    2  C9  UNL     1      93.052  91.334 -43.153  1.00  0.00     0.060 A 
HETATM    3  C10 UNL     1      93.721  91.898 -42.058  1.00  0.00     0.052 A 
HETATM    4 CL1  UNL     1      95.299  91.327 -41.651  1.00  0.00    -0.083 Cl
HETATM    5  C11 UNL     1      93.098  92.886 -41.354  1.00  0.00     0.118 A 
HETATM    6  N2  UNL     1      91.852  93.301 -41.727  1.00  0.00    -0.312 N 
HETATM    7  C20 UNL     1      91.242  92.744 -42.774  1.00  0.00     0.274 A 
HETATM    8  O3  UNL     1      90.094  93.165 -43.083  1.00  0.00    -0.265 OA
ENDROOT
BRANCH   6   9
HETATM    9  C12 UNL     1      91.190  94.314 -40.960  1.00  0.00     0.234 C 
BRANCH   9  10
HETATM   10  C13 UNL     1      91.471  95.654 -41.484  1.00  0.00     0.236 C 
HETATM   11  O2  UNL     1      92.288  96.430 -40.865  1.00  0.00    -0.272 OA
HETATM   12  N3  UNL     1      90.897  96.166 -42.650  1.00  0.00    -0.355 N 
ATOM     13  H3  UNL     1      90.233  95.602 -43.181  1.00  0.00     0.162 HD
BRANCH  12  14
HETATM   14  C14 UNL     1      91.252  97.525 -43.115  1.00  0.00     0.084 C 
HETATM   15  C15 UNL     1      91.384  97.407 -44.638  1.00  0.00     0.025 C 
HETATM   16  C16 UNL     1      91.214  98.755 -45.247  1.00  0.00     0.002 C 
HETATM   17  C17 UNL     1      89.741  99.142 -45.151  1.00  0.00     0.000 C 
HETATM   18  C18 UNL     1      89.152  98.553 -43.870  1.00  0.00     0.002 C 
HETATM   19  C19 UNL     1      90.211  98.537 -42.781  1.00  0.00     0.025 C 
ENDBRANCH  12  14
ENDBRANCH   9  10
ENDBRANCH   6   9
BRANCH   1  20
HETATM   20  N1  UNL     1      91.082  91.199 -44.630  1.00  0.00    -0.323 N 
HETATM   21  C1  UNL     1      90.988  91.726 -45.921  1.00  0.00     0.222 C 
HETATM   22  O1  UNL     1      91.545  92.750 -46.299  1.00  0.00    -0.273 OA
ATOM     23  H1  UNL     1      90.561  90.340 -44.452  1.00  0.00     0.169 HD
BRANCH  21  24
HETATM   24  C2  UNL     1      90.143  90.980 -46.915  1.00  0.00     0.107 C 
BRANCH  24  25
HETATM   25  C3  UNL     1      90.378  91.498 -48.286  1.00  0.00    -0.006 C 
HETATM   26  C4  UNL     1      90.882  90.431 -49.244  1.00  0.00     0.005 C 
HETATM   27  C5  UNL     1      90.352  90.862 -50.610  1.00  0.00     0.000 C 
HETATM   28  C6  UNL     1      89.433  92.034 -50.363  1.00  0.00     0.000 C 
HETATM   29  C7  UNL     1      89.012  91.808 -48.918  1.00  0.00     0.005 C 
ENDBRANCH  24  25
ENDBRANCH  21  24
ENDBRANCH   1  20
TORSDOF 6
ENDMDL
MODEL 2
REMARK VINA RESULT: -7.086964562      3.937      9.114
REMARK  6 active torsions:
REMARK  status: ('A' for Active; 'I' for Inactive)
REMARK    1  A    between atoms: C1_2  and  C2_3 
REMARK       I    between atoms: C1_2  and  N1_9 
REMARK    2  A    between atoms: C2_3  and  C3_4 
REMARK    3  A    between atoms: N1_9  and  C8_11 
REMARK    4  A    between atoms: N2_16  and  C12_17 
REMARK    5  A    between atoms: C12_17  and  C13_18 
REMARK       I    between atoms: C13_18  and  N3_20 
REMARK    6  A    between atoms: N3_20  and  C14_22 
ROOT
HETATM    1  C8  UNL     1      88.997  98.652 -43.299  1.00  0.00     0.105 A 
HETATM    2  C9  UNL     1      87.707  98.540 -43.724  1.00  0.00     0.060 A 
HETATM    3  C10 UNL     1      87.306  97.716 -44.784  1.00  0.00     0.052 A 
HETATM    4 CL1  UNL     1      85.639  97.668 -45.230  1.00  0.00    -0.083 Cl
HETATM    5  C11 UNL     1      88.256  96.982 -45.431  1.00  0.00     0.118 A 
HETATM    6  N2  UNL     1      89.561  97.064 -45.038  1.00  0.00    -0.312 N 
HETATM    7  C20 UNL     1      89.910  97.858 -44.025  1.00  0.00     0.274 A 
HETATM    8  O3  UNL     1      91.128  97.905 -43.703  1.00  0.00    -0.265 OA
ENDROOT
BRANCH   6   9
HETATM    9  C12 UNL     1      90.546  96.262 -45.699  1.00  0.00     0.234 C 
BRANCH   9  10
HETATM   10  C13 UNL     1      90.654  94.932 -45.090  1.00  0.00     0.236 C 
HETATM   11  O2  UNL     1      90.151  93.909 -45.682  1.00  0.00    -0.272 OA
HETATM   12  N3  UNL     1      91.289  94.689 -43.869  1.00  0.00    -0.355 N 
ATOM     13  H3  UNL     1      91.699  95.462 -43.346  1.00  0.00     0.162 HD
BRANCH  12  14
HETATM   14  C14 UNL     1      91.366  93.310 -43.337  1.00  0.00     0.084 C 
HETATM   15  C15 UNL     1      92.752  92.800 -43.746  1.00  0.00     0.025 C 
HETATM   16  C16 UNL     1      93.141  91.677 -42.848  1.00  0.00     0.002 C 
HETATM   17  C17 UNL     1      93.481  92.255 -41.477  1.00  0.00     0.000 C 
HETATM   18  C18 UNL     1      92.593  93.472 -41.215  1.00  0.00     0.002 C 
HETATM   19  C19 UNL     1      91.232  93.258 -41.854  1.00  0.00     0.025 C 
ENDBRANCH  12  14
ENDBRANCH   9  10
ENDBRANCH   6   9
BRANCH   1  20
HETATM   20  N1  UNL     1      89.466  99.444 -42.251  1.00  0.00    -0.323 N 
HETATM   21  C1  UNL     1      89.666 100.827 -42.262  1.00  0.00     0.222 C 
HETATM   22  O1  UNL     1      89.455 101.555 -43.224  1.00  0.00    -0.273 OA
ATOM     23  H1  UNL     1      89.687  98.960 -41.381  1.00  0.00     0.169 HD
BRANCH  21  24
HETATM   24  C2  UNL     1      90.177 101.463 -41.000  1.00  0.00     0.107 C 
BRANCH  24  25
HETATM   25  C3  UNL     1      91.619 101.164 -40.816  1.00  0.00    -0.006 C 
HETATM   26  C4  UNL     1      92.514 101.961 -41.752  1.00  0.00     0.005 C 
HETATM   27  C5  UNL     1      93.819 102.136 -40.979  1.00  0.00     0.000 C 
HETATM   28  C6  UNL     1      93.568 101.602 -39.589  1.00  0.00     0.000 C 
HETATM   29  C7  UNL     1      92.057 101.744 -39.462  1.00  0.00     0.005 C 
ENDBRANCH  24  25
ENDBRANCH  21  24
ENDBRANCH   1  20
TORSDOF 6
ENDMDL
MODEL 3
REMARK VINA RESULT: -6.720931758      4.145      6.834
REMARK  6 active torsions:
REMARK  status: ('A' for Active; 'I' for Inactive)
REMARK    1  A    between atoms: C1_2  and  C2_3 
REMARK       I    between atoms: C1_2  and  N1_9 
REMARK    2  A    between atoms: C2_3  and  C3_4 
REMARK    3  A    between atoms: N1_9  and  C8_11 
REMARK    4  A    between atoms: N2_16  and  C12_17 
REMARK    5  A    between atoms: C12_17  and  C13_18 
REMARK       I    between atoms: C13_18  and  N3_20 
REMARK    6  A    between atoms: N3_20  and  C14_22 
ROOT
HETATM    1  C8  UNL     1      91.207  97.333 -42.857  1.00  0.00     0.105 A 
HETATM    2  C9  UNL     1      91.630  98.403 -42.126  1.00  0.00     0.060 A 
HETATM    3  C10 UNL     1      91.549  99.729 -42.571  1.00  0.00     0.052 A 
HETATM    4 CL1  UNL     1      92.129 100.996 -41.551  1.00  0.00    -0.083 Cl
HETATM    5  C11 UNL     1      91.016  99.970 -43.803  1.00  0.00     0.118 A 
HETATM    6  N2  UNL     1      90.579  98.927 -44.568  1.00  0.00    -0.312 N 
HETATM    7  C20 UNL     1      90.671  97.676 -44.116  1.00  0.00     0.274 A 
HETATM    8  O3  UNL     1      90.260  96.746 -44.861  1.00  0.00    -0.265 OA
ENDROOT
BRANCH   6   9
HETATM    9  C12 UNL     1      89.987  99.192 -45.845  1.00  0.00     0.234 C 
BRANCH   9  10
HETATM   10  C13 UNL     1      88.586  99.603 -45.713  1.00  0.00     0.236 C 
HETATM   11  O2  UNL     1      88.254 100.831 -45.901  1.00  0.00    -0.272 OA
HETATM   12  N3  UNL     1      87.549  98.725 -45.389  1.00  0.00    -0.355 N 
ATOM     13  H3  UNL     1      87.749  97.740 -45.218  1.00  0.00     0.162 HD
BRANCH  12  14
HETATM   14  C14 UNL     1      86.159  99.225 -45.294  1.00  0.00     0.084 C 
HETATM   15  C15 UNL     1      85.333  98.283 -46.178  1.00  0.00     0.025 C 
HETATM   16  C16 UNL     1      83.906  98.348 -45.756  1.00  0.00     0.002 C 
HETATM   17  C17 UNL     1      83.767  97.625 -44.419  1.00  0.00     0.000 C 
HETATM   18  C18 UNL     1      85.049  97.822 -43.610  1.00  0.00     0.002 C 
HETATM   19  C19 UNL     1      85.631  99.195 -43.901  1.00  0.00     0.025 C 
ENDBRANCH  12  14
ENDBRANCH   9  10
ENDBRANCH   6   9
BRANCH   1  20
HETATM   20  N1  UNL     1      91.250  95.992 -42.477  1.00  0.00    -0.323 N 
HETATM   21  C1  UNL     1      91.658  95.476 -41.244  1.00  0.00     0.222 C 
HETATM   22  O1  UNL     1      92.049  96.152 -40.300  1.00  0.00    -0.273 OA
ATOM     23  H1  UNL     1      90.952  95.312 -43.176  1.00  0.00     0.169 HD
BRANCH  21  24
HETATM   24  C2  UNL     1      91.611  93.984 -41.066  1.00  0.00     0.107 C 
BRANCH  24  25
HETATM   25  C3  UNL     1      92.645  93.331 -41.907  1.00  0.00    -0.006 C 
HETATM   26  C4  UNL     1      93.558  92.410 -41.114  1.00  0.00     0.005 C 
HETATM   27  C5  UNL     1      93.971  91.329 -42.111  1.00  0.00     0.000 C 
HETATM   28  C6  UNL     1      93.155  91.563 -43.359  1.00  0.00     0.000 C 
HETATM   29  C7  UNL     1      91.944  92.306 -42.812  1.00  0.00     0.005 C 
ENDBRANCH  24  25
ENDBRANCH  21  24
ENDBRANCH   1  20
TORSDOF 6
ENDMDL
MODEL 4
REMARK VINA RESULT: -6.713110566      4.078      9.262
REMARK  6 active torsions:
REMARK  status: ('A' for Active; 'I' for Inactive)
REMARK    1  A    between atoms: C1_2  and  C2_3 
REMARK       I    between atoms: C1_2  and  N1_9 
REMARK    2  A    between atoms: C2_3  and  C3_4 
REMARK    3  A    between atoms: N1_9  and  C8_11 
REMARK    4  A    between atoms: N2_16  and  C12_17 
REMARK    5  A    between atoms: C12_17  and  C13_18 
REMARK       I    between atoms: C13_18  and  N3_20 
REMARK    6  A    between atoms: N3_20  and  C14_22 
ROOT
HETATM    1  C8  UNL     1      90.130  92.219 -46.619  1.00  0.00     0.105 A 
HETATM    2  C9  UNL     1      89.435  93.121 -47.368  1.00  0.00     0.060 A 
HETATM    3  C10 UNL     1      89.117  92.929 -48.719  1.00  0.00     0.052 A 
HETATM    4 CL1  UNL     1      88.237  94.154 -49.560  1.00  0.00    -0.083 Cl
HETATM    5  C11 UNL     1      89.521  91.776 -49.324  1.00  0.00     0.118 A 
HETATM    6  N2  UNL     1      90.219  90.844 -48.611  1.00  0.00    -0.312 N 
HETATM    7  C20 UNL     1      90.507  91.057 -47.326  1.00  0.00     0.274 A 
HETATM    8  O3  UNL     1      91.159  90.171 -46.711  1.00  0.00    -0.265 OA
ENDROOT
BRANCH   6   9
HETATM    9  C12 UNL     1      90.608  89.620 -49.244  1.00  0.00     0.234 C 
BRANCH   9  10
HETATM   10  C13 UNL     1      89.443  88.862 -49.710  1.00  0.00     0.236 C 
HETATM   11  O2  UNL     1      89.134  88.856 -50.958  1.00  0.00    -0.272 OA
HETATM   12  N3  UNL     1      88.616  88.117 -48.865  1.00  0.00    -0.355 N 
ATOM     13  H3  UNL     1      88.802  88.090 -47.863  1.00  0.00     0.162 HD
BRANCH  12  14
HETATM   14  C14 UNL     1      87.469  87.367 -49.425  1.00  0.00     0.084 C 
HETATM   15  C15 UNL     1      87.487  86.013 -48.708  1.00  0.00     0.025 C 
HETATM   16  C16 UNL     1      86.130  85.403 -48.785  1.00  0.00     0.002 C 
HETATM   17  C17 UNL     1      85.205  86.173 -47.846  1.00  0.00     0.000 C 
HETATM   18  C18 UNL     1      85.632  87.641 -47.817  1.00  0.00     0.002 C 
HETATM   19  C19 UNL     1      86.165  88.044 -49.181  1.00  0.00     0.025 C 
ENDBRANCH  12  14
ENDBRANCH   9  10
ENDBRANCH   6   9
BRANCH   1  20
HETATM   20  N1  UNL     1      90.475  92.340 -45.273  1.00  0.00    -0.323 N 
HETATM   21  C1  UNL     1      91.216  93.366 -44.681  1.00  0.00     0.222 C 
HETATM   22  O1  UNL     1      91.682  94.327 -45.281  1.00  0.00    -0.273 OA
ATOM     23  H1  UNL     1      90.151  91.598 -44.653  1.00  0.00     0.169 HD
BRANCH  21  24
HETATM   24  C2  UNL     1      91.457  93.281 -43.199  1.00  0.00     0.107 C 
BRANCH  24  25
HETATM   25  C3  UNL     1      92.869  92.915 -42.925  1.00  0.00    -0.006 C 
HETATM   26  C4  UNL     1      93.149  92.703 -41.446  1.00  0.00     0.005 C 
HETATM   27  C5  UNL     1      94.270  91.666 -41.414  1.00  0.00     0.000 C 
HETATM   28  C6  UNL     1      94.463  91.199 -42.836  1.00  0.00     0.000 C 
HETATM   29  C7  UNL     1      93.103  91.491 -43.454  1.00  0.00     0.005 C 
ENDBRANCH  24  25
ENDBRANCH  21  24
ENDBRANCH   1  20
TORSDOF 6
ENDMDL
MODEL 5
REMARK VINA RESULT: -6.712624778      3.882      9.192
REMARK  6 active torsions:
REMARK  status: ('A' for Active; 'I' for Inactive)
REMARK    1  A    between atoms: C1_2  and  C2_3 
REMARK       I    between atoms: C1_2  and  N1_9 
REMARK    2  A    between atoms: C2_3  and  C3_4 
REMARK    3  A    between atoms: N1_9  and  C8_11 
REMARK    4  A    between atoms: N2_16  and  C12_17 
REMARK    5  A    between atoms: C12_17  and  C13_18 
REMARK       I    between atoms: C13_18  and  N3_20 
REMARK    6  A    between atoms: N3_20  and  C14_22 
ROOT
HETATM    1  C8  UNL     1      90.220  92.213 -46.641  1.00  0.00     0.105 A 
HETATM    2  C9  UNL     1      89.348  92.945 -47.391  1.00  0.00     0.060 A 
HETATM    3  C10 UNL     1      89.085  92.693 -48.744  1.00  0.00     0.052 A 
HETATM    4 CL1  UNL     1      87.962  93.700 -49.585  1.00  0.00    -0.083 Cl
HETATM    5  C11 UNL     1      89.732  91.658 -49.351  1.00  0.00     0.118 A 
HETATM    6  N2  UNL     1      90.614  90.898 -48.637  1.00  0.00    -0.312 N 
HETATM    7  C20 UNL     1      90.844  91.164 -47.350  1.00  0.00     0.274 A 
HETATM    8  O3  UNL     1      91.671  90.439 -46.734  1.00  0.00    -0.265 OA
ENDROOT
BRANCH   6   9
HETATM    9  C12 UNL     1      91.263  89.790 -49.271  1.00  0.00     0.234 C 
BRANCH   9  10
HETATM   10  C13 UNL     1      90.502  88.549 -49.096  1.00  0.00     0.236 C 
HETATM   11  O2  UNL     1      91.117  87.438 -48.894  1.00  0.00    -0.272 OA
HETATM   12  N3  UNL     1      89.107  88.485 -49.132  1.00  0.00    -0.355 N 
ATOM     13  H3  UNL     1      88.562  89.331 -49.298  1.00  0.00     0.162 HD
BRANCH  12  14
HETATM   14  C14 UNL     1      88.420  87.190 -48.927  1.00  0.00     0.084 C 
HETATM   15  C15 UNL     1      87.145  87.531 -48.149  1.00  0.00     0.025 C 
HETATM   16  C16 UNL     1      86.149  86.440 -48.345  1.00  0.00     0.002 C 
HETATM   17  C17 UNL     1      85.608  86.535 -49.768  1.00  0.00     0.000 C 
HETATM   18  C18 UNL     1      86.716  87.042 -50.691  1.00  0.00     0.002 C 
HETATM   19  C19 UNL     1      88.060  86.522 -50.209  1.00  0.00     0.025 C 
ENDBRANCH  12  14
ENDBRANCH   9  10
ENDBRANCH   6   9
BRANCH   1  20
HETATM   20  N1  UNL     1      90.526  92.401 -45.294  1.00  0.00    -0.323 N 
HETATM   21  C1  UNL     1      91.205  93.482 -44.725  1.00  0.00     0.222 C 
HETATM   22  O1  UNL     1      91.643  94.439 -45.353  1.00  0.00    -0.273 OA
ATOM     23  H1  UNL     1      90.220  91.669 -44.653  1.00  0.00     0.169 HD
BRANCH  21  24
HETATM   24  C2  UNL     1      91.412  93.465 -43.237  1.00  0.00     0.107 C 
BRANCH  24  25
HETATM   25  C3  UNL     1      92.801  93.057 -42.912  1.00  0.00    -0.006 C 
HETATM   26  C4  UNL     1      93.006  92.774 -41.432  1.00  0.00     0.005 C 
HETATM   27  C5  UNL     1      94.103  91.713 -41.393  1.00  0.00     0.000 C 
HETATM   28  C6  UNL     1      94.355  91.304 -42.824  1.00  0.00     0.000 C 
HETATM   29  C7  UNL     1      93.032  91.652 -43.492  1.00  0.00     0.005 C 
ENDBRANCH  24  25
ENDBRANCH  21  24
ENDBRANCH   1  20
TORSDOF 6
ENDMDL
