MODEL 1
REMARK VINA RESULT: -7.483859619      0.000      0.000
REMARK  7 active torsions:
REMARK  status: ('A' for Active; 'I' for Inactive)
REMARK    1  A    between atoms: C2_2  and  C4_4 
REMARK    2  A    between atoms: C4_4  and  C5_5 
REMARK    3  A    between atoms: C6_6  and  O1_7 
REMARK    4  A    between atoms: C12_16  and  N1_17 
REMARK    5  A    between atoms: N1_17  and  C13_19 
REMARK    6  A    between atoms: C13_19  and  C14_20 
REMARK    7  A    between atoms: C14_20  and  C15_21 
ROOT
HETATM    1  C5  UNL     1      91.253 101.065 -42.160  1.00  0.00     0.042 C 
HETATM    2  C6  UNL     1      91.423 102.201 -43.088  1.00  0.00     0.126 C 
HETATM    3  C7  UNL     1      92.673 101.812 -43.854  1.00  0.00     0.040 C 
HETATM    4  C8  UNL     1      92.703 100.311 -43.964  1.00  0.00     0.022 C 
HETATM    5  C9  UNL     1      92.686  99.789 -45.348  1.00  0.00     0.132 C 
HETATM    6  C10 UNL     1      92.009 100.770 -46.333  1.00  0.00     0.040 C 
HETATM    7  O2  UNL     1      92.225  98.558 -45.634  1.00  0.00    -0.314 OA
HETATM    8  C11 UNL     1      91.542  97.432 -45.257  1.00  0.00     0.281 C 
HETATM    9  O3  UNL     1      90.959  96.828 -46.213  1.00  0.00    -0.263 OA
HETATM   10  C12 UNL     1      91.364  96.795 -43.939  1.00  0.00     0.177 C 
HETATM   11  C20 UNL     1      90.517  97.678 -43.062  1.00  0.00     0.035 C 
HETATM   12  C21 UNL     1      90.503  99.139 -43.451  1.00  0.00     0.008 C 
HETATM   13  C22 UNL     1      91.712  99.857 -42.987  1.00  0.00     0.002 C 
ENDROOT
BRANCH  10  14
HETATM   14  N1  UNL     1      90.959  95.451 -43.923  1.00  0.00    -0.408 N 
ATOM     15  H1  UNL     1      89.993  95.233 -43.675  1.00  0.00     0.154 HD
BRANCH  14  16
HETATM   16  C13 UNL     1      91.824  94.405 -44.232  1.00  0.00     0.119 C 
BRANCH  16  17
HETATM   17  C14 UNL     1      91.513  93.224 -43.295  1.00  0.00     0.055 C 
BRANCH  17  18
HETATM   18  C15 UNL     1      92.717  92.840 -42.509  1.00  0.00    -0.061 A 
HETATM   19  C16 UNL     1      93.208  93.539 -41.506  1.00  0.00     0.014 A 
HETATM   20 CL1  UNL     1      92.523  95.053 -40.915  1.00  0.00    -0.089 Cl
HETATM   21  C17 UNL     1      94.445  92.946 -40.964  1.00  0.00     0.052 A 
HETATM   22  C18 UNL     1      94.654  91.678 -41.735  1.00  0.00     0.010 A 
HETATM   23  C19 UNL     1      93.549  91.620 -42.740  1.00  0.00     0.036 A 
ENDBRANCH  17  18
ENDBRANCH  16  17
ENDBRANCH  14  16
ENDBRANCH  10  14
BRANCH   1  24
HETATM   24  C4  UNL     1      92.106 101.143 -40.891  1.00  0.00    -0.013 C 
BRANCH  24  25
HETATM   25  C2  UNL     1      91.897 101.938 -39.983  1.00  0.00    -0.075 C 
HETATM   26  C1  UNL     1      91.668 102.854 -38.941  1.00  0.00     0.018 C 
HETATM   27  C3  UNL     1      93.728 102.178 -39.802  1.00  0.00     0.047 C 
ENDBRANCH  24  25
ENDBRANCH   1  24
BRANCH   2  28
HETATM   28  O1  UNL     1      91.527 103.456 -42.575  1.00  0.00    -0.395 OA
ATOM     29  H1  UNL     1      92.210 103.636 -41.940  1.00  0.00     0.210 HD
ENDBRANCH   2  28
TORSDOF 7
ENDMDL
MODEL 2
REMARK VINA RESULT: -7.284622372      6.265     10.868
REMARK  7 active torsions:
REMARK  status: ('A' for Active; 'I' for Inactive)
REMARK    1  A    between atoms: C2_2  and  C4_4 
REMARK    2  A    between atoms: C4_4  and  C5_5 
REMARK    3  A    between atoms: C6_6  and  O1_7 
REMARK    4  A    between atoms: C12_16  and  N1_17 
REMARK    5  A    between atoms: N1_17  and  C13_19 
REMARK    6  A    between atoms: C13_19  and  C14_20 
REMARK    7  A    between atoms: C14_20  and  C15_21 
ROOT
HETATM    1  C5  UNL     1      89.470  88.729 -50.312  1.00  0.00     0.042 C 
HETATM    2  C6  UNL     1      88.861  89.420 -51.466  1.00  0.00     0.126 C 
HETATM    3  C7  UNL     1      87.839  90.324 -50.802  1.00  0.00     0.040 C 
HETATM    4  C8  UNL     1      88.383  90.733 -49.459  1.00  0.00     0.022 C 
HETATM    5  C9  UNL     1      88.570  92.190 -49.283  1.00  0.00     0.132 C 
HETATM    6  C10 UNL     1      88.801  92.916 -50.629  1.00  0.00     0.040 C 
HETATM    7  O2  UNL     1      89.462  92.688 -48.406  1.00  0.00    -0.314 OA
HETATM    8  C11 UNL     1      90.530  92.502 -47.570  1.00  0.00     0.281 C 
HETATM    9  O3  UNL     1      91.281  93.522 -47.445  1.00  0.00    -0.263 OA
HETATM   10  C12 UNL     1      90.965  91.329 -46.788  1.00  0.00     0.177 C 
HETATM   11  C20 UNL     1      91.427  90.243 -47.722  1.00  0.00     0.035 C 
HETATM   12  C21 UNL     1      90.874  90.330 -49.127  1.00  0.00     0.008 C 
HETATM   13  C22 UNL     1      89.492  89.808 -49.221  1.00  0.00     0.002 C 
ENDROOT
BRANCH  10  14
HETATM   14  N1  UNL     1      91.853  91.557 -45.725  1.00  0.00    -0.408 N 
ATOM     15  H1  UNL     1      92.847  91.374 -45.869  1.00  0.00     0.154 HD
BRANCH  14  16
HETATM   16  C13 UNL     1      91.431  92.024 -44.483  1.00  0.00     0.119 C 
BRANCH  16  17
HETATM   17  C14 UNL     1      92.340  93.195 -44.069  1.00  0.00     0.055 C 
BRANCH  17  18
HETATM   18  C15 UNL     1      93.243  92.797 -42.956  1.00  0.00    -0.061 A 
HETATM   19  C16 UNL     1      93.225  93.331 -41.752  1.00  0.00     0.014 A 
HETATM   20 CL1  UNL     1      92.123  94.612 -41.245  1.00  0.00    -0.089 Cl
HETATM   21  C17 UNL     1      94.279  92.781 -40.880  1.00  0.00     0.052 A 
HETATM   22  C18 UNL     1      94.962  91.724 -41.694  1.00  0.00     0.010 A 
HETATM   23  C19 UNL     1      94.304  91.747 -43.035  1.00  0.00     0.036 A 
ENDBRANCH  17  18
ENDBRANCH  16  17
ENDBRANCH  14  16
ENDBRANCH  10  14
BRANCH   1  24
HETATM   24  C4  UNL     1      88.678  87.526 -49.795  1.00  0.00    -0.013 C 
BRANCH  24  25
HETATM   25  C2  UNL     1      89.202  86.516 -49.339  1.00  0.00    -0.075 C 
HETATM   26  C1  UNL     1      89.793  85.354 -48.812  1.00  0.00     0.018 C 
HETATM   27  C3  UNL     1      87.641  86.155 -48.404  1.00  0.00     0.047 C 
ENDBRANCH  24  25
ENDBRANCH   1  24
BRANCH   2  28
HETATM   28  O1  UNL     1      88.295  88.675 -52.452  1.00  0.00    -0.395 OA
ATOM     29  H1  UNL     1      88.389  88.960 -53.353  1.00  0.00     0.210 HD
ENDBRANCH   2  28
TORSDOF 7
ENDMDL
MODEL 3
REMARK VINA RESULT: -7.204434996      1.202      1.388
REMARK  7 active torsions:
REMARK  status: ('A' for Active; 'I' for Inactive)
REMARK    1  A    between atoms: C2_2  and  C4_4 
REMARK    2  A    between atoms: C4_4  and  C5_5 
REMARK    3  A    between atoms: C6_6  and  O1_7 
REMARK    4  A    between atoms: C12_16  and  N1_17 
REMARK    5  A    between atoms: N1_17  and  C13_19 
REMARK    6  A    between atoms: C13_19  and  C14_20 
REMARK    7  A    between atoms: C14_20  and  C15_21 
ROOT
HETATM    1  C5  UNL     1      91.252 101.542 -42.533  1.00  0.00     0.042 C 
HETATM    2  C6  UNL     1      91.248 102.533 -43.628  1.00  0.00     0.126 C 
HETATM    3  C7  UNL     1      92.459 102.123 -44.444  1.00  0.00     0.040 C 
HETATM    4  C8  UNL     1      92.608 100.628 -44.336  1.00  0.00     0.022 C 
HETATM    5  C9  UNL     1      92.521  99.902 -45.622  1.00  0.00     0.132 C 
HETATM    6  C10 UNL     1      91.684 100.671 -46.671  1.00  0.00     0.040 C 
HETATM    7  O2  UNL     1      92.144  98.612 -45.682  1.00  0.00    -0.314 OA
HETATM    8  C11 UNL     1      91.593  97.511 -45.083  1.00  0.00     0.281 C 
HETATM    9  O3  UNL     1      90.987  96.728 -45.882  1.00  0.00    -0.263 OA
HETATM   10  C12 UNL     1      91.579  97.071 -43.675  1.00  0.00     0.177 C 
HETATM   11  C20 UNL     1      90.736  98.013 -42.860  1.00  0.00     0.035 C 
HETATM   12  C21 UNL     1      90.565  99.393 -43.454  1.00  0.00     0.008 C 
HETATM   13  C22 UNL     1      91.743 100.259 -43.215  1.00  0.00     0.002 C 
ENDROOT
BRANCH  10  14
HETATM   14  N1  UNL     1      91.293  95.719 -43.426  1.00  0.00    -0.408 N 
ATOM     15  H1  UNL     1      90.918  95.150 -44.185  1.00  0.00     0.154 HD
BRANCH  14  16
HETATM   16  C13 UNL     1      91.502  95.126 -42.184  1.00  0.00     0.119 C 
BRANCH  16  17
HETATM   17  C14 UNL     1      91.313  93.605 -42.333  1.00  0.00     0.055 C 
BRANCH  17  18
HETATM   18  C15 UNL     1      92.627  92.907 -42.344  1.00  0.00    -0.061 A 
HETATM   19  C16 UNL     1      93.089  92.202 -43.356  1.00  0.00     0.014 A 
HETATM   20 CL1  UNL     1      92.233  91.963 -44.880  1.00  0.00    -0.089 Cl
HETATM   21  C17 UNL     1      94.388  91.572 -43.053  1.00  0.00     0.052 A 
HETATM   22  C18 UNL     1      94.752  92.046 -41.678  1.00  0.00     0.010 A 
HETATM   23  C19 UNL     1      93.610  92.892 -41.218  1.00  0.00     0.036 A 
ENDBRANCH  17  18
ENDBRANCH  16  17
ENDBRANCH  14  16
ENDBRANCH  10  14
BRANCH   1  24
HETATM   24  C4  UNL     1      92.197 101.873 -41.375  1.00  0.00    -0.013 C 
BRANCH  24  25
HETATM   25  C2  UNL     1      91.820 102.329 -40.302  1.00  0.00    -0.075 C 
HETATM   26  C1  UNL     1      91.396 102.852 -39.067  1.00  0.00     0.018 C 
HETATM   27  C3  UNL     1      93.523 102.066 -39.615  1.00  0.00     0.047 C 
ENDBRANCH  24  25
ENDBRANCH   1  24
BRANCH   2  28
HETATM   28  O1  UNL     1      91.287 103.856 -43.315  1.00  0.00    -0.395 OA
ATOM     29  H1  UNL     1      90.630 104.433 -43.685  1.00  0.00     0.210 HD
ENDBRANCH   2  28
TORSDOF 7
ENDMDL
MODEL 4
REMARK VINA RESULT: -7.054423145      3.652      5.705
REMARK  7 active torsions:
REMARK  status: ('A' for Active; 'I' for Inactive)
REMARK    1  A    between atoms: C2_2  and  C4_4 
REMARK    2  A    between atoms: C4_4  and  C5_5 
REMARK    3  A    between atoms: C6_6  and  O1_7 
REMARK    4  A    between atoms: C12_16  and  N1_17 
REMARK    5  A    between atoms: N1_17  and  C13_19 
REMARK    6  A    between atoms: C13_19  and  C14_20 
REMARK    7  A    between atoms: C14_20  and  C15_21 
ROOT
HETATM    1  C5  UNL     1      86.624  99.068 -45.974  1.00  0.00     0.042 C 
HETATM    2  C6  UNL     1      86.117 100.257 -45.259  1.00  0.00     0.126 C 
HETATM    3  C7  UNL     1      86.132  99.799 -43.812  1.00  0.00     0.040 C 
HETATM    4  C8  UNL     1      87.280  98.840 -43.640  1.00  0.00     0.022 C 
HETATM    5  C9  UNL     1      88.301  99.264 -42.657  1.00  0.00     0.132 C 
HETATM    6  C10 UNL     1      88.355 100.802 -42.499  1.00  0.00     0.040 C 
HETATM    7  O2  UNL     1      89.572  98.828 -42.725  1.00  0.00    -0.314 OA
HETATM    8  C11 UNL     1      90.575  98.205 -43.420  1.00  0.00     0.281 C 
HETATM    9  O3  UNL     1      91.744  98.620 -43.136  1.00  0.00    -0.263 OA
HETATM   10  C12 UNL     1      90.540  97.139 -44.438  1.00  0.00     0.177 C 
HETATM   11  C20 UNL     1      89.908  97.666 -45.698  1.00  0.00     0.035 C 
HETATM   12  C21 UNL     1      89.008  98.866 -45.509  1.00  0.00     0.008 C 
HETATM   13  C22 UNL     1      87.666  98.489 -45.008  1.00  0.00     0.002 C 
ENDROOT
BRANCH  10  14
HETATM   14  N1  UNL     1      91.730  96.432 -44.671  1.00  0.00    -0.408 N 
ATOM     15  H1  UNL     1      92.620  96.909 -44.524  1.00  0.00     0.154 HD
BRANCH  14  16
HETATM   16  C13 UNL     1      91.742  95.106 -45.095  1.00  0.00     0.119 C 
BRANCH  16  17
HETATM   17  C14 UNL     1      91.091  94.240 -44.002  1.00  0.00     0.055 C 
BRANCH  17  18
HETATM   18  C15 UNL     1      92.121  93.682 -43.084  1.00  0.00    -0.061 A 
HETATM   19  C16 UNL     1      92.356  94.127 -41.867  1.00  0.00     0.014 A 
HETATM   20 CL1  UNL     1      91.489  95.462 -41.108  1.00  0.00    -0.089 Cl
HETATM   21  C17 UNL     1      93.480  93.423 -41.221  1.00  0.00     0.052 A 
HETATM   22  C18 UNL     1      93.908  92.369 -42.198  1.00  0.00     0.010 A 
HETATM   23  C19 UNL     1      93.042  92.548 -43.402  1.00  0.00     0.036 A 
ENDBRANCH  17  18
ENDBRANCH  16  17
ENDBRANCH  14  16
ENDBRANCH  10  14
BRANCH   1  24
HETATM   24  C4  UNL     1      85.570  97.995 -46.258  1.00  0.00    -0.013 C 
BRANCH  24  25
HETATM   25  C2  UNL     1      85.698  97.133 -47.119  1.00  0.00    -0.075 C 
HETATM   26  C1  UNL     1      85.835  96.139 -48.105  1.00  0.00     0.018 C 
HETATM   27  C3  UNL     1      84.297  96.189 -46.351  1.00  0.00     0.047 C 
ENDBRANCH  24  25
ENDBRANCH   1  24
BRANCH   2  28
HETATM   28  O1  UNL     1      84.903 100.761 -45.605  1.00  0.00    -0.395 OA
ATOM     29  H1  UNL     1      84.856 101.401 -46.306  1.00  0.00     0.210 HD
ENDBRANCH   2  28
TORSDOF 7
ENDMDL
MODEL 5
REMARK VINA RESULT: -7.003615420      5.226      8.083
REMARK  7 active torsions:
REMARK  status: ('A' for Active; 'I' for Inactive)
REMARK    1  A    between atoms: C2_2  and  C4_4 
REMARK    2  A    between atoms: C4_4  and  C5_5 
REMARK    3  A    between atoms: C6_6  and  O1_7 
REMARK    4  A    between atoms: C12_16  and  N1_17 
REMARK    5  A    between atoms: N1_17  and  C13_19 
REMARK    6  A    between atoms: C13_19  and  C14_20 
REMARK    7  A    between atoms: C14_20  and  C15_21 
ROOT
HETATM    1  C5  UNL     1      92.042  93.105 -42.473  1.00  0.00     0.042 C 
HETATM    2  C6  UNL     1      91.312  94.279 -41.953  1.00  0.00     0.126 C 
HETATM    3  C7  UNL     1      91.753  95.382 -42.896  1.00  0.00     0.040 C 
HETATM    4  C8  UNL     1      91.991  94.769 -44.250  1.00  0.00     0.022 C 
HETATM    5  C9  UNL     1      91.141  95.308 -45.334  1.00  0.00     0.132 C 
HETATM    6  C10 UNL     1      89.802  95.871 -44.800  1.00  0.00     0.040 C 
HETATM    7  O2  UNL     1      90.858  94.590 -46.436  1.00  0.00    -0.314 OA
HETATM    8  C11 UNL     1      90.849  93.390 -47.096  1.00  0.00     0.281 C 
HETATM    9  O3  UNL     1      89.903  93.264 -47.939  1.00  0.00    -0.263 OA
HETATM   10  C12 UNL     1      91.740  92.219 -47.005  1.00  0.00     0.177 C 
HETATM   11  C20 UNL     1      91.564  91.554 -45.666  1.00  0.00     0.035 C 
HETATM   12  C21 UNL     1      91.007  92.445 -44.579  1.00  0.00     0.008 C 
HETATM   13  C22 UNL     1      92.040  93.329 -43.991  1.00  0.00     0.002 C 
ENDROOT
BRANCH  10  14
HETATM   14  N1  UNL     1      91.724  91.313 -48.077  1.00  0.00    -0.408 N 
ATOM     15  H1  UNL     1      92.012  91.640 -49.000  1.00  0.00     0.154 HD
BRANCH  14  16
HETATM   16  C13 UNL     1      91.333  89.984 -47.929  1.00  0.00     0.119 C 
BRANCH  16  17
HETATM   17  C14 UNL     1      90.908  89.446 -49.307  1.00  0.00     0.055 C 
BRANCH  17  18
HETATM   18  C15 UNL     1      89.532  89.894 -49.650  1.00  0.00    -0.061 A 
HETATM   19  C16 UNL     1      89.251  90.887 -50.468  1.00  0.00     0.014 A 
HETATM   20 CL1  UNL     1      90.459  91.862 -51.306  1.00  0.00    -0.089 Cl
HETATM   21  C17 UNL     1      87.802  91.143 -50.562  1.00  0.00     0.052 A 
HETATM   22  C18 UNL     1      87.153  90.089 -49.717  1.00  0.00     0.010 A 
HETATM   23  C19 UNL     1      88.269  89.296 -49.118  1.00  0.00     0.036 A 
ENDBRANCH  17  18
ENDBRANCH  16  17
ENDBRANCH  14  16
ENDBRANCH  10  14
BRANCH   1  24
HETATM   24  C4  UNL     1      93.492  92.991 -41.998  1.00  0.00    -0.013 C 
BRANCH  24  25
HETATM   25  C2  UNL     1      94.022  91.929 -41.690  1.00  0.00    -0.075 C 
HETATM   26  C1  UNL     1      94.637  90.713 -41.344  1.00  0.00     0.018 C 
HETATM   27  C3  UNL     1      95.132  92.079 -43.169  1.00  0.00     0.047 C 
ENDBRANCH  24  25
ENDBRANCH   1  24
BRANCH   2  28
HETATM   28  O1  UNL     1      91.491  94.638 -40.654  1.00  0.00    -0.395 OA
ATOM     29  H1  UNL     1      90.869  94.331 -40.004  1.00  0.00     0.210 HD
ENDBRANCH   2  28
TORSDOF 7
ENDMDL
