MODEL 1
REMARK VINA RESULT: -8.019931124      0.000      0.000
REMARK  10 active torsions:
REMARK  status: ('A' for Active; 'I' for Inactive)
REMARK    1  A    between atoms: N1_1  and  C1_4 
REMARK    2  A    between atoms: N4_13  and  C5_14 
REMARK    3  A    between atoms: C5_14  and  C6_15 
REMARK    4  A    between atoms: C6_15  and  N5_16 
REMARK    5  A    between atoms: N5_16  and  C7_17 
REMARK    6  A    between atoms: N5_16  and  C13_23 
REMARK    7  A    between atoms: C16_26  and  O2_27 
REMARK    8  A    between atoms: O2_27  and  C17_28 
REMARK    9  A    between atoms: C17_28  and  C18_29 
REMARK   10  A    between atoms: C24_35  and  O3_36 
ROOT
HETATM    1  N5  UNL     1     -56.327   6.671  -1.489  1.00  0.00    -0.345 N 
ENDROOT
BRANCH   1   2
HETATM    2  C6  UNL     1     -56.720   7.396  -0.322  1.00  0.00     0.149 C 
BRANCH   2   3
HETATM    3  C5  UNL     1     -56.824   6.588   0.944  1.00  0.00     0.151 C 
BRANCH   3   4
HETATM    4  N4  UNL     1     -55.538   6.546   1.621  1.00  0.00    -0.325 N 
HETATM    5  C4  UNL     1     -54.376   7.088   1.271  1.00  0.00     0.185 A 
HETATM    6  N3  UNL     1     -53.447   6.766   2.220  1.00  0.00    -0.345 N 
HETATM    7  C3  UNL     1     -54.046   6.020   3.157  1.00  0.00     0.147 A 
ATOM      8  H3  UNL     1     -52.466   7.046   2.215  1.00  0.00     0.167 HD
HETATM    9  C2  UNL     1     -53.580   5.428   4.321  1.00  0.00     0.290 A 
HETATM   10  C26 UNL     1     -55.381   5.866   2.799  1.00  0.00     0.156 A 
HETATM   11  N2  UNL     1     -54.456   4.726   5.058  1.00  0.00    -0.154 N 
HETATM   12  O1  UNL     1     -52.389   5.530   4.698  1.00  0.00    -0.265 OA
HETATM   13  C1  UNL     1     -55.757   4.593   4.686  1.00  0.00     0.680 A 
ATOM     14  H2  UNL     1     -54.138   4.282   5.919  1.00  0.00     0.187 HD
HETATM   15  N6  UNL     1     -56.212   5.153   3.574  1.00  0.00    -0.174 N 
ATOM     16  H6  UNL     1     -57.190   5.043   3.308  1.00  0.00     0.186 HD
BRANCH  13  17
HETATM   17  N1  UNL     1     -56.551   3.906   5.446  1.00  0.00    -0.234 N 
ATOM     18  H12 UNL     1     -56.791   4.243   6.378  1.00  0.00     0.174 HD
ATOM     19  H11 UNL     1     -56.924   3.025   5.091  1.00  0.00     0.174 HD
ENDBRANCH  13  17
ENDBRANCH   3   4
ENDBRANCH   2   3
ENDBRANCH   1   2
BRANCH   1  20
HETATM   20  C7  UNL     1     -56.726   5.362  -1.846  1.00  0.00     0.034 A 
HETATM   21  C8  UNL     1     -57.881   5.108  -2.551  1.00  0.00     0.029 A 
HETATM   22  C9  UNL     1     -58.290   3.819  -2.885  1.00  0.00     0.002 A 
HETATM   23  C10 UNL     1     -57.509   2.750  -2.494  1.00  0.00     0.000 A 
HETATM   24  C11 UNL     1     -56.338   2.967  -1.780  1.00  0.00     0.002 A 
HETATM   25  C12 UNL     1     -55.955   4.248  -1.463  1.00  0.00     0.029 A 
ENDBRANCH   1  20
BRANCH   1  26
HETATM   26  C13 UNL     1     -55.467   7.364  -2.409  1.00  0.00     0.037 A 
HETATM   27  C14 UNL     1     -55.866   8.260  -3.344  1.00  0.00     0.032 A 
HETATM   28  C15 UNL     1     -54.954   8.862  -4.220  1.00  0.00     0.042 A 
HETATM   29  C16 UNL     1     -53.632   8.501  -4.089  1.00  0.00     0.102 A 
HETATM   30  C24 UNL     1     -53.221   7.582  -3.131  1.00  0.00     0.101 A 
HETATM   31  C25 UNL     1     -54.118   7.011  -2.291  1.00  0.00     0.069 A 
BRANCH  29  32
HETATM   32  O2  UNL     1     -52.637   9.013  -4.883  1.00  0.00    -0.344 OA
BRANCH  32  33
HETATM   33  C17 UNL     1     -52.324  10.379  -4.875  1.00  0.00     0.214 C 
BRANCH  33  34
HETATM   34  C18 UNL     1     -51.445  10.661  -3.704  1.00  0.00    -0.034 A 
HETATM   35  C19 UNL     1     -50.160  10.192  -3.675  1.00  0.00     0.009 A 
HETATM   36  C20 UNL     1     -49.358  10.442  -2.590  1.00  0.00     0.001 A 
HETATM   37  C21 UNL     1     -49.803  11.157  -1.513  1.00  0.00     0.000 A 
HETATM   38  C22 UNL     1     -51.092  11.636  -1.524  1.00  0.00     0.001 A 
HETATM   39  C23 UNL     1     -51.903  11.380  -2.627  1.00  0.00     0.009 A 
ENDBRANCH  33  34
ENDBRANCH  32  33
ENDBRANCH  29  32
BRANCH  30  40
HETATM   40  O3  UNL     1     -51.879   7.233  -3.019  1.00  0.00    -0.358 OA
ATOM     41  H3  UNL     1     -51.488   7.094  -2.165  1.00  0.00     0.217 HD
ENDBRANCH  30  40
ENDBRANCH   1  26
TORSDOF 10
ENDMDL
MODEL 2
REMARK VINA RESULT: -7.953723851      1.798      2.717
REMARK  10 active torsions:
REMARK  status: ('A' for Active; 'I' for Inactive)
REMARK    1  A    between atoms: N1_1  and  C1_4 
REMARK    2  A    between atoms: N4_13  and  C5_14 
REMARK    3  A    between atoms: C5_14  and  C6_15 
REMARK    4  A    between atoms: C6_15  and  N5_16 
REMARK    5  A    between atoms: N5_16  and  C7_17 
REMARK    6  A    between atoms: N5_16  and  C13_23 
REMARK    7  A    between atoms: C16_26  and  O2_27 
REMARK    8  A    between atoms: O2_27  and  C17_28 
REMARK    9  A    between atoms: C17_28  and  C18_29 
REMARK   10  A    between atoms: C24_35  and  O3_36 
ROOT
HETATM    1  N5  UNL     1     -56.829   8.057  -2.518  1.00  0.00    -0.345 N 
ENDROOT
BRANCH   1   2
HETATM    2  C6  UNL     1     -57.483   9.035  -1.706  1.00  0.00     0.149 C 
BRANCH   2   3
HETATM    3  C5  UNL     1     -56.641   9.651  -0.620  1.00  0.00     0.151 C 
BRANCH   3   4
HETATM    4  N4  UNL     1     -56.564   8.759   0.525  1.00  0.00    -0.325 N 
HETATM    5  C4  UNL     1     -57.478   8.486   1.451  1.00  0.00     0.185 A 
HETATM    6  N3  UNL     1     -56.940   7.593   2.336  1.00  0.00    -0.345 N 
HETATM    7  C3  UNL     1     -55.688   7.319   1.947  1.00  0.00     0.147 A 
ATOM      8  H3  UNL     1     -57.412   7.202   3.151  1.00  0.00     0.167 HD
HETATM    9  C2  UNL     1     -54.703   6.497   2.473  1.00  0.00     0.290 A 
HETATM   10  C26 UNL     1     -55.424   8.049   0.794  1.00  0.00     0.156 A 
HETATM   11  N2  UNL     1     -53.525   6.445   1.831  1.00  0.00    -0.154 N 
HETATM   12  O1  UNL     1     -54.880   5.814   3.510  1.00  0.00    -0.265 OA
HETATM   13  C1  UNL     1     -53.294   7.169   0.704  1.00  0.00     0.680 A 
ATOM     14  H2  UNL     1     -52.785   5.847   2.199  1.00  0.00     0.187 HD
HETATM   15  N6  UNL     1     -54.228   7.959   0.193  1.00  0.00    -0.174 N 
ATOM     16  H6  UNL     1     -54.038   8.495  -0.653  1.00  0.00     0.186 HD
BRANCH  13  17
HETATM   17  N1  UNL     1     -52.136   7.068   0.130  1.00  0.00    -0.234 N 
ATOM     18  H12 UNL     1     -51.508   7.870   0.092  1.00  0.00     0.174 HD
ATOM     19  H11 UNL     1     -51.874   6.172  -0.282  1.00  0.00     0.174 HD
ENDBRANCH  13  17
ENDBRANCH   3   4
ENDBRANCH   2   3
ENDBRANCH   1   2
BRANCH   1  20
HETATM   20  C7  UNL     1     -57.250   6.727  -2.744  1.00  0.00     0.034 A 
HETATM   21  C8  UNL     1     -57.380   6.197  -4.009  1.00  0.00     0.029 A 
HETATM   22  C9  UNL     1     -57.816   4.895  -4.237  1.00  0.00     0.002 A 
HETATM   23  C10 UNL     1     -58.134   4.099  -3.155  1.00  0.00     0.000 A 
HETATM   24  C11 UNL     1     -58.017   4.598  -1.864  1.00  0.00     0.002 A 
HETATM   25  C12 UNL     1     -57.583   5.887  -1.665  1.00  0.00     0.029 A 
ENDBRANCH   1  20
BRANCH   1  26
HETATM   26  C13 UNL     1     -55.640   8.490  -3.200  1.00  0.00     0.037 A 
HETATM   27  C14 UNL     1     -55.570   9.491  -4.110  1.00  0.00     0.032 A 
HETATM   28  C15 UNL     1     -54.368   9.820  -4.748  1.00  0.00     0.042 A 
HETATM   29  C16 UNL     1     -53.258   9.079  -4.409  1.00  0.00     0.102 A 
HETATM   30  C24 UNL     1     -53.328   8.052  -3.476  1.00  0.00     0.101 A 
HETATM   31  C25 UNL     1     -54.501   7.749  -2.868  1.00  0.00     0.069 A 
BRANCH  29  32
HETATM   32  O2  UNL     1     -52.020   9.295  -4.960  1.00  0.00    -0.344 OA
BRANCH  32  33
HETATM   33  C17 UNL     1     -51.517  10.590  -5.143  1.00  0.00     0.214 C 
BRANCH  33  34
HETATM   34  C18 UNL     1     -50.739  10.977  -3.932  1.00  0.00    -0.034 A 
HETATM   35  C19 UNL     1     -50.757  12.269  -3.482  1.00  0.00     0.009 A 
HETATM   36  C20 UNL     1     -50.029  12.626  -2.374  1.00  0.00     0.001 A 
HETATM   37  C21 UNL     1     -49.269  11.719  -1.689  1.00  0.00     0.000 A 
HETATM   38  C22 UNL     1     -49.238  10.416  -2.127  1.00  0.00     0.001 A 
HETATM   39  C23 UNL     1     -49.978  10.059  -3.251  1.00  0.00     0.009 A 
ENDBRANCH  33  34
ENDBRANCH  32  33
ENDBRANCH  29  32
BRANCH  30  40
HETATM   40  O3  UNL     1     -52.193   7.316  -3.151  1.00  0.00    -0.358 OA
ATOM     41  H3  UNL     1     -52.200   6.368  -3.212  1.00  0.00     0.217 HD
ENDBRANCH  30  40
ENDBRANCH   1  26
TORSDOF 10
ENDMDL
MODEL 3
REMARK VINA RESULT: -7.749609755      3.698      8.254
REMARK  10 active torsions:
REMARK  status: ('A' for Active; 'I' for Inactive)
REMARK    1  A    between atoms: N1_1  and  C1_4 
REMARK    2  A    between atoms: N4_13  and  C5_14 
REMARK    3  A    between atoms: C5_14  and  C6_15 
REMARK    4  A    between atoms: C6_15  and  N5_16 
REMARK    5  A    between atoms: N5_16  and  C7_17 
REMARK    6  A    between atoms: N5_16  and  C13_23 
REMARK    7  A    between atoms: C16_26  and  O2_27 
REMARK    8  A    between atoms: O2_27  and  C17_28 
REMARK    9  A    between atoms: C17_28  and  C18_29 
REMARK   10  A    between atoms: C24_35  and  O3_36 
ROOT
HETATM    1  N5  UNL     1     -56.963   4.978  -1.143  1.00  0.00    -0.345 N 
ENDROOT
BRANCH   1   2
HETATM    2  C6  UNL     1     -57.050   5.074   0.281  1.00  0.00     0.149 C 
BRANCH   2   3
HETATM    3  C5  UNL     1     -56.783   6.438   0.860  1.00  0.00     0.151 C 
BRANCH   3   4
HETATM    4  N4  UNL     1     -55.510   6.448   1.561  1.00  0.00    -0.325 N 
HETATM    5  C4  UNL     1     -54.354   7.004   1.213  1.00  0.00     0.185 A 
HETATM    6  N3  UNL     1     -53.435   6.734   2.189  1.00  0.00    -0.345 N 
HETATM    7  C3  UNL     1     -54.035   6.007   3.140  1.00  0.00     0.147 A 
ATOM      8  H3  UNL     1     -52.461   7.035   2.191  1.00  0.00     0.167 HD
HETATM    9  C2  UNL     1     -53.578   5.465   4.331  1.00  0.00     0.290 A 
HETATM   10  C26 UNL     1     -55.359   5.812   2.764  1.00  0.00     0.156 A 
HETATM   11  N2  UNL     1     -54.452   4.768   5.076  1.00  0.00    -0.154 N 
HETATM   12  O1  UNL     1     -52.396   5.606   4.725  1.00  0.00    -0.265 OA
HETATM   13  C1  UNL     1     -55.743   4.593   4.685  1.00  0.00     0.680 A 
ATOM     14  H2  UNL     1     -54.140   4.361   5.957  1.00  0.00     0.187 HD
HETATM   15  N6  UNL     1     -56.189   5.107   3.547  1.00  0.00    -0.174 N 
ATOM     16  H6  UNL     1     -57.160   4.965   3.268  1.00  0.00     0.186 HD
BRANCH  13  17
HETATM   17  N1  UNL     1     -56.536   3.915   5.454  1.00  0.00    -0.234 N 
ATOM     18  H12 UNL     1     -56.332   2.940   5.672  1.00  0.00     0.174 HD
ATOM     19  H11 UNL     1     -57.363   4.378   5.829  1.00  0.00     0.174 HD
ENDBRANCH  13  17
ENDBRANCH   3   4
ENDBRANCH   2   3
ENDBRANCH   1   2
BRANCH   1  20
HETATM   20  C7  UNL     1     -56.510   5.980  -2.032  1.00  0.00     0.034 A 
HETATM   21  C8  UNL     1     -57.352   6.621  -2.913  1.00  0.00     0.029 A 
HETATM   22  C9  UNL     1     -56.907   7.593  -3.806  1.00  0.00     0.002 A 
HETATM   23  C10 UNL     1     -55.567   7.929  -3.812  1.00  0.00     0.000 A 
HETATM   24  C11 UNL     1     -54.688   7.303  -2.938  1.00  0.00     0.002 A 
HETATM   25  C12 UNL     1     -55.152   6.348  -2.066  1.00  0.00     0.029 A 
ENDBRANCH   1  20
BRANCH   1  26
HETATM   26  C13 UNL     1     -57.341   3.717  -1.719  1.00  0.00     0.037 A 
HETATM   27  C14 UNL     1     -56.587   2.974  -2.564  1.00  0.00     0.032 A 
HETATM   28  C15 UNL     1     -57.056   1.769  -3.101  1.00  0.00     0.042 A 
HETATM   29  C16 UNL     1     -58.321   1.372  -2.731  1.00  0.00     0.102 A 
HETATM   30  C24 UNL     1     -59.097   2.133  -1.864  1.00  0.00     0.101 A 
HETATM   31  C25 UNL     1     -58.625   3.295  -1.354  1.00  0.00     0.069 A 
BRANCH  29  32
HETATM   32  O2  UNL     1     -58.902   0.215  -3.184  1.00  0.00    -0.344 OA
BRANCH  32  33
HETATM   33  C17 UNL     1     -58.150  -0.950  -3.390  1.00  0.00     0.214 C 
BRANCH  33  34
HETATM   34  C18 UNL     1     -58.699  -2.032  -2.524  1.00  0.00    -0.034 A 
HETATM   35  C19 UNL     1     -57.960  -3.155  -2.268  1.00  0.00     0.009 A 
HETATM   36  C20 UNL     1     -58.472  -4.156  -1.482  1.00  0.00     0.001 A 
HETATM   37  C21 UNL     1     -59.722  -4.073  -0.932  1.00  0.00     0.000 A 
HETATM   38  C22 UNL     1     -60.480  -2.952  -1.178  1.00  0.00     0.001 A 
HETATM   39  C23 UNL     1     -59.955  -1.939  -1.977  1.00  0.00     0.009 A 
ENDBRANCH  33  34
ENDBRANCH  32  33
ENDBRANCH  29  32
BRANCH  30  40
HETATM   40  O3  UNL     1     -60.374   1.711  -1.507  1.00  0.00    -0.358 OA
ATOM     41  H3  UNL     1     -60.997   2.325  -1.138  1.00  0.00     0.217 HD
ENDBRANCH  30  40
ENDBRANCH   1  26
TORSDOF 10
ENDMDL
MODEL 4
REMARK VINA RESULT: -7.691216739      3.589      8.105
REMARK  10 active torsions:
REMARK  status: ('A' for Active; 'I' for Inactive)
REMARK    1  A    between atoms: N1_1  and  C1_4 
REMARK    2  A    between atoms: N4_13  and  C5_14 
REMARK    3  A    between atoms: C5_14  and  C6_15 
REMARK    4  A    between atoms: C6_15  and  N5_16 
REMARK    5  A    between atoms: N5_16  and  C7_17 
REMARK    6  A    between atoms: N5_16  and  C13_23 
REMARK    7  A    between atoms: C16_26  and  O2_27 
REMARK    8  A    between atoms: O2_27  and  C17_28 
REMARK    9  A    between atoms: C17_28  and  C18_29 
REMARK   10  A    between atoms: C24_35  and  O3_36 
ROOT
HETATM    1  N5  UNL     1     -54.458   6.773  -0.192  1.00  0.00    -0.345 N 
ENDROOT
BRANCH   1   2
HETATM    2  C6  UNL     1     -53.314   7.352  -0.825  1.00  0.00     0.149 C 
BRANCH   2   3
HETATM    3  C5  UNL     1     -53.446   8.801  -1.213  1.00  0.00     0.151 C 
BRANCH   3   4
HETATM    4  N4  UNL     1     -52.678   9.072  -2.416  1.00  0.00    -0.325 N 
HETATM    5  C4  UNL     1     -52.883   8.663  -3.665  1.00  0.00     0.185 A 
HETATM    6  N3  UNL     1     -51.885   9.167  -4.452  1.00  0.00    -0.345 N 
HETATM    7  C3  UNL     1     -51.063   9.887  -3.679  1.00  0.00     0.147 A 
ATOM      8  H3  UNL     1     -51.784   9.018  -5.456  1.00  0.00     0.167 HD
HETATM    9  C2  UNL     1     -49.907  10.601  -3.952  1.00  0.00     0.290 A 
HETATM   10  C26 UNL     1     -51.548   9.844  -2.376  1.00  0.00     0.156 A 
HETATM   11  N2  UNL     1     -49.303  11.228  -2.929  1.00  0.00    -0.154 N 
HETATM   12  O1  UNL     1     -49.421  10.678  -5.106  1.00  0.00    -0.265 OA
HETATM   13  C1  UNL     1     -49.799  11.170  -1.664  1.00  0.00     0.680 A 
ATOM     14  H2  UNL     1     -48.452  11.760  -3.106  1.00  0.00     0.187 HD
HETATM   15  N6  UNL     1     -50.903  10.489  -1.392  1.00  0.00    -0.174 N 
ATOM     16  H6  UNL     1     -51.261  10.455  -0.438  1.00  0.00     0.186 HD
BRANCH  13  17
HETATM   17  N1  UNL     1     -49.170  11.802  -0.724  1.00  0.00    -0.234 N 
ATOM     18  H12 UNL     1     -48.414  11.347  -0.213  1.00  0.00     0.174 HD
ATOM     19  H11 UNL     1     -49.453  12.758  -0.507  1.00  0.00     0.174 HD
ENDBRANCH  13  17
ENDBRANCH   3   4
ENDBRANCH   2   3
ENDBRANCH   1   2
BRANCH   1  20
HETATM   20  C7  UNL     1     -54.832   6.909   1.165  1.00  0.00     0.034 A 
HETATM   21  C8  UNL     1     -54.110   6.341   2.191  1.00  0.00     0.029 A 
HETATM   22  C9  UNL     1     -54.487   6.453   3.527  1.00  0.00     0.002 A 
HETATM   23  C10 UNL     1     -55.631   7.160   3.840  1.00  0.00     0.000 A 
HETATM   24  C11 UNL     1     -56.385   7.745   2.832  1.00  0.00     0.002 A 
HETATM   25  C12 UNL     1     -55.992   7.621   1.521  1.00  0.00     0.029 A 
ENDBRANCH   1  20
BRANCH   1  26
HETATM   26  C13 UNL     1     -55.332   6.008  -1.037  1.00  0.00     0.037 A 
HETATM   27  C14 UNL     1     -56.182   6.514  -1.963  1.00  0.00     0.032 A 
HETATM   28  C15 UNL     1     -57.022   5.686  -2.719  1.00  0.00     0.042 A 
HETATM   29  C16 UNL     1     -56.945   4.333  -2.478  1.00  0.00     0.102 A 
HETATM   30  C24 UNL     1     -56.075   3.812  -1.529  1.00  0.00     0.101 A 
HETATM   31  C25 UNL     1     -55.269   4.629  -0.808  1.00  0.00     0.069 A 
BRANCH  29  32
HETATM   32  O2  UNL     1     -57.713   3.412  -3.146  1.00  0.00    -0.344 OA
BRANCH  32  33
HETATM   33  C17 UNL     1     -58.256   3.690  -4.408  1.00  0.00     0.214 C 
BRANCH  33  34
HETATM   34  C18 UNL     1     -57.457   2.972  -5.440  1.00  0.00    -0.034 A 
HETATM   35  C19 UNL     1     -56.700   1.884  -5.097  1.00  0.00     0.009 A 
HETATM   36  C20 UNL     1     -55.955   1.232  -6.048  1.00  0.00     0.001 A 
HETATM   37  C21 UNL     1     -55.937   1.638  -7.353  1.00  0.00     0.000 A 
HETATM   38  C22 UNL     1     -56.690   2.730  -7.717  1.00  0.00     0.001 A 
HETATM   39  C23 UNL     1     -57.445   3.388  -6.749  1.00  0.00     0.009 A 
ENDBRANCH  33  34
ENDBRANCH  32  33
ENDBRANCH  29  32
BRANCH  30  40
HETATM   40  O3  UNL     1     -56.018   2.441  -1.302  1.00  0.00    -0.358 OA
ATOM     41  H3  UNL     1     -56.218   1.829  -2.001  1.00  0.00     0.217 HD
ENDBRANCH  30  40
ENDBRANCH   1  26
TORSDOF 10
ENDMDL
MODEL 5
REMARK VINA RESULT: -7.676077889      3.789      4.550
REMARK  10 active torsions:
REMARK  status: ('A' for Active; 'I' for Inactive)
REMARK    1  A    between atoms: N1_1  and  C1_4 
REMARK    2  A    between atoms: N4_13  and  C5_14 
REMARK    3  A    between atoms: C5_14  and  C6_15 
REMARK    4  A    between atoms: C6_15  and  N5_16 
REMARK    5  A    between atoms: N5_16  and  C7_17 
REMARK    6  A    between atoms: N5_16  and  C13_23 
REMARK    7  A    between atoms: C16_26  and  O2_27 
REMARK    8  A    between atoms: O2_27  and  C17_28 
REMARK    9  A    between atoms: C17_28  and  C18_29 
REMARK   10  A    between atoms: C24_35  and  O3_36 
ROOT
HETATM    1  N5  UNL     1     -56.671   6.073   0.782  1.00  0.00    -0.345 N 
ENDROOT
BRANCH   1   2
HETATM    2  C6  UNL     1     -57.115   6.496   2.073  1.00  0.00     0.149 C 
BRANCH   2   3
HETATM    3  C5  UNL     1     -58.355   7.350   2.090  1.00  0.00     0.151 C 
BRANCH   3   4
HETATM    4  N4  UNL     1     -58.583   7.880   3.423  1.00  0.00    -0.325 N 
HETATM    5  C4  UNL     1     -57.893   7.687   4.543  1.00  0.00     0.185 A 
HETATM    6  N3  UNL     1     -58.501   8.386   5.549  1.00  0.00    -0.345 N 
HETATM    7  C3  UNL     1     -59.571   9.010   5.040  1.00  0.00     0.147 A 
ATOM      8  H3  UNL     1     -58.192   8.425   6.520  1.00  0.00     0.167 HD
HETATM    9  C2  UNL     1     -60.530   9.835   5.606  1.00  0.00     0.290 A 
HETATM   10  C26 UNL     1     -59.645   8.704   3.686  1.00  0.00     0.156 A 
HETATM   11  N2  UNL     1     -61.499  10.307   4.804  1.00  0.00    -0.154 N 
HETATM   12  O1  UNL     1     -60.518  10.147   6.820  1.00  0.00    -0.265 OA
HETATM   13  C1  UNL     1     -61.547   9.993   3.482  1.00  0.00     0.680 A 
ATOM     14  H2  UNL     1     -62.216  10.917   5.197  1.00  0.00     0.187 HD
HETATM   15  N6  UNL     1     -60.635   9.205   2.931  1.00  0.00    -0.174 N 
ATOM     16  H6  UNL     1     -60.686   8.979   1.939  1.00  0.00     0.186 HD
BRANCH  13  17
HETATM   17  N1  UNL     1     -62.506  10.488   2.763  1.00  0.00    -0.234 N 
ATOM     18  H12 UNL     1     -62.305  11.181   2.042  1.00  0.00     0.174 HD
ATOM     19  H11 UNL     1     -63.459  10.172   2.940  1.00  0.00     0.174 HD
ENDBRANCH  13  17
ENDBRANCH   3   4
ENDBRANCH   2   3
ENDBRANCH   1   2
BRANCH   1  20
HETATM   20  C7  UNL     1     -57.324   5.164  -0.081  1.00  0.00     0.034 A 
HETATM   21  C8  UNL     1     -57.575   5.451  -1.404  1.00  0.00     0.029 A 
HETATM   22  C9  UNL     1     -58.238   4.567  -2.252  1.00  0.00     0.002 A 
HETATM   23  C10 UNL     1     -58.663   3.353  -1.750  1.00  0.00     0.000 A 
HETATM   24  C11 UNL     1     -58.428   3.029  -0.420  1.00  0.00     0.002 A 
HETATM   25  C12 UNL     1     -57.771   3.918   0.396  1.00  0.00     0.029 A 
ENDBRANCH   1  20
BRANCH   1  26
HETATM   26  C13 UNL     1     -55.454   6.668   0.303  1.00  0.00     0.037 A 
HETATM   27  C14 UNL     1     -55.250   7.990   0.085  1.00  0.00     0.032 A 
HETATM   28  C15 UNL     1     -54.035   8.473  -0.416  1.00  0.00     0.042 A 
HETATM   29  C16 UNL     1     -53.055   7.543  -0.678  1.00  0.00     0.102 A 
HETATM   30  C24 UNL     1     -53.261   6.187  -0.455  1.00  0.00     0.101 A 
HETATM   31  C25 UNL     1     -54.443   5.739   0.032  1.00  0.00     0.069 A 
BRANCH  29  32
HETATM   32  O2  UNL     1     -51.819   7.880  -1.172  1.00  0.00    -0.344 OA
BRANCH  32  33
HETATM   33  C17 UNL     1     -51.682   8.655  -2.332  1.00  0.00     0.214 C 
BRANCH  33  34
HETATM   34  C18 UNL     1     -51.038   9.949  -1.968  1.00  0.00    -0.034 A 
HETATM   35  C19 UNL     1     -49.678  10.089  -2.038  1.00  0.00     0.009 A 
HETATM   36  C20 UNL     1     -49.086  11.277  -1.690  1.00  0.00     0.001 A 
HETATM   37  C21 UNL     1     -49.820  12.350  -1.265  1.00  0.00     0.000 A 
HETATM   38  C22 UNL     1     -51.187  12.228  -1.188  1.00  0.00     0.001 A 
HETATM   39  C23 UNL     1     -51.783  11.021  -1.542  1.00  0.00     0.009 A 
ENDBRANCH  33  34
ENDBRANCH  32  33
ENDBRANCH  29  32
BRANCH  30  40
HETATM   40  O3  UNL     1     -52.254   5.266  -0.729  1.00  0.00    -0.358 OA
ATOM     41  H3  UNL     1     -52.471   4.370  -0.955  1.00  0.00     0.217 HD
ENDBRANCH  30  40
ENDBRANCH   1  26
TORSDOF 10
ENDMDL
