MODEL 1
REMARK VINA RESULT: -7.145079020      0.000      0.000
REMARK  9 active torsions:
REMARK  status: ('A' for Active; 'I' for Inactive)
REMARK    1  A    between atoms: C1_4  and  N2_5 
REMARK    2  A    between atoms: C1_4  and  C20_33 
REMARK    3  A    between atoms: N2_5  and  N3_7 
REMARK    4  A    between atoms: N3_7  and  C2_8 
REMARK    5  A    between atoms: N3_7  and  C15_26 
REMARK    6  A    between atoms: C6_12  and  S1_13 
REMARK    7  A    between atoms: S1_13  and  N4_16 
REMARK    8  A    between atoms: N4_16  and  C7_18 
REMARK    9  A    between atoms: C7_18  and  C8_19 
ROOT
HETATM    1  N3  UNL     1     -52.372   8.674  -3.117  1.00  0.00    -0.238 N 
ENDROOT
BRANCH   1   2
HETATM    2  N2  UNL     1     -52.835   8.752  -4.400  1.00  0.00    -0.275 N 
ATOM      3  H2  UNL     1     -52.535   8.029  -5.054  1.00  0.00     0.189 HD
BRANCH   2   4
HETATM    4  C1  UNL     1     -53.698   9.762  -4.892  1.00  0.00     0.142 C 
HETATM    5  N1  UNL     1     -53.226  10.657  -5.666  1.00  0.00    -0.383 N 
ATOM      6  H12 UNL     1     -52.244  10.663  -5.941  1.00  0.00     0.157 HD
ATOM      7  H11 UNL     1     -53.847  11.384  -6.020  1.00  0.00     0.157 HD
BRANCH   4   8
HETATM    8  C20 UNL     1     -55.092   9.752  -4.503  1.00  0.00     0.093 A 
HETATM    9  C21 UNL     1     -55.505  10.093  -3.220  1.00  0.00     0.121 A 
HETATM   10  N6  UNL     1     -56.812  10.069  -2.905  1.00  0.00    -0.372 N 
HETATM   11  C22 UNL     1     -57.771   9.725  -3.784  1.00  0.00     0.104 A 
ATOM     12  H6  UNL     1     -57.090  10.324  -1.957  1.00  0.00     0.164 HD
HETATM   13  C23 UNL     1     -57.365   9.386  -5.057  1.00  0.00     0.105 A 
HETATM   14  N7  UNL     1     -56.060   9.409  -5.374  1.00  0.00    -0.360 N 
ATOM     15  H7  UNL     1     -55.788   9.154  -6.323  1.00  0.00     0.165 HD
ENDBRANCH   4   8
ENDBRANCH   2   4
ENDBRANCH   1   2
BRANCH   1  16
HETATM   16  C2  UNL     1     -52.688   7.528  -2.320  1.00  0.00     0.060 A 
HETATM   17  C3  UNL     1     -52.234   6.271  -2.692  1.00  0.00     0.031 A 
HETATM   18  C4  UNL     1     -52.542   5.182  -1.922  1.00  0.00     0.004 A 
HETATM   19  C5  UNL     1     -53.307   5.303  -0.764  1.00  0.00     0.025 A 
HETATM   20  C6  UNL     1     -53.752   6.553  -0.404  1.00  0.00     0.081 A 
HETATM   21  C14 UNL     1     -53.446   7.646  -1.172  1.00  0.00     0.057 A 
BRANCH  20  22
HETATM   22  S1  UNL     1     -54.712   6.727   1.043  1.00  0.00     0.259 S 
HETATM   23  O1  UNL     1     -53.896   6.344   2.227  1.00  0.00    -0.201 OA
HETATM   24  O2  UNL     1     -55.186   8.153   1.109  1.00  0.00    -0.201 OA
BRANCH  22  25
HETATM   25  N4  UNL     1     -56.036   5.635   0.929  1.00  0.00    -0.311 N 
ATOM     26  H4  UNL     1     -55.996   4.649   1.185  1.00  0.00     0.172 HD
BRANCH  25  27
HETATM   27  C7  UNL     1     -57.232   6.314   0.413  1.00  0.00     0.170 C 
BRANCH  27  28
HETATM   28  C8  UNL     1     -57.441   5.803  -0.959  1.00  0.00    -0.040 A 
HETATM   29  C9  UNL     1     -57.026   6.505  -2.066  1.00  0.00     0.009 A 
HETATM   30  C10 UNL     1     -57.210   6.048  -3.345  1.00  0.00     0.001 A 
HETATM   31  C11 UNL     1     -57.838   4.836  -3.515  1.00  0.00     0.000 A 
HETATM   32  C12 UNL     1     -58.281   4.079  -2.433  1.00  0.00     0.001 A 
HETATM   33  C13 UNL     1     -58.065   4.597  -1.162  1.00  0.00     0.009 A 
ENDBRANCH  27  28
ENDBRANCH  25  27
ENDBRANCH  22  25
ENDBRANCH  20  22
ENDBRANCH   1  16
BRANCH   1  34
HETATM   34  C15 UNL     1     -51.576   9.685  -2.515  1.00  0.00     0.127 A 
HETATM   35  C16 UNL     1     -50.209   9.668  -2.663  1.00  0.00     0.050 A 
HETATM   36  C17 UNL     1     -49.425  10.640  -2.088  1.00  0.00     0.005 A 
HETATM   37  C18 UNL     1     -50.015  11.649  -1.352  1.00  0.00     0.017 A 
HETATM   38  C19 UNL     1     -51.395  11.621  -1.234  1.00  0.00     0.090 A 
HETATM   39  N5  UNL     1     -52.135  10.666  -1.801  1.00  0.00    -0.351 N 
ATOM     40  H5  UNL     1     -53.148  10.686  -1.687  1.00  0.00     0.166 HD
ENDBRANCH   1  34
TORSDOF 9
ENDMDL
MODEL 2
REMARK VINA RESULT: -7.144857996      2.778      8.478
REMARK  9 active torsions:
REMARK  status: ('A' for Active; 'I' for Inactive)
REMARK    1  A    between atoms: C1_4  and  N2_5 
REMARK    2  A    between atoms: C1_4  and  C20_33 
REMARK    3  A    between atoms: N2_5  and  N3_7 
REMARK    4  A    between atoms: N3_7  and  C2_8 
REMARK    5  A    between atoms: N3_7  and  C15_26 
REMARK    6  A    between atoms: C6_12  and  S1_13 
REMARK    7  A    between atoms: S1_13  and  N4_16 
REMARK    8  A    between atoms: N4_16  and  C7_18 
REMARK    9  A    between atoms: C7_18  and  C8_19 
ROOT
HETATM    1  N3  UNL     1     -57.327   4.049  -0.096  1.00  0.00    -0.238 N 
ENDROOT
BRANCH   1   2
HETATM    2  N2  UNL     1     -57.185   4.155   1.258  1.00  0.00    -0.275 N 
ATOM      3  H2  UNL     1     -57.169   3.291   1.799  1.00  0.00     0.189 HD
BRANCH   2   4
HETATM    4  C1  UNL     1     -57.058   5.374   1.969  1.00  0.00     0.142 C 
HETATM    5  N1  UNL     1     -57.934   6.283   1.802  1.00  0.00    -0.383 N 
ATOM      6  H12 UNL     1     -58.725   6.154   1.171  1.00  0.00     0.157 HD
ATOM      7  H11 UNL     1     -57.843   7.160   2.314  1.00  0.00     0.157 HD
BRANCH   4   8
HETATM    8  C20 UNL     1     -55.936   5.557   2.866  1.00  0.00     0.093 A 
HETATM    9  C21 UNL     1     -55.943   5.072   4.169  1.00  0.00     0.121 A 
HETATM   10  N6  UNL     1     -54.877   5.266   4.965  1.00  0.00    -0.372 N 
HETATM   11  C22 UNL     1     -53.772   5.920   4.563  1.00  0.00     0.104 A 
ATOM     12  H6  UNL     1     -54.907   4.901   5.917  1.00  0.00     0.164 HD
HETATM   13  C23 UNL     1     -53.760   6.401   3.271  1.00  0.00     0.105 A 
HETATM   14  N7  UNL     1     -54.825   6.209   2.474  1.00  0.00    -0.360 N 
ATOM     15  H7  UNL     1     -54.790   6.576   1.523  1.00  0.00     0.165 HD
ENDBRANCH   4   8
ENDBRANCH   2   4
ENDBRANCH   1   2
BRANCH   1  16
HETATM   16  C2  UNL     1     -56.575   4.911  -0.957  1.00  0.00     0.060 A 
HETATM   17  C3  UNL     1     -57.226   5.821  -1.775  1.00  0.00     0.031 A 
HETATM   18  C4  UNL     1     -56.498   6.641  -2.595  1.00  0.00     0.004 A 
HETATM   19  C5  UNL     1     -55.107   6.585  -2.629  1.00  0.00     0.025 A 
HETATM   20  C6  UNL     1     -54.470   5.678  -1.814  1.00  0.00     0.081 A 
HETATM   21  C14 UNL     1     -55.196   4.855  -0.992  1.00  0.00     0.057 A 
BRANCH  20  22
HETATM   22  S1  UNL     1     -52.727   5.591  -1.841  1.00  0.00     0.259 S 
HETATM   23  O1  UNL     1     -52.208   5.634  -0.447  1.00  0.00    -0.201 OA
HETATM   24  O2  UNL     1     -52.344   4.324  -2.558  1.00  0.00    -0.201 OA
BRANCH  22  25
HETATM   25  N4  UNL     1     -52.145   6.978  -2.673  1.00  0.00    -0.311 N 
ATOM     26  H4  UNL     1     -51.951   7.014  -3.674  1.00  0.00     0.172 HD
BRANCH  25  27
HETATM   27  C7  UNL     1     -51.967   8.107  -1.749  1.00  0.00     0.170 C 
BRANCH  27  28
HETATM   28  C8  UNL     1     -51.248   9.155  -2.507  1.00  0.00    -0.040 A 
HETATM   29  C9  UNL     1     -50.182   9.836  -1.971  1.00  0.00     0.009 A 
HETATM   30  C10 UNL     1     -49.504  10.809  -2.657  1.00  0.00     0.001 A 
HETATM   31  C11 UNL     1     -49.918  11.108  -3.934  1.00  0.00     0.000 A 
HETATM   32  C12 UNL     1     -50.992  10.452  -4.532  1.00  0.00     0.001 A 
HETATM   33  C13 UNL     1     -51.637   9.476  -3.784  1.00  0.00     0.009 A 
ENDBRANCH  27  28
ENDBRANCH  25  27
ENDBRANCH  22  25
ENDBRANCH  20  22
ENDBRANCH   1  16
BRANCH   1  34
HETATM   34  C15 UNL     1     -58.196   3.111  -0.715  1.00  0.00     0.127 A 
HETATM   35  C16 UNL     1     -59.419   2.827  -0.154  1.00  0.00     0.050 A 
HETATM   36  C17 UNL     1     -60.271   1.922  -0.741  1.00  0.00     0.005 A 
HETATM   37  C18 UNL     1     -59.899   1.289  -1.910  1.00  0.00     0.017 A 
HETATM   38  C19 UNL     1     -58.658   1.610  -2.435  1.00  0.00     0.090 A 
HETATM   39  N5  UNL     1     -57.847   2.491  -1.847  1.00  0.00    -0.351 N 
ATOM     40  H5  UNL     1     -56.942   2.697  -2.270  1.00  0.00     0.166 HD
ENDBRANCH   1  34
TORSDOF 9
ENDMDL
MODEL 3
REMARK VINA RESULT: -7.063401586      1.553      2.115
REMARK  9 active torsions:
REMARK  status: ('A' for Active; 'I' for Inactive)
REMARK    1  A    between atoms: C1_4  and  N2_5 
REMARK    2  A    between atoms: C1_4  and  C20_33 
REMARK    3  A    between atoms: N2_5  and  N3_7 
REMARK    4  A    between atoms: N3_7  and  C2_8 
REMARK    5  A    between atoms: N3_7  and  C15_26 
REMARK    6  A    between atoms: C6_12  and  S1_13 
REMARK    7  A    between atoms: S1_13  and  N4_16 
REMARK    8  A    between atoms: N4_16  and  C7_18 
REMARK    9  A    between atoms: C7_18  and  C8_19 
ROOT
HETATM    1  N3  UNL     1     -52.664   8.485  -3.326  1.00  0.00    -0.238 N 
ENDROOT
BRANCH   1   2
HETATM    2  N2  UNL     1     -53.318   8.644  -4.515  1.00  0.00    -0.275 N 
ATOM      3  H2  UNL     1     -53.186   7.925  -5.225  1.00  0.00     0.189 HD
BRANCH   2   4
HETATM    4  C1  UNL     1     -54.166   9.733  -4.837  1.00  0.00     0.142 C 
HETATM    5  N1  UNL     1     -53.719  10.669  -5.575  1.00  0.00    -0.383 N 
ATOM      6  H12 UNL     1     -52.767  10.654  -5.941  1.00  0.00     0.157 HD
ATOM      7  H11 UNL     1     -54.329  11.452  -5.807  1.00  0.00     0.157 HD
BRANCH   4   8
HETATM    8  C20 UNL     1     -55.518   9.754  -4.318  1.00  0.00     0.093 A 
HETATM    9  C21 UNL     1     -56.407   8.706  -4.528  1.00  0.00     0.121 A 
HETATM   10  N6  UNL     1     -57.653   8.771  -4.026  1.00  0.00    -0.372 N 
HETATM   11  C22 UNL     1     -58.102   9.820  -3.314  1.00  0.00     0.104 A 
ATOM     12  H6  UNL     1     -58.287   7.989  -4.193  1.00  0.00     0.164 HD
HETATM   13  C23 UNL     1     -57.223  10.861  -3.104  1.00  0.00     0.105 A 
HETATM   14  N7  UNL     1     -55.978  10.798  -3.604  1.00  0.00    -0.360 N 
ATOM     15  H7  UNL     1     -55.348  11.583  -3.434  1.00  0.00     0.165 HD
ENDBRANCH   4   8
ENDBRANCH   2   4
ENDBRANCH   1   2
BRANCH   1  16
HETATM   16  C2  UNL     1     -53.050   7.429  -2.442  1.00  0.00     0.060 A 
HETATM   17  C3  UNL     1     -52.151   6.422  -2.122  1.00  0.00     0.031 A 
HETATM   18  C4  UNL     1     -52.530   5.415  -1.275  1.00  0.00     0.004 A 
HETATM   19  C5  UNL     1     -53.808   5.374  -0.721  1.00  0.00     0.025 A 
HETATM   20  C6  UNL     1     -54.692   6.377  -1.044  1.00  0.00     0.081 A 
HETATM   21  C14 UNL     1     -54.316   7.386  -1.892  1.00  0.00     0.057 A 
BRANCH  20  22
HETATM   22  S1  UNL     1     -56.298   6.344  -0.361  1.00  0.00     0.259 S 
HETATM   23  O1  UNL     1     -56.303   7.094   0.924  1.00  0.00    -0.201 OA
HETATM   24  O2  UNL     1     -57.238   6.936  -1.376  1.00  0.00    -0.201 OA
BRANCH  22  25
HETATM   25  N4  UNL     1     -56.692   4.704  -0.027  1.00  0.00    -0.311 N 
ATOM     26  H4  UNL     1     -56.052   3.919  -0.143  1.00  0.00     0.172 HD
BRANCH  25  27
HETATM   27  C7  UNL     1     -58.078   4.585   0.447  1.00  0.00     0.170 C 
BRANCH  27  28
HETATM   28  C8  UNL     1     -58.740   3.607  -0.444  1.00  0.00    -0.040 A 
HETATM   29  C9  UNL     1     -58.509   3.588  -1.799  1.00  0.00     0.009 A 
HETATM   30  C10 UNL     1     -59.112   2.691  -2.640  1.00  0.00     0.001 A 
HETATM   31  C11 UNL     1     -59.984   1.777  -2.094  1.00  0.00     0.000 A 
HETATM   32  C12 UNL     1     -60.258   1.746  -0.729  1.00  0.00     0.001 A 
HETATM   33  C13 UNL     1     -59.615   2.682   0.071  1.00  0.00     0.009 A 
ENDBRANCH  27  28
ENDBRANCH  25  27
ENDBRANCH  22  25
ENDBRANCH  20  22
ENDBRANCH   1  16
BRANCH   1  34
HETATM   34  C15 UNL     1     -51.598   9.326  -2.908  1.00  0.00     0.127 A 
HETATM   35  C16 UNL     1     -51.657   9.963  -1.690  1.00  0.00     0.050 A 
HETATM   36  C17 UNL     1     -50.633  10.778  -1.271  1.00  0.00     0.005 A 
HETATM   37  C18 UNL     1     -49.528  10.962  -2.079  1.00  0.00     0.017 A 
HETATM   38  C19 UNL     1     -49.517  10.297  -3.295  1.00  0.00     0.090 A 
HETATM   39  N5  UNL     1     -50.524   9.511  -3.681  1.00  0.00    -0.351 N 
ATOM     40  H5  UNL     1     -50.472   9.042  -4.585  1.00  0.00     0.166 HD
ENDBRANCH   1  34
TORSDOF 9
ENDMDL
MODEL 4
REMARK VINA RESULT: -7.027200077      5.067      7.691
REMARK  9 active torsions:
REMARK  status: ('A' for Active; 'I' for Inactive)
REMARK    1  A    between atoms: C1_4  and  N2_5 
REMARK    2  A    between atoms: C1_4  and  C20_33 
REMARK    3  A    between atoms: N2_5  and  N3_7 
REMARK    4  A    between atoms: N3_7  and  C2_8 
REMARK    5  A    between atoms: N3_7  and  C15_26 
REMARK    6  A    between atoms: C6_12  and  S1_13 
REMARK    7  A    between atoms: S1_13  and  N4_16 
REMARK    8  A    between atoms: N4_16  and  C7_18 
REMARK    9  A    between atoms: C7_18  and  C8_19 
ROOT
HETATM    1  N3  UNL     1     -54.984   5.912   1.233  1.00  0.00    -0.238 N 
ENDROOT
BRANCH   1   2
HETATM    2  N2  UNL     1     -56.022   5.126   0.818  1.00  0.00    -0.275 N 
ATOM      3  H2  UNL     1     -56.226   4.289   1.363  1.00  0.00     0.189 HD
BRANCH   2   4
HETATM    4  C1  UNL     1     -56.836   5.385  -0.313  1.00  0.00     0.142 C 
HETATM    5  N1  UNL     1     -57.281   6.563  -0.499  1.00  0.00    -0.383 N 
ATOM      6  H12 UNL     1     -57.067   7.324   0.146  1.00  0.00     0.157 HD
ATOM      7  H11 UNL     1     -57.867   6.749  -1.312  1.00  0.00     0.157 HD
BRANCH   4   8
HETATM    8  C20 UNL     1     -57.139   4.304  -1.228  1.00  0.00     0.093 A 
HETATM    9  C21 UNL     1     -56.388   3.135  -1.268  1.00  0.00     0.121 A 
HETATM   10  N6  UNL     1     -56.709   2.159  -2.135  1.00  0.00    -0.372 N 
HETATM   11  C22 UNL     1     -57.743   2.250  -2.991  1.00  0.00     0.104 A 
ATOM     12  H6  UNL     1     -56.142   1.310  -2.145  1.00  0.00     0.164 HD
HETATM   13  C23 UNL     1     -58.491   3.408  -2.954  1.00  0.00     0.105 A 
HETATM   14  N7  UNL     1     -58.172   4.385  -2.088  1.00  0.00    -0.360 N 
ATOM     15  H7  UNL     1     -58.741   5.231  -2.082  1.00  0.00     0.165 HD
ENDBRANCH   4   8
ENDBRANCH   2   4
ENDBRANCH   1   2
BRANCH   1  16
HETATM   16  C2  UNL     1     -54.947   6.379   2.584  1.00  0.00     0.060 A 
HETATM   17  C3  UNL     1     -53.825   6.157   3.370  1.00  0.00     0.031 A 
HETATM   18  C4  UNL     1     -53.800   6.608   4.662  1.00  0.00     0.004 A 
HETATM   19  C5  UNL     1     -54.881   7.292   5.215  1.00  0.00     0.025 A 
HETATM   20  C6  UNL     1     -55.988   7.507   4.428  1.00  0.00     0.081 A 
HETATM   21  C14 UNL     1     -56.018   7.056   3.134  1.00  0.00     0.057 A 
BRANCH  20  22
HETATM   22  S1  UNL     1     -57.354   8.360   5.101  1.00  0.00     0.259 S 
HETATM   23  O1  UNL     1     -57.746   9.465   4.185  1.00  0.00    -0.201 OA
HETATM   24  O2  UNL     1     -58.461   7.362   5.305  1.00  0.00    -0.201 OA
BRANCH  22  25
HETATM   25  N4  UNL     1     -56.855   9.053   6.594  1.00  0.00    -0.311 N 
ATOM     26  H4  UNL     1     -56.527   8.519   7.399  1.00  0.00     0.172 HD
BRANCH  25  27
HETATM   27  C7  UNL     1     -56.966  10.517   6.555  1.00  0.00     0.170 C 
BRANCH  27  28
HETATM   28  C8  UNL     1     -55.689  11.045   7.082  1.00  0.00    -0.040 A 
HETATM   29  C9  UNL     1     -55.613  11.683   8.298  1.00  0.00     0.009 A 
HETATM   30  C10 UNL     1     -54.439  12.177   8.803  1.00  0.00     0.001 A 
HETATM   31  C11 UNL     1     -53.297  12.024   8.052  1.00  0.00     0.000 A 
HETATM   32  C12 UNL     1     -53.309  11.388   6.814  1.00  0.00     0.001 A 
HETATM   33  C13 UNL     1     -54.531  10.908   6.357  1.00  0.00     0.009 A 
ENDBRANCH  27  28
ENDBRANCH  25  27
ENDBRANCH  22  25
ENDBRANCH  20  22
ENDBRANCH   1  16
BRANCH   1  34
HETATM   34  C15 UNL     1     -53.915   6.299   0.381  1.00  0.00     0.127 A 
HETATM   35  C16 UNL     1     -53.594   7.628   0.234  1.00  0.00     0.050 A 
HETATM   36  C17 UNL     1     -52.562   8.018  -0.585  1.00  0.00     0.005 A 
HETATM   37  C18 UNL     1     -51.833   7.066  -1.269  1.00  0.00     0.017 A 
HETATM   38  C19 UNL     1     -52.194   5.741  -1.087  1.00  0.00     0.090 A 
HETATM   39  N5  UNL     1     -53.202   5.387  -0.287  1.00  0.00    -0.351 N 
ATOM     40  H5  UNL     1     -53.432   4.399  -0.182  1.00  0.00     0.166 HD
ENDBRANCH   1  34
TORSDOF 9
ENDMDL
MODEL 5
REMARK VINA RESULT: -6.929580992      2.658      5.201
REMARK  9 active torsions:
REMARK  status: ('A' for Active; 'I' for Inactive)
REMARK    1  A    between atoms: C1_4  and  N2_5 
REMARK    2  A    between atoms: C1_4  and  C20_33 
REMARK    3  A    between atoms: N2_5  and  N3_7 
REMARK    4  A    between atoms: N3_7  and  C2_8 
REMARK    5  A    between atoms: N3_7  and  C15_26 
REMARK    6  A    between atoms: C6_12  and  S1_13 
REMARK    7  A    between atoms: S1_13  and  N4_16 
REMARK    8  A    between atoms: N4_16  and  C7_18 
REMARK    9  A    between atoms: C7_18  and  C8_19 
ROOT
HETATM    1  N3  UNL     1     -52.300   9.595  -3.933  1.00  0.00    -0.238 N 
ENDROOT
BRANCH   1   2
HETATM    2  N2  UNL     1     -51.232   9.926  -4.718  1.00  0.00    -0.275 N 
ATOM      3  H2  UNL     1     -51.334   9.807  -5.726  1.00  0.00     0.189 HD
BRANCH   2   4
HETATM    4  C1  UNL     1     -49.994  10.421  -4.239  1.00  0.00     0.142 C 
HETATM    5  N1  UNL     1     -48.914   9.876  -4.635  1.00  0.00    -0.383 N 
ATOM      6  H12 UNL     1     -48.919   9.092  -5.288  1.00  0.00     0.157 HD
ATOM      7  H11 UNL     1     -48.023  10.232  -4.291  1.00  0.00     0.157 HD
BRANCH   4   8
HETATM    8  C20 UNL     1     -49.988  11.534  -3.313  1.00  0.00     0.093 A 
HETATM    9  C21 UNL     1     -49.357  11.464  -2.076  1.00  0.00     0.121 A 
HETATM   10  N6  UNL     1     -49.379  12.524  -1.249  1.00  0.00    -0.372 N 
HETATM   11  C22 UNL     1     -49.992  13.681  -1.557  1.00  0.00     0.104 A 
ATOM     12  H6  UNL     1     -48.908  12.448  -0.347  1.00  0.00     0.164 HD
HETATM   13  C23 UNL     1     -50.619  13.754  -2.783  1.00  0.00     0.105 A 
HETATM   14  N7  UNL     1     -50.599  12.696  -3.610  1.00  0.00    -0.360 N 
ATOM     15  H7  UNL     1     -51.071  12.778  -4.511  1.00  0.00     0.165 HD
ENDBRANCH   4   8
ENDBRANCH   2   4
ENDBRANCH   1   2
BRANCH   1  16
HETATM   16  C2  UNL     1     -53.605  10.070  -4.276  1.00  0.00     0.060 A 
HETATM   17  C3  UNL     1     -53.770  11.346  -4.794  1.00  0.00     0.031 A 
HETATM   18  C4  UNL     1     -55.023  11.792  -5.119  1.00  0.00     0.004 A 
HETATM   19  C5  UNL     1     -56.148  10.990  -4.942  1.00  0.00     0.025 A 
HETATM   20  C6  UNL     1     -55.975   9.726  -4.428  1.00  0.00     0.081 A 
HETATM   21  C14 UNL     1     -54.722   9.276  -4.101  1.00  0.00     0.057 A 
BRANCH  20  22
HETATM   22  S1  UNL     1     -57.371   8.704  -4.198  1.00  0.00     0.259 S 
HETATM   23  O1  UNL     1     -58.488   9.513  -3.640  1.00  0.00    -0.201 OA
HETATM   24  O2  UNL     1     -57.713   8.091  -5.529  1.00  0.00    -0.201 OA
BRANCH  22  25
HETATM   25  N4  UNL     1     -56.954   7.498  -3.045  1.00  0.00    -0.311 N 
ATOM     26  H4  UNL     1     -56.529   7.687  -2.137  1.00  0.00     0.172 HD
BRANCH  25  27
HETATM   27  C7  UNL     1     -57.293   6.158  -3.543  1.00  0.00     0.170 C 
BRANCH  27  28
HETATM   28  C8  UNL     1     -57.748   5.381  -2.369  1.00  0.00    -0.040 A 
HETATM   29  C9  UNL     1     -58.244   4.105  -2.491  1.00  0.00     0.009 A 
HETATM   30  C10 UNL     1     -58.670   3.370  -1.416  1.00  0.00     0.001 A 
HETATM   31  C11 UNL     1     -58.594   3.945  -0.168  1.00  0.00     0.000 A 
HETATM   32  C12 UNL     1     -58.101   5.234   0.019  1.00  0.00     0.001 A 
HETATM   33  C13 UNL     1     -57.685   5.927  -1.111  1.00  0.00     0.009 A 
ENDBRANCH  27  28
ENDBRANCH  25  27
ENDBRANCH  22  25
ENDBRANCH  20  22
ENDBRANCH   1  16
BRANCH   1  34
HETATM   34  C15 UNL     1     -52.188   8.787  -2.770  1.00  0.00     0.127 A 
HETATM   35  C16 UNL     1     -52.238   9.361  -1.521  1.00  0.00     0.050 A 
HETATM   36  C17 UNL     1     -52.132   8.592  -0.386  1.00  0.00     0.005 A 
HETATM   37  C18 UNL     1     -51.974   7.225  -0.498  1.00  0.00     0.017 A 
HETATM   38  C19 UNL     1     -51.931   6.695  -1.777  1.00  0.00     0.090 A 
HETATM   39  N5  UNL     1     -52.035   7.462  -2.864  1.00  0.00    -0.351 N 
ATOM     40  H5  UNL     1     -51.998   7.029  -3.787  1.00  0.00     0.166 HD
ENDBRANCH   1  34
TORSDOF 9
ENDMDL
