MODEL 1
REMARK VINA RESULT: -5.792068662      0.000      0.000
REMARK  5 active torsions:
REMARK  status: ('A' for Active; 'I' for Inactive)
REMARK    1  A    between atoms: C2_2  and  C3_3 
REMARK    2  A    between atoms: C3_3  and  C4_4 
REMARK    3  A    between atoms: C6_6  and  O1_7 
REMARK    4  A    between atoms: C20_22  and  C21_23 
REMARK    5  A    between atoms: C21_23  and  O2_24 
ROOT
HETATM    1  C4  UNL     1      21.238 -20.648 -22.195  1.00  0.00    -0.010 C 
HETATM    2  C5  UNL     1      19.897 -19.979 -21.787  1.00  0.00     0.018 C 
HETATM    3  C6  UNL     1      22.305 -19.806 -21.574  1.00  0.00     0.127 C 
HETATM    4  C7  UNL     1      22.835 -18.657 -22.372  1.00  0.00     0.033 C 
HETATM    5  C8  UNL     1      23.035 -19.005 -23.835  1.00  0.00     0.012 C 
HETATM    6  C9  UNL     1      21.735 -19.464 -24.325  1.00  0.00    -0.038 C 
HETATM    7  C10 UNL     1      20.745 -18.335 -24.267  1.00  0.00     0.015 C 
HETATM    8  C11 UNL     1      21.694 -19.879 -25.808  1.00  0.00     0.015 C 
HETATM    9  C12 UNL     1      22.315 -21.202 -25.684  1.00  0.00    -0.000 C 
HETATM   10  C13 UNL     1      22.471 -22.083 -26.834  1.00  0.00    -0.004 C 
HETATM   11  C14 UNL     1      23.676 -22.959 -26.441  1.00  0.00     0.005 C 
HETATM   12  C15 UNL     1      23.559 -23.517 -25.073  1.00  0.00     0.001 C 
HETATM   13  C16 UNL     1      22.750 -22.823 -24.055  1.00  0.00     0.010 C 
HETATM   14  C17 UNL     1      21.686 -21.898 -24.456  1.00  0.00    -0.031 C 
HETATM   15  C18 UNL     1      20.516 -22.751 -24.892  1.00  0.00     0.011 C 
HETATM   16  C19 UNL     1      20.603 -23.493 -26.132  1.00  0.00     0.008 C 
HETATM   17  C20 UNL     1      21.404 -22.998 -27.261  1.00  0.00     0.014 C 
HETATM   18  C22 UNL     1      21.243 -20.760 -23.666  1.00  0.00     0.013 C 
ENDROOT
BRANCH   1  19
HETATM   19  C3  UNL     1      21.229 -21.930 -21.407  1.00  0.00     0.038 C 
BRANCH  19  20
HETATM   20  C2  UNL     1      20.271 -21.815 -20.273  1.00  0.00    -0.036 C 
HETATM   21  C1  UNL     1      20.548 -22.266 -19.045  1.00  0.00     0.007 C 
ENDBRANCH  19  20
ENDBRANCH   1  19
BRANCH   3  22
HETATM   22  O1  UNL     1      23.430 -20.557 -21.138  1.00  0.00    -0.395 OA
ATOM     23  H1  UNL     1      23.773 -20.267 -20.301  1.00  0.00     0.210 HD
ENDBRANCH   3  22
BRANCH  17  24
HETATM   24  C21 UNL     1      20.615 -22.600 -28.488  1.00  0.00     0.169 C 
BRANCH  24  25
HETATM   25  O2  UNL     1      20.642 -21.241 -28.734  1.00  0.00    -0.400 OA
ATOM     26  H2  UNL     1      21.200 -21.005 -29.466  1.00  0.00     0.209 HD
ENDBRANCH  24  25
ENDBRANCH  17  24
TORSDOF 5
ENDMDL
MODEL 2
REMARK VINA RESULT: -5.740838518      2.089      4.078
REMARK  5 active torsions:
REMARK  status: ('A' for Active; 'I' for Inactive)
REMARK    1  A    between atoms: C2_2  and  C3_3 
REMARK    2  A    between atoms: C3_3  and  C4_4 
REMARK    3  A    between atoms: C6_6  and  O1_7 
REMARK    4  A    between atoms: C20_22  and  C21_23 
REMARK    5  A    between atoms: C21_23  and  O2_24 
ROOT
HETATM    1  C4  UNL     1      22.235 -19.279 -23.152  1.00  0.00    -0.010 C 
HETATM    2  C5  UNL     1      23.227 -18.998 -21.991  1.00  0.00     0.018 C 
HETATM    3  C6  UNL     1      20.946 -18.654 -22.731  1.00  0.00     0.127 C 
HETATM    4  C7  UNL     1      19.992 -19.494 -21.943  1.00  0.00     0.033 C 
HETATM    5  C8  UNL     1      19.898 -20.916 -22.463  1.00  0.00     0.012 C 
HETATM    6  C9  UNL     1      21.260 -21.451 -22.432  1.00  0.00    -0.038 C 
HETATM    7  C10 UNL     1      21.741 -21.528 -21.010  1.00  0.00     0.015 C 
HETATM    8  C11 UNL     1      21.413 -22.903 -22.924  1.00  0.00     0.015 C 
HETATM    9  C12 UNL     1      21.353 -22.654 -24.368  1.00  0.00    -0.000 C 
HETATM   10  C13 UNL     1      21.513 -23.731 -25.336  1.00  0.00    -0.004 C 
HETATM   11  C14 UNL     1      20.750 -23.208 -26.569  1.00  0.00     0.005 C 
HETATM   12  C15 UNL     1      21.112 -21.816 -26.922  1.00  0.00     0.001 C 
HETATM   13  C16 UNL     1      21.622 -20.897 -25.888  1.00  0.00     0.010 C 
HETATM   14  C17 UNL     1      22.236 -21.421 -24.665  1.00  0.00    -0.031 C 
HETATM   15  C18 UNL     1      23.631 -21.868 -25.042  1.00  0.00     0.011 C 
HETATM   16  C19 UNL     1      23.800 -23.048 -25.864  1.00  0.00     0.008 C 
HETATM   17  C20 UNL     1      22.837 -24.158 -25.808  1.00  0.00     0.014 C 
HETATM   18  C22 UNL     1      22.231 -20.737 -23.382  1.00  0.00     0.013 C 
ENDROOT
BRANCH   1  19
HETATM   19  C3  UNL     1      22.759 -18.410 -24.263  1.00  0.00     0.038 C 
BRANCH  19  20
HETATM   20  C2  UNL     1      24.168 -18.024 -23.975  1.00  0.00    -0.036 C 
HETATM   21  C1  UNL     1      24.908 -17.304 -24.825  1.00  0.00     0.007 C 
ENDBRANCH  19  20
ENDBRANCH   1  19
BRANCH   3  22
HETATM   22  O1  UNL     1      20.209 -18.103 -23.814  1.00  0.00    -0.395 OA
ATOM     23  H1  UNL     1      20.573 -18.319 -24.664  1.00  0.00     0.210 HD
ENDBRANCH   3  22
BRANCH  17  24
HETATM   24  C21 UNL     1      23.376 -25.454 -25.245  1.00  0.00     0.169 C 
BRANCH  24  25
HETATM   25  O2  UNL     1      24.707 -25.666 -25.549  1.00  0.00    -0.400 OA
ATOM     26  H2  UNL     1      25.061 -26.451 -25.147  1.00  0.00     0.209 HD
ENDBRANCH  24  25
ENDBRANCH  17  24
TORSDOF 5
ENDMDL
MODEL 3
REMARK VINA RESULT: -5.718927794      1.724      5.638
REMARK  5 active torsions:
REMARK  status: ('A' for Active; 'I' for Inactive)
REMARK    1  A    between atoms: C2_2  and  C3_3 
REMARK    2  A    between atoms: C3_3  and  C4_4 
REMARK    3  A    between atoms: C6_6  and  O1_7 
REMARK    4  A    between atoms: C20_22  and  C21_23 
REMARK    5  A    between atoms: C21_23  and  O2_24 
ROOT
HETATM    1  C4  UNL     1      22.327 -21.785 -25.276  1.00  0.00    -0.010 C 
HETATM    2  C5  UNL     1      23.553 -21.348 -26.124  1.00  0.00     0.018 C 
HETATM    3  C6  UNL     1      21.238 -22.049 -26.264  1.00  0.00     0.127 C 
HETATM    4  C7  UNL     1      20.351 -20.906 -26.641  1.00  0.00     0.033 C 
HETATM    5  C8  UNL     1      19.971 -20.043 -25.452  1.00  0.00     0.012 C 
HETATM    6  C9  UNL     1      21.230 -19.593 -24.858  1.00  0.00    -0.038 C 
HETATM    7  C10 UNL     1      21.962 -18.712 -25.831  1.00  0.00     0.015 C 
HETATM    8  C11 UNL     1      21.091 -18.691 -23.617  1.00  0.00     0.015 C 
HETATM    9  C12 UNL     1      20.787 -19.727 -22.624  1.00  0.00    -0.000 C 
HETATM   10  C13 UNL     1      20.613 -19.406 -21.213  1.00  0.00    -0.004 C 
HETATM   11  C14 UNL     1      19.703 -20.541 -20.707  1.00  0.00     0.005 C 
HETATM   12  C15 UNL     1      20.171 -21.884 -21.123  1.00  0.00     0.001 C 
HETATM   13  C16 UNL     1      20.988 -22.040 -22.340  1.00  0.00     0.010 C 
HETATM   14  C17 UNL     1      21.752 -20.908 -22.873  1.00  0.00    -0.031 C 
HETATM   15  C18 UNL     1      22.976 -20.765 -21.996  1.00  0.00     0.011 C 
HETATM   16  C19 UNL     1      22.825 -20.275 -20.643  1.00  0.00     0.008 C 
HETATM   17  C20 UNL     1      21.752 -19.333 -20.289  1.00  0.00     0.014 C 
HETATM   18  C22 UNL     1      22.086 -20.727 -24.277  1.00  0.00     0.013 C 
ENDROOT
BRANCH   1  19
HETATM   19  C3  UNL     1      22.738 -23.138 -24.760  1.00  0.00     0.038 C 
BRANCH  19  20
HETATM   20  C2  UNL     1      23.459 -23.884 -25.828  1.00  0.00    -0.036 C 
HETATM   21  C1  UNL     1      24.097 -25.037 -25.598  1.00  0.00     0.007 C 
ENDBRANCH  19  20
ENDBRANCH   1  19
BRANCH   3  22
HETATM   22  O1  UNL     1      20.386 -23.122 -25.886  1.00  0.00    -0.395 OA
ATOM     23  H1  UNL     1      20.647 -23.957 -26.257  1.00  0.00     0.210 HD
ENDBRANCH   3  22
BRANCH  17  24
HETATM   24  C21 UNL     1      22.214 -17.951 -19.883  1.00  0.00     0.169 C 
BRANCH  24  25
HETATM   25  O2  UNL     1      21.188 -17.027 -19.839  1.00  0.00    -0.400 OA
ATOM     26  H2  UNL     1      20.526 -17.234 -19.190  1.00  0.00     0.209 HD
ENDBRANCH  24  25
ENDBRANCH  17  24
TORSDOF 5
ENDMDL
MODEL 4
REMARK VINA RESULT: -5.587603600      2.003      5.677
REMARK  5 active torsions:
REMARK  status: ('A' for Active; 'I' for Inactive)
REMARK    1  A    between atoms: C2_2  and  C3_3 
REMARK    2  A    between atoms: C3_3  and  C4_4 
REMARK    3  A    between atoms: C6_6  and  O1_7 
REMARK    4  A    between atoms: C20_22  and  C21_23 
REMARK    5  A    between atoms: C21_23  and  O2_24 
ROOT
HETATM    1  C4  UNL     1      22.271 -21.555 -24.614  1.00  0.00    -0.010 C 
HETATM    2  C5  UNL     1      23.097 -21.380 -25.918  1.00  0.00     0.018 C 
HETATM    3  C6  UNL     1      20.904 -21.954 -25.063  1.00  0.00     0.127 C 
HETATM    4  C7  UNL     1      19.917 -20.864 -25.336  1.00  0.00     0.033 C 
HETATM    5  C8  UNL     1      19.977 -19.750 -24.307  1.00  0.00     0.012 C 
HETATM    6  C9  UNL     1      21.356 -19.262 -24.317  1.00  0.00    -0.038 C 
HETATM    7  C10 UNL     1      21.667 -18.650 -25.654  1.00  0.00     0.015 C 
HETATM    8  C11 UNL     1      21.659 -18.113 -23.336  1.00  0.00     0.015 C 
HETATM    9  C12 UNL     1      21.757 -18.898 -22.101  1.00  0.00    -0.000 C 
HETATM   10  C13 UNL     1      22.100 -18.279 -20.827  1.00  0.00    -0.004 C 
HETATM   11  C14 UNL     1      21.459 -19.226 -19.795  1.00  0.00     0.005 C 
HETATM   12  C15 UNL     1      21.772 -20.651 -20.049  1.00  0.00     0.001 C 
HETATM   13  C16 UNL     1      22.095 -21.108 -21.413  1.00  0.00     0.010 C 
HETATM   14  C17 UNL     1      22.590 -20.161 -22.416  1.00  0.00    -0.031 C 
HETATM   15  C18 UNL     1      24.045 -19.911 -22.090  1.00  0.00     0.011 C 
HETATM   16  C19 UNL     1      24.386 -19.140 -20.913  1.00  0.00     0.008 C 
HETATM   17  C20 UNL     1      23.495 -18.082 -20.412  1.00  0.00     0.014 C 
HETATM   18  C22 UNL     1      22.387 -20.298 -23.850  1.00  0.00     0.013 C 
ENDROOT
BRANCH   1  19
HETATM   19  C3  UNL     1      22.869 -22.792 -23.999  1.00  0.00     0.038 C 
BRANCH  19  20
HETATM   20  C2  UNL     1      23.245 -23.754 -25.072  1.00  0.00    -0.036 C 
HETATM   21  C1  UNL     1      23.245 -25.078 -24.887  1.00  0.00     0.007 C 
ENDBRANCH  19  20
ENDBRANCH   1  19
BRANCH   3  22
HETATM   22  O1  UNL     1      20.269 -22.871 -24.182  1.00  0.00    -0.395 OA
ATOM     23  H1  UNL     1      20.209 -23.751 -24.535  1.00  0.00     0.210 HD
ENDBRANCH   3  22
BRANCH  17  24
HETATM   24  C21 UNL     1      24.044 -16.676 -20.509  1.00  0.00     0.169 C 
BRANCH  24  25
HETATM   25  O2  UNL     1      24.770 -16.454 -21.662  1.00  0.00    -0.400 OA
ATOM     26  H2  UNL     1      25.340 -15.696 -21.606  1.00  0.00     0.209 HD
ENDBRANCH  24  25
ENDBRANCH  17  24
TORSDOF 5
ENDMDL
MODEL 5
REMARK VINA RESULT: -5.011783231      1.877      4.137
REMARK  5 active torsions:
REMARK  status: ('A' for Active; 'I' for Inactive)
REMARK    1  A    between atoms: C2_2  and  C3_3 
REMARK    2  A    between atoms: C3_3  and  C4_4 
REMARK    3  A    between atoms: C6_6  and  O1_7 
REMARK    4  A    between atoms: C20_22  and  C21_23 
REMARK    5  A    between atoms: C21_23  and  O2_24 
ROOT
HETATM    1  C4  UNL     1      23.005 -18.722 -21.333  1.00  0.00    -0.010 C 
HETATM    2  C5  UNL     1      24.044 -19.434 -20.424  1.00  0.00     0.018 C 
HETATM    3  C6  UNL     1      22.129 -17.950 -20.401  1.00  0.00     0.127 C 
HETATM    4  C7  UNL     1      20.920 -18.639 -19.853  1.00  0.00     0.033 C 
HETATM    5  C8  UNL     1      20.202 -19.476 -20.895  1.00  0.00     0.012 C 
HETATM    6  C9  UNL     1      21.192 -20.423 -21.408  1.00  0.00    -0.038 C 
HETATM    7  C10 UNL     1      21.621 -21.353 -20.309  1.00  0.00     0.015 C 
HETATM    8  C11 UNL     1      20.683 -21.390 -22.495  1.00  0.00     0.015 C 
HETATM    9  C12 UNL     1      20.708 -20.470 -23.637  1.00  0.00    -0.000 C 
HETATM   10  C13 UNL     1      20.359 -20.912 -24.981  1.00  0.00    -0.004 C 
HETATM   11  C14 UNL     1      19.876 -19.616 -25.660  1.00  0.00     0.005 C 
HETATM   12  C15 UNL     1      20.805 -18.479 -25.457  1.00  0.00     0.001 C 
HETATM   13  C16 UNL     1      21.687 -18.444 -24.276  1.00  0.00     0.010 C 
HETATM   14  C17 UNL     1      22.035 -19.682 -23.572  1.00  0.00    -0.031 C 
HETATM   15  C18 UNL     1      23.085 -20.374 -24.413  1.00  0.00     0.011 C 
HETATM   16  C19 UNL     1      22.702 -20.972 -25.674  1.00  0.00     0.008 C 
HETATM   17  C20 UNL     1      21.351 -21.516 -25.880  1.00  0.00     0.014 C 
HETATM   18  C22 UNL     1      22.358 -19.762 -22.156  1.00  0.00     0.013 C 
ENDROOT
BRANCH   1  19
HETATM   19  C3  UNL     1      23.834 -17.692 -22.052  1.00  0.00     0.038 C 
BRANCH  19  20
HETATM   20  C2  UNL     1      24.582 -16.870 -21.061  1.00  0.00    -0.036 C 
HETATM   21  C1  UNL     1      24.877 -15.582 -21.267  1.00  0.00     0.007 C 
ENDBRANCH  19  20
ENDBRANCH   1  19
BRANCH   3  22
HETATM   22  O1  UNL     1      21.686 -16.713 -20.943  1.00  0.00    -0.395 OA
ATOM     23  H1  UNL     1      21.206 -16.811 -21.758  1.00  0.00     0.210 HD
ENDBRANCH   3  22
BRANCH  17  24
HETATM   24  C21 UNL     1      21.280 -23.015 -26.065  1.00  0.00     0.169 C 
BRANCH  24  25
HETATM   25  O2  UNL     1      21.244 -23.398 -27.392  1.00  0.00    -0.400 OA
ATOM     26  H2  UNL     1      21.971 -23.958 -27.640  1.00  0.00     0.209 HD
ENDBRANCH  24  25
ENDBRANCH  17  24
TORSDOF 5
ENDMDL
