MODEL 1
REMARK VINA RESULT: -6.504141002      0.000      0.000
REMARK  4 active torsions:
REMARK  status: ('A' for Active; 'I' for Inactive)
REMARK    1  A    between atoms: C2_3  and  C3_4 
REMARK       I    between atoms: C3_4  and  N2_6 
REMARK    2  A    between atoms: N2_6  and  N3_8 
REMARK    3  A    between atoms: C4_15  and  N6_16 
REMARK    4  A    between atoms: C5_19  and  N7_20 
ROOT
HETATM    1  C1  UNL     1      58.510 -30.178  -0.922  1.00  0.00     0.159 C 
HETATM    2  N1  UNL     1      57.857 -30.000   0.335  1.00  0.00    -0.315 N 
HETATM    3  C2  UNL     1      57.203 -28.833   0.601  1.00  0.00     0.194 A 
HETATM    4  N4  UNL     1      56.570 -28.667   1.810  1.00  0.00    -0.279 N 
ATOM      5  H4  UNL     1      56.084 -27.791   2.002  1.00  0.00     0.189 HD
HETATM    6  N5  UNL     1      56.575 -29.603   2.719  1.00  0.00    -0.281 N 
ATOM      7  H5  UNL     1      56.094 -29.445   3.603  1.00  0.00     0.188 HD
HETATM    8  C4  UNL     1      57.200 -30.766   2.511  1.00  0.00     0.158 A 
HETATM    9  C5  UNL     1      57.848 -30.938   1.276  1.00  0.00     0.148 A 
ENDROOT
BRANCH   3  10
HETATM   10  C3  UNL     1      57.155 -27.741  -0.345  1.00  0.00     0.305 C 
HETATM   11  O1  UNL     1      57.860 -26.731  -0.248  1.00  0.00    -0.263 OA
HETATM   12  N2  UNL     1      56.263 -27.800  -1.453  1.00  0.00    -0.270 N 
ATOM     13  H2  UNL     1      55.671 -28.624  -1.554  1.00  0.00     0.189 HD
BRANCH  12  14
HETATM   14  N3  UNL     1      56.157 -26.794  -2.405  1.00  0.00    -0.342 N 
ATOM     15  H32 UNL     1      56.192 -25.831  -2.072  1.00  0.00     0.176 HD
ATOM     16  H31 UNL     1      56.048 -26.973  -3.403  1.00  0.00     0.176 HD
ENDBRANCH  12  14
ENDBRANCH   3  10
BRANCH   9  17
HETATM   17  N7  UNL     1      58.422 -32.062   1.158  1.00  0.00    -0.382 N 
ATOM     18  H72 UNL     1      59.039 -32.288   1.937  1.00  0.00     0.157 HD
ATOM     19  H71 UNL     1      58.290 -32.686   0.362  1.00  0.00     0.157 HD
ENDBRANCH   9  17
BRANCH   8  20
HETATM   20  N6  UNL     1      57.207 -31.692   3.409  1.00  0.00    -0.381 N 
ATOM     21  H62 UNL     1      56.502 -32.430   3.417  1.00  0.00     0.157 HD
ATOM     22  H61 UNL     1      57.918 -31.716   4.140  1.00  0.00     0.157 HD
ENDBRANCH   8  20
TORSDOF 4
ENDMDL
MODEL 2
REMARK VINA RESULT: -6.465114426      5.657      7.238
REMARK  4 active torsions:
REMARK  status: ('A' for Active; 'I' for Inactive)
REMARK    1  A    between atoms: C2_3  and  C3_4 
REMARK       I    between atoms: C3_4  and  N2_6 
REMARK    2  A    between atoms: N2_6  and  N3_8 
REMARK    3  A    between atoms: C4_15  and  N6_16 
REMARK    4  A    between atoms: C5_19  and  N7_20 
ROOT
HETATM    1  C1  UNL     1      58.080 -25.076  -3.114  1.00  0.00     0.159 C 
HETATM    2  N1  UNL     1      58.104 -26.073  -4.135  1.00  0.00    -0.315 N 
HETATM    3  C2  UNL     1      59.080 -26.047  -5.088  1.00  0.00     0.194 A 
HETATM    4  N4  UNL     1      59.104 -27.012  -6.066  1.00  0.00    -0.279 N 
ATOM      5  H4  UNL     1      59.836 -26.984  -6.775  1.00  0.00     0.189 HD
HETATM    6  N5  UNL     1      58.213 -27.963  -6.110  1.00  0.00    -0.281 N 
ATOM      7  H5  UNL     1      58.263 -28.663  -6.849  1.00  0.00     0.188 HD
HETATM    8  C4  UNL     1      57.234 -28.038  -5.202  1.00  0.00     0.158 A 
HETATM    9  C5  UNL     1      57.207 -27.052  -4.202  1.00  0.00     0.148 A 
ENDROOT
BRANCH   3  10
HETATM   10  C3  UNL     1      60.102 -25.024  -5.119  1.00  0.00     0.305 C 
HETATM   11  O1  UNL     1      61.000 -24.941  -4.274  1.00  0.00    -0.263 OA
HETATM   12  N2  UNL     1      60.102 -24.050  -6.158  1.00  0.00    -0.270 N 
ATOM     13  H2  UNL     1      59.369 -24.100  -6.865  1.00  0.00     0.189 HD
BRANCH  12  14
HETATM   14  N3  UNL     1      61.047 -23.037  -6.258  1.00  0.00    -0.342 N 
ATOM     15  H32 UNL     1      61.728 -22.959  -5.503  1.00  0.00     0.176 HD
ATOM     16  H31 UNL     1      61.088 -22.382  -7.038  1.00  0.00     0.176 HD
ENDBRANCH  12  14
ENDBRANCH   3  10
BRANCH   9  17
HETATM   17  N7  UNL     1      56.248 -27.187  -3.384  1.00  0.00    -0.382 N 
ATOM     18  H72 UNL     1      56.436 -26.785  -2.466  1.00  0.00     0.157 HD
ATOM     19  H71 UNL     1      55.371 -27.656  -3.610  1.00  0.00     0.157 HD
ENDBRANCH   9  17
BRANCH   8  20
HETATM   20  N6  UNL     1      56.352 -28.978  -5.245  1.00  0.00    -0.381 N 
ATOM     21  H62 UNL     1      56.613 -29.957  -5.139  1.00  0.00     0.157 HD
ATOM     22  H61 UNL     1      55.363 -28.769  -5.386  1.00  0.00     0.157 HD
ENDBRANCH   8  20
TORSDOF 4
ENDMDL
MODEL 3
REMARK VINA RESULT: -6.443238846      6.255      7.469
REMARK  4 active torsions:
REMARK  status: ('A' for Active; 'I' for Inactive)
REMARK    1  A    between atoms: C2_3  and  C3_4 
REMARK       I    between atoms: C3_4  and  N2_6 
REMARK    2  A    between atoms: N2_6  and  N3_8 
REMARK    3  A    between atoms: C4_15  and  N6_16 
REMARK    4  A    between atoms: C5_19  and  N7_20 
ROOT
HETATM    1  C1  UNL     1      60.388 -25.306  -4.490  1.00  0.00     0.159 C 
HETATM    2  N1  UNL     1      59.704 -26.549  -4.652  1.00  0.00    -0.315 N 
HETATM    3  C2  UNL     1      60.407 -27.717  -4.650  1.00  0.00     0.194 A 
HETATM    4  N4  UNL     1      59.744 -28.912  -4.800  1.00  0.00    -0.279 N 
ATOM      5  H4  UNL     1      60.278 -29.781  -4.799  1.00  0.00     0.189 HD
HETATM    6  N5  UNL     1      58.449 -28.962  -4.945  1.00  0.00    -0.281 N 
ATOM      7  H5  UNL     1      57.991 -29.866  -5.053  1.00  0.00     0.188 HD
HETATM    8  C4  UNL     1      57.710 -27.848  -4.955  1.00  0.00     0.158 A 
HETATM    9  C5  UNL     1      58.386 -26.625  -4.801  1.00  0.00     0.148 A 
ENDROOT
BRANCH   3  10
HETATM   10  C3  UNL     1      61.845 -27.753  -4.504  1.00  0.00     0.305 C 
HETATM   11  O1  UNL     1      62.410 -27.865  -3.410  1.00  0.00    -0.263 OA
HETATM   12  N2  UNL     1      62.679 -27.657  -5.654  1.00  0.00    -0.270 N 
ATOM     13  H2  UNL     1      62.234 -27.564  -6.566  1.00  0.00     0.189 HD
BRANCH  12  14
HETATM   14  N3  UNL     1      64.067 -27.684  -5.597  1.00  0.00    -0.342 N 
ATOM     15  H32 UNL     1      64.544 -28.382  -6.168  1.00  0.00     0.176 HD
ATOM     16  H31 UNL     1      64.619 -27.049  -5.021  1.00  0.00     0.176 HD
ENDBRANCH  12  14
ENDBRANCH   3  10
BRANCH   9  17
HETATM   17  N7  UNL     1      57.618 -25.617  -4.827  1.00  0.00    -0.382 N 
ATOM     18  H72 UNL     1      57.900 -24.908  -5.504  1.00  0.00     0.157 HD
ATOM     19  H71 UNL     1      56.798 -25.512  -4.230  1.00  0.00     0.157 HD
ENDBRANCH   9  17
BRANCH   8  20
HETATM   20  N6  UNL     1      56.429 -27.895  -5.098  1.00  0.00    -0.381 N 
ATOM     21  H62 UNL     1      55.823 -28.235  -4.352  1.00  0.00     0.157 HD
ATOM     22  H61 UNL     1      55.982 -27.595  -5.965  1.00  0.00     0.157 HD
ENDBRANCH   8  20
TORSDOF 4
ENDMDL
MODEL 4
REMARK VINA RESULT: -6.436167916      5.616      6.652
REMARK  4 active torsions:
REMARK  status: ('A' for Active; 'I' for Inactive)
REMARK    1  A    between atoms: C2_3  and  C3_4 
REMARK       I    between atoms: C3_4  and  N2_6 
REMARK    2  A    between atoms: N2_6  and  N3_8 
REMARK    3  A    between atoms: C4_15  and  N6_16 
REMARK    4  A    between atoms: C5_19  and  N7_20 
ROOT
HETATM    1  C1  UNL     1      59.425 -25.320  -5.832  1.00  0.00     0.159 C 
HETATM    2  N1  UNL     1      58.462 -26.002  -5.029  1.00  0.00    -0.315 N 
HETATM    3  C2  UNL     1      58.160 -25.532  -3.784  1.00  0.00     0.194 A 
HETATM    4  N4  UNL     1      57.228 -26.188  -3.016  1.00  0.00    -0.279 N 
ATOM      5  H4  UNL     1      57.009 -25.831  -2.086  1.00  0.00     0.189 HD
HETATM    6  N5  UNL     1      56.616 -27.257  -3.447  1.00  0.00    -0.281 N 
ATOM      7  H5  UNL     1      55.930 -27.716  -2.849  1.00  0.00     0.188 HD
HETATM    8  C4  UNL     1      56.873 -27.761  -4.658  1.00  0.00     0.158 A 
HETATM    9  C5  UNL     1      57.826 -27.092  -5.445  1.00  0.00     0.148 A 
ENDROOT
BRANCH   3  10
HETATM   10  C3  UNL     1      58.796 -24.360  -3.226  1.00  0.00     0.305 C 
HETATM   11  O1  UNL     1      59.979 -24.338  -2.869  1.00  0.00    -0.263 OA
HETATM   12  N2  UNL     1      58.052 -23.156  -3.065  1.00  0.00    -0.270 N 
ATOM     13  H2  UNL     1      57.074 -23.151  -3.352  1.00  0.00     0.189 HD
BRANCH  12  14
HETATM   14  N3  UNL     1      58.589 -21.989  -2.537  1.00  0.00    -0.342 N 
ATOM     15  H32 UNL     1      59.383 -21.578  -3.027  1.00  0.00     0.176 HD
ATOM     16  H31 UNL     1      58.231 -21.535  -1.697  1.00  0.00     0.176 HD
ENDBRANCH  12  14
ENDBRANCH   3  10
BRANCH   9  17
HETATM   17  N7  UNL     1      58.018 -27.634  -6.574  1.00  0.00    -0.382 N 
ATOM     18  H72 UNL     1      58.717 -27.154  -7.142  1.00  0.00     0.157 HD
ATOM     19  H71 UNL     1      57.524 -28.466  -6.897  1.00  0.00     0.157 HD
ENDBRANCH   9  17
BRANCH   8  20
HETATM   20  N6  UNL     1      56.270 -28.818  -5.084  1.00  0.00    -0.381 N 
ATOM     21  H62 UNL     1      55.469 -29.210  -4.589  1.00  0.00     0.157 HD
ATOM     22  H61 UNL     1      56.576 -29.296  -5.932  1.00  0.00     0.157 HD
ENDBRANCH   8  20
TORSDOF 4
ENDMDL
MODEL 5
REMARK VINA RESULT: -6.421654948      3.013      5.679
REMARK  4 active torsions:
REMARK  status: ('A' for Active; 'I' for Inactive)
REMARK    1  A    between atoms: C2_3  and  C3_4 
REMARK       I    between atoms: C3_4  and  N2_6 
REMARK    2  A    between atoms: N2_6  and  N3_8 
REMARK    3  A    between atoms: C4_15  and  N6_16 
REMARK    4  A    between atoms: C5_19  and  N7_20 
ROOT
HETATM    1  C1  UNL     1      58.893 -29.334  -2.491  1.00  0.00     0.159 C 
HETATM    2  N1  UNL     1      57.990 -28.638  -3.351  1.00  0.00    -0.315 N 
HETATM    3  C2  UNL     1      57.065 -27.788  -2.821  1.00  0.00     0.194 A 
HETATM    4  N4  UNL     1      56.201 -27.116  -3.653  1.00  0.00    -0.279 N 
ATOM      5  H4  UNL     1      55.512 -26.482  -3.248  1.00  0.00     0.189 HD
HETATM    6  N5  UNL     1      56.241 -27.268  -4.948  1.00  0.00    -0.281 N 
ATOM      7  H5  UNL     1      55.586 -26.751  -5.533  1.00  0.00     0.188 HD
HETATM    8  C4  UNL     1      57.127 -28.088  -5.521  1.00  0.00     0.158 A 
HETATM    9  C5  UNL     1      58.010 -28.777  -4.673  1.00  0.00     0.148 A 
ENDROOT
BRANCH   3  10
HETATM   10  C3  UNL     1      56.946 -27.566  -1.397  1.00  0.00     0.305 C 
HETATM   11  O1  UNL     1      57.550 -26.669  -0.800  1.00  0.00    -0.263 OA
HETATM   12  N2  UNL     1      56.100 -28.404  -0.616  1.00  0.00    -0.270 N 
ATOM     13  H2  UNL     1      55.592 -29.152  -1.088  1.00  0.00     0.189 HD
BRANCH  12  14
HETATM   14  N3  UNL     1      55.932 -28.257   0.755  1.00  0.00    -0.342 N 
ATOM     15  H32 UNL     1      56.620 -28.703   1.361  1.00  0.00     0.176 HD
ATOM     16  H31 UNL     1      55.164 -27.732   1.174  1.00  0.00     0.176 HD
ENDBRANCH  12  14
ENDBRANCH   3  10
BRANCH   9  17
HETATM   17  N7  UNL     1      58.813 -29.538  -5.290  1.00  0.00    -0.382 N 
ATOM     18  H72 UNL     1      59.756 -29.159  -5.368  1.00  0.00     0.157 HD
ATOM     19  H71 UNL     1      58.551 -30.444  -5.681  1.00  0.00     0.157 HD
ENDBRANCH   9  17
BRANCH   8  20
HETATM   20  N6  UNL     1      57.167 -28.240  -6.801  1.00  0.00    -0.381 N 
ATOM     21  H62 UNL     1      57.504 -27.499  -7.414  1.00  0.00     0.157 HD
ATOM     22  H61 UNL     1      56.862 -29.109  -7.241  1.00  0.00     0.157 HD
ENDBRANCH   8  20
TORSDOF 4
ENDMDL
