MODEL 1
REMARK VINA RESULT: -9.017687404      0.000      0.000
REMARK  7 active torsions:
REMARK  status: ('A' for Active; 'I' for Inactive)
REMARK    1  A    between atoms: C2_2  and  C3_3 
REMARK    2  A    between atoms: C14_16  and  C15_17 
REMARK    3  A    between atoms: C20_23  and  O3_24 
REMARK    4  A    between atoms: C21_26  and  C22_27 
REMARK       I    between atoms: C22_27  and  N2_29 
REMARK    5  A    between atoms: N2_29  and  C23_31 
REMARK    6  A    between atoms: C23_31  and  C24_32 
REMARK    7  A    between atoms: C24_32  and  O6_34 
ROOT
HETATM    1  C3  UNL     1       6.806  36.629  25.420  1.00  0.00     0.057 C 
HETATM    2  C4  UNL     1       8.098  36.190  26.105  1.00  0.00     0.009 C 
HETATM    3  C5  UNL     1       8.192  34.898  25.978  1.00  0.00     0.091 C 
HETATM    4  N1  UNL     1       7.089  34.361  25.264  1.00  0.00    -0.327 N 
HETATM    5  C6  UNL     1       6.633  35.470  24.446  1.00  0.00     0.152 C 
HETATM    6  C7  UNL     1       6.524  33.081  25.293  1.00  0.00     0.228 C 
HETATM    7  O1  UNL     1       6.858  32.210  26.150  1.00  0.00    -0.273 OA
HETATM    8  C8  UNL     1       5.477  32.626  24.315  1.00  0.00     0.078 C 
HETATM    9  C9  UNL     1       6.112  31.539  23.486  1.00  0.00     0.020 C 
HETATM   10  C10 UNL     1       4.299  32.147  25.113  1.00  0.00    -0.006 C 
HETATM   11  C11 UNL     1       3.633  30.962  24.451  1.00  0.00     0.011 C 
HETATM   12  C12 UNL     1       3.325  33.274  25.368  1.00  0.00     0.007 C 
HETATM   13  C13 UNL     1       2.377  33.399  24.232  1.00  0.00     0.033 C 
HETATM   14  C14 UNL     1       1.734  34.797  24.144  1.00  0.00     0.125 C 
HETATM   15  O2  UNL     1       2.720  35.693  24.266  1.00  0.00    -0.378 OA
HETATM   16  C18 UNL     1       2.461  36.933  24.771  1.00  0.00     0.147 C 
HETATM   17  C19 UNL     1       1.552  37.017  25.930  1.00  0.00     0.042 C 
HETATM   18  C20 UNL     1       3.822  37.605  25.076  1.00  0.00     0.167 C 
HETATM   19  C21 UNL     1       4.388  37.200  26.370  1.00  0.00     0.179 C 
HETATM   20  C26 UNL     1       5.731  36.585  26.386  1.00  0.00     0.156 C 
HETATM   21  O7  UNL     1       5.986  35.902  27.420  1.00  0.00    -0.296 OA
ENDROOT
BRANCH  19  22
HETATM   22  C22 UNL     1       4.362  38.227  27.429  1.00  0.00     0.232 C 
HETATM   23  O4  UNL     1       5.045  39.266  27.244  1.00  0.00    -0.273 OA
HETATM   24  N2  UNL     1       3.647  38.162  28.629  1.00  0.00    -0.351 N 
ATOM     25  H2  UNL     1       3.089  37.324  28.799  1.00  0.00     0.163 HD
BRANCH  24  26
HETATM   26  C23 UNL     1       3.634  39.181  29.641  1.00  0.00     0.233 C 
BRANCH  26  27
HETATM   27  C24 UNL     1       3.596  38.679  31.024  1.00  0.00     0.276 C 
HETATM   28  O5  UNL     1       4.569  38.069  31.522  1.00  0.00    -0.263 OA
BRANCH  27  29
HETATM   29  O6  UNL     1       2.489  38.853  31.840  1.00  0.00    -0.325 OA
HETATM   30  C25 UNL     1       1.809  40.078  31.931  1.00  0.00     0.213 C 
ENDBRANCH  27  29
ENDBRANCH  26  27
ENDBRANCH  24  26
ENDBRANCH  19  22
BRANCH  18  31
HETATM   31  O3  UNL     1       3.555  38.996  25.003  1.00  0.00    -0.392 OA
ATOM     32  H3  UNL     1       3.388  39.159  24.082  1.00  0.00     0.210 HD
ENDBRANCH  18  31
BRANCH   1  33
HETATM   33  C2  UNL     1       7.173  37.906  24.785  1.00  0.00     0.018 C 
HETATM   34  C1  UNL     1       8.347  38.485  25.589  1.00  0.00     0.006 C 
ENDBRANCH   1  33
BRANCH  14  35
HETATM   35  C15 UNL     1       0.997  34.802  22.823  1.00  0.00     0.006 C 
HETATM   36  C16 UNL     1       0.075  33.605  22.706  1.00  0.00     0.012 C 
HETATM   37  C17 UNL     1       0.192  36.027  22.563  1.00  0.00     0.012 C 
ENDBRANCH  14  35
TORSDOF 7
ENDMDL
MODEL 2
REMARK VINA RESULT: -8.869381108      2.910      7.215
REMARK  7 active torsions:
REMARK  status: ('A' for Active; 'I' for Inactive)
REMARK    1  A    between atoms: C2_2  and  C3_3 
REMARK    2  A    between atoms: C14_16  and  C15_17 
REMARK    3  A    between atoms: C20_23  and  O3_24 
REMARK    4  A    between atoms: C21_26  and  C22_27 
REMARK       I    between atoms: C22_27  and  N2_29 
REMARK    5  A    between atoms: N2_29  and  C23_31 
REMARK    6  A    between atoms: C23_31  and  C24_32 
REMARK    7  A    between atoms: C24_32  and  O6_34 
ROOT
HETATM    1  C3  UNL     1       7.158  35.640  26.325  1.00  0.00     0.057 C 
HETATM    2  C4  UNL     1       7.652  37.073  26.146  1.00  0.00     0.009 C 
HETATM    3  C5  UNL     1       6.617  37.818  25.890  1.00  0.00     0.091 C 
HETATM    4  N1  UNL     1       5.418  37.059  25.867  1.00  0.00    -0.327 N 
HETATM    5  C6  UNL     1       5.713  35.921  26.721  1.00  0.00     0.152 C 
HETATM    6  C7  UNL     1       4.207  37.290  25.205  1.00  0.00     0.228 C 
HETATM    7  O1  UNL     1       4.069  38.207  24.342  1.00  0.00    -0.273 OA
HETATM    8  C8  UNL     1       2.968  36.476  25.457  1.00  0.00     0.078 C 
HETATM    9  C9  UNL     1       1.967  37.409  26.090  1.00  0.00     0.020 C 
HETATM   10  C10 UNL     1       2.513  35.934  24.133  1.00  0.00    -0.006 C 
HETATM   11  C11 UNL     1       1.004  35.890  24.047  1.00  0.00     0.011 C 
HETATM   12  C12 UNL     1       3.135  34.585  23.859  1.00  0.00     0.007 C 
HETATM   13  C13 UNL     1       2.313  33.508  24.469  1.00  0.00     0.033 C 
HETATM   14  C14 UNL     1       3.112  32.213  24.712  1.00  0.00     0.125 C 
HETATM   15  O2  UNL     1       4.261  32.563  25.301  1.00  0.00    -0.378 OA
HETATM   16  C18 UNL     1       5.373  31.789  25.151  1.00  0.00     0.147 C 
HETATM   17  C19 UNL     1       5.640  31.239  23.809  1.00  0.00     0.042 C 
HETATM   18  C20 UNL     1       6.583  32.603  25.672  1.00  0.00     0.167 C 
HETATM   19  C21 UNL     1       7.110  33.550  24.680  1.00  0.00     0.179 C 
HETATM   20  C26 UNL     1       7.165  34.982  25.038  1.00  0.00     0.156 C 
HETATM   21  O7  UNL     1       7.229  35.770  24.050  1.00  0.00    -0.296 OA
ENDROOT
BRANCH  19  22
HETATM   22  C22 UNL     1       8.414  33.194  24.088  1.00  0.00     0.232 C 
HETATM   23  O4  UNL     1       9.442  33.703  24.604  1.00  0.00    -0.273 OA
HETATM   24  N2  UNL     1       8.626  32.340  23.002  1.00  0.00    -0.351 N 
ATOM     25  H2  UNL     1       7.804  31.920  22.567  1.00  0.00     0.163 HD
BRANCH  24  26
HETATM   26  C23 UNL     1       9.909  32.005  22.450  1.00  0.00     0.233 C 
BRANCH  26  27
HETATM   27  C24 UNL     1      10.525  30.790  23.007  1.00  0.00     0.276 C 
HETATM   28  O5  UNL     1       9.888  30.031  23.773  1.00  0.00    -0.263 OA
BRANCH  27  29
HETATM   29  O6  UNL     1      11.830  30.427  22.716  1.00  0.00    -0.325 OA
HETATM   30  C25 UNL     1      12.681  31.236  21.948  1.00  0.00     0.213 C 
ENDBRANCH  27  29
ENDBRANCH  26  27
ENDBRANCH  24  26
ENDBRANCH  19  22
BRANCH  18  31
HETATM   31  O3  UNL     1       7.532  31.623  26.058  1.00  0.00    -0.392 OA
ATOM     32  H3  UNL     1       7.921  31.967  26.853  1.00  0.00     0.210 HD
ENDBRANCH  18  31
BRANCH   1  33
HETATM   33  C2  UNL     1       7.997  35.124  27.420  1.00  0.00     0.018 C 
HETATM   34  C1  UNL     1       7.049  34.746  28.570  1.00  0.00     0.006 C 
ENDBRANCH   1  33
BRANCH  14  35
HETATM   35  C15 UNL     1       2.191  31.336  25.530  1.00  0.00     0.006 C 
HETATM   36  C16 UNL     1       0.791  31.916  25.586  1.00  0.00     0.012 C 
HETATM   37  C17 UNL     1       2.084  29.929  25.056  1.00  0.00     0.012 C 
ENDBRANCH  14  35
TORSDOF 7
ENDMDL
MODEL 3
REMARK VINA RESULT: -8.441864671      0.771      1.067
REMARK  7 active torsions:
REMARK  status: ('A' for Active; 'I' for Inactive)
REMARK    1  A    between atoms: C2_2  and  C3_3 
REMARK    2  A    between atoms: C14_16  and  C15_17 
REMARK    3  A    between atoms: C20_23  and  O3_24 
REMARK    4  A    between atoms: C21_26  and  C22_27 
REMARK       I    between atoms: C22_27  and  N2_29 
REMARK    5  A    between atoms: N2_29  and  C23_31 
REMARK    6  A    between atoms: C23_31  and  C24_32 
REMARK    7  A    between atoms: C24_32  and  O6_34 
ROOT
HETATM    1  C3  UNL     1       6.703  36.684  25.437  1.00  0.00     0.057 C 
HETATM    2  C4  UNL     1       8.003  36.186  26.063  1.00  0.00     0.009 C 
HETATM    3  C5  UNL     1       8.045  34.895  25.912  1.00  0.00     0.091 C 
HETATM    4  N1  UNL     1       6.895  34.410  25.234  1.00  0.00    -0.327 N 
HETATM    5  C6  UNL     1       6.449  35.550  24.452  1.00  0.00     0.152 C 
HETATM    6  C7  UNL     1       6.284  33.151  25.265  1.00  0.00     0.228 C 
HETATM    7  O1  UNL     1       6.618  32.254  26.094  1.00  0.00    -0.273 OA
HETATM    8  C8  UNL     1       5.183  32.753  24.322  1.00  0.00     0.078 C 
HETATM    9  C9  UNL     1       5.744  31.658  23.452  1.00  0.00     0.020 C 
HETATM   10  C10 UNL     1       4.020  32.303  25.159  1.00  0.00    -0.006 C 
HETATM   11  C11 UNL     1       3.285  31.155  24.505  1.00  0.00     0.011 C 
HETATM   12  C12 UNL     1       3.100  33.460  25.471  1.00  0.00     0.007 C 
HETATM   13  C13 UNL     1       2.113  33.640  24.375  1.00  0.00     0.033 C 
HETATM   14  C14 UNL     1       1.519  35.062  24.335  1.00  0.00     0.125 C 
HETATM   15  O2  UNL     1       2.542  35.919  24.432  1.00  0.00    -0.378 OA
HETATM   16  C18 UNL     1       2.350  37.158  24.966  1.00  0.00     0.147 C 
HETATM   17  C19 UNL     1       1.491  37.256  26.161  1.00  0.00     0.042 C 
HETATM   18  C20 UNL     1       3.746  37.775  25.227  1.00  0.00     0.167 C 
HETATM   19  C21 UNL     1       4.347  37.327  26.491  1.00  0.00     0.179 C 
HETATM   20  C26 UNL     1       5.665  36.663  26.443  1.00  0.00     0.156 C 
HETATM   21  O7  UNL     1       5.935  35.954  27.456  1.00  0.00    -0.296 OA
ENDROOT
BRANCH  19  22
HETATM   22  C22 UNL     1       4.400  38.336  27.566  1.00  0.00     0.232 C 
HETATM   23  O4  UNL     1       5.075  39.375  27.351  1.00  0.00    -0.273 OA
HETATM   24  N2  UNL     1       3.771  38.254  28.812  1.00  0.00    -0.351 N 
ATOM     25  H2  UNL     1       3.222  37.416  29.007  1.00  0.00     0.163 HD
BRANCH  24  26
HETATM   26  C23 UNL     1       3.835  39.256  29.839  1.00  0.00     0.233 C 
BRANCH  26  27
HETATM   27  C24 UNL     1       2.620  40.075  29.981  1.00  0.00     0.276 C 
HETATM   28  O5  UNL     1       2.458  41.120  29.310  1.00  0.00    -0.263 OA
BRANCH  27  29
HETATM   29  O6  UNL     1       1.601  39.735  30.857  1.00  0.00    -0.325 OA
HETATM   30  C25 UNL     1       1.854  39.226  32.141  1.00  0.00     0.213 C 
ENDBRANCH  27  29
ENDBRANCH  26  27
ENDBRANCH  24  26
ENDBRANCH  19  22
BRANCH  18  31
HETATM   31  O3  UNL     1       3.529  39.176  25.187  1.00  0.00    -0.392 OA
ATOM     32  H3  UNL     1       4.266  39.546  25.659  1.00  0.00     0.210 HD
ENDBRANCH  18  31
BRANCH   1  33
HETATM   33  C2  UNL     1       7.092  37.958  24.807  1.00  0.00     0.018 C 
HETATM   34  C1  UNL     1       8.329  38.470  25.562  1.00  0.00     0.006 C 
ENDBRANCH   1  33
BRANCH  14  35
HETATM   35  C15 UNL     1       0.732  35.117  23.044  1.00  0.00     0.006 C 
HETATM   36  C16 UNL     1       1.596  35.605  21.898  1.00  0.00     0.012 C 
HETATM   37  C17 UNL     1       0.114  33.826  22.635  1.00  0.00     0.012 C 
ENDBRANCH  14  35
TORSDOF 7
ENDMDL
MODEL 4
REMARK VINA RESULT: -8.396044986      2.537      6.317
REMARK  7 active torsions:
REMARK  status: ('A' for Active; 'I' for Inactive)
REMARK    1  A    between atoms: C2_2  and  C3_3 
REMARK    2  A    between atoms: C14_16  and  C15_17 
REMARK    3  A    between atoms: C20_23  and  O3_24 
REMARK    4  A    between atoms: C21_26  and  C22_27 
REMARK       I    between atoms: C22_27  and  N2_29 
REMARK    5  A    between atoms: N2_29  and  C23_31 
REMARK    6  A    between atoms: C23_31  and  C24_32 
REMARK    7  A    between atoms: C24_32  and  O6_34 
ROOT
HETATM    1  C3  UNL     1       4.360  38.305  25.669  1.00  0.00     0.057 C 
HETATM    2  C4  UNL     1       4.958  39.577  25.075  1.00  0.00     0.009 C 
HETATM    3  C5  UNL     1       4.211  39.934  24.071  1.00  0.00     0.091 C 
HETATM    4  N1  UNL     1       3.126  39.037  23.882  1.00  0.00    -0.327 N 
HETATM    5  C6  UNL     1       2.918  38.463  25.200  1.00  0.00     0.152 C 
HETATM    6  C7  UNL     1       2.389  38.731  22.733  1.00  0.00     0.228 C 
HETATM    7  O1  UNL     1       2.728  39.135  21.581  1.00  0.00    -0.273 OA
HETATM    8  C8  UNL     1       1.136  37.900  22.761  1.00  0.00     0.078 C 
HETATM    9  C9  UNL     1       0.008  38.818  22.363  1.00  0.00     0.020 C 
HETATM   10  C10 UNL     1       1.335  36.761  21.805  1.00  0.00    -0.006 C 
HETATM   11  C11 UNL     1       0.047  36.411  21.093  1.00  0.00     0.011 C 
HETATM   12  C12 UNL     1       1.937  35.566  22.506  1.00  0.00     0.007 C 
HETATM   13  C13 UNL     1       0.866  34.736  23.115  1.00  0.00     0.033 C 
HETATM   14  C14 UNL     1       1.382  33.847  24.264  1.00  0.00     0.125 C 
HETATM   15  O2  UNL     1       2.131  34.621  25.057  1.00  0.00    -0.378 OA
HETATM   16  C18 UNL     1       3.137  34.076  25.797  1.00  0.00     0.147 C 
HETATM   17  C19 UNL     1       3.977  33.051  25.149  1.00  0.00     0.042 C 
HETATM   18  C20 UNL     1       3.997  35.241  26.346  1.00  0.00     0.167 C 
HETATM   19  C21 UNL     1       4.983  35.735  25.376  1.00  0.00     0.179 C 
HETATM   20  C26 UNL     1       4.940  37.163  24.999  1.00  0.00     0.156 C 
HETATM   21  O7  UNL     1       5.508  37.435  23.901  1.00  0.00    -0.296 OA
ENDROOT
BRANCH  19  22
HETATM   22  C22 UNL     1       6.390  35.399  25.667  1.00  0.00     0.232 C 
HETATM   23  O4  UNL     1       6.896  35.883  26.712  1.00  0.00    -0.273 OA
HETATM   24  N2  UNL     1       7.225  34.588  24.894  1.00  0.00    -0.351 N 
ATOM     25  H2  UNL     1       6.834  34.189  24.040  1.00  0.00     0.163 HD
BRANCH  24  26
HETATM   26  C23 UNL     1       8.592  34.272  25.205  1.00  0.00     0.233 C 
BRANCH  26  27
HETATM   27  C24 UNL     1       9.142  33.118  24.474  1.00  0.00     0.276 C 
HETATM   28  O5  UNL     1      10.332  33.103  24.085  1.00  0.00    -0.263 OA
BRANCH  27  29
HETATM   29  O6  UNL     1       8.378  32.001  24.181  1.00  0.00    -0.325 OA
HETATM   30  C25 UNL     1       8.156  31.567  22.864  1.00  0.00     0.213 C 
ENDBRANCH  27  29
ENDBRANCH  26  27
ENDBRANCH  24  26
ENDBRANCH  19  22
BRANCH  18  31
HETATM   31  O3  UNL     1       4.594  34.718  27.522  1.00  0.00    -0.392 OA
ATOM     32  H3  UNL     1       3.872  34.614  28.130  1.00  0.00     0.210 HD
ENDBRANCH  18  31
BRANCH   1  33
HETATM   33  C2  UNL     1       4.549  38.482  27.119  1.00  0.00     0.018 C 
HETATM   34  C1  UNL     1       3.168  38.796  27.715  1.00  0.00     0.006 C 
ENDBRANCH   1  33
BRANCH  14  35
HETATM   35  C15 UNL     1       0.136  33.266  24.894  1.00  0.00     0.006 C 
HETATM   36  C16 UNL     1      -1.065  33.428  23.983  1.00  0.00     0.012 C 
HETATM   37  C17 UNL     1       0.237  31.828  25.267  1.00  0.00     0.012 C 
ENDBRANCH  14  35
TORSDOF 7
ENDMDL
MODEL 5
REMARK VINA RESULT: -8.214575673      3.659      7.869
REMARK  7 active torsions:
REMARK  status: ('A' for Active; 'I' for Inactive)
REMARK    1  A    between atoms: C2_2  and  C3_3 
REMARK    2  A    between atoms: C14_16  and  C15_17 
REMARK    3  A    between atoms: C20_23  and  O3_24 
REMARK    4  A    between atoms: C21_26  and  C22_27 
REMARK       I    between atoms: C22_27  and  N2_29 
REMARK    5  A    between atoms: N2_29  and  C23_31 
REMARK    6  A    between atoms: C23_31  and  C24_32 
REMARK    7  A    between atoms: C24_32  and  O6_34 
ROOT
HETATM    1  C3  UNL     1       0.807  37.908  21.731  1.00  0.00     0.057 C 
HETATM    2  C4  UNL     1      -0.406  38.783  21.425  1.00  0.00     0.009 C 
HETATM    3  C5  UNL     1      -0.201  39.946  21.969  1.00  0.00     0.091 C 
HETATM    4  N1  UNL     1       1.048  39.996  22.642  1.00  0.00    -0.327 N 
HETATM    5  C6  UNL     1       1.849  38.995  21.959  1.00  0.00     0.152 C 
HETATM    6  C7  UNL     1       1.475  40.791  23.712  1.00  0.00     0.228 C 
HETATM    7  O1  UNL     1       0.679  41.522  24.374  1.00  0.00    -0.273 OA
HETATM    8  C8  UNL     1       2.906  40.851  24.169  1.00  0.00     0.078 C 
HETATM    9  C9  UNL     1       3.387  42.250  23.880  1.00  0.00     0.020 C 
HETATM   10  C10 UNL     1       2.921  40.512  25.631  1.00  0.00    -0.006 C 
HETATM   11  C11 UNL     1       3.969  41.316  26.370  1.00  0.00     0.011 C 
HETATM   12  C12 UNL     1       3.097  39.026  25.840  1.00  0.00     0.007 C 
HETATM   13  C13 UNL     1       4.540  38.676  25.846  1.00  0.00     0.033 C 
HETATM   14  C14 UNL     1       4.796  37.194  25.512  1.00  0.00     0.125 C 
HETATM   15  O2  UNL     1       4.063  36.901  24.431  1.00  0.00    -0.378 OA
HETATM   16  C18 UNL     1       3.635  35.625  24.218  1.00  0.00     0.147 C 
HETATM   17  C19 UNL     1       3.140  34.871  25.385  1.00  0.00     0.042 C 
HETATM   18  C20 UNL     1       2.575  35.670  23.090  1.00  0.00     0.167 C 
HETATM   19  C21 UNL     1       1.236  36.036  23.572  1.00  0.00     0.179 C 
HETATM   20  C26 UNL     1       0.577  37.219  22.982  1.00  0.00     0.156 C 
HETATM   21  O7  UNL     1      -0.346  37.716  23.689  1.00  0.00    -0.296 OA
ENDROOT
BRANCH  19  22
HETATM   22  C22 UNL     1       0.244  34.944  23.593  1.00  0.00     0.232 C 
HETATM   23  O4  UNL     1      -0.189  34.535  22.485  1.00  0.00    -0.273 OA
HETATM   24  N2  UNL     1      -0.267  34.310  24.729  1.00  0.00    -0.351 N 
ATOM     25  H2  UNL     1       0.069  34.630  25.637  1.00  0.00     0.163 HD
BRANCH  24  26
HETATM   26  C23 UNL     1      -1.229  33.243  24.719  1.00  0.00     0.233 C 
BRANCH  26  27
HETATM   27  C24 UNL     1      -1.021  32.213  25.751  1.00  0.00     0.276 C 
HETATM   28  O5  UNL     1      -1.848  32.043  26.675  1.00  0.00    -0.263 OA
BRANCH  27  29
HETATM   29  O6  UNL     1       0.091  31.387  25.752  1.00  0.00    -0.325 OA
HETATM   30  C25 UNL     1       1.170  31.582  26.629  1.00  0.00     0.213 C 
ENDBRANCH  27  29
ENDBRANCH  26  27
ENDBRANCH  24  26
ENDBRANCH  19  22
BRANCH  18  31
HETATM   31  O3  UNL     1       2.618  34.377  22.509  1.00  0.00    -0.392 OA
ATOM     32  H3  UNL     1       1.791  34.295  22.048  1.00  0.00     0.210 HD
ENDBRANCH  18  31
BRANCH   1  33
HETATM   33  C2  UNL     1       0.995  37.137  20.490  1.00  0.00     0.018 C 
HETATM   34  C1  UNL     1       2.347  37.566  19.899  1.00  0.00     0.006 C 
ENDBRANCH   1  33
BRANCH  14  35
HETATM   35  C15 UNL     1       6.295  37.087  25.342  1.00  0.00     0.006 C 
HETATM   36  C16 UNL     1       6.962  38.437  25.519  1.00  0.00     0.012 C 
HETATM   37  C17 UNL     1       6.960  36.123  26.261  1.00  0.00     0.012 C 
ENDBRANCH  14  35
TORSDOF 7
ENDMDL
