MODEL 1
REMARK VINA RESULT: -6.224026358      0.000      0.000
REMARK  13 active torsions:
REMARK  status: ('A' for Active; 'I' for Inactive)
REMARK    1  A    between atoms: C2_2  and  N1_3 
REMARK    2  A    between atoms: N1_3  and  C3_4 
REMARK    3  A    between atoms: N1_3  and  C21_45 
REMARK    4  A    between atoms: C3_4  and  C4_5 
REMARK    5  A    between atoms: C7_8  and  N2_9 
REMARK    6  A    between atoms: C10_18  and  C11_19 
REMARK    7  A    between atoms: C11_19  and  N5_20 
REMARK    8  A    between atoms: C12_23  and  C13_24 
REMARK    9  A    between atoms: C17_33  and  N9_34 
REMARK   10  A    between atoms: C19_39  and  N10_40 
REMARK   11  A    between atoms: C23_49  and  N12_50 
REMARK   12  A    between atoms: N12_50  and  C24_52 
REMARK   13  A    between atoms: C27_55  and  C28_56 
ROOT
HETATM    1  C4  UNL     1      36.428   6.433 -52.282  1.00  0.00    -0.024 C 
HETATM    2  C5  UNL     1      36.914   7.005 -51.138  1.00  0.00     0.021 C 
HETATM    3  C6  UNL     1      38.115   7.243 -50.425  1.00  0.00    -0.011 C 
HETATM    4  C7  UNL     1      39.249   7.923 -50.787  1.00  0.00     0.121 C 
HETATM    5  N3  UNL     1      40.312   7.102 -51.222  1.00  0.00    -0.176 N 
ATOM      6  H3  UNL     1      41.299   7.360 -51.219  1.00  0.00     0.186 HD
HETATM    7  C8  UNL     1      39.804   5.904 -51.647  1.00  0.00     0.689 A 
HETATM    8  N4  UNL     1      38.841   5.902 -52.449  1.00  0.00    -0.174 N 
ATOM      9  H4  UNL     1      38.328   6.611 -52.974  1.00  0.00     0.186 HD
HETATM   10  C9  UNL     1      38.770   4.535 -52.318  1.00  0.00     0.159 A 
HETATM   11  C10 UNL     1      37.719   4.418 -53.162  1.00  0.00     0.086 C 
HETATM   12  C12 UNL     1      36.511   5.227 -53.006  1.00  0.00     0.039 C 
HETATM   13  N8  UNL     1      39.797   4.668 -51.497  1.00  0.00    -0.164 N 
HETATM   14  C16 UNL     1      40.821   4.042 -50.535  1.00  0.00     0.182 C 
HETATM   15  C17 UNL     1      41.033   4.877 -49.353  1.00  0.00     0.204 C 
HETATM   16  C18 UNL     1      39.958   5.059 -48.340  1.00  0.00     0.067 C 
HETATM   17  C19 UNL     1      39.360   6.463 -48.294  1.00  0.00     0.190 C 
HETATM   18  C20 UNL     1      38.099   6.654 -48.989  1.00  0.00     0.075 C 
ENDROOT
BRANCH   1  19
HETATM   19  C3  UNL     1      35.285   7.359 -52.868  1.00  0.00     0.180 C 
BRANCH  19  20
HETATM   20  N1  UNL     1      35.743   8.564 -53.337  1.00  0.00    -0.214 N 
BRANCH  20  21
HETATM   21  C2  UNL     1      36.429   8.187 -54.774  1.00  0.00     0.137 C 
HETATM   22  C1  UNL     1      37.842   8.604 -54.497  1.00  0.00     0.027 C 
ENDBRANCH  20  21
BRANCH  20  23
HETATM   23  C21 UNL     1      35.892   9.930 -53.229  1.00  0.00     0.682 A 
HETATM   24  N11 UNL     1      36.472  10.516 -52.107  1.00  0.00    -0.186 N 
HETATM   25  C22 UNL     1      36.324  11.840 -52.157  1.00  0.00     0.121 A 
ATOM     26  H11 UNL     1      36.941  10.007 -51.358  1.00  0.00     0.184 HD
HETATM   27  C23 UNL     1      36.639  12.868 -51.308  1.00  0.00     0.076 A 
HETATM   28  C30 UNL     1      35.630  12.120 -53.339  1.00  0.00     0.150 A 
HETATM   29  C27 UNL     1      36.254  14.185 -51.654  1.00  0.00     0.073 A 
HETATM   30  C29 UNL     1      35.584  14.404 -52.810  1.00  0.00     0.108 A 
HETATM   31  N14 UNL     1      35.268  13.370 -53.656  1.00  0.00    -0.349 N 
ATOM     32  H14 UNL     1      34.760  13.553 -54.523  1.00  0.00     0.167 HD
HETATM   33  N15 UNL     1      35.401  10.936 -53.944  1.00  0.00    -0.174 N 
ATOM     34  H15 UNL     1      34.915  10.827 -54.834  1.00  0.00     0.186 HD
BRANCH  27  35
HETATM   35  N12 UNL     1      37.099  12.737 -50.148  1.00  0.00    -0.383 N 
ATOM     36  H12 UNL     1      36.432  13.002 -49.423  1.00  0.00     0.160 HD
BRANCH  35  37
HETATM   37  C24 UNL     1      38.327  12.306 -49.630  1.00  0.00     0.082 A 
HETATM   38  C25 UNL     1      38.916  13.250 -48.570  1.00  0.00     0.027 A 
HETATM   39  C26 UNL     1      39.632  12.986 -49.846  1.00  0.00     0.027 A 
ENDBRANCH  35  37
ENDBRANCH  27  35
BRANCH  29  40
HETATM   40  C28 UNL     1      36.671  15.238 -50.785  1.00  0.00     0.268 C 
HETATM   41  N13 UNL     1      37.914  15.887 -50.978  1.00  0.00    -0.057 NA
HETATM   42  O1  UNL     1      35.989  15.677 -49.807  1.00  0.00    -0.271 OA
ENDBRANCH  29  40
ENDBRANCH  20  23
ENDBRANCH  19  20
ENDBRANCH   1  19
BRANCH  12  43
HETATM   43  C13 UNL     1      35.311   4.704 -53.701  1.00  0.00     0.117 A 
HETATM   44  N6  UNL     1      34.459   3.814 -53.090  1.00  0.00    -0.350 N 
HETATM   45  C14 UNL     1      33.545   3.378 -53.923  1.00  0.00     0.106 A 
ATOM     46  H6  UNL     1      34.530   3.530 -52.113  1.00  0.00     0.166 HD
HETATM   47  C15 UNL     1      33.791   4.007 -55.133  1.00  0.00     0.106 A 
HETATM   48  N7  UNL     1      34.881   4.808 -54.941  1.00  0.00    -0.350 N 
ATOM     49  H7  UNL     1      35.301   5.402 -55.655  1.00  0.00     0.166 HD
ENDBRANCH  12  43
BRANCH  11  50
HETATM   50  C11 UNL     1      37.656   3.452 -54.268  1.00  0.00    -0.032 C 
BRANCH  50  51
HETATM   51  N5  UNL     1      37.632   2.644 -55.167  1.00  0.00    -0.365 N 
ATOM     52  H52 UNL     1      37.717   3.654 -55.281  1.00  0.00     0.165 HD
ATOM     53  H51 UNL     1      37.609   1.943 -55.907  1.00  0.00     0.165 HD
ENDBRANCH  50  51
ENDBRANCH  11  50
BRANCH   4  54
HETATM   54  N2  UNL     1      39.586   9.226 -50.800  1.00  0.00    -0.385 N 
ATOM     55  H22 UNL     1      39.981   9.524 -49.908  1.00  0.00     0.157 HD
ATOM     56  H21 UNL     1      39.512   9.966 -51.498  1.00  0.00     0.157 HD
ENDBRANCH   4  54
BRANCH  17  57
HETATM   57  N10 UNL     1      39.303   6.942 -46.921  1.00  0.00    -0.075 N 
ATOM     58 3H10 UNL     1      38.343   7.056 -46.597  1.00  0.00     0.274 HD
ATOM     59 2H10 UNL     1      39.603   6.229 -46.256  1.00  0.00     0.274 HD
ATOM     60 1H10 UNL     1      39.842   7.803 -46.825  1.00  0.00     0.274 HD
ENDBRANCH  17  57
BRANCH  15  61
HETATM   61  N9  UNL     1      42.262   4.246 -48.736  1.00  0.00    -0.073 N 
ATOM     62  H93 UNL     1      42.265   4.215 -47.717  1.00  0.00     0.274 HD
ATOM     63  H92 UNL     1      42.340   3.238 -48.864  1.00  0.00     0.274 HD
ATOM     64  H91 UNL     1      43.015   4.794 -49.154  1.00  0.00     0.274 HD
ENDBRANCH  15  61
TORSDOF 13
ENDMDL
MODEL 2
REMARK VINA RESULT: -6.013637506      4.237      6.673
REMARK  13 active torsions:
REMARK  status: ('A' for Active; 'I' for Inactive)
REMARK    1  A    between atoms: C2_2  and  N1_3 
REMARK    2  A    between atoms: N1_3  and  C3_4 
REMARK    3  A    between atoms: N1_3  and  C21_45 
REMARK    4  A    between atoms: C3_4  and  C4_5 
REMARK    5  A    between atoms: C7_8  and  N2_9 
REMARK    6  A    between atoms: C10_18  and  C11_19 
REMARK    7  A    between atoms: C11_19  and  N5_20 
REMARK    8  A    between atoms: C12_23  and  C13_24 
REMARK    9  A    between atoms: C17_33  and  N9_34 
REMARK   10  A    between atoms: C19_39  and  N10_40 
REMARK   11  A    between atoms: C23_49  and  N12_50 
REMARK   12  A    between atoms: N12_50  and  C24_52 
REMARK   13  A    between atoms: C27_55  and  C28_56 
ROOT
HETATM    1  C4  UNL     1      38.901  10.432 -50.326  1.00  0.00    -0.024 C 
HETATM    2  C5  UNL     1      39.276   9.909 -49.118  1.00  0.00     0.021 C 
HETATM    3  C6  UNL     1      40.052   8.878 -48.533  1.00  0.00    -0.011 C 
HETATM    4  C7  UNL     1      41.391   8.604 -48.631  1.00  0.00     0.121 C 
HETATM    5  N3  UNL     1      41.715   7.579 -49.547  1.00  0.00    -0.176 N 
ATOM      6  H3  UNL     1      42.567   7.019 -49.532  1.00  0.00     0.186 HD
HETATM    7  C8  UNL     1      40.701   7.461 -50.459  1.00  0.00     0.689 A 
HETATM    8  N4  UNL     1      40.270   8.492 -51.028  1.00  0.00    -0.174 N 
ATOM      9  H4  UNL     1      40.538   9.476 -51.052  1.00  0.00     0.186 HD
HETATM   10  C9  UNL     1      39.283   7.728 -51.604  1.00  0.00     0.159 A 
HETATM   11  C10 UNL     1      38.728   8.776 -52.256  1.00  0.00     0.086 C 
HETATM   12  C12 UNL     1      38.379  10.017 -51.567  1.00  0.00     0.039 C 
HETATM   13  N8  UNL     1      39.837   6.716 -50.960  1.00  0.00    -0.164 N 
HETATM   14  C16 UNL     1      39.849   5.225 -50.582  1.00  0.00     0.182 C 
HETATM   15  C17 UNL     1      40.196   5.027 -49.175  1.00  0.00     0.204 C 
HETATM   16  C18 UNL     1      39.271   5.456 -48.090  1.00  0.00     0.067 C 
HETATM   17  C19 UNL     1      39.768   6.640 -47.264  1.00  0.00     0.190 C 
HETATM   18  C20 UNL     1      39.227   7.943 -47.608  1.00  0.00     0.075 C 
ENDROOT
BRANCH   1  19
HETATM   19  C3  UNL     1      38.894  12.011 -50.216  1.00  0.00     0.180 C 
BRANCH  19  20
HETATM   20  N1  UNL     1      40.045  12.528 -49.680  1.00  0.00    -0.214 N 
BRANCH  20  21
HETATM   21  C2  UNL     1      39.509  13.655 -48.621  1.00  0.00     0.137 C 
HETATM   22  C1  UNL     1      38.100  13.813 -49.111  1.00  0.00     0.027 C 
ENDBRANCH  20  21
BRANCH  20  23
HETATM   23  C21 UNL     1      41.418  12.563 -49.557  1.00  0.00     0.682 A 
HETATM   24  N11 UNL     1      42.037  12.753 -48.325  1.00  0.00    -0.186 N 
HETATM   25  C22 UNL     1      43.345  12.943 -48.497  1.00  0.00     0.121 A 
ATOM     26  H11 UNL     1      41.560  12.747 -47.423  1.00  0.00     0.184 HD
HETATM   27  C23 UNL     1      44.387  13.231 -47.655  1.00  0.00     0.076 A 
HETATM   28  C30 UNL     1      43.581  12.878 -49.874  1.00  0.00     0.150 A 
HETATM   29  C27 UNL     1      45.672  13.452 -48.203  1.00  0.00     0.073 A 
HETATM   30  C29 UNL     1      45.848  13.375 -49.544  1.00  0.00     0.108 A 
HETATM   31  N14 UNL     1      44.801  13.090 -50.385  1.00  0.00    -0.349 N 
ATOM     32  H14 UNL     1      44.952  13.039 -51.393  1.00  0.00     0.167 HD
HETATM   33  N15 UNL     1      42.389  12.643 -50.460  1.00  0.00    -0.174 N 
ATOM     34  H15 UNL     1      42.250  12.541 -51.466  1.00  0.00     0.186 HD
BRANCH  27  35
HETATM   35  N12 UNL     1      44.281  13.489 -46.431  1.00  0.00    -0.383 N 
ATOM     36  H12 UNL     1      44.604  14.427 -46.193  1.00  0.00     0.160 HD
BRANCH  35  37
HETATM   37  C24 UNL     1      43.816  12.772 -45.321  1.00  0.00     0.082 A 
HETATM   38  C25 UNL     1      44.937  12.163 -44.465  1.00  0.00     0.027 A 
HETATM   39  C26 UNL     1      43.934  11.300 -45.143  1.00  0.00     0.027 A 
ENDBRANCH  35  37
ENDBRANCH  27  35
BRANCH  29  40
HETATM   40  C28 UNL     1      46.746  13.668 -47.288  1.00  0.00     0.268 C 
HETATM   41  N13 UNL     1      47.102  14.978 -46.885  1.00  0.00    -0.057 NA
HETATM   42  O1  UNL     1      47.444  12.744 -46.767  1.00  0.00    -0.271 OA
ENDBRANCH  29  40
ENDBRANCH  20  23
ENDBRANCH  19  20
ENDBRANCH   1  19
BRANCH  12  43
HETATM   43  C13 UNL     1      37.410  10.881 -52.281  1.00  0.00     0.117 A 
HETATM   44  N6  UNL     1      36.055  10.739 -52.102  1.00  0.00    -0.350 N 
HETATM   45  C14 UNL     1      35.381  11.505 -52.926  1.00  0.00     0.106 A 
ATOM     46  H6  UNL     1      35.628  10.116 -51.417  1.00  0.00     0.166 HD
HETATM   47  C15 UNL     1      36.322  12.191 -53.677  1.00  0.00     0.106 A 
HETATM   48  N7  UNL     1      37.548  11.772 -53.240  1.00  0.00    -0.350 N 
ATOM     49  H7  UNL     1      38.441  12.104 -53.605  1.00  0.00     0.166 HD
ENDBRANCH  12  43
BRANCH  11  50
HETATM   50  C11 UNL     1      38.376   8.763 -53.683  1.00  0.00    -0.032 C 
BRANCH  50  51
HETATM   51  N5  UNL     1      38.098   8.722 -54.860  1.00  0.00    -0.365 N 
ATOM     52  H52 UNL     1      37.717   9.385 -54.184  1.00  0.00     0.165 HD
ATOM     53  H51 UNL     1      37.881   8.666 -55.855  1.00  0.00     0.165 HD
ENDBRANCH  50  51
ENDBRANCH  11  50
BRANCH   4  54
HETATM   54  N2  UNL     1      42.486   9.091 -48.018  1.00  0.00    -0.385 N 
ATOM     55  H22 UNL     1      43.312   9.031 -48.613  1.00  0.00     0.157 HD
ATOM     56  H21 UNL     1      42.659   9.484 -47.093  1.00  0.00     0.157 HD
ENDBRANCH   4  54
BRANCH  17  57
HETATM   57  N10 UNL     1      39.638   6.354 -45.843  1.00  0.00    -0.075 N 
ATOM     58 3H10 UNL     1      38.830   6.820 -45.433  1.00  0.00     0.274 HD
ATOM     59 2H10 UNL     1      39.356   5.388 -45.674  1.00  0.00     0.274 HD
ATOM     60 1H10 UNL     1      40.502   6.589 -45.354  1.00  0.00     0.274 HD
ENDBRANCH  17  57
BRANCH  15  61
HETATM   61  N9  UNL     1      40.448   3.537 -49.118  1.00  0.00    -0.073 N 
ATOM     62  H93 UNL     1      40.825   3.196 -48.234  1.00  0.00     0.274 HD
ATOM     63  H92 UNL     1      39.609   2.957 -49.094  1.00  0.00     0.274 HD
ATOM     64  H91 UNL     1      41.050   3.391 -49.929  1.00  0.00     0.274 HD
ENDBRANCH  15  61
TORSDOF 13
ENDMDL
MODEL 3
REMARK VINA RESULT: -5.985577090      1.520      1.661
REMARK  13 active torsions:
REMARK  status: ('A' for Active; 'I' for Inactive)
REMARK    1  A    between atoms: C2_2  and  N1_3 
REMARK    2  A    between atoms: N1_3  and  C3_4 
REMARK    3  A    between atoms: N1_3  and  C21_45 
REMARK    4  A    between atoms: C3_4  and  C4_5 
REMARK    5  A    between atoms: C7_8  and  N2_9 
REMARK    6  A    between atoms: C10_18  and  C11_19 
REMARK    7  A    between atoms: C11_19  and  N5_20 
REMARK    8  A    between atoms: C12_23  and  C13_24 
REMARK    9  A    between atoms: C17_33  and  N9_34 
REMARK   10  A    between atoms: C19_39  and  N10_40 
REMARK   11  A    between atoms: C23_49  and  N12_50 
REMARK   12  A    between atoms: N12_50  and  C24_52 
REMARK   13  A    between atoms: C27_55  and  C28_56 
ROOT
HETATM    1  C4  UNL     1      36.844   6.372 -51.580  1.00  0.00    -0.024 C 
HETATM    2  C5  UNL     1      37.335   6.698 -50.345  1.00  0.00     0.021 C 
HETATM    3  C6  UNL     1      38.545   6.920 -49.641  1.00  0.00    -0.011 C 
HETATM    4  C7  UNL     1      39.548   7.829 -49.854  1.00  0.00     0.121 C 
HETATM    5  N3  UNL     1      40.675   7.311 -50.530  1.00  0.00    -0.176 N 
ATOM      6  H3  UNL     1      41.616   7.701 -50.498  1.00  0.00     0.186 HD
HETATM    7  C8  UNL     1      40.299   6.200 -51.237  1.00  0.00     0.689 A 
HETATM    8  N4  UNL     1      39.286   6.261 -51.973  1.00  0.00    -0.174 N 
ATOM      9  H4  UNL     1      38.647   6.998 -52.272  1.00  0.00     0.186 HD
HETATM   10  C9  UNL     1      39.406   4.911 -52.204  1.00  0.00     0.159 A 
HETATM   11  C10 UNL     1      38.319   4.861 -53.008  1.00  0.00     0.086 C 
HETATM   12  C12 UNL     1      37.030   5.416 -52.598  1.00  0.00     0.039 C 
HETATM   13  N8  UNL     1      40.465   4.979 -51.417  1.00  0.00    -0.164 N 
HETATM   14  C16 UNL     1      41.633   4.286 -50.694  1.00  0.00     0.182 C 
HETATM   15  C17 UNL     1      41.821   4.813 -49.343  1.00  0.00     0.204 C 
HETATM   16  C18 UNL     1      40.811   4.570 -48.278  1.00  0.00     0.067 C 
HETATM   17  C19 UNL     1      40.038   5.812 -47.840  1.00  0.00     0.190 C 
HETATM   18  C20 UNL     1      38.715   5.987 -48.411  1.00  0.00     0.075 C 
ENDROOT
BRANCH   1  19
HETATM   19  C3  UNL     1      35.549   7.239 -51.856  1.00  0.00     0.180 C 
BRANCH  19  20
HETATM   20  N1  UNL     1      35.806   8.414 -52.515  1.00  0.00    -0.214 N 
BRANCH  20  21
HETATM   21  C2  UNL     1      34.472   8.644 -53.435  1.00  0.00     0.137 C 
HETATM   22  C1  UNL     1      33.705   9.573 -52.542  1.00  0.00     0.027 C 
ENDBRANCH  20  21
BRANCH  20  23
HETATM   23  C21 UNL     1      36.599   9.512 -52.774  1.00  0.00     0.682 A 
HETATM   24  N11 UNL     1      36.976  10.395 -51.765  1.00  0.00    -0.186 N 
HETATM   25  C22 UNL     1      37.567  11.466 -52.296  1.00  0.00     0.121 A 
ATOM     26  H11 UNL     1      36.823  10.245 -50.769  1.00  0.00     0.184 HD
HETATM   27  C23 UNL     1      38.060  12.636 -51.783  1.00  0.00     0.076 A 
HETATM   28  C30 UNL     1      37.571  11.274 -53.682  1.00  0.00     0.150 A 
HETATM   29  C27 UNL     1      38.563  13.616 -52.670  1.00  0.00     0.073 A 
HETATM   30  C29 UNL     1      38.546  13.382 -54.003  1.00  0.00     0.108 A 
HETATM   31  N14 UNL     1      38.048  12.209 -54.514  1.00  0.00    -0.349 N 
ATOM     32  H14 UNL     1      38.040  12.051 -55.522  1.00  0.00     0.167 HD
HETATM   33  N15 UNL     1      36.981  10.083 -53.910  1.00  0.00    -0.174 N 
ATOM     34  H15 UNL     1      36.846   9.674 -54.834  1.00  0.00     0.186 HD
BRANCH  27  35
HETATM   35  N12 UNL     1      37.957  13.005 -50.588  1.00  0.00    -0.383 N 
ATOM     36  H12 UNL     1      37.285  13.761 -50.461  1.00  0.00     0.160 HD
BRANCH  35  37
HETATM   37  C24 UNL     1      38.564  12.606 -49.389  1.00  0.00     0.082 A 
HETATM   38  C25 UNL     1      38.996  13.778 -48.495  1.00  0.00     0.027 A 
HETATM   39  C26 UNL     1      39.994  12.821 -49.041  1.00  0.00     0.027 A 
ENDBRANCH  35  37
ENDBRANCH  27  35
BRANCH  29  40
HETATM   40  C28 UNL     1      39.143  14.787 -52.092  1.00  0.00     0.268 C 
HETATM   41  N13 UNL     1      38.340  15.904 -51.759  1.00  0.00    -0.057 NA
HETATM   42  O1  UNL     1      40.378  14.921 -51.828  1.00  0.00    -0.271 OA
ENDBRANCH  29  40
ENDBRANCH  20  23
ENDBRANCH  19  20
ENDBRANCH   1  19
BRANCH  12  43
HETATM   43  C13 UNL     1      35.861   4.918 -53.360  1.00  0.00     0.117 A 
HETATM   44  N6  UNL     1      35.196   3.774 -52.986  1.00  0.00    -0.350 N 
HETATM   45  C14 UNL     1      34.285   3.440 -53.867  1.00  0.00     0.106 A 
ATOM     46  H6  UNL     1      35.388   3.252 -52.131  1.00  0.00     0.166 HD
HETATM   47  C15 UNL     1      34.338   4.403 -54.864  1.00  0.00     0.106 A 
HETATM   48  N7  UNL     1      35.318   5.284 -54.501  1.00  0.00    -0.350 N 
ATOM     49  H7  UNL     1      35.589   6.107 -55.039  1.00  0.00     0.166 HD
ENDBRANCH  12  43
BRANCH  11  50
HETATM   50  C11 UNL     1      38.300   4.211 -54.326  1.00  0.00    -0.032 C 
BRANCH  50  51
HETATM   51  N5  UNL     1      38.317   3.681 -55.413  1.00  0.00    -0.365 N 
ATOM     52  H52 UNL     1      39.067   3.638 -54.722  1.00  0.00     0.165 HD
ATOM     53  H51 UNL     1      38.306   3.244 -56.334  1.00  0.00     0.165 HD
ENDBRANCH  50  51
ENDBRANCH  11  50
BRANCH   4  54
HETATM   54  N2  UNL     1      39.709   9.126 -49.536  1.00  0.00    -0.385 N 
ATOM     55  H22 UNL     1      38.881   9.677 -49.760  1.00  0.00     0.157 HD
ATOM     56  H21 UNL     1      40.481   9.664 -49.141  1.00  0.00     0.157 HD
ENDBRANCH   4  54
BRANCH  17  57
HETATM   57  N10 UNL     1      40.023   5.912 -46.388  1.00  0.00    -0.075 N 
ATOM     58 3H10 UNL     1      39.366   5.255 -45.969  1.00  0.00     0.274 HD
ATOM     59 2H10 UNL     1      40.882   5.551 -45.973  1.00  0.00     0.274 HD
ATOM     60 1H10 UNL     1      39.835   6.872 -46.101  1.00  0.00     0.274 HD
ENDBRANCH  17  57
BRANCH  15  61
HETATM   61  N9  UNL     1      43.166   4.233 -48.962  1.00  0.00    -0.073 N 
ATOM     62  H93 UNL     1      43.821   4.118 -49.734  1.00  0.00     0.274 HD
ATOM     63  H92 UNL     1      43.766   4.855 -48.419  1.00  0.00     0.274 HD
ATOM     64  H91 UNL     1      42.899   3.370 -48.489  1.00  0.00     0.274 HD
ENDBRANCH  15  61
TORSDOF 13
ENDMDL
MODEL 4
REMARK VINA RESULT: -5.958966123      4.611      7.980
REMARK  13 active torsions:
REMARK  status: ('A' for Active; 'I' for Inactive)
REMARK    1  A    between atoms: C2_2  and  N1_3 
REMARK    2  A    between atoms: N1_3  and  C3_4 
REMARK    3  A    between atoms: N1_3  and  C21_45 
REMARK    4  A    between atoms: C3_4  and  C4_5 
REMARK    5  A    between atoms: C7_8  and  N2_9 
REMARK    6  A    between atoms: C10_18  and  C11_19 
REMARK    7  A    between atoms: C11_19  and  N5_20 
REMARK    8  A    between atoms: C12_23  and  C13_24 
REMARK    9  A    between atoms: C17_33  and  N9_34 
REMARK   10  A    between atoms: C19_39  and  N10_40 
REMARK   11  A    between atoms: C23_49  and  N12_50 
REMARK   12  A    between atoms: N12_50  and  C24_52 
REMARK   13  A    between atoms: C27_55  and  C28_56 
ROOT
HETATM    1  C4  UNL     1      43.429   6.217 -50.071  1.00  0.00    -0.024 C 
HETATM    2  C5  UNL     1      42.638   6.748 -49.089  1.00  0.00     0.021 C 
HETATM    3  C6  UNL     1      41.355   6.636 -48.496  1.00  0.00    -0.011 C 
HETATM    4  C7  UNL     1      40.749   5.575 -47.876  1.00  0.00     0.121 C 
HETATM    5  N3  UNL     1      39.835   4.865 -48.685  1.00  0.00    -0.176 N 
ATOM      6  H3  UNL     1      39.070   4.283 -48.345  1.00  0.00     0.186 HD
HETATM    7  C8  UNL     1      40.143   5.085 -50.002  1.00  0.00     0.689 A 
HETATM    8  N4  UNL     1      41.329   4.942 -50.381  1.00  0.00    -0.174 N 
ATOM      9  H4  UNL     1      42.195   4.609 -49.955  1.00  0.00     0.186 HD
HETATM   10  C9  UNL     1      40.964   5.425 -51.615  1.00  0.00     0.159 A 
HETATM   11  C10 UNL     1      42.212   5.323 -52.125  1.00  0.00     0.086 C 
HETATM   12  C12 UNL     1      43.375   5.885 -51.439  1.00  0.00     0.039 C 
HETATM   13  N8  UNL     1      39.750   5.518 -51.101  1.00  0.00    -0.164 N 
HETATM   14  C16 UNL     1      38.271   5.916 -51.244  1.00  0.00     0.182 C 
HETATM   15  C17 UNL     1      37.764   6.557 -50.031  1.00  0.00     0.204 C 
HETATM   16  C18 UNL     1      38.247   7.901 -49.615  1.00  0.00     0.067 C 
HETATM   17  C19 UNL     1      39.105   7.906 -48.352  1.00  0.00     0.190 C 
HETATM   18  C20 UNL     1      40.543   7.958 -48.544  1.00  0.00     0.075 C 
ENDROOT
BRANCH   1  19
HETATM   19  C3  UNL     1      44.912   6.113 -49.529  1.00  0.00     0.180 C 
BRANCH  19  20
HETATM   20  N1  UNL     1      45.415   7.306 -49.075  1.00  0.00    -0.214 N 
BRANCH  20  21
HETATM   21  C2  UNL     1      46.683   7.597 -50.069  1.00  0.00     0.137 C 
HETATM   22  C1  UNL     1      47.470   6.339 -49.849  1.00  0.00     0.027 C 
ENDBRANCH  20  21
BRANCH  20  23
HETATM   23  C21 UNL     1      45.380   8.396 -48.231  1.00  0.00     0.682 A 
HETATM   24  N11 UNL     1      44.307   9.284 -48.230  1.00  0.00    -0.186 N 
HETATM   25  C22 UNL     1      44.597  10.346 -47.478  1.00  0.00     0.121 A 
ATOM     26  H11 UNL     1      43.430   9.143 -48.729  1.00  0.00     0.184 HD
HETATM   27  C23 UNL     1      43.948  11.517 -47.188  1.00  0.00     0.076 A 
HETATM   28  C30 UNL     1      45.890  10.143 -46.981  1.00  0.00     0.150 A 
HETATM   29  C27 UNL     1      44.602  12.486 -46.393  1.00  0.00     0.073 A 
HETATM   30  C29 UNL     1      45.853  12.242 -45.935  1.00  0.00     0.108 A 
HETATM   31  N14 UNL     1      46.502  11.068 -46.230  1.00  0.00    -0.349 N 
ATOM     32  H14 UNL     1      47.446  10.902 -45.879  1.00  0.00     0.167 HD
HETATM   33  N15 UNL     1      46.307   8.955 -47.463  1.00  0.00    -0.174 N 
ATOM     34  H15 UNL     1      47.217   8.539 -47.264  1.00  0.00     0.186 HD
BRANCH  27  35
HETATM   35  N12 UNL     1      42.870  11.896 -47.707  1.00  0.00    -0.383 N 
ATOM     36  H12 UNL     1      42.134  12.060 -47.020  1.00  0.00     0.160 HD
BRANCH  35  37
HETATM   37  C24 UNL     1      42.455  12.145 -49.022  1.00  0.00     0.082 A 
HETATM   38  C25 UNL     1      41.104  12.868 -49.118  1.00  0.00     0.027 A 
HETATM   39  C26 UNL     1      41.287  11.506 -49.686  1.00  0.00     0.027 A 
ENDBRANCH  35  37
ENDBRANCH  27  35
BRANCH  29  40
HETATM   40  C28 UNL     1      43.862  13.657 -46.045  1.00  0.00     0.268 C 
HETATM   41  N13 UNL     1      43.885  14.802 -46.877  1.00  0.00    -0.057 NA
HETATM   42  O1  UNL     1      43.138  13.768 -45.007  1.00  0.00    -0.271 OA
ENDBRANCH  29  40
ENDBRANCH  20  23
ENDBRANCH  19  20
ENDBRANCH   1  19
BRANCH  12  43
HETATM   43  C13 UNL     1      44.571   6.082 -52.290  1.00  0.00     0.117 A 
HETATM   44  N6  UNL     1      44.762   7.244 -53.001  1.00  0.00    -0.350 N 
HETATM   45  C14 UNL     1      45.807   7.157 -53.789  1.00  0.00     0.106 A 
ATOM     46  H6  UNL     1      44.166   8.068 -52.926  1.00  0.00     0.166 HD
HETATM   47  C15 UNL     1      46.339   5.892 -53.589  1.00  0.00     0.106 A 
HETATM   48  N7  UNL     1      45.545   5.278 -52.661  1.00  0.00    -0.350 N 
ATOM     49  H7  UNL     1      45.688   4.333 -52.306  1.00  0.00     0.166 HD
ENDBRANCH  12  43
BRANCH  11  50
HETATM   50  C11 UNL     1      42.524   4.697 -53.418  1.00  0.00    -0.032 C 
BRANCH  50  51
HETATM   51  N5  UNL     1      42.752   4.195 -54.494  1.00  0.00    -0.365 N 
ATOM     52  H52 UNL     1      43.440   4.655 -53.898  1.00  0.00     0.165 HD
ATOM     53  H51 UNL     1      42.918   3.765 -55.404  1.00  0.00     0.165 HD
ENDBRANCH  50  51
ENDBRANCH  11  50
BRANCH   4  54
HETATM   54  N2  UNL     1      40.817   5.063 -46.633  1.00  0.00    -0.385 N 
ATOM     55  H22 UNL     1      41.340   5.670 -46.001  1.00  0.00     0.157 HD
ATOM     56  H21 UNL     1      40.475   4.203 -46.206  1.00  0.00     0.157 HD
ENDBRANCH   4  54
BRANCH  17  57
HETATM   57  N10 UNL     1      38.640   8.932 -47.430  1.00  0.00    -0.075 N 
ATOM     58 3H10 UNL     1      37.645   9.120 -47.541  1.00  0.00     0.274 HD
ATOM     59 2H10 UNL     1      38.625   8.599 -46.466  1.00  0.00     0.274 HD
ATOM     60 1H10 UNL     1      39.201   9.778 -47.532  1.00  0.00     0.274 HD
ENDBRANCH  17  57
BRANCH  15  61
HETATM   61  N9  UNL     1      36.271   6.567 -50.278  1.00  0.00    -0.073 N 
ATOM     62  H93 UNL     1      35.944   7.295 -50.913  1.00  0.00     0.274 HD
ATOM     63  H92 UNL     1      35.921   5.789 -50.837  1.00  0.00     0.274 HD
ATOM     64  H91 UNL     1      35.899   6.621 -49.330  1.00  0.00     0.274 HD
ENDBRANCH  15  61
TORSDOF 13
ENDMDL
MODEL 5
REMARK VINA RESULT: -5.950102007      4.134      6.794
REMARK  13 active torsions:
REMARK  status: ('A' for Active; 'I' for Inactive)
REMARK    1  A    between atoms: C2_2  and  N1_3 
REMARK    2  A    between atoms: N1_3  and  C3_4 
REMARK    3  A    between atoms: N1_3  and  C21_45 
REMARK    4  A    between atoms: C3_4  and  C4_5 
REMARK    5  A    between atoms: C7_8  and  N2_9 
REMARK    6  A    between atoms: C10_18  and  C11_19 
REMARK    7  A    between atoms: C11_19  and  N5_20 
REMARK    8  A    between atoms: C12_23  and  C13_24 
REMARK    9  A    between atoms: C17_33  and  N9_34 
REMARK   10  A    between atoms: C19_39  and  N10_40 
REMARK   11  A    between atoms: C23_49  and  N12_50 
REMARK   12  A    between atoms: N12_50  and  C24_52 
REMARK   13  A    between atoms: C27_55  and  C28_56 
ROOT
HETATM    1  C4  UNL     1      38.861  10.434 -50.176  1.00  0.00    -0.024 C 
HETATM    2  C5  UNL     1      39.152   9.893 -48.953  1.00  0.00     0.021 C 
HETATM    3  C6  UNL     1      39.910   8.871 -48.329  1.00  0.00    -0.011 C 
HETATM    4  C7  UNL     1      41.261   8.638 -48.323  1.00  0.00     0.121 C 
HETATM    5  N3  UNL     1      41.690   7.646 -49.231  1.00  0.00    -0.176 N 
ATOM      6  H3  UNL     1      42.554   7.110 -49.158  1.00  0.00     0.186 HD
HETATM    7  C8  UNL     1      40.756   7.520 -50.226  1.00  0.00     0.689 A 
HETATM    8  N4  UNL     1      40.342   8.551 -50.805  1.00  0.00    -0.174 N 
ATOM      9  H4  UNL     1      40.581   9.543 -50.786  1.00  0.00     0.186 HD
HETATM   10  C9  UNL     1      39.428   7.774 -51.477  1.00  0.00     0.159 A 
HETATM   11  C10 UNL     1      38.897   8.820 -52.149  1.00  0.00     0.086 C 
HETATM   12  C12 UNL     1      38.455  10.034 -51.464  1.00  0.00     0.039 C 
HETATM   13  N8  UNL     1      39.960   6.763 -50.812  1.00  0.00    -0.164 N 
HETATM   14  C16 UNL     1      39.987   5.264 -50.467  1.00  0.00     0.182 C 
HETATM   15  C17 UNL     1      40.224   5.042 -49.040  1.00  0.00     0.204 C 
HETATM   16  C18 UNL     1      39.202   5.418 -48.026  1.00  0.00     0.067 C 
HETATM   17  C19 UNL     1      39.593   6.596 -47.136  1.00  0.00     0.190 C 
HETATM   18  C20 UNL     1      39.042   7.891 -47.495  1.00  0.00     0.075 C 
ENDROOT
BRANCH   1  19
HETATM   19  C3  UNL     1      38.797  12.009 -50.033  1.00  0.00     0.180 C 
BRANCH  19  20
HETATM   20  N1  UNL     1      40.026  12.595 -49.870  1.00  0.00    -0.214 N 
BRANCH  20  21
HETATM   21  C2  UNL     1      40.103  13.682 -51.091  1.00  0.00     0.137 C 
HETATM   22  C1  UNL     1      38.770  14.350 -50.920  1.00  0.00     0.027 C 
ENDBRANCH  20  21
BRANCH  20  23
HETATM   23  C21 UNL     1      41.212  12.757 -49.187  1.00  0.00     0.682 A 
HETATM   24  N11 UNL     1      42.393  12.161 -49.621  1.00  0.00    -0.186 N 
HETATM   25  C22 UNL     1      43.342  12.303 -48.696  1.00  0.00     0.121 A 
ATOM     26  H11 UNL     1      42.514  11.685 -50.515  1.00  0.00     0.184 HD
HETATM   27  C23 UNL     1      44.636  11.868 -48.581  1.00  0.00     0.076 A 
HETATM   28  C30 UNL     1      42.764  13.008 -47.635  1.00  0.00     0.150 A 
HETATM   29  C27 UNL     1      45.350  12.145 -47.392  1.00  0.00     0.073 A 
HETATM   30  C29 UNL     1      44.745  12.832 -46.394  1.00  0.00     0.108 A 
HETATM   31  N14 UNL     1      43.447  13.264 -46.512  1.00  0.00    -0.349 N 
ATOM     32  H14 UNL     1      43.006  13.778 -45.748  1.00  0.00     0.167 HD
HETATM   33  N15 UNL     1      41.486  13.257 -47.987  1.00  0.00    -0.174 N 
ATOM     34  H15 UNL     1      40.816  13.764 -47.408  1.00  0.00     0.186 HD
BRANCH  27  35
HETATM   35  N12 UNL     1      45.212  11.085 -49.375  1.00  0.00    -0.383 N 
ATOM     36  H12 UNL     1      46.020  11.506 -49.832  1.00  0.00     0.160 HD
BRANCH  35  37
HETATM   37  C24 UNL     1      44.988   9.759 -49.770  1.00  0.00     0.082 A 
HETATM   38  C25 UNL     1      45.787   9.342 -51.014  1.00  0.00     0.027 A 
HETATM   39  C26 UNL     1      44.300   9.345 -51.022  1.00  0.00     0.027 A 
ENDBRANCH  35  37
ENDBRANCH  27  35
BRANCH  29  40
HETATM   40  C28 UNL     1      46.720  11.746 -47.342  1.00  0.00     0.268 C 
HETATM   41  N13 UNL     1      47.740  12.595 -47.836  1.00  0.00    -0.057 NA
HETATM   42  O1  UNL     1      47.131  10.644 -46.862  1.00  0.00    -0.271 OA
ENDBRANCH  29  40
ENDBRANCH  20  23
ENDBRANCH  19  20
ENDBRANCH   1  19
BRANCH  12  43
HETATM   43  C13 UNL     1      37.522  10.887 -52.237  1.00  0.00     0.117 A 
HETATM   44  N6  UNL     1      36.159  10.754 -52.112  1.00  0.00    -0.350 N 
HETATM   45  C14 UNL     1      35.524  11.506 -52.979  1.00  0.00     0.106 A 
ATOM     46  H6  UNL     1      35.701  10.148 -51.432  1.00  0.00     0.166 HD
HETATM   47  C15 UNL     1      36.499  12.171 -53.704  1.00  0.00     0.106 A 
HETATM   48  N7  UNL     1      37.703  11.757 -53.207  1.00  0.00    -0.350 N 
ATOM     49  H7  UNL     1      38.613  12.077 -53.541  1.00  0.00     0.166 HD
ENDBRANCH  12  43
BRANCH  11  50
HETATM   50  C11 UNL     1      38.663   8.832 -53.601  1.00  0.00    -0.032 C 
BRANCH  50  51
HETATM   51  N5  UNL     1      38.478   8.810 -54.795  1.00  0.00    -0.365 N 
ATOM     52  H52 UNL     1      39.322   8.489 -54.322  1.00  0.00     0.165 HD
ATOM     53  H51 UNL     1      38.296   8.802 -55.799  1.00  0.00     0.165 HD
ENDBRANCH  50  51
ENDBRANCH  11  50
BRANCH   4  54
HETATM   54  N2  UNL     1      42.287   9.142 -47.612  1.00  0.00    -0.385 N 
ATOM     55  H22 UNL     1      42.338   8.734 -46.678  1.00  0.00     0.157 HD
ATOM     56  H21 UNL     1      42.998   9.846 -47.805  1.00  0.00     0.157 HD
ENDBRANCH   4  54
BRANCH  17  57
HETATM   57  N10 UNL     1      39.357   6.271 -45.737  1.00  0.00    -0.075 N 
ATOM     58 3H10 UNL     1      39.079   5.298 -45.614  1.00  0.00     0.274 HD
ATOM     59 2H10 UNL     1      40.224   6.249 -45.200  1.00  0.00     0.274 HD
ATOM     60 1H10 UNL     1      38.676   6.915 -45.335  1.00  0.00     0.274 HD
ENDBRANCH  17  57
BRANCH  15  61
HETATM   61  N9  UNL     1      40.516   3.559 -48.995  1.00  0.00    -0.073 N 
ATOM     62  H93 UNL     1      40.062   3.052 -48.236  1.00  0.00     0.274 HD
ATOM     63  H92 UNL     1      40.091   3.012 -49.744  1.00  0.00     0.274 HD
ATOM     64  H91 UNL     1      41.536   3.543 -48.975  1.00  0.00     0.274 HD
ENDBRANCH  15  61
TORSDOF 13
ENDMDL
