MODEL 1
REMARK VINA RESULT: -5.234073102      0.000      0.000
REMARK  1 active torsions:
REMARK  status: ('A' for Active; 'I' for Inactive)
REMARK    1  A    between atoms: C1_2  and  C2_4 
ROOT
HETATM    1  C2  UNL     1      24.972  18.122  -8.308  1.00  0.00     0.067 A 
HETATM    2  C3  UNL     1      24.201  18.692  -7.315  1.00  0.00     0.032 A 
HETATM    3  C4  UNL     1      23.062  18.054  -6.831  1.00  0.00     0.004 A 
HETATM    4  C5  UNL     1      22.673  16.829  -7.337  1.00  0.00     0.017 A 
HETATM    5  C6  UNL     1      23.475  16.297  -8.328  1.00  0.00     0.088 A 
HETATM    6  N2  UNL     1      24.581  16.929  -8.788  1.00  0.00    -0.364 N 
ATOM      7  H2  UNL     1      25.133  16.487  -9.522  1.00  0.00     0.165 HD
ENDROOT
BRANCH   1   8
HETATM    8  C1  UNL     1      26.163  18.823  -8.790  1.00  0.00     0.139 C 
HETATM    9  N1  UNL     1      26.363  19.017 -10.172  1.00  0.00    -0.087 NA
HETATM   10  S1  UNL     1      27.226  19.358  -7.661  1.00  0.00    -0.061 SA
ENDBRANCH   1   8
TORSDOF 1
ENDMDL
MODEL 2
REMARK VINA RESULT: -5.194850700      1.875      1.959
REMARK  1 active torsions:
REMARK  status: ('A' for Active; 'I' for Inactive)
REMARK    1  A    between atoms: C1_2  and  C2_4 
ROOT
HETATM    1  C2  UNL     1      25.253  19.051  -7.790  1.00  0.00     0.067 A 
HETATM    2  C3  UNL     1      24.012  18.872  -7.213  1.00  0.00     0.032 A 
HETATM    3  C4  UNL     1      23.357  17.644  -7.276  1.00  0.00     0.004 A 
HETATM    4  C5  UNL     1      23.938  16.569  -7.921  1.00  0.00     0.017 A 
HETATM    5  C6  UNL     1      25.180  16.794  -8.482  1.00  0.00     0.088 A 
HETATM    6  N2  UNL     1      25.804  17.994  -8.413  1.00  0.00    -0.364 N 
ATOM      7  H2  UNL     1      26.720  18.100  -8.848  1.00  0.00     0.165 HD
ENDROOT
BRANCH   1   8
HETATM    8  C1  UNL     1      25.909  20.356  -7.704  1.00  0.00     0.139 C 
HETATM    9  N1  UNL     1      25.586  21.246  -6.659  1.00  0.00    -0.087 NA
HETATM   10  S1  UNL     1      27.015  20.716  -8.861  1.00  0.00    -0.061 SA
ENDBRANCH   1   8
TORSDOF 1
ENDMDL
MODEL 3
REMARK VINA RESULT: -5.170400519      1.270      1.270
REMARK  1 active torsions:
REMARK  status: ('A' for Active; 'I' for Inactive)
REMARK    1  A    between atoms: C1_2  and  C2_4 
ROOT
HETATM    1  C2  UNL     1      25.078  18.103  -8.134  1.00  0.00     0.067 A 
HETATM    2  C3  UNL     1      24.202  18.650  -7.218  1.00  0.00     0.032 A 
HETATM    3  C4  UNL     1      23.027  17.991  -6.862  1.00  0.00     0.004 A 
HETATM    4  C5  UNL     1      22.709  16.768  -7.419  1.00  0.00     0.017 A 
HETATM    5  C6  UNL     1      23.616  16.259  -8.329  1.00  0.00     0.088 A 
HETATM    6  N2  UNL     1      24.753  16.912  -8.667  1.00  0.00    -0.364 N 
ATOM      7  H2  UNL     1      25.384  16.487  -9.346  1.00  0.00     0.165 HD
ENDROOT
BRANCH   1   8
HETATM    8  C1  UNL     1      26.302  18.826  -8.484  1.00  0.00     0.139 C 
HETATM    9  N1  UNL     1      27.263  19.116  -7.494  1.00  0.00    -0.087 NA
HETATM   10  S1  UNL     1      26.488  19.267 -10.053  1.00  0.00    -0.061 SA
ENDBRANCH   1   8
TORSDOF 1
ENDMDL
MODEL 4
REMARK VINA RESULT: -5.023096532      2.081      2.161
REMARK  1 active torsions:
REMARK  status: ('A' for Active; 'I' for Inactive)
REMARK    1  A    between atoms: C1_2  and  C2_4 
ROOT
HETATM    1  C2  UNL     1      25.697  18.639  -7.236  1.00  0.00     0.067 A 
HETATM    2  C3  UNL     1      24.336  18.727  -7.025  1.00  0.00     0.032 A 
HETATM    3  C4  UNL     1      23.470  17.738  -7.485  1.00  0.00     0.004 A 
HETATM    4  C5  UNL     1      23.954  16.640  -8.169  1.00  0.00     0.017 A 
HETATM    5  C6  UNL     1      25.322  16.595  -8.356  1.00  0.00     0.088 A 
HETATM    6  N2  UNL     1      26.152  17.564  -7.902  1.00  0.00    -0.364 N 
ATOM      7  H2  UNL     1      27.154  17.476  -8.072  1.00  0.00     0.165 HD
ENDROOT
BRANCH   1   8
HETATM    8  C1  UNL     1      26.575  19.699  -6.737  1.00  0.00     0.139 C 
HETATM    9  N1  UNL     1      27.709  19.376  -5.963  1.00  0.00    -0.087 NA
HETATM   10  S1  UNL     1      26.177  21.243  -7.120  1.00  0.00    -0.061 SA
ENDBRANCH   1   8
TORSDOF 1
ENDMDL
MODEL 5
REMARK VINA RESULT: -5.022908270      1.835      1.850
REMARK  1 active torsions:
REMARK  status: ('A' for Active; 'I' for Inactive)
REMARK    1  A    between atoms: C1_2  and  C2_4 
ROOT
HETATM    1  C2  UNL     1      25.919  18.406  -7.558  1.00  0.00     0.067 A 
HETATM    2  C3  UNL     1      24.703  18.892  -7.122  1.00  0.00     0.032 A 
HETATM    3  C4  UNL     1      23.533  18.152  -7.279  1.00  0.00     0.004 A 
HETATM    4  C5  UNL     1      23.562  16.908  -7.879  1.00  0.00     0.017 A 
HETATM    5  C6  UNL     1      24.801  16.463  -8.299  1.00  0.00     0.088 A 
HETATM    6  N2  UNL     1      25.930  17.194  -8.139  1.00  0.00    -0.364 N 
ATOM      7  H2  UNL     1      26.816  16.812  -8.470  1.00  0.00     0.165 HD
ENDROOT
BRANCH   1   8
HETATM    8  C1  UNL     1      27.127  19.212  -7.375  1.00  0.00     0.139 C 
HETATM    9  N1  UNL     1      27.694  19.361  -6.093  1.00  0.00    -0.087 NA
HETATM   10  S1  UNL     1      27.767  19.915  -8.711  1.00  0.00    -0.061 SA
ENDBRANCH   1   8
TORSDOF 1
ENDMDL
