MODEL 1
REMARK VINA RESULT: -4.038181582      0.000      0.000
REMARK  1 active torsions:
REMARK  status: ('A' for Active; 'I' for Inactive)
REMARK    1  A    between atoms: C2_3  and  N2_4 
ROOT
HETATM    1  N1  UNL     1      22.239  17.848  -6.536  1.00  0.00    -0.193 NA
HETATM    2  C1  UNL     1      23.336  17.936  -6.949  1.00  0.00     0.115 C 
HETATM    3  C2  UNL     1      24.700  18.021  -7.448  1.00  0.00     0.280 A 
HETATM    4  C3  UNL     1      24.775  19.041  -8.531  1.00  0.00     0.045 A 
HETATM    5  C4  UNL     1      25.137  18.244  -9.531  1.00  0.00     0.049 A 
HETATM    6  S1  UNL     1      25.178  16.722  -8.593  1.00  0.00    -0.084 SA
ENDROOT
BRANCH   3   7
HETATM    7  N2  UNL     1      25.676  18.257  -6.399  1.00  0.00    -0.044 N 
ATOM      8  H23 UNL     1      25.605  17.547  -5.670  1.00  0.00     0.277 HD
ATOM      9  H22 UNL     1      26.621  18.062  -6.730  1.00  0.00     0.277 HD
ATOM     10  H21 UNL     1      25.616  19.195  -6.001  1.00  0.00     0.277 HD
ENDBRANCH   3   7
TORSDOF 1
ENDMDL
MODEL 2
REMARK VINA RESULT: -3.920873397      2.004      2.351
REMARK  1 active torsions:
REMARK  status: ('A' for Active; 'I' for Inactive)
REMARK    1  A    between atoms: C2_3  and  N2_4 
ROOT
HETATM    1  N1  UNL     1      22.144  17.816  -6.492  1.00  0.00    -0.193 NA
HETATM    2  C1  UNL     1      23.168  18.127  -6.976  1.00  0.00     0.115 C 
HETATM    3  C2  UNL     1      24.424  18.530  -7.592  1.00  0.00     0.280 A 
HETATM    4  C3  UNL     1      25.565  18.053  -6.763  1.00  0.00     0.045 A 
HETATM    5  C4  UNL     1      26.083  19.232  -6.437  1.00  0.00     0.049 A 
HETATM    6  S1  UNL     1      24.896  20.241  -7.316  1.00  0.00    -0.084 SA
ENDROOT
BRANCH   3   7
HETATM    7  N2  UNL     1      24.536  18.114  -8.979  1.00  0.00    -0.044 N 
ATOM      8  H23 UNL     1      23.642  17.768  -9.328  1.00  0.00     0.277 HD
ATOM      9  H22 UNL     1      24.653  18.920  -9.592  1.00  0.00     0.277 HD
ATOM     10  H21 UNL     1      25.277  17.430  -9.132  1.00  0.00     0.277 HD
ENDBRANCH   3   7
TORSDOF 1
ENDMDL
MODEL 3
REMARK VINA RESULT: -3.811680364      1.969      2.099
REMARK  1 active torsions:
REMARK  status: ('A' for Active; 'I' for Inactive)
REMARK    1  A    between atoms: C2_3  and  N2_4 
ROOT
HETATM    1  N1  UNL     1      22.245  16.646  -7.877  1.00  0.00    -0.193 NA
HETATM    2  C1  UNL     1      23.364  16.828  -8.186  1.00  0.00     0.115 C 
HETATM    3  C2  UNL     1      24.743  17.050  -8.594  1.00  0.00     0.280 A 
HETATM    4  C3  UNL     1      25.473  17.778  -7.520  1.00  0.00     0.045 A 
HETATM    5  C4  UNL     1      25.767  18.885  -8.194  1.00  0.00     0.049 A 
HETATM    6  S1  UNL     1      24.994  18.413  -9.736  1.00  0.00    -0.084 SA
ENDROOT
BRANCH   3   7
HETATM    7  N2  UNL     1      25.421  15.828  -8.992  1.00  0.00    -0.044 N 
ATOM      8  H23 UNL     1      26.231  15.652  -8.397  1.00  0.00     0.277 HD
ATOM      9  H22 UNL     1      24.861  15.008  -8.758  1.00  0.00     0.277 HD
ATOM     10  H21 UNL     1      25.684  15.820  -9.977  1.00  0.00     0.277 HD
ENDBRANCH   3   7
TORSDOF 1
ENDMDL
MODEL 4
REMARK VINA RESULT: -3.733469172      2.537      3.186
REMARK  1 active torsions:
REMARK  status: ('A' for Active; 'I' for Inactive)
REMARK    1  A    between atoms: C2_3  and  N2_4 
ROOT
HETATM    1  N1  UNL     1      25.894  15.061  -9.222  1.00  0.00    -0.193 NA
HETATM    2  C1  UNL     1      25.379  16.099  -9.026  1.00  0.00     0.115 C 
HETATM    3  C2  UNL     1      24.720  17.375  -8.794  1.00  0.00     0.280 A 
HETATM    4  C3  UNL     1      25.493  18.166  -7.797  1.00  0.00     0.045 A 
HETATM    5  C4  UNL     1      24.572  18.241  -6.843  1.00  0.00     0.049 A 
HETATM    6  S1  UNL     1      23.301  17.314  -7.694  1.00  0.00    -0.084 SA
ENDROOT
BRANCH   3   7
HETATM    7  N2  UNL     1      24.473  18.118 -10.017  1.00  0.00    -0.044 N 
ATOM      8  H23 UNL     1      25.158  17.877 -10.734  1.00  0.00     0.277 HD
ATOM      9  H22 UNL     1      23.626  17.789 -10.479  1.00  0.00     0.277 HD
ATOM     10  H21 UNL     1      24.439  19.127  -9.872  1.00  0.00     0.277 HD
ENDBRANCH   3   7
TORSDOF 1
ENDMDL
MODEL 5
REMARK VINA RESULT: -3.701650791      2.289      3.138
REMARK  1 active torsions:
REMARK  status: ('A' for Active; 'I' for Inactive)
REMARK    1  A    between atoms: C2_3  and  N2_4 
ROOT
HETATM    1  N1  UNL     1      25.445  19.050 -10.578  1.00  0.00    -0.193 NA
HETATM    2  C1  UNL     1      25.198  18.338  -9.676  1.00  0.00     0.115 C 
HETATM    3  C2  UNL     1      24.917  17.457  -8.553  1.00  0.00     0.280 A 
HETATM    4  C3  UNL     1      23.447  17.385  -8.327  1.00  0.00     0.045 A 
HETATM    5  C4  UNL     1      23.407  17.906  -7.105  1.00  0.00     0.049 A 
HETATM    6  S1  UNL     1      25.165  18.185  -6.930  1.00  0.00    -0.084 SA
ENDROOT
BRANCH   3   7
HETATM    7  N2  UNL     1      25.519  16.143  -8.697  1.00  0.00    -0.044 N 
ATOM      8  H23 UNL     1      24.995  15.574  -9.362  1.00  0.00     0.277 HD
ATOM      9  H22 UNL     1      26.408  16.201  -9.192  1.00  0.00     0.277 HD
ATOM     10  H21 UNL     1      25.629  15.655  -7.808  1.00  0.00     0.277 HD
ENDBRANCH   3   7
TORSDOF 1
ENDMDL
