MODEL 1
REMARK VINA RESULT: -4.887577951      0.000      0.000
REMARK  1 active torsions:
REMARK  status: ('A' for Active; 'I' for Inactive)
REMARK    1  A    between atoms: C3_3  and  N1_4 
REMARK       I    between atoms: C4_6  and  N3_8 
ROOT
HETATM    1  C1  UNL     1      22.765  17.821  -6.934  1.00  0.00     0.113 C 
HETATM    2  C2  UNL     1      23.979  18.577  -7.274  1.00  0.00    -0.088 C 
HETATM    3  C3  UNL     1      24.963  19.215  -7.558  1.00  0.00     0.012 C 
ENDROOT
BRANCH   3   4
HETATM    4  N1  UNL     1      26.088  19.973  -7.888  1.00  0.00    -0.289 N 
HETATM    5  C4  UNL     1      26.266  21.123  -7.341  1.00  0.00     0.209 C 
HETATM    6  N2  UNL     1      25.296  21.582  -6.410  1.00  0.00    -0.062 NA
HETATM    7  N3  UNL     1      27.414  21.922  -7.662  1.00  0.00    -0.267 N 
HETATM    8  C5  UNL     1      28.670  21.345  -7.449  1.00  0.00     0.184 C 
ATOM      9  H3  UNL     1      27.319  22.869  -8.030  1.00  0.00     0.180 HD
HETATM   10  N4  UNL     1      29.698  20.862  -7.256  1.00  0.00    -0.172 NA
ATOM     11  H1  UNL     1      26.766  19.616  -8.560  1.00  0.00     0.179 HD
ENDBRANCH   3   4
TORSDOF 1
ENDMDL
MODEL 2
REMARK VINA RESULT: -4.747955148      1.772      1.772
REMARK  1 active torsions:
REMARK  status: ('A' for Active; 'I' for Inactive)
REMARK    1  A    between atoms: C3_3  and  N1_4 
REMARK       I    between atoms: C4_6  and  N3_8 
ROOT
HETATM    1  C1  UNL     1      23.216  17.538  -7.650  1.00  0.00     0.113 C 
HETATM    2  C2  UNL     1      24.401  18.313  -7.258  1.00  0.00    -0.088 C 
HETATM    3  C3  UNL     1      25.385  18.930  -6.928  1.00  0.00     0.012 C 
ENDROOT
BRANCH   3   4
HETATM    4  N1  UNL     1      26.534  19.624  -6.546  1.00  0.00    -0.289 N 
HETATM    5  C4  UNL     1      26.464  20.882  -6.286  1.00  0.00     0.209 C 
HETATM    6  N2  UNL     1      25.202  21.523  -6.402  1.00  0.00    -0.062 NA
HETATM    7  N3  UNL     1      27.630  21.619  -5.891  1.00  0.00    -0.267 N 
HETATM    8  C5  UNL     1      28.314  21.166  -4.758  1.00  0.00     0.184 C 
ATOM      9  H3  UNL     1      27.946  22.437  -6.412  1.00  0.00     0.180 HD
HETATM   10  N4  UNL     1      28.860  20.790  -3.816  1.00  0.00    -0.172 NA
ATOM     11  H1  UNL     1      27.426  19.136  -6.472  1.00  0.00     0.179 HD
ENDBRANCH   3   4
TORSDOF 1
ENDMDL
MODEL 3
REMARK VINA RESULT: -4.718479837      1.341      1.468
REMARK  1 active torsions:
REMARK  status: ('A' for Active; 'I' for Inactive)
REMARK    1  A    between atoms: C3_3  and  N1_4 
REMARK       I    between atoms: C4_6  and  N3_8 
ROOT
HETATM    1  C1  UNL     1      22.857  17.916  -6.946  1.00  0.00     0.113 C 
HETATM    2  C2  UNL     1      24.069  18.682  -7.268  1.00  0.00    -0.088 C 
HETATM    3  C3  UNL     1      25.056  19.328  -7.521  1.00  0.00     0.012 C 
ENDROOT
BRANCH   3   4
HETATM    4  N1  UNL     1      26.192  20.090  -7.798  1.00  0.00    -0.289 N 
HETATM    5  C4  UNL     1      27.174  20.096  -6.968  1.00  0.00     0.209 C 
HETATM    6  N2  UNL     1      27.062  19.316  -5.787  1.00  0.00    -0.062 NA
HETATM    7  N3  UNL     1      28.354  20.871  -7.228  1.00  0.00    -0.267 N 
HETATM    8  C5  UNL     1      29.035  20.612  -8.422  1.00  0.00     0.184 C 
ATOM      9  H3  UNL     1      28.682  21.580  -6.571  1.00  0.00     0.180 HD
HETATM   10  N4  UNL     1      29.593  20.379  -9.402  1.00  0.00    -0.172 NA
ATOM     11  H1  UNL     1      26.243  20.641  -8.655  1.00  0.00     0.179 HD
ENDBRANCH   3   4
TORSDOF 1
ENDMDL
MODEL 4
REMARK VINA RESULT: -4.677222892      3.367      5.581
REMARK  1 active torsions:
REMARK  status: ('A' for Active; 'I' for Inactive)
REMARK    1  A    between atoms: C3_3  and  N1_4 
REMARK       I    between atoms: C4_6  and  N3_8 
ROOT
HETATM    1  C1  UNL     1      28.183  20.530 -10.486  1.00  0.00     0.113 C 
HETATM    2  C2  UNL     1      26.956  19.846 -10.054  1.00  0.00    -0.088 C 
HETATM    3  C3  UNL     1      25.940  19.304  -9.693  1.00  0.00     0.012 C 
ENDROOT
BRANCH   3   4
HETATM    4  N1  UNL     1      24.754  18.697  -9.275  1.00  0.00    -0.289 N 
HETATM    5  C4  UNL     1      24.767  17.473  -8.881  1.00  0.00     0.209 C 
HETATM    6  N2  UNL     1      26.006  16.778  -8.887  1.00  0.00    -0.062 NA
HETATM    7  N3  UNL     1      23.562  16.826  -8.446  1.00  0.00    -0.267 N 
HETATM    8  C5  UNL     1      22.866  17.423  -7.391  1.00  0.00     0.184 C 
ATOM      9  H3  UNL     1      23.228  15.969  -8.888  1.00  0.00     0.180 HD
HETATM   10  N4  UNL     1      22.309  17.917  -6.512  1.00  0.00    -0.172 NA
ATOM     11  H1  UNL     1      23.880  19.223  -9.282  1.00  0.00     0.179 HD
ENDBRANCH   3   4
TORSDOF 1
ENDMDL
MODEL 5
REMARK VINA RESULT: -4.552885980      1.109      1.109
REMARK  1 active torsions:
REMARK  status: ('A' for Active; 'I' for Inactive)
REMARK    1  A    between atoms: C3_3  and  N1_4 
REMARK       I    between atoms: C4_6  and  N3_8 
ROOT
HETATM    1  C1  UNL     1      22.820  16.790  -8.049  1.00  0.00     0.113 C 
HETATM    2  C2  UNL     1      23.965  17.690  -8.251  1.00  0.00    -0.088 C 
HETATM    3  C3  UNL     1      24.894  18.438  -8.432  1.00  0.00     0.012 C 
ENDROOT
BRANCH   3   4
HETATM    4  N1  UNL     1      25.954  19.318  -8.654  1.00  0.00    -0.289 N 
HETATM    5  C4  UNL     1      26.103  20.345  -7.895  1.00  0.00     0.209 C 
HETATM    6  N2  UNL     1      25.167  20.545  -6.844  1.00  0.00    -0.062 NA
HETATM    7  N3  UNL     1      27.184  21.266  -8.102  1.00  0.00    -0.267 N 
HETATM    8  C5  UNL     1      28.480  20.740  -8.071  1.00  0.00     0.184 C 
ATOM      9  H3  UNL     1      27.015  22.259  -8.264  1.00  0.00     0.180 HD
HETATM   10  N4  UNL     1      29.542  20.298  -8.029  1.00  0.00    -0.172 NA
ATOM     11  H1  UNL     1      26.610  19.148  -9.417  1.00  0.00     0.179 HD
ENDBRANCH   3   4
TORSDOF 1
ENDMDL
