MODEL 1
REMARK VINA RESULT: -5.695163985      0.000      0.000
REMARK  4 active torsions:
REMARK  status: ('A' for Active; 'I' for Inactive)
REMARK    1  A    between atoms: C2_2  and  C3_3 
REMARK    2  A    between atoms: C3_3  and  N1_4 
REMARK    3  A    between atoms: N1_4  and  C4_7 
REMARK    4  A    between atoms: C4_7  and  C5_8 
ROOT
HETATM    1  C5  UNL     1      57.355 359.569  85.148  1.00  0.00     0.051 A 
HETATM    2  C6  UNL     1      58.568 359.446  85.802  1.00  0.00     0.115 A 
HETATM    3  N2  UNL     1      59.466 360.228  85.226  1.00  0.00    -0.360 N 
ATOM      4  H2  UNL     1      60.441 360.330  85.506  1.00  0.00     0.166 HD
HETATM    5  C7  UNL     1      58.863 360.864  84.203  1.00  0.00     0.180 A 
HETATM    6  N3  UNL     1      57.570 360.456  84.160  1.00  0.00    -0.353 N 
ATOM      7  H3  UNL     1      56.873 360.771  83.487  1.00  0.00     0.166 HD
ENDROOT
BRANCH   1   8
HETATM    8  C4  UNL     1      56.064 358.886  85.452  1.00  0.00     0.290 C 
BRANCH   8   9
HETATM    9  N1  UNL     1      54.939 359.773  85.236  1.00  0.00    -0.067 N 
ATOM     10  H12 UNL     1      55.196 360.636  84.757  1.00  0.00     0.277 HD
ATOM     11  H11 UNL     1      54.595 360.199  86.097  1.00  0.00     0.277 HD
BRANCH   9  12
HETATM   12  C3  UNL     1      53.916 359.008  84.528  1.00  0.00     0.259 C 
BRANCH  12  13
HETATM   13  C2  UNL     1      54.498 357.653  84.232  1.00  0.00    -0.010 C 
HETATM   14  C1  UNL     1      53.801 356.672  83.698  1.00  0.00     0.008 C 
ENDBRANCH  12  13
ENDBRANCH   9  12
ENDBRANCH   8   9
ENDBRANCH   1   8
TORSDOF 4
ENDMDL
MODEL 2
REMARK VINA RESULT: -5.604356950      2.047      4.719
REMARK  4 active torsions:
REMARK  status: ('A' for Active; 'I' for Inactive)
REMARK    1  A    between atoms: C2_2  and  C3_3 
REMARK    2  A    between atoms: C3_3  and  N1_4 
REMARK    3  A    between atoms: N1_4  and  C4_7 
REMARK    4  A    between atoms: C4_7  and  C5_8 
ROOT
HETATM    1  C5  UNL     1      55.609 358.444  84.543  1.00  0.00     0.051 A 
HETATM    2  C6  UNL     1      54.256 358.707  84.420  1.00  0.00     0.115 A 
HETATM    3  N2  UNL     1      53.643 357.655  83.903  1.00  0.00    -0.360 N 
ATOM      4  H2  UNL     1      52.645 357.577  83.706  1.00  0.00     0.166 HD
HETATM    5  C7  UNL     1      54.572 356.704  83.684  1.00  0.00     0.180 A 
HETATM    6  N3  UNL     1      55.774 357.194  84.077  1.00  0.00    -0.353 N 
ATOM      7  H3  UNL     1      56.661 356.694  84.028  1.00  0.00     0.166 HD
ENDROOT
BRANCH   1   8
HETATM    8  C4  UNL     1      56.681 359.332  85.079  1.00  0.00     0.290 C 
BRANCH   8   9
HETATM    9  N1  UNL     1      57.858 358.570  85.444  1.00  0.00    -0.067 N 
ATOM     10  H12 UNL     1      58.730 359.039  85.198  1.00  0.00     0.277 HD
ATOM     11  H11 UNL     1      57.990 357.738  84.868  1.00  0.00     0.277 HD
BRANCH   9  12
HETATM   12  C3  UNL     1      57.751 358.269  86.869  1.00  0.00     0.259 C 
BRANCH  12  13
HETATM   13  C2  UNL     1      57.880 359.571  87.611  1.00  0.00    -0.010 C 
HETATM   14  C1  UNL     1      57.214 359.838  88.715  1.00  0.00     0.008 C 
ENDBRANCH  12  13
ENDBRANCH   9  12
ENDBRANCH   8   9
ENDBRANCH   1   8
TORSDOF 4
ENDMDL
MODEL 3
REMARK VINA RESULT: -5.520366127      2.611      4.774
REMARK  4 active torsions:
REMARK  status: ('A' for Active; 'I' for Inactive)
REMARK    1  A    between atoms: C2_2  and  C3_3 
REMARK    2  A    between atoms: C3_3  and  N1_4 
REMARK    3  A    between atoms: N1_4  and  C4_7 
REMARK    4  A    between atoms: C4_7  and  C5_8 
ROOT
HETATM    1  C5  UNL     1      56.111 358.080  85.158  1.00  0.00     0.051 A 
HETATM    2  C6  UNL     1      54.954 358.770  84.843  1.00  0.00     0.115 A 
HETATM    3  N2  UNL     1      54.253 358.083  83.955  1.00  0.00    -0.360 N 
ATOM      4  H2  UNL     1      53.359 358.361  83.550  1.00  0.00     0.166 HD
HETATM    5  C7  UNL     1      54.931 356.952  83.682  1.00  0.00     0.180 A 
HETATM    6  N3  UNL     1      56.068 356.956  84.421  1.00  0.00    -0.353 N 
ATOM      7  H3  UNL     1      56.777 356.224  84.420  1.00  0.00     0.166 HD
ENDROOT
BRANCH   1   8
HETATM    8  C4  UNL     1      57.191 358.467  86.112  1.00  0.00     0.290 C 
BRANCH   8   9
HETATM    9  N1  UNL     1      56.800 359.612  86.909  1.00  0.00    -0.067 N 
ATOM     10  H12 UNL     1      55.808 359.613  87.147  1.00  0.00     0.277 HD
ATOM     11  H11 UNL     1      56.809 360.487  86.384  1.00  0.00     0.277 HD
BRANCH   9  12
HETATM   12  C3  UNL     1      57.671 359.639  88.081  1.00  0.00     0.259 C 
BRANCH  12  13
HETATM   13  C2  UNL     1      56.827 360.052  89.255  1.00  0.00    -0.010 C 
HETATM   14  C1  UNL     1      56.272 361.241  89.358  1.00  0.00     0.008 C 
ENDBRANCH  12  13
ENDBRANCH   9  12
ENDBRANCH   8   9
ENDBRANCH   1   8
TORSDOF 4
ENDMDL
MODEL 4
REMARK VINA RESULT: -5.499515838      1.528      4.812
REMARK  4 active torsions:
REMARK  status: ('A' for Active; 'I' for Inactive)
REMARK    1  A    between atoms: C2_2  and  C3_3 
REMARK    2  A    between atoms: C3_3  and  N1_4 
REMARK    3  A    between atoms: N1_4  and  C4_7 
REMARK    4  A    between atoms: C4_7  and  C5_8 
ROOT
HETATM    1  C5  UNL     1      55.480 358.472  84.492  1.00  0.00     0.051 A 
HETATM    2  C6  UNL     1      54.111 358.624  84.357  1.00  0.00     0.115 A 
HETATM    3  N2  UNL     1      53.587 357.513  83.864  1.00  0.00    -0.360 N 
ATOM      4  H2  UNL     1      52.600 357.352  83.665  1.00  0.00     0.166 HD
HETATM    5  C7  UNL     1      54.590 356.634  83.673  1.00  0.00     0.180 A 
HETATM    6  N3  UNL     1      55.746 357.227  84.059  1.00  0.00    -0.353 N 
ATOM      7  H3  UNL     1      56.671 356.798  84.027  1.00  0.00     0.166 HD
ENDROOT
BRANCH   1   8
HETATM    8  C4  UNL     1      56.475 359.456  85.010  1.00  0.00     0.290 C 
BRANCH   8   9
HETATM    9  N1  UNL     1      57.231 360.054  83.930  1.00  0.00    -0.067 N 
ATOM     10  H12 UNL     1      56.680 360.700  83.365  1.00  0.00     0.277 HD
ATOM     11  H11 UNL     1      57.459 359.393  83.186  1.00  0.00     0.277 HD
BRANCH   9  12
HETATM   12  C3  UNL     1      58.412 360.676  84.523  1.00  0.00     0.259 C 
BRANCH  12  13
HETATM   13  C2  UNL     1      58.966 359.708  85.532  1.00  0.00    -0.010 C 
HETATM   14  C1  UNL     1      59.526 360.089  86.661  1.00  0.00     0.008 C 
ENDBRANCH  12  13
ENDBRANCH   9  12
ENDBRANCH   8   9
ENDBRANCH   1   8
TORSDOF 4
ENDMDL
MODEL 5
REMARK VINA RESULT: -5.482954959      2.454      4.697
REMARK  4 active torsions:
REMARK  status: ('A' for Active; 'I' for Inactive)
REMARK    1  A    between atoms: C2_2  and  C3_3 
REMARK    2  A    between atoms: C3_3  and  N1_4 
REMARK    3  A    between atoms: N1_4  and  C4_7 
REMARK    4  A    between atoms: C4_7  and  C5_8 
ROOT
HETATM    1  C5  UNL     1      55.977 359.097  85.322  1.00  0.00     0.051 A 
HETATM    2  C6  UNL     1      55.641 357.945  84.633  1.00  0.00     0.115 A 
HETATM    3  N2  UNL     1      54.398 358.037  84.191  1.00  0.00    -0.360 N 
ATOM      4  H2  UNL     1      53.898 357.330  83.652  1.00  0.00     0.166 HD
HETATM    5  C7  UNL     1      53.910 359.232  84.578  1.00  0.00     0.180 A 
HETATM    6  N3  UNL     1      54.882 359.876  85.271  1.00  0.00    -0.353 N 
ATOM      7  H3  UNL     1      54.797 360.802  85.687  1.00  0.00     0.166 HD
ENDROOT
BRANCH   1   8
HETATM    8  C4  UNL     1      57.269 359.437  85.985  1.00  0.00     0.290 C 
BRANCH   8   9
HETATM    9  N1  UNL     1      57.366 358.819  87.292  1.00  0.00    -0.067 N 
ATOM     10  H12 UNL     1      57.918 357.961  87.288  1.00  0.00     0.277 HD
ATOM     11  H11 UNL     1      56.487 358.408  87.606  1.00  0.00     0.277 HD
BRANCH   9  12
HETATM   12  C3  UNL     1      57.886 359.830  88.209  1.00  0.00     0.259 C 
BRANCH  12  13
HETATM   13  C2  UNL     1      56.822 360.084  89.241  1.00  0.00    -0.010 C 
HETATM   14  C1  UNL     1      56.222 361.247  89.384  1.00  0.00     0.008 C 
ENDBRANCH  12  13
ENDBRANCH   9  12
ENDBRANCH   8   9
ENDBRANCH   1   8
TORSDOF 4
ENDMDL
