MODEL 1
REMARK VINA RESULT: -6.296665073      0.000      0.000
REMARK  14 active torsions:
REMARK  status: ('A' for Active; 'I' for Inactive)
REMARK    1  A    between atoms: N1_1  and  C1_5 
REMARK    2  A    between atoms: N2_8  and  C4_9 
REMARK    3  A    between atoms: C4_9  and  S2_11 
REMARK    4  A    between atoms: S2_11  and  S3_12 
REMARK    5  A    between atoms: S3_12  and  C5_13 
REMARK    6  A    between atoms: C5_13  and  N3_15 
REMARK    7  A    between atoms: N3_15  and  C6_17 
REMARK    8  A    between atoms: C7_18  and  O1_19 
REMARK    9  A    between atoms: O1_19  and  C8_20 
REMARK   10  A    between atoms: C8_20  and  C9_22 
REMARK   11  A    between atoms: C9_22  and  C10_23 
REMARK   12  A    between atoms: C9_22  and  N4_26 
REMARK   13  A    between atoms: C16_32  and  O5_33 
REMARK   14  A    between atoms: C17_35  and  O6_36 
ROOT
HETATM    1  C6  UNL     1     -15.089  -1.125  -0.597  1.00  0.00     0.144 C 
HETATM    2  C7  UNL     1     -16.012  -1.124  -1.792  1.00  0.00     0.159 C 
HETATM    3  C15 UNL     1     -16.323  -2.585  -2.089  1.00  0.00     0.069 C 
HETATM    4  C16 UNL     1     -16.348  -3.201  -0.729  1.00  0.00     0.151 C 
HETATM    5  C17 UNL     1     -15.333  -2.433   0.088  1.00  0.00     0.172 C 
ENDROOT
BRANCH   1   6
HETATM    6  N3  UNL     1     -13.714  -1.127  -1.088  1.00  0.00    -0.365 N 
ATOM      7  H3  UNL     1     -13.522  -1.398  -2.053  1.00  0.00     0.161 HD
BRANCH   6   8
HETATM    8  C5  UNL     1     -12.644  -0.756  -0.239  1.00  0.00     0.146 C 
HETATM    9  S4  UNL     1     -11.668  -1.911   0.365  1.00  0.00    -0.052 SA
BRANCH   8  10
HETATM   10  S3  UNL     1     -12.398   0.978   0.148  1.00  0.00    -0.021 SA
BRANCH  10  11
HETATM   11  S2  UNL     1     -10.398   1.349   0.665  1.00  0.00    -0.020 SA
BRANCH  11  12
HETATM   12  C4  UNL     1     -10.163   1.354   2.406  1.00  0.00     0.147 C 
HETATM   13  S1  UNL     1      -8.752   2.093   2.932  1.00  0.00    -0.052 SA
BRANCH  12  14
HETATM   14  N2  UNL     1     -10.992   0.829   3.389  1.00  0.00    -0.366 N 
HETATM   15  C3  UNL     1     -11.940   1.693   4.109  1.00  0.00     0.126 C 
HETATM   16  C2  UNL     1     -13.307   1.150   3.780  1.00  0.00     0.052 C 
HETATM   17  C1  UNL     1     -13.449  -0.230   4.327  1.00  0.00     0.186 C 
HETATM   18  C19 UNL     1     -12.150  -0.821   4.748  1.00  0.00     0.052 C 
HETATM   19  C18 UNL     1     -11.014  -0.554   3.757  1.00  0.00     0.126 C 
BRANCH  17  20
HETATM   20  N1  UNL     1     -14.168  -1.107   3.394  1.00  0.00    -0.075 N 
ATOM     21  H13 UNL     1     -14.903  -0.602   2.899  1.00  0.00     0.274 HD
ATOM     22  H12 UNL     1     -13.586  -1.359   2.595  1.00  0.00     0.274 HD
ATOM     23  H11 UNL     1     -14.534  -1.933   3.866  1.00  0.00     0.274 HD
ENDBRANCH  17  20
ENDBRANCH  12  14
ENDBRANCH  11  12
ENDBRANCH  10  11
ENDBRANCH   8  10
ENDBRANCH   6   8
ENDBRANCH   1   6
BRANCH   2  24
HETATM   24  O1  UNL     1     -17.153  -0.352  -1.604  1.00  0.00    -0.312 OA
BRANCH  24  25
HETATM   25  C8  UNL     1     -17.047   0.904  -1.034  1.00  0.00     0.293 C 
HETATM   26  O2  UNL     1     -16.417   1.787  -1.671  1.00  0.00    -0.262 OA
BRANCH  25  27
HETATM   27  C9  UNL     1     -17.637   1.264   0.281  1.00  0.00     0.285 C 
BRANCH  27  28
HETATM   28  C10 UNL     1     -16.585   1.370   1.296  1.00  0.00     0.207 C 
HETATM   29  O3  UNL     1     -16.572   0.547   2.246  1.00  0.00    -0.646 OA
HETATM   30  O4  UNL     1     -15.591   2.337   1.272  1.00  0.00    -0.646 OA
ENDBRANCH  27  28
BRANCH  27  31
HETATM   31  N4  UNL     1     -18.544   2.340   0.231  1.00  0.00    -0.371 N 
HETATM   32  C11 UNL     1     -18.431   3.357   1.215  1.00  0.00     0.123 C 
HETATM   33  C12 UNL     1     -19.808   4.031   1.282  1.00  0.00     0.025 C 
HETATM   34  C13 UNL     1     -20.728   2.879   0.986  1.00  0.00     0.046 C 
HETATM   35  C14 UNL     1     -19.907   2.039   0.034  1.00  0.00     0.059 C 
ENDBRANCH  27  31
ENDBRANCH  25  27
ENDBRANCH  24  25
ENDBRANCH   2  24
BRANCH   5  36
HETATM   36  O6  UNL     1     -15.847  -2.226   1.378  1.00  0.00    -0.391 OA
ATOM     37  H6  UNL     1     -15.285  -2.628   2.031  1.00  0.00     0.210 HD
ENDBRANCH   5  36
BRANCH   4  38
HETATM   38  O5  UNL     1     -17.624  -3.101  -0.154  1.00  0.00    -0.393 OA
ATOM     39  H5  UNL     1     -18.256  -3.621  -0.637  1.00  0.00     0.210 HD
ENDBRANCH   4  38
TORSDOF 14
ENDMDL
MODEL 2
REMARK VINA RESULT: -6.111135996      2.271      4.139
REMARK  14 active torsions:
REMARK  status: ('A' for Active; 'I' for Inactive)
REMARK    1  A    between atoms: N1_1  and  C1_5 
REMARK    2  A    between atoms: N2_8  and  C4_9 
REMARK    3  A    between atoms: C4_9  and  S2_11 
REMARK    4  A    between atoms: S2_11  and  S3_12 
REMARK    5  A    between atoms: S3_12  and  C5_13 
REMARK    6  A    between atoms: C5_13  and  N3_15 
REMARK    7  A    between atoms: N3_15  and  C6_17 
REMARK    8  A    between atoms: C7_18  and  O1_19 
REMARK    9  A    between atoms: O1_19  and  C8_20 
REMARK   10  A    between atoms: C8_20  and  C9_22 
REMARK   11  A    between atoms: C9_22  and  C10_23 
REMARK   12  A    between atoms: C9_22  and  N4_26 
REMARK   13  A    between atoms: C16_32  and  O5_33 
REMARK   14  A    between atoms: C17_35  and  O6_36 
ROOT
HETATM    1  C6  UNL     1     -15.182   2.177  -2.586  1.00  0.00     0.144 C 
HETATM    2  C7  UNL     1     -15.366   3.576  -2.048  1.00  0.00     0.159 C 
HETATM    3  C15 UNL     1     -15.467   4.488  -3.264  1.00  0.00     0.069 C 
HETATM    4  C16 UNL     1     -16.177   3.632  -4.260  1.00  0.00     0.151 C 
HETATM    5  C17 UNL     1     -15.730   2.216  -3.978  1.00  0.00     0.172 C 
ENDROOT
BRANCH   1   6
HETATM    6  N3  UNL     1     -13.750   1.910  -2.675  1.00  0.00    -0.365 N 
ATOM      7  H3  UNL     1     -13.225   2.241  -3.485  1.00  0.00     0.161 HD
BRANCH   6   8
HETATM    8  C5  UNL     1     -13.083   1.198  -1.651  1.00  0.00     0.146 C 
HETATM    9  S4  UNL     1     -12.449   2.016  -0.394  1.00  0.00    -0.052 SA
BRANCH   8  10
HETATM   10  S3  UNL     1     -12.955  -0.588  -1.771  1.00  0.00    -0.021 SA
BRANCH  10  11
HETATM   11  S2  UNL     1     -14.423  -1.519  -0.595  1.00  0.00    -0.020 SA
BRANCH  11  12
HETATM   12  C4  UNL     1     -13.862  -1.805   1.045  1.00  0.00     0.147 C 
HETATM   13  S1  UNL     1     -14.200  -3.329   1.658  1.00  0.00    -0.052 SA
BRANCH  12  14
HETATM   14  N2  UNL     1     -13.180  -0.936   1.886  1.00  0.00    -0.366 N 
HETATM   15  C3  UNL     1     -13.915   0.014   2.736  1.00  0.00     0.126 C 
HETATM   16  C2  UNL     1     -13.572  -0.367   4.153  1.00  0.00     0.052 C 
HETATM   17  C1  UNL     1     -12.116  -0.158   4.397  1.00  0.00     0.186 C 
HETATM   18  C19 UNL     1     -11.343   0.047   3.141  1.00  0.00     0.052 C 
HETATM   19  C18 UNL     1     -11.755  -0.906   2.016  1.00  0.00     0.126 C 
BRANCH  17  20
HETATM   20  N1  UNL     1     -11.547  -1.237   5.215  1.00  0.00    -0.075 N 
ATOM     21  H13 UNL     1     -11.387  -0.932   6.175  1.00  0.00     0.274 HD
ATOM     22  H12 UNL     1     -12.233  -1.970   5.395  1.00  0.00     0.274 HD
ATOM     23  H11 UNL     1     -10.698  -1.614   4.795  1.00  0.00     0.274 HD
ENDBRANCH  17  20
ENDBRANCH  12  14
ENDBRANCH  11  12
ENDBRANCH  10  11
ENDBRANCH   8  10
ENDBRANCH   6   8
ENDBRANCH   1   6
BRANCH   2  24
HETATM   24  O1  UNL     1     -16.450   3.696  -1.186  1.00  0.00    -0.312 OA
BRANCH  24  25
HETATM   25  C8  UNL     1     -16.772   2.653  -0.337  1.00  0.00     0.293 C 
HETATM   26  O2  UNL     1     -15.938   2.338   0.550  1.00  0.00    -0.262 OA
BRANCH  25  27
HETATM   27  C9  UNL     1     -18.044   1.890  -0.415  1.00  0.00     0.285 C 
BRANCH  27  28
HETATM   28  C10 UNL     1     -17.770   0.452  -0.491  1.00  0.00     0.207 C 
HETATM   29  O3  UNL     1     -17.414  -0.042  -1.590  1.00  0.00    -0.646 OA
HETATM   30  O4  UNL     1     -17.882  -0.407   0.593  1.00  0.00    -0.646 OA
ENDBRANCH  27  28
BRANCH  27  31
HETATM   31  N4  UNL     1     -19.008   2.276   0.538  1.00  0.00    -0.371 N 
HETATM   32  C11 UNL     1     -20.379   2.168   0.185  1.00  0.00     0.123 C 
HETATM   33  C12 UNL     1     -21.125   3.144   1.103  1.00  0.00     0.025 C 
HETATM   34  C13 UNL     1     -20.113   4.243   1.273  1.00  0.00     0.046 C 
HETATM   35  C14 UNL     1     -18.802   3.491   1.222  1.00  0.00     0.059 C 
ENDBRANCH  27  31
ENDBRANCH  25  27
ENDBRANCH  24  25
ENDBRANCH   2  24
BRANCH   5  36
HETATM   36  O6  UNL     1     -16.833   1.356  -4.099  1.00  0.00    -0.391 OA
ATOM     37  H6  UNL     1     -17.134   1.322  -5.000  1.00  0.00     0.210 HD
ENDBRANCH   5  36
BRANCH   4  38
HETATM   38  O5  UNL     1     -17.569   3.749  -4.123  1.00  0.00    -0.393 OA
ATOM     39  H5  UNL     1     -18.017   3.401  -4.884  1.00  0.00     0.210 HD
ENDBRANCH   4  38
TORSDOF 14
ENDMDL
MODEL 3
REMARK VINA RESULT: -6.080346744      2.395      5.342
REMARK  14 active torsions:
REMARK  status: ('A' for Active; 'I' for Inactive)
REMARK    1  A    between atoms: N1_1  and  C1_5 
REMARK    2  A    between atoms: N2_8  and  C4_9 
REMARK    3  A    between atoms: C4_9  and  S2_11 
REMARK    4  A    between atoms: S2_11  and  S3_12 
REMARK    5  A    between atoms: S3_12  and  C5_13 
REMARK    6  A    between atoms: C5_13  and  N3_15 
REMARK    7  A    between atoms: N3_15  and  C6_17 
REMARK    8  A    between atoms: C7_18  and  O1_19 
REMARK    9  A    between atoms: O1_19  and  C8_20 
REMARK   10  A    between atoms: C8_20  and  C9_22 
REMARK   11  A    between atoms: C9_22  and  C10_23 
REMARK   12  A    between atoms: C9_22  and  N4_26 
REMARK   13  A    between atoms: C16_32  and  O5_33 
REMARK   14  A    between atoms: C17_35  and  O6_36 
ROOT
HETATM    1  C6  UNL     1     -16.330   1.382  -0.956  1.00  0.00     0.144 C 
HETATM    2  C7  UNL     1     -16.126   0.069  -0.238  1.00  0.00     0.159 C 
HETATM    3  C15 UNL     1     -16.639   0.277   1.180  1.00  0.00     0.069 C 
HETATM    4  C16 UNL     1     -17.786   1.212   0.983  1.00  0.00     0.151 C 
HETATM    5  C17 UNL     1     -17.407   2.085  -0.191  1.00  0.00     0.172 C 
ENDROOT
BRANCH   1   6
HETATM    6  N3  UNL     1     -15.104   2.165  -0.825  1.00  0.00    -0.365 N 
ATOM      7  H3  UNL     1     -14.240   1.705  -0.539  1.00  0.00     0.161 HD
BRANCH   6   8
HETATM    8  C5  UNL     1     -15.104   3.555  -1.090  1.00  0.00     0.146 C 
HETATM    9  S4  UNL     1     -15.413   4.078  -2.601  1.00  0.00    -0.052 SA
BRANCH   8  10
HETATM   10  S3  UNL     1     -14.759   4.698   0.248  1.00  0.00    -0.021 SA
BRANCH  10  11
HETATM   11  S2  UNL     1     -14.785   3.707   2.098  1.00  0.00    -0.020 SA
BRANCH  11  12
HETATM   12  C4  UNL     1     -13.425   2.608   2.269  1.00  0.00     0.147 C 
HETATM   13  S1  UNL     1     -11.921   3.284   1.958  1.00  0.00    -0.052 SA
BRANCH  12  14
HETATM   14  N2  UNL     1     -13.440   1.267   2.627  1.00  0.00    -0.366 N 
HETATM   15  C3  UNL     1     -12.829   0.252   1.754  1.00  0.00     0.126 C 
HETATM   16  C2  UNL     1     -11.717  -0.360   2.567  1.00  0.00     0.052 C 
HETATM   17  C1  UNL     1     -12.285  -1.066   3.752  1.00  0.00     0.186 C 
HETATM   18  C19 UNL     1     -13.710  -0.720   4.002  1.00  0.00     0.052 C 
HETATM   19  C18 UNL     1     -14.008   0.773   3.845  1.00  0.00     0.126 C 
BRANCH  17  20
HETATM   20  N1  UNL     1     -11.458  -0.859   4.947  1.00  0.00    -0.075 N 
ATOM     21  H13 UNL     1     -11.081   0.088   4.982  1.00  0.00     0.274 HD
ATOM     22  H12 UNL     1     -12.025  -0.833   5.795  1.00  0.00     0.274 HD
ATOM     23  H11 UNL     1     -10.718  -1.558   5.014  1.00  0.00     0.274 HD
ENDBRANCH  17  20
ENDBRANCH  12  14
ENDBRANCH  11  12
ENDBRANCH  10  11
ENDBRANCH   8  10
ENDBRANCH   6   8
ENDBRANCH   1   6
BRANCH   2  24
HETATM   24  O1  UNL     1     -16.726  -1.007  -0.882  1.00  0.00    -0.312 OA
BRANCH  24  25
HETATM   25  C8  UNL     1     -16.860  -2.215  -0.222  1.00  0.00     0.293 C 
HETATM   26  O2  UNL     1     -17.928  -2.425   0.410  1.00  0.00    -0.262 OA
BRANCH  25  27
HETATM   27  C9  UNL     1     -15.817  -3.273  -0.220  1.00  0.00     0.285 C 
BRANCH  27  28
HETATM   28  C10 UNL     1     -16.085  -4.251  -1.278  1.00  0.00     0.207 C 
HETATM   29  O3  UNL     1     -15.617  -5.412  -1.165  1.00  0.00    -0.646 OA
HETATM   30  O4  UNL     1     -16.834  -3.969  -2.411  1.00  0.00    -0.646 OA
ENDBRANCH  27  28
BRANCH  27  31
HETATM   31  N4  UNL     1     -14.497  -2.782  -0.166  1.00  0.00    -0.371 N 
HETATM   32  C11 UNL     1     -13.774  -2.675  -1.383  1.00  0.00     0.123 C 
HETATM   33  C12 UNL     1     -12.290  -2.689  -0.990  1.00  0.00     0.025 C 
HETATM   34  C13 UNL     1     -12.300  -3.591   0.213  1.00  0.00     0.046 C 
HETATM   35  C14 UNL     1     -13.647  -3.299   0.833  1.00  0.00     0.059 C 
ENDBRANCH  27  31
ENDBRANCH  25  27
ENDBRANCH  24  25
ENDBRANCH   2  24
BRANCH   5  36
HETATM   36  O6  UNL     1     -18.539   2.280  -0.999  1.00  0.00    -0.391 OA
ATOM     37  H6  UNL     1     -19.312   1.911  -0.587  1.00  0.00     0.210 HD
ENDBRANCH   5  36
BRANCH   4  38
HETATM   38  O5  UNL     1     -18.969   0.507   0.716  1.00  0.00    -0.393 OA
ATOM     39  H5  UNL     1     -19.137   0.465  -0.219  1.00  0.00     0.210 HD
ENDBRANCH   4  38
TORSDOF 14
ENDMDL
MODEL 4
REMARK VINA RESULT: -6.060498446      1.501      2.167
REMARK  14 active torsions:
REMARK  status: ('A' for Active; 'I' for Inactive)
REMARK    1  A    between atoms: N1_1  and  C1_5 
REMARK    2  A    between atoms: N2_8  and  C4_9 
REMARK    3  A    between atoms: C4_9  and  S2_11 
REMARK    4  A    between atoms: S2_11  and  S3_12 
REMARK    5  A    between atoms: S3_12  and  C5_13 
REMARK    6  A    between atoms: C5_13  and  N3_15 
REMARK    7  A    between atoms: N3_15  and  C6_17 
REMARK    8  A    between atoms: C7_18  and  O1_19 
REMARK    9  A    between atoms: O1_19  and  C8_20 
REMARK   10  A    between atoms: C8_20  and  C9_22 
REMARK   11  A    between atoms: C9_22  and  C10_23 
REMARK   12  A    between atoms: C9_22  and  N4_26 
REMARK   13  A    between atoms: C16_32  and  O5_33 
REMARK   14  A    between atoms: C17_35  and  O6_36 
ROOT
HETATM    1  C6  UNL     1     -14.599  -2.425   0.012  1.00  0.00     0.144 C 
HETATM    2  C7  UNL     1     -15.283  -1.326  -0.765  1.00  0.00     0.159 C 
HETATM    3  C15 UNL     1     -16.432  -1.988  -1.514  1.00  0.00     0.069 C 
HETATM    4  C16 UNL     1     -16.877  -3.051  -0.564  1.00  0.00     0.151 C 
HETATM    5  C17 UNL     1     -15.630  -3.500   0.162  1.00  0.00     0.172 C 
ENDROOT
BRANCH   1   6
HETATM    6  N3  UNL     1     -13.516  -2.954  -0.810  1.00  0.00    -0.365 N 
ATOM      7  H3  UNL     1     -13.733  -3.435  -1.683  1.00  0.00     0.161 HD
BRANCH   6   8
HETATM    8  C5  UNL     1     -12.166  -2.808  -0.408  1.00  0.00     0.146 C 
HETATM    9  S4  UNL     1     -11.169  -4.092  -0.482  1.00  0.00    -0.052 SA
BRANCH   8  10
HETATM   10  S3  UNL     1     -11.599  -1.209   0.174  1.00  0.00    -0.021 SA
BRANCH  10  11
HETATM   11  S2  UNL     1      -9.787  -1.398   1.217  1.00  0.00    -0.020 SA
BRANCH  11  12
HETATM   12  C4  UNL     1      -9.874  -0.676   2.815  1.00  0.00     0.147 C 
HETATM   13  S1  UNL     1      -8.400  -0.489   3.594  1.00  0.00    -0.052 SA
BRANCH  12  14
HETATM   14  N2  UNL     1     -10.999  -0.245   3.506  1.00  0.00    -0.366 N 
HETATM   15  C3  UNL     1     -11.408   1.168   3.464  1.00  0.00     0.126 C 
HETATM   16  C2  UNL     1     -12.772   1.172   2.824  1.00  0.00     0.052 C 
HETATM   17  C1  UNL     1     -13.742   0.446   3.695  1.00  0.00     0.186 C 
HETATM   18  C19 UNL     1     -13.078  -0.349   4.763  1.00  0.00     0.052 C 
HETATM   19  C18 UNL     1     -11.844  -1.110   4.271  1.00  0.00     0.126 C 
BRANCH  17  20
HETATM   20  N1  UNL     1     -14.667  -0.374   2.902  1.00  0.00    -0.075 N 
ATOM     21  H13 UNL     1     -15.628  -0.275   3.228  1.00  0.00     0.274 HD
ATOM     22  H12 UNL     1     -14.782  -0.002   1.959  1.00  0.00     0.274 HD
ATOM     23  H11 UNL     1     -14.377  -1.352   2.885  1.00  0.00     0.274 HD
ENDBRANCH  17  20
ENDBRANCH  12  14
ENDBRANCH  11  12
ENDBRANCH  10  11
ENDBRANCH   8  10
ENDBRANCH   6   8
ENDBRANCH   1   6
BRANCH   2  24
HETATM   24  O1  UNL     1     -15.693  -0.263   0.030  1.00  0.00    -0.312 OA
BRANCH  24  25
HETATM   25  C8  UNL     1     -15.362   1.032  -0.327  1.00  0.00     0.293 C 
HETATM   26  O2  UNL     1     -14.145   1.304  -0.489  1.00  0.00    -0.262 OA
BRANCH  25  27
HETATM   27  C9  UNL     1     -16.362   2.111  -0.530  1.00  0.00     0.285 C 
BRANCH  27  28
HETATM   28  C10 UNL     1     -16.620   2.303  -1.960  1.00  0.00     0.207 C 
HETATM   29  O3  UNL     1     -16.816   3.467  -2.391  1.00  0.00    -0.646 OA
HETATM   30  O4  UNL     1     -16.659   1.264  -2.878  1.00  0.00    -0.646 OA
ENDBRANCH  27  28
BRANCH  27  31
HETATM   31  N4  UNL     1     -17.508   1.997   0.284  1.00  0.00    -0.371 N 
HETATM   32  C11 UNL     1     -18.696   1.487  -0.302  1.00  0.00     0.123 C 
HETATM   33  C12 UNL     1     -19.847   2.000   0.574  1.00  0.00     0.025 C 
HETATM   34  C13 UNL     1     -19.322   3.336   1.021  1.00  0.00     0.046 C 
HETATM   35  C14 UNL     1     -17.833   3.089   1.113  1.00  0.00     0.059 C 
ENDBRANCH  27  31
ENDBRANCH  25  27
ENDBRANCH  24  25
ENDBRANCH   2  24
BRANCH   5  36
HETATM   36  O6  UNL     1     -15.938  -3.703   1.517  1.00  0.00    -0.391 OA
ATOM     37  H6  UNL     1     -16.576  -3.065   1.814  1.00  0.00     0.210 HD
ENDBRANCH   5  36
BRANCH   4  38
HETATM   38  O5  UNL     1     -17.825  -2.551   0.342  1.00  0.00    -0.393 OA
ATOM     39  H5  UNL     1     -18.561  -3.146   0.428  1.00  0.00     0.210 HD
ENDBRANCH   4  38
TORSDOF 14
ENDMDL
MODEL 5
REMARK VINA RESULT: -6.058147150      1.752      2.572
REMARK  14 active torsions:
REMARK  status: ('A' for Active; 'I' for Inactive)
REMARK    1  A    between atoms: N1_1  and  C1_5 
REMARK    2  A    between atoms: N2_8  and  C4_9 
REMARK    3  A    between atoms: C4_9  and  S2_11 
REMARK    4  A    between atoms: S2_11  and  S3_12 
REMARK    5  A    between atoms: S3_12  and  C5_13 
REMARK    6  A    between atoms: C5_13  and  N3_15 
REMARK    7  A    between atoms: N3_15  and  C6_17 
REMARK    8  A    between atoms: C7_18  and  O1_19 
REMARK    9  A    between atoms: O1_19  and  C8_20 
REMARK   10  A    between atoms: C8_20  and  C9_22 
REMARK   11  A    between atoms: C9_22  and  C10_23 
REMARK   12  A    between atoms: C9_22  and  N4_26 
REMARK   13  A    between atoms: C16_32  and  O5_33 
REMARK   14  A    between atoms: C17_35  and  O6_36 
ROOT
HETATM    1  C6  UNL     1     -15.172  -1.569   0.999  1.00  0.00     0.144 C 
HETATM    2  C7  UNL     1     -15.980  -0.575   0.200  1.00  0.00     0.159 C 
HETATM    3  C15 UNL     1     -16.531  -1.339  -0.996  1.00  0.00     0.069 C 
HETATM    4  C16 UNL     1     -16.780  -2.699  -0.432  1.00  0.00     0.151 C 
HETATM    5  C17 UNL     1     -15.710  -2.912   0.614  1.00  0.00     0.172 C 
ENDROOT
BRANCH   1   6
HETATM    6  N3  UNL     1     -13.786  -1.496   0.546  1.00  0.00    -0.365 N 
ATOM      7  H3  UNL     1     -13.579  -1.526  -0.452  1.00  0.00     0.161 HD
BRANCH   6   8
HETATM    8  C5  UNL     1     -12.727  -1.384   1.479  1.00  0.00     0.146 C 
HETATM    9  S4  UNL     1     -11.195  -1.602   0.974  1.00  0.00    -0.052 SA
BRANCH   8  10
HETATM   10  S3  UNL     1     -13.108  -1.008   3.191  1.00  0.00    -0.021 SA
BRANCH  10  11
HETATM   11  S2  UNL     1     -11.365  -1.018   4.360  1.00  0.00    -0.020 SA
BRANCH  11  12
HETATM   12  C4  UNL     1     -10.316   0.338   3.980  1.00  0.00     0.147 C 
HETATM   13  S1  UNL     1      -8.674   0.038   4.152  1.00  0.00    -0.052 SA
BRANCH  12  14
HETATM   14  N2  UNL     1     -10.672   1.612   3.558  1.00  0.00    -0.366 N 
HETATM   15  C3  UNL     1     -10.571   1.987   2.139  1.00  0.00     0.126 C 
HETATM   16  C2  UNL     1     -11.979   2.309   1.707  1.00  0.00     0.052 C 
HETATM   17  C1  UNL     1     -12.477   3.500   2.454  1.00  0.00     0.186 C 
HETATM   18  C19 UNL     1     -11.623   3.849   3.622  1.00  0.00     0.052 C 
HETATM   19  C18 UNL     1     -11.176   2.629   4.431  1.00  0.00     0.126 C 
BRANCH  17  20
HETATM   20  N1  UNL     1     -13.886   3.342   2.839  1.00  0.00    -0.075 N 
ATOM     21  H13 UNL     1     -14.504   3.859   2.214  1.00  0.00     0.274 HD
ATOM     22  H12 UNL     1     -14.222   2.398   2.647  1.00  0.00     0.274 HD
ATOM     23  H11 UNL     1     -14.037   3.602   3.813  1.00  0.00     0.274 HD
ENDBRANCH  17  20
ENDBRANCH  12  14
ENDBRANCH  11  12
ENDBRANCH  10  11
ENDBRANCH   8  10
ENDBRANCH   6   8
ENDBRANCH   1   6
BRANCH   2  24
HETATM   24  O1  UNL     1     -16.968   0.056   0.946  1.00  0.00    -0.312 OA
BRANCH  24  25
HETATM   25  C8  UNL     1     -16.734   1.311   1.478  1.00  0.00     0.293 C 
HETATM   26  O2  UNL     1     -16.208   1.378   2.619  1.00  0.00    -0.262 OA
BRANCH  25  27
HETATM   27  C9  UNL     1     -17.067   2.578   0.777  1.00  0.00     0.285 C 
BRANCH  27  28
HETATM   28  C10 UNL     1     -16.094   2.841  -0.287  1.00  0.00     0.207 C 
HETATM   29  O3  UNL     1     -16.503   3.288  -1.388  1.00  0.00    -0.646 OA
HETATM   30  O4  UNL     1     -14.730   2.624  -0.149  1.00  0.00    -0.646 OA
ENDBRANCH  27  28
BRANCH  27  31
HETATM   31  N4  UNL     1     -18.421   2.691   0.403  1.00  0.00    -0.371 N 
HETATM   32  C11 UNL     1     -19.268   3.509   1.196  1.00  0.00     0.123 C 
HETATM   33  C12 UNL     1     -20.695   3.008   0.939  1.00  0.00     0.025 C 
HETATM   34  C13 UNL     1     -20.470   1.537   0.720  1.00  0.00     0.046 C 
HETATM   35  C14 UNL     1     -19.108   1.508   0.064  1.00  0.00     0.059 C 
ENDBRANCH  27  31
ENDBRANCH  25  27
ENDBRANCH  24  25
ENDBRANCH   2  24
BRANCH   5  36
HETATM   36  O6  UNL     1     -16.280  -3.553   1.726  1.00  0.00    -0.391 OA
ATOM     37  H6  UNL     1     -15.661  -3.587   2.447  1.00  0.00     0.210 HD
ENDBRANCH   5  36
BRANCH   4  38
HETATM   38  O5  UNL     1     -18.058  -2.780   0.142  1.00  0.00    -0.393 OA
ATOM     39  H5  UNL     1     -18.467  -3.615  -0.054  1.00  0.00     0.210 HD
ENDBRANCH   4  38
TORSDOF 14
ENDMDL
