MODEL 1
REMARK VINA RESULT: -8.038908151      0.000      0.000
REMARK  5 active torsions:
REMARK  status: ('A' for Active; 'I' for Inactive)
REMARK    1  A    between atoms: C2_2  and  C3_3 
REMARK    2  A    between atoms: C3_3  and  C5_5 
REMARK    3  A    between atoms: C7_10  and  C8_11 
REMARK    4  A    between atoms: C23_36  and  C24_37 
REMARK    5  A    between atoms: C24_37  and  C25_38 
ROOT
HETATM    1  C5  UNL     1       5.304  -8.965  14.550  1.00  0.00     0.182 C 
HETATM    2  C6  UNL     1       4.280  -9.210  13.511  1.00  0.00     0.241 C 
HETATM    3  O1  UNL     1       4.455  -8.508  12.434  1.00  0.00    -0.271 OA
HETATM    4  N1  UNL     1       3.184 -10.054  13.508  1.00  0.00    -0.345 N 
ATOM      5  H1  UNL     1       2.298  -9.583  13.326  1.00  0.00     0.163 HD
HETATM    6  C7  UNL     1       3.062 -11.467  13.713  1.00  0.00     0.187 C 
HETATM    7  C11 UNL     1       1.640 -11.828  14.087  1.00  0.00     0.283 C 
HETATM    8  O2  UNL     1       1.420 -13.088  13.971  1.00  0.00    -0.263 OA
HETATM    9  O3  UNL     1       0.693 -10.957  14.495  1.00  0.00    -0.300 OA
HETATM   10  C12 UNL     1       0.486 -10.283  15.689  1.00  0.00     0.308 C 
HETATM   11  N2  UNL     1       0.177  -8.871  15.489  1.00  0.00    -0.315 N 
HETATM   12  C13 UNL     1      -0.976  -8.945  14.655  1.00  0.00     0.244 C 
HETATM   13  O4  UNL     1      -1.039 -10.015  13.971  1.00  0.00    -0.271 OA
HETATM   14  C14 UNL     1      -2.165  -8.127  14.331  1.00  0.00     0.172 C 
HETATM   15  C15 UNL     1      -3.368  -9.038  14.204  1.00  0.00     0.042 C 
HETATM   16  N3  UNL     1      -2.466  -7.120  15.290  1.00  0.00    -0.348 N 
ATOM     17  H3  UNL     1      -3.368  -6.683  15.098  1.00  0.00     0.163 HD
HETATM   18  C16 UNL     1      -1.864  -6.564  16.426  1.00  0.00     0.226 C 
HETATM   19  O5  UNL     1      -2.103  -5.306  16.523  1.00  0.00    -0.273 OA
HETATM   20  C17 UNL     1      -1.023  -7.113  17.518  1.00  0.00     0.036 C 
HETATM   21  C18 UNL     1      -1.183  -6.079  18.666  1.00  0.00     0.025 C 
HETATM   22  C19 UNL     1      -1.550  -8.398  18.104  1.00  0.00     0.025 C 
HETATM   23  C20 UNL     1       0.423  -7.100  17.231  1.00  0.00     0.053 C 
HETATM   24  C21 UNL     1       0.963  -7.832  16.069  1.00  0.00     0.182 C 
HETATM   25  C22 UNL     1       1.567  -6.934  15.041  1.00  0.00     0.241 C 
HETATM   26  O6  UNL     1       0.807  -6.485  14.151  1.00  0.00    -0.271 OA
HETATM   27  N4  UNL     1       2.928  -6.545  14.986  1.00  0.00    -0.346 N 
ATOM     28  H4  UNL     1       3.294  -6.320  14.060  1.00  0.00     0.163 HD
HETATM   29  C23 UNL     1       3.843  -6.430  16.064  1.00  0.00     0.177 C 
HETATM   30  C28 UNL     1       4.469  -7.648  16.573  1.00  0.00     0.243 C 
HETATM   31  O7  UNL     1       4.731  -7.603  17.839  1.00  0.00    -0.271 OA
HETATM   32  N5  UNL     1       4.819  -8.836  15.886  1.00  0.00    -0.341 N 
HETATM   33  C29 UNL     1       4.651 -10.058  16.704  1.00  0.00     0.153 C 
ENDROOT
BRANCH   1  34
HETATM   34  C3  UNL     1       6.414  -9.994  14.382  1.00  0.00     0.013 C 
HETATM   35  C4  UNL     1       6.900  -9.803  12.936  1.00  0.00     0.012 C 
BRANCH  34  36
HETATM   36  C2  UNL     1       7.590  -9.734  15.260  1.00  0.00     0.002 C 
HETATM   37  C1  UNL     1       8.792  -9.227  14.466  1.00  0.00     0.005 C 
ENDBRANCH  34  36
ENDBRANCH   1  34
BRANCH   6  38
HETATM   38  C8  UNL     1       3.394 -12.159  12.373  1.00  0.00     0.010 C 
HETATM   39  C9  UNL     1       4.811 -12.610  12.306  1.00  0.00     0.012 C 
HETATM   40  C10 UNL     1       2.990 -11.340  11.194  1.00  0.00     0.012 C 
ENDBRANCH   6  38
BRANCH  29  41
HETATM   41  C24 UNL     1       4.966  -5.436  15.732  1.00  0.00     0.038 C 
BRANCH  41  42
HETATM   42  C25 UNL     1       5.370  -5.754  14.285  1.00  0.00    -0.020 C 
HETATM   43  C26 UNL     1       6.864  -6.032  14.231  1.00  0.00     0.009 C 
HETATM   44  C27 UNL     1       5.076  -4.531  13.451  1.00  0.00     0.009 C 
ENDBRANCH  41  42
ENDBRANCH  29  41
TORSDOF 5
ENDMDL
MODEL 2
REMARK VINA RESULT: -7.846087484      1.782      6.705
REMARK  5 active torsions:
REMARK  status: ('A' for Active; 'I' for Inactive)
REMARK    1  A    between atoms: C2_2  and  C3_3 
REMARK    2  A    between atoms: C3_3  and  C5_5 
REMARK    3  A    between atoms: C7_10  and  C8_11 
REMARK    4  A    between atoms: C23_36  and  C24_37 
REMARK    5  A    between atoms: C24_37  and  C25_38 
ROOT
HETATM    1  C5  UNL     1      -0.152  -8.931  15.587  1.00  0.00     0.182 C 
HETATM    2  C6  UNL     1       0.865  -9.999  15.490  1.00  0.00     0.241 C 
HETATM    3  O1  UNL     1       0.830 -10.841  16.477  1.00  0.00    -0.271 OA
HETATM    4  N1  UNL     1       1.834 -10.237  14.531  1.00  0.00    -0.345 N 
ATOM      5  H1  UNL     1       2.783 -10.285  14.903  1.00  0.00     0.163 HD
HETATM    6  C7  UNL     1       1.752 -10.429  13.114  1.00  0.00     0.187 C 
HETATM    7  C11 UNL     1       3.096 -10.172  12.465  1.00  0.00     0.283 C 
HETATM    8  O2  UNL     1       3.144 -10.631  11.267  1.00  0.00    -0.263 OA
HETATM    9  O3  UNL     1       4.138  -9.542  13.047  1.00  0.00    -0.300 OA
HETATM   10  C12 UNL     1       4.392  -8.209  13.333  1.00  0.00     0.308 C 
HETATM   11  N2  UNL     1       4.900  -8.014  14.687  1.00  0.00    -0.315 N 
HETATM   12  C13 UNL     1       6.062  -8.838  14.680  1.00  0.00     0.244 C 
HETATM   13  O4  UNL     1       6.002  -9.791  13.839  1.00  0.00    -0.271 OA
HETATM   14  C14 UNL     1       7.364  -8.928  15.376  1.00  0.00     0.172 C 
HETATM   15  C15 UNL     1       8.434  -9.303  14.372  1.00  0.00     0.042 C 
HETATM   16  N3  UNL     1       7.765  -7.729  16.030  1.00  0.00    -0.348 N 
ATOM     17  H3  UNL     1       8.725  -7.795  16.369  1.00  0.00     0.163 HD
HETATM   18  C16 UNL     1       7.203  -6.483  16.335  1.00  0.00     0.226 C 
HETATM   19  O5  UNL     1       7.609  -6.044  17.471  1.00  0.00    -0.273 OA
HETATM   20  C17 UNL     1       6.255  -5.582  15.635  1.00  0.00     0.036 C 
HETATM   21  C18 UNL     1       6.513  -4.194  16.282  1.00  0.00     0.025 C 
HETATM   22  C19 UNL     1       6.577  -5.373  14.178  1.00  0.00     0.025 C 
HETATM   23  C20 UNL     1       4.836  -5.851  15.932  1.00  0.00     0.053 C 
HETATM   24  C21 UNL     1       4.244  -7.168  15.629  1.00  0.00     0.182 C 
HETATM   25  C22 UNL     1       3.808  -7.908  16.851  1.00  0.00     0.241 C 
HETATM   26  O6  UNL     1       4.656  -8.642  17.412  1.00  0.00    -0.271 OA
HETATM   27  N4  UNL     1       2.517  -7.851  17.431  1.00  0.00    -0.346 N 
ATOM     28  H4  UNL     1       2.220  -8.679  17.949  1.00  0.00     0.163 HD
HETATM   29  C23 UNL     1       1.587  -6.781  17.376  1.00  0.00     0.177 C 
HETATM   30  C28 UNL     1       0.780  -6.626  16.169  1.00  0.00     0.243 C 
HETATM   31  O7  UNL     1       0.480  -5.395  15.903  1.00  0.00    -0.271 OA
HETATM   32  N5  UNL     1       0.295  -7.612  15.276  1.00  0.00    -0.341 N 
HETATM   33  C29 UNL     1       0.263  -7.162  13.866  1.00  0.00     0.153 C 
ENDROOT
BRANCH   1  34
HETATM   34  C3  UNL     1      -1.387  -9.373  14.811  1.00  0.00     0.013 C 
HETATM   35  C4  UNL     1      -1.941 -10.561  15.617  1.00  0.00     0.012 C 
BRANCH  34  36
HETATM   36  C2  UNL     1      -2.462  -8.341  14.788  1.00  0.00     0.002 C 
HETATM   37  C1  UNL     1      -3.569  -8.696  13.797  1.00  0.00     0.005 C 
ENDBRANCH  34  36
ENDBRANCH   1  34
BRANCH   6  38
HETATM   38  C8  UNL     1       1.378 -11.908  12.868  1.00  0.00     0.010 C 
HETATM   39  C9  UNL     1      -0.092 -12.104  12.738  1.00  0.00     0.012 C 
HETATM   40  C10 UNL     1       1.998 -12.824  13.867  1.00  0.00     0.012 C 
ENDBRANCH   6  38
BRANCH  29  41
HETATM   41  C24 UNL     1       0.625  -6.824  18.574  1.00  0.00     0.038 C 
BRANCH  41  42
HETATM   42  C25 UNL     1       0.764  -5.451  19.250  1.00  0.00    -0.020 C 
HETATM   43  C26 UNL     1       2.225  -5.204  19.589  1.00  0.00     0.009 C 
HETATM   44  C27 UNL     1      -0.030  -5.494  20.532  1.00  0.00     0.009 C 
ENDBRANCH  41  42
ENDBRANCH  29  41
TORSDOF 5
ENDMDL
MODEL 3
REMARK VINA RESULT: -7.808036319      2.344      6.596
REMARK  5 active torsions:
REMARK  status: ('A' for Active; 'I' for Inactive)
REMARK    1  A    between atoms: C2_2  and  C3_3 
REMARK    2  A    between atoms: C3_3  and  C5_5 
REMARK    3  A    between atoms: C7_10  and  C8_11 
REMARK    4  A    between atoms: C23_36  and  C24_37 
REMARK    5  A    between atoms: C24_37  and  C25_38 
ROOT
HETATM    1  C5  UNL     1       4.370  -6.517  16.621  1.00  0.00     0.182 C 
HETATM    2  C6  UNL     1       5.322  -6.451  15.492  1.00  0.00     0.241 C 
HETATM    3  O1  UNL     1       5.272  -5.333  14.835  1.00  0.00    -0.271 OA
HETATM    4  N1  UNL     1       6.241  -7.378  15.032  1.00  0.00    -0.345 N 
ATOM      5  H1  UNL     1       6.123  -7.627  14.050  1.00  0.00     0.163 HD
HETATM    6  C7  UNL     1       7.327  -8.053  15.679  1.00  0.00     0.187 C 
HETATM    7  C11 UNL     1       7.712  -9.298  14.908  1.00  0.00     0.283 C 
HETATM    8  O2  UNL     1       8.859  -9.748  15.270  1.00  0.00    -0.263 OA
HETATM    9  O3  UNL     1       6.966  -9.888  13.952  1.00  0.00    -0.300 OA
HETATM   10  C12 UNL     1       5.822 -10.672  13.999  1.00  0.00     0.308 C 
HETATM   11  N2  UNL     1       4.821 -10.260  13.021  1.00  0.00    -0.315 N 
HETATM   12  C13 UNL     1       5.549 -10.367  11.801  1.00  0.00     0.244 C 
HETATM   13  O4  UNL     1       6.806 -10.245  11.949  1.00  0.00    -0.271 OA
HETATM   14  C14 UNL     1       5.279 -10.584  10.363  1.00  0.00     0.172 C 
HETATM   15  C15 UNL     1       6.339 -11.506   9.798  1.00  0.00     0.042 C 
HETATM   16  N3  UNL     1       4.002 -11.146  10.082  1.00  0.00    -0.348 N 
ATOM     17  H3  UNL     1       3.921 -11.408   9.099  1.00  0.00     0.163 HD
HETATM   18  C16 UNL     1       2.826 -11.437  10.785  1.00  0.00     0.226 C 
HETATM   19  O5  UNL     1       1.782 -11.250  10.062  1.00  0.00    -0.273 OA
HETATM   20  C17 UNL     1       2.539 -11.906  12.162  1.00  0.00     0.036 C 
HETATM   21  C18 UNL     1       1.113 -12.512  12.061  1.00  0.00     0.025 C 
HETATM   22  C19 UNL     1       3.400 -13.062  12.603  1.00  0.00     0.025 C 
HETATM   23  C20 UNL     1       2.392 -10.821  13.150  1.00  0.00     0.053 C 
HETATM   24  C21 UNL     1       3.500  -9.880  13.402  1.00  0.00     0.182 C 
HETATM   25  C22 UNL     1       3.176  -8.477  13.007  1.00  0.00     0.241 C 
HETATM   26  O6  UNL     1       3.423  -8.139  11.826  1.00  0.00    -0.271 OA
HETATM   27  N4  UNL     1       2.612  -7.492  13.856  1.00  0.00    -0.346 N 
ATOM     28  H4  UNL     1       2.839  -6.523  13.634  1.00  0.00     0.163 HD
HETATM   29  C23 UNL     1       1.769  -7.695  14.979  1.00  0.00     0.177 C 
HETATM   30  C28 UNL     1       2.385  -8.079  16.247  1.00  0.00     0.243 C 
HETATM   31  O7  UNL     1       1.631  -8.834  16.979  1.00  0.00    -0.271 OA
HETATM   32  N5  UNL     1       3.659  -7.745  16.768  1.00  0.00    -0.341 N 
HETATM   33  C29 UNL     1       4.274  -8.836  17.557  1.00  0.00     0.153 C 
ENDROOT
BRANCH   1  34
HETATM   34  C3  UNL     1       5.089  -6.055  17.883  1.00  0.00     0.013 C 
HETATM   35  C4  UNL     1       5.959  -4.874  17.418  1.00  0.00     0.012 C 
BRANCH  34  36
HETATM   36  C2  UNL     1       4.164  -5.516  18.918  1.00  0.00     0.002 C 
HETATM   37  C1  UNL     1       4.713  -4.247  19.567  1.00  0.00     0.005 C 
ENDBRANCH  34  36
ENDBRANCH   1  34
BRANCH   6  38
HETATM   38  C8  UNL     1       8.537  -7.093  15.673  1.00  0.00     0.010 C 
HETATM   39  C9  UNL     1       9.057  -6.832  17.043  1.00  0.00     0.012 C 
HETATM   40  C10 UNL     1       8.267  -5.843  14.908  1.00  0.00     0.012 C 
ENDBRANCH   6  38
BRANCH  29  41
HETATM   41  C24 UNL     1       0.896  -6.458  15.244  1.00  0.00     0.038 C 
BRANCH  41  42
HETATM   42  C25 UNL     1      -0.418  -7.010  15.816  1.00  0.00    -0.020 C 
HETATM   43  C26 UNL     1      -1.309  -7.471  14.674  1.00  0.00     0.009 C 
HETATM   44  C27 UNL     1      -1.108  -5.879  16.541  1.00  0.00     0.009 C 
ENDBRANCH  41  42
ENDBRANCH  29  41
TORSDOF 5
ENDMDL
MODEL 4
REMARK VINA RESULT: -7.569173859      1.900      5.970
REMARK  5 active torsions:
REMARK  status: ('A' for Active; 'I' for Inactive)
REMARK    1  A    between atoms: C2_2  and  C3_3 
REMARK    2  A    between atoms: C3_3  and  C5_5 
REMARK    3  A    between atoms: C7_10  and  C8_11 
REMARK    4  A    between atoms: C23_36  and  C24_37 
REMARK    5  A    between atoms: C24_37  and  C25_38 
ROOT
HETATM    1  C5  UNL     1       4.816  -6.476  16.890  1.00  0.00     0.182 C 
HETATM    2  C6  UNL     1       3.582  -7.016  17.500  1.00  0.00     0.241 C 
HETATM    3  O1  UNL     1       3.774  -7.575  18.656  1.00  0.00    -0.271 OA
HETATM    4  N1  UNL     1       2.277  -7.023  17.039  1.00  0.00    -0.345 N 
ATOM      5  H1  UNL     1       1.862  -7.953  16.982  1.00  0.00     0.163 HD
HETATM    6  C7  UNL     1       1.401  -5.967  16.628  1.00  0.00     0.187 C 
HETATM    7  C11 UNL     1       0.280  -6.511  15.769  1.00  0.00     0.283 C 
HETATM    8  O2  UNL     1      -0.681  -5.668  15.646  1.00  0.00    -0.263 OA
HETATM    9  O3  UNL     1       0.259  -7.730  15.190  1.00  0.00    -0.300 OA
HETATM   10  C12 UNL     1       0.916  -8.260  14.089  1.00  0.00     0.308 C 
HETATM   11  N2  UNL     1       1.481  -9.578  14.356  1.00  0.00    -0.315 N 
HETATM   12  C13 UNL     1       0.326 -10.312  14.753  1.00  0.00     0.244 C 
HETATM   13  O4  UNL     1      -0.596  -9.581  15.238  1.00  0.00    -0.271 OA
HETATM   14  C14 UNL     1      -0.147 -11.714  14.774  1.00  0.00     0.172 C 
HETATM   15  C15 UNL     1      -1.610 -11.746  14.386  1.00  0.00     0.042 C 
HETATM   16  N3  UNL     1       0.566 -12.587  13.906  1.00  0.00    -0.348 N 
ATOM     17  H3  UNL     1       0.115 -13.501  13.848  1.00  0.00     0.163 HD
HETATM   18  C16 UNL     1       1.716 -12.537  13.108  1.00  0.00     0.226 C 
HETATM   19  O5  UNL     1       2.338 -13.660  13.099  1.00  0.00    -0.273 OA
HETATM   20  C17 UNL     1       2.355 -11.479  12.288  1.00  0.00     0.036 C 
HETATM   21  C18 UNL     1       3.248 -12.267  11.292  1.00  0.00     0.025 C 
HETATM   22  C19 UNL     1       1.391 -10.730  11.404  1.00  0.00     0.025 C 
HETATM   23  C20 UNL     1       3.311 -10.637  13.029  1.00  0.00     0.053 C 
HETATM   24  C21 UNL     1       2.871  -9.854  14.200  1.00  0.00     0.182 C 
HETATM   25  C22 UNL     1       3.509 -10.299  15.474  1.00  0.00     0.241 C 
HETATM   26  O6  UNL     1       2.936 -11.209  16.118  1.00  0.00    -0.271 OA
HETATM   27  N4  UNL     1       4.710  -9.780  16.018  1.00  0.00    -0.346 N 
ATOM     28  H4  UNL     1       4.803  -9.830  17.033  1.00  0.00     0.163 HD
HETATM   29  C23 UNL     1       5.800  -9.199  15.320  1.00  0.00     0.177 C 
HETATM   30  C28 UNL     1       5.684  -7.807  14.892  1.00  0.00     0.243 C 
HETATM   31  O7  UNL     1       6.322  -7.549  13.796  1.00  0.00    -0.271 OA
HETATM   32  N5  UNL     1       4.989  -6.733  15.498  1.00  0.00    -0.341 N 
HETATM   33  C29 UNL     1       4.399  -5.789  14.521  1.00  0.00     0.153 C 
ENDROOT
BRANCH   1  34
HETATM   34  C3  UNL     1       4.938  -5.008  17.278  1.00  0.00     0.013 C 
HETATM   35  C4  UNL     1       4.658  -4.984  18.790  1.00  0.00     0.012 C 
BRANCH  34  36
HETATM   36  C2  UNL     1       6.316  -4.469  17.096  1.00  0.00     0.002 C 
HETATM   37  C1  UNL     1       7.279  -4.999  18.156  1.00  0.00     0.005 C 
ENDBRANCH  34  36
ENDBRANCH   1  34
BRANCH   6  38
HETATM   38  C8  UNL     1       0.775  -5.361  17.903  1.00  0.00     0.010 C 
HETATM   39  C9  UNL     1       1.388  -4.054  18.267  1.00  0.00     0.012 C 
HETATM   40  C10 UNL     1       0.754  -6.326  19.039  1.00  0.00     0.012 C 
ENDBRANCH   6  38
BRANCH  29  41
HETATM   41  C24 UNL     1       7.103  -9.330  16.122  1.00  0.00     0.038 C 
BRANCH  41  42
HETATM   42  C25 UNL     1       8.018 -10.215  15.262  1.00  0.00    -0.020 C 
HETATM   43  C26 UNL     1       8.952  -9.332  14.450  1.00  0.00     0.009 C 
HETATM   44  C27 UNL     1       7.137 -10.989  14.312  1.00  0.00     0.009 C 
ENDBRANCH  41  42
ENDBRANCH  29  41
TORSDOF 5
ENDMDL
MODEL 5
REMARK VINA RESULT: -7.436345147      3.062      7.726
REMARK  5 active torsions:
REMARK  status: ('A' for Active; 'I' for Inactive)
REMARK    1  A    between atoms: C2_2  and  C3_3 
REMARK    2  A    between atoms: C3_3  and  C5_5 
REMARK    3  A    between atoms: C7_10  and  C8_11 
REMARK    4  A    between atoms: C23_36  and  C24_37 
REMARK    5  A    between atoms: C24_37  and  C25_38 
ROOT
HETATM    1  C5  UNL     1       3.236  -9.401  14.824  1.00  0.00     0.182 C 
HETATM    2  C6  UNL     1       2.804 -10.780  14.514  1.00  0.00     0.241 C 
HETATM    3  O1  UNL     1       2.843 -11.579  15.536  1.00  0.00    -0.271 OA
HETATM    4  N1  UNL     1       2.375 -11.345  13.326  1.00  0.00    -0.345 N 
ATOM      5  H1  UNL     1       2.917 -12.159  13.034  1.00  0.00     0.163 HD
HETATM    6  C7  UNL     1       1.313 -10.999  12.430  1.00  0.00     0.187 C 
HETATM    7  C11 UNL     1       1.554 -11.604  11.062  1.00  0.00     0.283 C 
HETATM    8  O2  UNL     1       0.494 -11.584  10.338  1.00  0.00    -0.263 OA
HETATM    9  O3  UNL     1       2.725 -12.112  10.628  1.00  0.00    -0.300 OA
HETATM   10  C12 UNL     1       3.911 -11.524  10.211  1.00  0.00     0.308 C 
HETATM   11  N2  UNL     1       5.086 -12.153  10.804  1.00  0.00    -0.315 N 
HETATM   12  C13 UNL     1       4.930 -13.506  10.384  1.00  0.00     0.244 C 
HETATM   13  O4  UNL     1       3.722 -13.829  10.153  1.00  0.00    -0.271 OA
HETATM   14  C14 UNL     1       5.775 -14.693  10.126  1.00  0.00     0.172 C 
HETATM   15  C15 UNL     1       5.259 -15.404   8.892  1.00  0.00     0.042 C 
HETATM   16  N3  UNL     1       7.154 -14.402   9.930  1.00  0.00    -0.348 N 
ATOM     17  H3  UNL     1       7.666 -15.227   9.615  1.00  0.00     0.163 HD
HETATM   18  C16 UNL     1       8.002 -13.294  10.052  1.00  0.00     0.226 C 
HETATM   19  O5  UNL     1       9.170 -13.631  10.464  1.00  0.00    -0.273 OA
HETATM   20  C17 UNL     1       7.837 -11.840   9.810  1.00  0.00     0.036 C 
HETATM   21  C18 UNL     1       9.290 -11.324   9.630  1.00  0.00     0.025 C 
HETATM   22  C19 UNL     1       7.166 -11.513   8.499  1.00  0.00     0.025 C 
HETATM   23  C20 UNL     1       7.337 -11.087  10.974  1.00  0.00     0.053 C 
HETATM   24  C21 UNL     1       6.032 -11.419  11.578  1.00  0.00     0.182 C 
HETATM   25  C22 UNL     1       6.148 -11.935  12.974  1.00  0.00     0.241 C 
HETATM   26  O6  UNL     1       6.303 -13.170  13.120  1.00  0.00    -0.271 OA
HETATM   27  N4  UNL     1       6.096 -11.147  14.150  1.00  0.00    -0.346 N 
ATOM     28  H4  UNL     1       5.755 -11.614  14.990  1.00  0.00     0.163 HD
HETATM   29  C23 UNL     1       6.464  -9.785  14.299  1.00  0.00     0.177 C 
HETATM   30  C28 UNL     1       5.516  -8.761  13.869  1.00  0.00     0.243 C 
HETATM   31  O7  UNL     1       6.082  -7.683  13.430  1.00  0.00    -0.271 OA
HETATM   32  N5  UNL     1       4.100  -8.787  13.869  1.00  0.00    -0.341 N 
HETATM   33  C29 UNL     1       3.499  -8.067  12.724  1.00  0.00     0.153 C 
ENDROOT
BRANCH   1  34
HETATM   34  C3  UNL     1       2.001  -8.579  15.172  1.00  0.00     0.013 C 
HETATM   35  C4  UNL     1       1.451  -9.234  16.451  1.00  0.00     0.012 C 
BRANCH  34  36
HETATM   36  C2  UNL     1       2.319  -7.167  15.525  1.00  0.00     0.002 C 
HETATM   37  C1  UNL     1       1.090  -6.265  15.431  1.00  0.00     0.005 C 
ENDBRANCH  34  36
ENDBRANCH   1  34
BRANCH   6  38
HETATM   38  C8  UNL     1       0.011 -11.606  12.998  1.00  0.00     0.010 C 
HETATM   39  C9  UNL     1      -0.697 -10.668  13.911  1.00  0.00     0.012 C 
HETATM   40  C10 UNL     1       0.229 -12.950  13.604  1.00  0.00     0.012 C 
ENDBRANCH   6  38
BRANCH  29  41
HETATM   41  C24 UNL     1       6.855  -9.473  15.752  1.00  0.00     0.038 C 
BRANCH  41  42
HETATM   42  C25 UNL     1       8.366  -9.199  15.711  1.00  0.00    -0.020 C 
HETATM   43  C26 UNL     1       8.619  -7.732  16.023  1.00  0.00     0.009 C 
HETATM   44  C27 UNL     1       8.842  -9.484  14.308  1.00  0.00     0.009 C 
ENDBRANCH  41  42
ENDBRANCH  29  41
TORSDOF 5
ENDMDL
