MODEL 1
REMARK VINA RESULT: -5.789863823      0.000      0.000
REMARK  8 active torsions:
REMARK  status: ('A' for Active; 'I' for Inactive)
REMARK    1  A    between atoms: S1_2  and  C2_3 
REMARK    2  A    between atoms: N2_7  and  C4_9 
REMARK    3  A    between atoms: C4_9  and  C5_10 
REMARK    4  A    between atoms: C5_10  and  S2_11 
REMARK    5  A    between atoms: S2_11  and  C6_12 
REMARK    6  A    between atoms: N3_18  and  C10_19 
REMARK    7  A    between atoms: C10_19  and  N4_20 
REMARK    8  A    between atoms: C10_19  and  C11_24 
ROOT
HETATM    1  C2  UNL     1       5.704  -4.435  17.772  1.00  0.00     0.160 A 
HETATM    2  N1  UNL     1       4.583  -4.155  18.455  1.00  0.00    -0.318 N 
ATOM      3  H1  UNL     1       4.621  -3.642  19.336  1.00  0.00     0.169 HD
HETATM    4  C3  UNL     1       3.411  -4.565  17.947  1.00  0.00     0.174 A 
HETATM    5  N2  UNL     1       2.274  -4.348  18.528  1.00  0.00    -0.371 N 
ATOM      6  H2  UNL     1       1.409  -4.681  18.102  1.00  0.00     0.161 HD
HETATM    7  C9  UNL     1       3.410  -5.264  16.735  1.00  0.00     0.308 A 
HETATM    8  O1  UNL     1       2.336  -5.663  16.231  1.00  0.00    -0.262 OA
HETATM    9  N3  UNL     1       4.544  -5.541  16.057  1.00  0.00    -0.216 N 
HETATM   10  N5  UNL     1       5.668  -5.114  16.600  1.00  0.00    -0.273 N 
ATOM     11  H5  UNL     1       6.547  -5.303  16.118  1.00  0.00     0.189 HD
ENDROOT
BRANCH   5  12
HETATM   12  C4  UNL     1       2.235  -3.638  19.772  1.00  0.00     0.131 C 
BRANCH  12  13
HETATM   13  C5  UNL     1       0.797  -3.370  20.138  1.00  0.00     0.095 C 
BRANCH  13  14
HETATM   14  S2  UNL     1      -0.318  -4.706  19.707  1.00  0.00    -0.142 SA
BRANCH  14  15
HETATM   15  C6  UNL     1      -1.637  -4.866  20.916  1.00  0.00     0.077 C 
HETATM   16  C7  UNL     1      -2.982  -4.466  20.310  1.00  0.00     0.044 C 
HETATM   17  C8  UNL     1      -1.723  -6.309  21.350  1.00  0.00     0.044 C 
HETATM   18 CL1  UNL     1      -1.301  -3.780  22.295  1.00  0.00    -0.108 Cl
ENDBRANCH  14  15
ENDBRANCH  13  14
ENDBRANCH  12  13
ENDBRANCH   5  12
BRANCH   1  19
HETATM   19  S1  UNL     1       7.288  -3.889  18.450  1.00  0.00    -0.097 SA
HETATM   20  C1  UNL     1       7.397  -2.097  18.459  1.00  0.00     0.099 C 
ENDBRANCH   1  19
BRANCH   9  21
HETATM   21  C10 UNL     1       4.513  -6.270  14.808  1.00  0.00     0.361 C 
BRANCH  21  22
HETATM   22  N4  UNL     1       4.898  -5.425  13.702  1.00  0.00    -0.052 N 
ATOM     23  H43 UNL     1       4.103  -4.900  13.336  1.00  0.00     0.277 HD
ATOM     24  H42 UNL     1       5.473  -4.641  14.012  1.00  0.00     0.277 HD
ATOM     25  H41 UNL     1       5.360  -5.965  12.970  1.00  0.00     0.277 HD
ENDBRANCH  21  22
BRANCH  21  26
HETATM   26  C11 UNL     1       5.316  -7.550  14.882  1.00  0.00     0.235 C 
HETATM   27 CL2  UNL     1       5.049  -8.426  16.398  1.00  0.00    -0.079 Cl
HETATM   28 CL3  UNL     1       7.033  -7.200  14.591  1.00  0.00    -0.079 Cl
HETATM   29 CL4  UNL     1       4.791  -8.647  13.564  1.00  0.00    -0.079 Cl
ENDBRANCH  21  26
ENDBRANCH   9  21
TORSDOF 8
ENDMDL
MODEL 2
REMARK VINA RESULT: -5.778633718      2.679      3.721
REMARK  8 active torsions:
REMARK  status: ('A' for Active; 'I' for Inactive)
REMARK    1  A    between atoms: S1_2  and  C2_3 
REMARK    2  A    between atoms: N2_7  and  C4_9 
REMARK    3  A    between atoms: C4_9  and  C5_10 
REMARK    4  A    between atoms: C5_10  and  S2_11 
REMARK    5  A    between atoms: S2_11  and  C6_12 
REMARK    6  A    between atoms: N3_18  and  C10_19 
REMARK    7  A    between atoms: C10_19  and  N4_20 
REMARK    8  A    between atoms: C10_19  and  C11_24 
ROOT
HETATM    1  C2  UNL     1       6.673  -7.172  15.107  1.00  0.00     0.160 A 
HETATM    2  N1  UNL     1       6.180  -6.327  16.025  1.00  0.00    -0.318 N 
ATOM      3  H1  UNL     1       6.778  -5.943  16.757  1.00  0.00     0.169 HD
HETATM    4  C3  UNL     1       4.881  -6.001  15.956  1.00  0.00     0.174 A 
HETATM    5  N2  UNL     1       4.307  -5.197  16.794  1.00  0.00    -0.371 N 
ATOM      6  H2  UNL     1       3.315  -4.980  16.699  1.00  0.00     0.161 HD
HETATM    7  C9  UNL     1       4.102  -6.553  14.933  1.00  0.00     0.308 A 
HETATM    8  O1  UNL     1       2.886  -6.272  14.837  1.00  0.00    -0.262 OA
HETATM    9  N3  UNL     1       4.608  -7.402  14.014  1.00  0.00    -0.216 N 
HETATM   10  N5  UNL     1       5.891  -7.689  14.128  1.00  0.00    -0.273 N 
ATOM     11  H5  UNL     1       6.312  -8.328  13.452  1.00  0.00     0.189 HD
ENDROOT
BRANCH   5  12
HETATM   12  C4  UNL     1       5.073  -4.613  17.856  1.00  0.00     0.131 C 
BRANCH  12  13
HETATM   13  C5  UNL     1       4.260  -4.659  19.126  1.00  0.00     0.095 C 
BRANCH  13  14
HETATM   14  S2  UNL     1       2.489  -4.682  18.850  1.00  0.00    -0.142 SA
BRANCH  14  15
HETATM   15  C6  UNL     1       1.707  -3.218  19.535  1.00  0.00     0.077 C 
HETATM   16  C7  UNL     1       0.385  -3.574  20.216  1.00  0.00     0.044 C 
HETATM   17  C8  UNL     1       2.627  -2.618  20.571  1.00  0.00     0.044 C 
HETATM   18 CL1  UNL     1       1.360  -2.066  18.213  1.00  0.00    -0.108 Cl
ENDBRANCH  14  15
ENDBRANCH  13  14
ENDBRANCH  12  13
ENDBRANCH   5  12
BRANCH   1  19
HETATM   19  S1  UNL     1       8.422  -7.620  15.194  1.00  0.00    -0.097 SA
HETATM   20  C1  UNL     1       9.448  -6.160  15.394  1.00  0.00     0.099 C 
ENDBRANCH   1  19
BRANCH   9  21
HETATM   21  C10 UNL     1       3.777  -7.962  12.971  1.00  0.00     0.361 C 
BRANCH  21  22
HETATM   22  N4  UNL     1       4.385  -7.791  11.673  1.00  0.00    -0.052 N 
ATOM     23  H43 UNL     1       3.689  -7.805  10.927  1.00  0.00     0.277 HD
ATOM     24  H42 UNL     1       4.733  -6.840  11.544  1.00  0.00     0.277 HD
ATOM     25  H41 UNL     1       5.117  -8.484  11.515  1.00  0.00     0.277 HD
ENDBRANCH  21  22
BRANCH  21  26
HETATM   26  C11 UNL     1       3.399  -9.398  13.262  1.00  0.00     0.235 C 
HETATM   27 CL2  UNL     1       3.093  -9.679  14.984  1.00  0.00    -0.079 Cl
HETATM   28 CL3  UNL     1       4.633 -10.491  12.602  1.00  0.00    -0.079 Cl
HETATM   29 CL4  UNL     1       1.869  -9.784  12.407  1.00  0.00    -0.079 Cl
ENDBRANCH  21  26
ENDBRANCH   9  21
TORSDOF 8
ENDMDL
MODEL 3
REMARK VINA RESULT: -5.733389535      1.834      1.881
REMARK  8 active torsions:
REMARK  status: ('A' for Active; 'I' for Inactive)
REMARK    1  A    between atoms: S1_2  and  C2_3 
REMARK    2  A    between atoms: N2_7  and  C4_9 
REMARK    3  A    between atoms: C4_9  and  C5_10 
REMARK    4  A    between atoms: C5_10  and  S2_11 
REMARK    5  A    between atoms: S2_11  and  C6_12 
REMARK    6  A    between atoms: N3_18  and  C10_19 
REMARK    7  A    between atoms: C10_19  and  N4_20 
REMARK    8  A    between atoms: C10_19  and  C11_24 
ROOT
HETATM    1  C2  UNL     1       5.942  -4.944  17.294  1.00  0.00     0.160 A 
HETATM    2  N1  UNL     1       4.693  -4.846  17.775  1.00  0.00    -0.318 N 
ATOM      3  H1  UNL     1       4.487  -4.255  18.580  1.00  0.00     0.169 HD
HETATM    4  C3  UNL     1       3.722  -5.545  17.168  1.00  0.00     0.174 A 
HETATM    5  N2  UNL     1       2.486  -5.522  17.555  1.00  0.00    -0.371 N 
ATOM      6  H2  UNL     1       1.784  -6.072  17.060  1.00  0.00     0.161 HD
HETATM    7  C9  UNL     1       4.053  -6.341  16.066  1.00  0.00     0.308 A 
HETATM    8  O1  UNL     1       3.174  -7.007  15.475  1.00  0.00    -0.262 OA
HETATM    9  N3  UNL     1       5.313  -6.432  15.590  1.00  0.00    -0.216 N 
HETATM   10  N5  UNL     1       6.229  -5.724  16.224  1.00  0.00    -0.273 N 
ATOM     11  H5  UNL     1       7.194  -5.766  15.895  1.00  0.00     0.189 HD
ENDROOT
BRANCH   5  12
HETATM   12  C4  UNL     1       2.109  -4.720  18.682  1.00  0.00     0.131 C 
BRANCH  12  13
HETATM   13  C5  UNL     1       0.867  -3.940  18.332  1.00  0.00     0.095 C 
BRANCH  13  14
HETATM   14  S2  UNL     1      -0.215  -4.784  17.177  1.00  0.00    -0.142 SA
BRANCH  14  15
HETATM   15  C6  UNL     1      -1.569  -5.598  18.031  1.00  0.00     0.077 C 
HETATM   16  C7  UNL     1      -2.897  -4.901  17.736  1.00  0.00     0.044 C 
HETATM   17  C8  UNL     1      -1.663  -7.023  17.540  1.00  0.00     0.044 C 
HETATM   18 CL1  UNL     1      -1.278  -5.523  19.792  1.00  0.00    -0.108 Cl
ENDBRANCH  14  15
ENDBRANCH  13  14
ENDBRANCH  12  13
ENDBRANCH   5  12
BRANCH   1  19
HETATM   19  S1  UNL     1       7.257  -4.008  18.107  1.00  0.00    -0.097 SA
HETATM   20  C1  UNL     1       7.346  -2.335  17.461  1.00  0.00     0.099 C 
ENDBRANCH   1  19
BRANCH   9  21
HETATM   21  C10 UNL     1       5.628  -7.267  14.452  1.00  0.00     0.361 C 
BRANCH  21  22
HETATM   22  N4  UNL     1       6.229  -6.496  13.391  1.00  0.00    -0.052 N 
ATOM     23  H43 UNL     1       6.129  -5.494  13.551  1.00  0.00     0.277 HD
ATOM     24  H42 UNL     1       7.247  -6.556  13.414  1.00  0.00     0.277 HD
ATOM     25  H41 UNL     1       5.857  -6.769  12.480  1.00  0.00     0.277 HD
ENDBRANCH  21  22
BRANCH  21  26
HETATM   26  C11 UNL     1       6.452  -8.473  14.848  1.00  0.00     0.235 C 
HETATM   27 CL2  UNL     1       5.790  -9.307  16.264  1.00  0.00    -0.079 Cl
HETATM   28 CL3  UNL     1       8.148  -7.995  15.071  1.00  0.00    -0.079 Cl
HETATM   29 CL4  UNL     1       6.432  -9.662  13.505  1.00  0.00    -0.079 Cl
ENDBRANCH  21  26
ENDBRANCH   9  21
TORSDOF 8
ENDMDL
MODEL 4
REMARK VINA RESULT: -5.728648189      1.224      1.276
REMARK  8 active torsions:
REMARK  status: ('A' for Active; 'I' for Inactive)
REMARK    1  A    between atoms: S1_2  and  C2_3 
REMARK    2  A    between atoms: N2_7  and  C4_9 
REMARK    3  A    between atoms: C4_9  and  C5_10 
REMARK    4  A    between atoms: C5_10  and  S2_11 
REMARK    5  A    between atoms: S2_11  and  C6_12 
REMARK    6  A    between atoms: N3_18  and  C10_19 
REMARK    7  A    between atoms: C10_19  and  N4_20 
REMARK    8  A    between atoms: C10_19  and  C11_24 
ROOT
HETATM    1  C2  UNL     1       5.855  -4.912  17.377  1.00  0.00     0.160 A 
HETATM    2  N1  UNL     1       4.601  -4.832  17.847  1.00  0.00    -0.318 N 
ATOM      3  H1  UNL     1       4.380  -4.248  18.653  1.00  0.00     0.169 HD
HETATM    4  C3  UNL     1       3.645  -5.542  17.229  1.00  0.00     0.174 A 
HETATM    5  N2  UNL     1       2.405  -5.537  17.604  1.00  0.00    -0.371 N 
ATOM      6  H2  UNL     1       1.715  -6.094  17.101  1.00  0.00     0.161 HD
HETATM    7  C9  UNL     1       3.997  -6.328  16.126  1.00  0.00     0.308 A 
HETATM    8  O1  UNL     1       3.132  -7.003  15.524  1.00  0.00    -0.262 OA
HETATM    9  N3  UNL     1       5.262  -6.400  15.661  1.00  0.00    -0.216 N 
HETATM   10  N5  UNL     1       6.163  -5.683  16.306  1.00  0.00    -0.273 N 
ATOM     11  H5  UNL     1       7.131  -5.711  15.986  1.00  0.00     0.189 HD
ENDROOT
BRANCH   5  12
HETATM   12  C4  UNL     1       2.008  -4.745  18.731  1.00  0.00     0.131 C 
BRANCH  12  13
HETATM   13  C5  UNL     1       0.743  -4.001  18.383  1.00  0.00     0.095 C 
BRANCH  13  14
HETATM   14  S2  UNL     1      -0.757  -4.905  18.771  1.00  0.00    -0.142 SA
BRANCH  14  15
HETATM   15  C6  UNL     1      -1.306  -4.562  20.446  1.00  0.00     0.077 C 
HETATM   16  C7  UNL     1      -2.725  -3.995  20.449  1.00  0.00     0.044 C 
HETATM   17  C8  UNL     1      -1.312  -5.854  21.227  1.00  0.00     0.044 C 
HETATM   18 CL1  UNL     1      -0.218  -3.350  21.182  1.00  0.00    -0.108 Cl
ENDBRANCH  14  15
ENDBRANCH  13  14
ENDBRANCH  12  13
ENDBRANCH   5  12
BRANCH   1  19
HETATM   19  S1  UNL     1       7.151  -3.962  18.206  1.00  0.00    -0.097 SA
HETATM   20  C1  UNL     1       7.314  -2.330  17.478  1.00  0.00     0.099 C 
ENDBRANCH   1  19
BRANCH   9  21
HETATM   21  C10 UNL     1       5.598  -7.226  14.522  1.00  0.00     0.361 C 
BRANCH  21  22
HETATM   22  N4  UNL     1       6.188  -6.441  13.465  1.00  0.00    -0.052 N 
ATOM     23  H43 UNL     1       5.944  -5.454  13.550  1.00  0.00     0.277 HD
ATOM     24  H42 UNL     1       7.200  -6.361  13.577  1.00  0.00     0.277 HD
ATOM     25  H41 UNL     1       5.939  -6.811  12.548  1.00  0.00     0.277 HD
ENDBRANCH  21  22
BRANCH  21  26
HETATM   26  C11 UNL     1       6.444  -8.416  14.919  1.00  0.00     0.235 C 
HETATM   27 CL2  UNL     1       5.814  -9.245  16.352  1.00  0.00    -0.079 Cl
HETATM   28 CL3  UNL     1       8.136  -7.913  15.113  1.00  0.00    -0.079 Cl
HETATM   29 CL4  UNL     1       6.421  -9.619  13.588  1.00  0.00    -0.079 Cl
ENDBRANCH  21  26
ENDBRANCH   9  21
TORSDOF 8
ENDMDL
MODEL 5
REMARK VINA RESULT: -5.668340615      2.669      3.635
REMARK  8 active torsions:
REMARK  status: ('A' for Active; 'I' for Inactive)
REMARK    1  A    between atoms: S1_2  and  C2_3 
REMARK    2  A    between atoms: N2_7  and  C4_9 
REMARK    3  A    between atoms: C4_9  and  C5_10 
REMARK    4  A    between atoms: C5_10  and  S2_11 
REMARK    5  A    between atoms: S2_11  and  C6_12 
REMARK    6  A    between atoms: N3_18  and  C10_19 
REMARK    7  A    between atoms: C10_19  and  N4_20 
REMARK    8  A    between atoms: C10_19  and  C11_24 
ROOT
HETATM    1  C2  UNL     1       7.304  -6.831  15.211  1.00  0.00     0.160 A 
HETATM    2  N1  UNL     1       6.609  -6.062  16.063  1.00  0.00    -0.318 N 
ATOM      3  H1  UNL     1       7.069  -5.602  16.848  1.00  0.00     0.169 HD
HETATM    4  C3  UNL     1       5.292  -5.913  15.854  1.00  0.00     0.174 A 
HETATM    5  N2  UNL     1       4.531  -5.195  16.617  1.00  0.00    -0.371 N 
ATOM      6  H2  UNL     1       3.534  -5.113  16.417  1.00  0.00     0.161 HD
HETATM    7  C9  UNL     1       4.706  -6.563  14.762  1.00  0.00     0.308 A 
HETATM    8  O1  UNL     1       3.480  -6.447  14.536  1.00  0.00    -0.262 OA
HETATM    9  N3  UNL     1       5.415  -7.334  13.911  1.00  0.00    -0.216 N 
HETATM   10  N5  UNL     1       6.706  -7.447  14.163  1.00  0.00    -0.273 N 
ATOM     11  H5  UNL     1       7.276  -8.022  13.542  1.00  0.00     0.189 HD
ENDROOT
BRANCH   5  12
HETATM   12  C4  UNL     1       5.096  -4.515  17.747  1.00  0.00     0.131 C 
BRANCH  12  13
HETATM   13  C5  UNL     1       4.048  -4.408  18.825  1.00  0.00     0.095 C 
BRANCH  13  14
HETATM   14  S2  UNL     1       2.541  -5.307  18.461  1.00  0.00    -0.142 SA
BRANCH  14  15
HETATM   15  C6  UNL     1       1.113  -4.219  18.485  1.00  0.00     0.077 C 
HETATM   16  C7  UNL     1       1.544  -2.756  18.596  1.00  0.00     0.044 C 
HETATM   17  C8  UNL     1       0.352  -4.391  17.192  1.00  0.00     0.044 C 
HETATM   18 CL1  UNL     1       0.101  -4.612  19.905  1.00  0.00    -0.108 Cl
ENDBRANCH  14  15
ENDBRANCH  13  14
ENDBRANCH  12  13
ENDBRANCH   5  12
BRANCH   1  19
HETATM   19  S1  UNL     1       9.078  -7.041  15.486  1.00  0.00    -0.097 SA
HETATM   20  C1  UNL     1       9.911  -5.451  15.535  1.00  0.00     0.099 C 
ENDBRANCH   1  19
BRANCH   9  21
HETATM   21  C10 UNL     1       4.781  -7.999  12.794  1.00  0.00     0.361 C 
BRANCH  21  22
HETATM   22  N4  UNL     1       5.686  -8.117  11.676  1.00  0.00    -0.052 N 
ATOM     23  H43 UNL     1       6.394  -7.382  11.687  1.00  0.00     0.277 HD
ATOM     24  H42 UNL     1       6.300  -8.926  11.775  1.00  0.00     0.277 HD
ATOM     25  H41 UNL     1       5.178  -8.135  10.791  1.00  0.00     0.277 HD
ENDBRANCH  21  22
BRANCH  21  26
HETATM   26  C11 UNL     1       4.166  -9.321  13.200  1.00  0.00     0.235 C 
HETATM   27 CL2  UNL     1       2.433  -9.397  12.840  1.00  0.00    -0.079 Cl
HETATM   28 CL3  UNL     1       4.522  -9.652  14.908  1.00  0.00    -0.079 Cl
HETATM   29 CL4  UNL     1       4.937 -10.638  12.256  1.00  0.00    -0.079 Cl
ENDBRANCH  21  26
ENDBRANCH   9  21
TORSDOF 8
ENDMDL
