MODEL 1
REMARK VINA RESULT: -6.767021236      0.000      0.000
REMARK  9 active torsions:
REMARK  status: ('A' for Active; 'I' for Inactive)
REMARK    1  A    between atoms: N1_1  and  N2_4 
REMARK    2  A    between atoms: C1_6  and  C2_7 
REMARK    3  A    between atoms: C1_6  and  O2_10 
REMARK    4  A    between atoms: C2_7  and  O1_8 
REMARK    5  A    between atoms: O2_10  and  C3_11 
REMARK    6  A    between atoms: C3_11  and  C4_12 
REMARK    7  A    between atoms: C3_11  and  C7_20 
REMARK    8  A    between atoms: C3_11  and  C13_27 
REMARK    9  A    between atoms: C4_12  and  N3_13 
ROOT
HETATM    1  C3  UNL     1       4.897  -7.327  15.462  1.00  0.00     0.161 C 
ENDROOT
BRANCH   1   2
HETATM    2  O2  UNL     1       5.140  -7.421  14.078  1.00  0.00    -0.309 OA
BRANCH   2   3
HETATM    3  C1  UNL     1       5.007  -8.235  13.100  1.00  0.00     0.158 C 
HETATM    4  N2  UNL     1       5.765  -7.882  12.183  1.00  0.00    -0.288 N 
ATOM      5  H2  UNL     1       6.311  -7.049  12.403  1.00  0.00     0.188 HD
BRANCH   4   6
HETATM    6  N1  UNL     1       6.016  -8.382  10.944  1.00  0.00    -0.343 N 
ATOM      7  H12 UNL     1       5.838  -9.385  10.890  1.00  0.00     0.176 HD
ATOM      8  H11 UNL     1       6.341  -7.958  10.076  1.00  0.00     0.176 HD
ENDBRANCH   4   6
BRANCH   3   9
HETATM    9  C2  UNL     1       4.156  -9.420  12.923  1.00  0.00     0.249 C 
BRANCH   9  10
HETATM   10  O1  UNL     1       4.859 -10.621  13.041  1.00  0.00    -0.393 OA
ATOM     11  H1  UNL     1       4.747 -11.038  13.887  1.00  0.00     0.210 HD
ENDBRANCH   9  10
ENDBRANCH   3   9
ENDBRANCH   2   3
ENDBRANCH   1   2
BRANCH   1  12
HETATM   12  C4  UNL     1       3.499  -7.657  15.615  1.00  0.00     0.139 C 
BRANCH  12  13
HETATM   13  N3  UNL     1       2.366  -6.949  15.230  1.00  0.00    -0.262 N 
HETATM   14  C5  UNL     1       1.558  -7.202  14.149  1.00  0.00     0.206 A 
HETATM   15  N4  UNL     1       0.536  -6.372  14.103  1.00  0.00    -0.346 N 
HETATM   16  C6  UNL     1       0.669  -5.561  15.163  1.00  0.00     0.198 A 
ATOM     17  H4  UNL     1      -0.207  -6.352  13.403  1.00  0.00     0.167 HD
HETATM   18  N5  UNL     1       1.758  -5.933  15.801  1.00  0.00    -0.289 N 
ATOM     19  H5  UNL     1       2.095  -5.480  16.651  1.00  0.00     0.188 HD
ENDBRANCH  12  13
ENDBRANCH   1  12
BRANCH   1  20
HETATM   20  C7  UNL     1       5.948  -8.282  15.854  1.00  0.00    -0.013 A 
HETATM   21  C8  UNL     1       7.273  -8.036  15.484  1.00  0.00     0.012 A 
HETATM   22  C9  UNL     1       8.338  -8.833  15.817  1.00  0.00     0.024 A 
HETATM   23  C10 UNL     1       8.106  -9.963  16.569  1.00  0.00     0.034 A 
HETATM   24 CL1  UNL     1       9.446 -11.014  17.020  1.00  0.00    -0.084 Cl
HETATM   25  C11 UNL     1       6.812 -10.234  16.948  1.00  0.00     0.024 A 
HETATM   26  C12 UNL     1       5.749  -9.415  16.602  1.00  0.00     0.012 A 
ENDBRANCH   1  20
BRANCH   1  27
HETATM   27  C13 UNL     1       5.367  -6.045  16.054  1.00  0.00     0.033 A 
HETATM   28  C14 UNL     1       6.172  -5.132  15.414  1.00  0.00     0.061 A 
HETATM   29 CL2  UNL     1       6.621  -5.355  13.717  1.00  0.00    -0.082 Cl
HETATM   30  C15 UNL     1       6.647  -3.953  16.030  1.00  0.00     0.112 A 
HETATM   31  N6  UNL     1       6.310  -3.683  17.296  1.00  0.00    -0.372 N 
HETATM   32  C16 UNL     1       5.529  -4.545  17.946  1.00  0.00     0.112 A 
ATOM     33  H6  UNL     1       6.645  -2.836  17.754  1.00  0.00     0.164 HD
HETATM   34  C17 UNL     1       5.051  -5.710  17.368  1.00  0.00     0.061 A 
HETATM   35 CL3  UNL     1       4.052  -6.774  18.281  1.00  0.00    -0.082 Cl
ENDBRANCH   1  27
TORSDOF 9
ENDMDL
MODEL 2
REMARK VINA RESULT: -6.685039765      2.420      4.932
REMARK  9 active torsions:
REMARK  status: ('A' for Active; 'I' for Inactive)
REMARK    1  A    between atoms: N1_1  and  N2_4 
REMARK    2  A    between atoms: C1_6  and  C2_7 
REMARK    3  A    between atoms: C1_6  and  O2_10 
REMARK    4  A    between atoms: C2_7  and  O1_8 
REMARK    5  A    between atoms: O2_10  and  C3_11 
REMARK    6  A    between atoms: C3_11  and  C4_12 
REMARK    7  A    between atoms: C3_11  and  C7_20 
REMARK    8  A    between atoms: C3_11  and  C13_27 
REMARK    9  A    between atoms: C4_12  and  N3_13 
ROOT
HETATM    1  C3  UNL     1       4.575  -7.388  14.736  1.00  0.00     0.161 C 
ENDROOT
BRANCH   1   2
HETATM    2  O2  UNL     1       3.961  -8.599  15.110  1.00  0.00    -0.309 OA
BRANCH   2   3
HETATM    3  C1  UNL     1       2.832  -9.199  15.053  1.00  0.00     0.158 C 
HETATM    4  N2  UNL     1       2.957 -10.217  14.355  1.00  0.00    -0.288 N 
ATOM      5  H2  UNL     1       3.902 -10.348  13.993  1.00  0.00     0.188 HD
BRANCH   4   6
HETATM    6  N1  UNL     1       2.091 -11.193  13.976  1.00  0.00    -0.343 N 
ATOM      7  H12 UNL     1       2.226 -11.472  13.005  1.00  0.00     0.176 HD
ATOM      8  H11 UNL     1       1.347 -11.690  14.465  1.00  0.00     0.176 HD
ENDBRANCH   4   6
BRANCH   3   9
HETATM    9  C2  UNL     1       1.524  -8.879  15.643  1.00  0.00     0.249 C 
BRANCH   9  10
HETATM   10  O1  UNL     1       0.588  -8.448  14.700  1.00  0.00    -0.393 OA
ATOM     11  H1  UNL     1      -0.297  -8.411  15.043  1.00  0.00     0.210 HD
ENDBRANCH   9  10
ENDBRANCH   3   9
ENDBRANCH   2   3
ENDBRANCH   1   2
BRANCH   1  12
HETATM   12  C4  UNL     1       4.194  -7.190  13.357  1.00  0.00     0.139 C 
BRANCH  12  13
HETATM   13  N3  UNL     1       4.515  -7.932  12.227  1.00  0.00    -0.262 N 
HETATM   14  C5  UNL     1       3.643  -8.534  11.354  1.00  0.00     0.206 A 
HETATM   15  N4  UNL     1       4.276  -9.112  10.355  1.00  0.00    -0.346 N 
HETATM   16  C6  UNL     1       5.583  -8.893  10.568  1.00  0.00     0.198 A 
ATOM     17  H4  UNL     1       3.859  -9.624   9.577  1.00  0.00     0.167 HD
HETATM   18  N5  UNL     1       5.682  -8.194  11.679  1.00  0.00    -0.289 N 
ATOM     19  H5  UNL     1       6.571  -7.888  12.074  1.00  0.00     0.188 HD
ENDBRANCH  12  13
ENDBRANCH   1  12
BRANCH   1  20
HETATM   20  C7  UNL     1       3.968  -6.586  15.813  1.00  0.00    -0.013 A 
HETATM   21  C8  UNL     1       4.347  -6.814  17.139  1.00  0.00     0.012 A 
HETATM   22  C9  UNL     1       3.876  -6.112  18.218  1.00  0.00     0.024 A 
HETATM   23  C10 UNL     1       2.962  -5.105  18.002  1.00  0.00     0.034 A 
HETATM   24 CL1  UNL     1       2.333  -4.177  19.361  1.00  0.00    -0.084 Cl
HETATM   25  C11 UNL     1       2.568  -4.855  16.707  1.00  0.00     0.024 A 
HETATM   26  C12 UNL     1       3.056  -5.577  15.630  1.00  0.00     0.012 A 
ENDBRANCH   1  20
BRANCH   1  27
HETATM   27  C13 UNL     1       6.027  -7.343  15.060  1.00  0.00     0.033 A 
HETATM   28  C14 UNL     1       6.719  -8.337  15.712  1.00  0.00     0.061 A 
HETATM   29 CL2  UNL     1       5.933  -9.870  16.115  1.00  0.00    -0.082 Cl
HETATM   30  C15 UNL     1       8.085  -8.233  16.053  1.00  0.00     0.112 A 
HETATM   31  N6  UNL     1       8.766  -7.126  15.737  1.00  0.00    -0.372 N 
HETATM   32  C16 UNL     1       8.129  -6.144  15.103  1.00  0.00     0.112 A 
ATOM     33  H6  UNL     1       9.753  -7.037  15.977  1.00  0.00     0.164 HD
HETATM   34  C17 UNL     1       6.789  -6.217  14.757  1.00  0.00     0.061 A 
HETATM   35 CL3  UNL     1       6.038  -4.898  13.945  1.00  0.00    -0.082 Cl
ENDBRANCH   1  27
TORSDOF 9
ENDMDL
MODEL 3
REMARK VINA RESULT: -6.575657092      2.452      4.784
REMARK  9 active torsions:
REMARK  status: ('A' for Active; 'I' for Inactive)
REMARK    1  A    between atoms: N1_1  and  N2_4 
REMARK    2  A    between atoms: C1_6  and  C2_7 
REMARK    3  A    between atoms: C1_6  and  O2_10 
REMARK    4  A    between atoms: C2_7  and  O1_8 
REMARK    5  A    between atoms: O2_10  and  C3_11 
REMARK    6  A    between atoms: C3_11  and  C4_12 
REMARK    7  A    between atoms: C3_11  and  C7_20 
REMARK    8  A    between atoms: C3_11  and  C13_27 
REMARK    9  A    between atoms: C4_12  and  N3_13 
ROOT
HETATM    1  C3  UNL     1       4.551  -7.408  14.744  1.00  0.00     0.161 C 
ENDROOT
BRANCH   1   2
HETATM    2  O2  UNL     1       3.952  -8.631  15.107  1.00  0.00    -0.309 OA
BRANCH   2   3
HETATM    3  C1  UNL     1       2.832  -9.246  15.039  1.00  0.00     0.158 C 
HETATM    4  N2  UNL     1       2.967 -10.238  14.306  1.00  0.00    -0.288 N 
ATOM      5  H2  UNL     1       3.910 -10.342  13.931  1.00  0.00     0.188 HD
BRANCH   4   6
HETATM    6  N1  UNL     1       2.112 -11.214  13.901  1.00  0.00    -0.343 N 
ATOM      7  H12 UNL     1       1.715 -11.022  12.982  1.00  0.00     0.176 HD
ATOM      8  H11 UNL     1       1.798 -12.084  14.330  1.00  0.00     0.176 HD
ENDBRANCH   4   6
BRANCH   3   9
HETATM    9  C2  UNL     1       1.525  -8.967  15.650  1.00  0.00     0.249 C 
BRANCH   9  10
HETATM   10  O1  UNL     1       0.573  -8.523  14.730  1.00  0.00    -0.393 OA
ATOM     11  H1  UNL     1       0.616  -7.587  14.571  1.00  0.00     0.210 HD
ENDBRANCH   9  10
ENDBRANCH   3   9
ENDBRANCH   2   3
ENDBRANCH   1   2
BRANCH   1  12
HETATM   12  C4  UNL     1       4.186  -7.214  13.360  1.00  0.00     0.139 C 
BRANCH  12  13
HETATM   13  N3  UNL     1       4.520  -7.958  12.235  1.00  0.00    -0.262 N 
HETATM   14  C5  UNL     1       3.658  -8.536  11.336  1.00  0.00     0.206 A 
HETATM   15  N4  UNL     1       4.305  -9.125  10.352  1.00  0.00    -0.346 N 
HETATM   16  C6  UNL     1       5.610  -8.937  10.602  1.00  0.00     0.198 A 
ATOM     17  H4  UNL     1       3.897  -9.623   9.561  1.00  0.00     0.167 HD
HETATM   18  N5  UNL     1       5.695  -8.246  11.718  1.00  0.00    -0.289 N 
ATOM     19  H5  UNL     1       6.580  -7.963  12.138  1.00  0.00     0.188 HD
ENDBRANCH  12  13
ENDBRANCH   1  12
BRANCH   1  20
HETATM   20  C7  UNL     1       3.915  -6.619  15.814  1.00  0.00    -0.013 A 
HETATM   21  C8  UNL     1       4.279  -6.844  17.144  1.00  0.00     0.012 A 
HETATM   22  C9  UNL     1       3.781  -6.152  18.218  1.00  0.00     0.024 A 
HETATM   23  C10 UNL     1       2.854  -5.160  17.991  1.00  0.00     0.034 A 
HETATM   24 CL1  UNL     1       2.189  -4.246  19.343  1.00  0.00    -0.084 Cl
HETATM   25  C11 UNL     1       2.474  -4.914  16.691  1.00  0.00     0.024 A 
HETATM   26  C12 UNL     1       2.989  -5.625  15.620  1.00  0.00     0.012 A 
ENDBRANCH   1  20
BRANCH   1  27
HETATM   27  C13 UNL     1       5.996  -7.340  15.088  1.00  0.00     0.033 A 
HETATM   28  C14 UNL     1       6.816  -6.264  14.839  1.00  0.00     0.061 A 
HETATM   29 CL2  UNL     1       6.155  -4.759  14.183  1.00  0.00    -0.082 Cl
HETATM   30  C15 UNL     1       8.197  -6.260  15.128  1.00  0.00     0.112 A 
HETATM   31  N6  UNL     1       8.766  -7.340  15.674  1.00  0.00    -0.372 N 
HETATM   32  C16 UNL     1       8.002  -8.401  15.932  1.00  0.00     0.112 A 
ATOM     33  H6  UNL     1       9.763  -7.352  15.887  1.00  0.00     0.164 HD
HETATM   34  C17 UNL     1       6.645  -8.434  15.657  1.00  0.00     0.061 A 
HETATM   35 CL3  UNL     1       5.731  -9.849  16.014  1.00  0.00    -0.082 Cl
ENDBRANCH   1  27
TORSDOF 9
ENDMDL
MODEL 4
REMARK VINA RESULT: -6.422423776      2.976      6.408
REMARK  9 active torsions:
REMARK  status: ('A' for Active; 'I' for Inactive)
REMARK    1  A    between atoms: N1_1  and  N2_4 
REMARK    2  A    between atoms: C1_6  and  C2_7 
REMARK    3  A    between atoms: C1_6  and  O2_10 
REMARK    4  A    between atoms: C2_7  and  O1_8 
REMARK    5  A    between atoms: O2_10  and  C3_11 
REMARK    6  A    between atoms: C3_11  and  C4_12 
REMARK    7  A    between atoms: C3_11  and  C7_20 
REMARK    8  A    between atoms: C3_11  and  C13_27 
REMARK    9  A    between atoms: C4_12  and  N3_13 
ROOT
HETATM    1  C3  UNL     1       3.575  -8.598  14.382  1.00  0.00     0.161 C 
ENDROOT
BRANCH   1   2
HETATM    2  O2  UNL     1       4.354  -7.557  13.839  1.00  0.00    -0.309 OA
BRANCH   2   3
HETATM    3  C1  UNL     1       4.951  -6.480  14.185  1.00  0.00     0.158 C 
HETATM    4  N2  UNL     1       4.667  -5.588  13.370  1.00  0.00    -0.288 N 
ATOM      5  H2  UNL     1       4.040  -5.900  12.628  1.00  0.00     0.188 HD
BRANCH   4   6
HETATM    6  N1  UNL     1       5.022  -4.281  13.266  1.00  0.00    -0.343 N 
ATOM      7  H12 UNL     1       4.781  -3.748  14.102  1.00  0.00     0.176 HD
ATOM      8  H11 UNL     1       5.473  -3.739  12.529  1.00  0.00     0.176 HD
ENDBRANCH   4   6
BRANCH   3   9
HETATM    9  C2  UNL     1       5.847  -6.177  15.310  1.00  0.00     0.249 C 
BRANCH   9  10
HETATM   10  O1  UNL     1       7.199  -6.226  14.962  1.00  0.00    -0.393 OA
ATOM     11  H1  UNL     1       7.410  -6.951  14.386  1.00  0.00     0.210 HD
ENDBRANCH   9  10
ENDBRANCH   3   9
ENDBRANCH   2   3
ENDBRANCH   1   2
BRANCH   1  12
HETATM   12  C4  UNL     1       4.461  -9.288  15.290  1.00  0.00     0.139 C 
BRANCH  12  13
HETATM   13  N3  UNL     1       5.844  -9.423  15.259  1.00  0.00    -0.262 N 
HETATM   14  C5  UNL     1       6.679  -9.652  16.324  1.00  0.00     0.206 A 
HETATM   15  N4  UNL     1       7.932  -9.783  15.940  1.00  0.00    -0.346 N 
HETATM   16  C6  UNL     1       7.927  -9.638  14.606  1.00  0.00     0.198 A 
ATOM     17  H4  UNL     1       8.741  -9.960  16.536  1.00  0.00     0.167 HD
HETATM   18  N5  UNL     1       6.680  -9.428  14.244  1.00  0.00    -0.289 N 
ATOM     19  H5  UNL     1       6.392  -9.285  13.276  1.00  0.00     0.188 HD
ENDBRANCH  12  13
ENDBRANCH   1  12
BRANCH   1  20
HETATM   20  C7  UNL     1       2.504  -7.720  14.888  1.00  0.00    -0.013 A 
HETATM   21  C8  UNL     1       2.488  -7.363  16.239  1.00  0.00     0.012 A 
HETATM   22  C9  UNL     1       1.564  -6.531  16.815  1.00  0.00     0.024 A 
HETATM   23  C10 UNL     1       0.572  -5.996  16.024  1.00  0.00     0.034 A 
HETATM   24 CL1  UNL     1      -0.634  -4.920  16.724  1.00  0.00    -0.084 Cl
HETATM   25  C11 UNL     1       0.561  -6.329  14.688  1.00  0.00     0.024 A 
HETATM   26  C12 UNL     1       1.504  -7.173  14.125  1.00  0.00     0.012 A 
ENDBRANCH   1  20
BRANCH   1  27
HETATM   27  C13 UNL     1       2.883  -9.412  13.347  1.00  0.00     0.033 A 
HETATM   28  C14 UNL     1       3.163  -9.378  12.001  1.00  0.00     0.061 A 
HETATM   29 CL2  UNL     1       4.516  -8.419  11.384  1.00  0.00    -0.082 Cl
HETATM   30  C15 UNL     1       2.444 -10.123  11.042  1.00  0.00     0.112 A 
HETATM   31  N6  UNL     1       1.438 -10.914  11.431  1.00  0.00    -0.372 N 
HETATM   32  C16 UNL     1       1.141 -10.975  12.729  1.00  0.00     0.112 A 
ATOM     33  H6  UNL     1       0.910 -11.458  10.750  1.00  0.00     0.164 HD
HETATM   34  C17 UNL     1       1.827 -10.253  13.692  1.00  0.00     0.061 A 
HETATM   35 CL3  UNL     1       1.373 -10.382  15.348  1.00  0.00    -0.082 Cl
ENDBRANCH   1  27
TORSDOF 9
ENDMDL
MODEL 5
REMARK VINA RESULT: -6.303170054      2.951      6.583
REMARK  9 active torsions:
REMARK  status: ('A' for Active; 'I' for Inactive)
REMARK    1  A    between atoms: N1_1  and  N2_4 
REMARK    2  A    between atoms: C1_6  and  C2_7 
REMARK    3  A    between atoms: C1_6  and  O2_10 
REMARK    4  A    between atoms: C2_7  and  O1_8 
REMARK    5  A    between atoms: O2_10  and  C3_11 
REMARK    6  A    between atoms: C3_11  and  C4_12 
REMARK    7  A    between atoms: C3_11  and  C7_20 
REMARK    8  A    between atoms: C3_11  and  C13_27 
REMARK    9  A    between atoms: C4_12  and  N3_13 
ROOT
HETATM    1  C3  UNL     1       3.567  -8.537  14.447  1.00  0.00     0.161 C 
ENDROOT
BRANCH   1   2
HETATM    2  O2  UNL     1       4.356  -7.528  13.859  1.00  0.00    -0.309 OA
BRANCH   2   3
HETATM    3  C1  UNL     1       4.988  -6.458  14.165  1.00  0.00     0.158 C 
HETATM    4  N2  UNL     1       4.657  -5.561  13.374  1.00  0.00    -0.288 N 
ATOM      5  H2  UNL     1       3.976  -5.863  12.677  1.00  0.00     0.188 HD
BRANCH   4   6
HETATM    6  N1  UNL     1       5.019  -4.257  13.248  1.00  0.00    -0.343 N 
ATOM      7  H12 UNL     1       5.912  -4.060  13.699  1.00  0.00     0.176 HD
ATOM      8  H11 UNL     1       4.579  -3.454  12.799  1.00  0.00     0.176 HD
ENDBRANCH   4   6
BRANCH   3   9
HETATM    9  C2  UNL     1       5.966  -6.169  15.223  1.00  0.00     0.249 C 
BRANCH   9  10
HETATM   10  O1  UNL     1       7.288  -6.223  14.778  1.00  0.00    -0.393 OA
ATOM     11  H1  UNL     1       7.520  -5.499  14.208  1.00  0.00     0.210 HD
ENDBRANCH   9  10
ENDBRANCH   3   9
ENDBRANCH   2   3
ENDBRANCH   1   2
BRANCH   1  12
HETATM   12  C4  UNL     1       4.471  -9.252  15.317  1.00  0.00     0.139 C 
BRANCH  12  13
HETATM   13  N3  UNL     1       5.850  -9.406  15.241  1.00  0.00    -0.262 N 
HETATM   14  C5  UNL     1       6.718  -9.624  16.282  1.00  0.00     0.206 A 
HETATM   15  N4  UNL     1       7.956  -9.779  15.858  1.00  0.00    -0.346 N 
HETATM   16  C6  UNL     1       7.907  -9.662  14.522  1.00  0.00     0.198 A 
ATOM     17  H4  UNL     1       8.783  -9.954  16.429  1.00  0.00     0.167 HD
HETATM   18  N5  UNL     1       6.650  -9.443  14.198  1.00  0.00    -0.289 N 
ATOM     19  H5  UNL     1       6.330  -9.317  13.238  1.00  0.00     0.188 HD
ENDBRANCH  12  13
ENDBRANCH   1  12
BRANCH   1  20
HETATM   20  C7  UNL     1       2.553  -7.619  14.996  1.00  0.00    -0.013 A 
HETATM   21  C8  UNL     1       2.612  -7.255  16.344  1.00  0.00     0.012 A 
HETATM   22  C9  UNL     1       1.746  -6.387  16.957  1.00  0.00     0.024 A 
HETATM   23  C10 UNL     1       0.739  -5.821  16.209  1.00  0.00     0.034 A 
HETATM   24 CL1  UNL     1      -0.394  -4.698  16.957  1.00  0.00    -0.084 Cl
HETATM   25  C11 UNL     1       0.654  -6.159  14.877  1.00  0.00     0.024 A 
HETATM   26  C12 UNL     1       1.539  -7.039  14.276  1.00  0.00     0.012 A 
ENDBRANCH   1  20
BRANCH   1  27
HETATM   27  C13 UNL     1       2.799  -9.333  13.452  1.00  0.00     0.033 A 
HETATM   28  C14 UNL     1       1.741 -10.159  13.753  1.00  0.00     0.061 A 
HETATM   29 CL2  UNL     1       1.097 -10.240  15.399  1.00  0.00    -0.082 Cl
HETATM   30  C15 UNL     1       1.074 -10.944  12.788  1.00  0.00     0.112 A 
HETATM   31  N6  UNL     1       1.465 -10.901  11.509  1.00  0.00    -0.372 N 
HETATM   32  C16 UNL     1       2.484 -10.109  11.181  1.00  0.00     0.112 A 
ATOM     33  H6  UNL     1       0.992 -11.462  10.801  1.00  0.00     0.164 HD
HETATM   34  C17 UNL     1       3.159  -9.329  12.107  1.00  0.00     0.061 A 
HETATM   35 CL3  UNL     1       4.473  -8.339  11.601  1.00  0.00    -0.082 Cl
ENDBRANCH   1  27
TORSDOF 9
ENDMDL
