MODEL 1
REMARK VINA RESULT: -6.755716454      0.000      0.000
REMARK  4 active torsions:
REMARK  status: ('A' for Active; 'I' for Inactive)
REMARK    1  A    between atoms: O1_2  and  C2_3 
REMARK    2  A    between atoms: C10_12  and  O3_13 
REMARK    3  A    between atoms: O3_13  and  C11_14 
REMARK    4  A    between atoms: C17_21  and  O5_22 
ROOT
HETATM    1  C2  UNL     1       5.422  -6.467  15.614  1.00  0.00     0.059 C 
HETATM    2  C3  UNL     1       4.526  -6.959  14.767  1.00  0.00     0.084 C 
HETATM    3  C4  UNL     1       3.237  -7.129  15.522  1.00  0.00     0.164 C 
HETATM    4  O2  UNL     1       2.406  -8.033  15.353  1.00  0.00    -0.292 OA
HETATM    5  C5  UNL     1       3.365  -5.966  16.389  1.00  0.00     0.066 C 
HETATM    6  C6  UNL     1       3.402  -4.780  15.450  1.00  0.00     0.028 C 
HETATM    7  C7  UNL     1       4.756  -6.340  16.884  1.00  0.00     0.025 C 
HETATM    8  C8  UNL     1       4.801  -7.758  17.446  1.00  0.00     0.024 C 
HETATM    9  C9  UNL     1       5.055  -5.402  17.915  1.00  0.00     0.051 C 
HETATM   10  C10 UNL     1       4.089  -4.271  18.194  1.00  0.00     0.144 C 
HETATM   11  C13 UNL     1       2.677  -4.367  18.026  1.00  0.00     0.021 A 
HETATM   12  C14 UNL     1       2.058  -3.049  18.180  1.00  0.00     0.021 C 
HETATM   13  C15 UNL     1       1.440  -5.114  17.766  1.00  0.00     0.032 A 
HETATM   14  C16 UNL     1       0.506  -5.251  18.976  1.00  0.00     0.014 C 
HETATM   15  C17 UNL     1       2.597  -5.742  17.609  1.00  0.00     0.088 A 
ENDROOT
BRANCH  10  16
HETATM   16  O3  UNL     1       4.420  -3.675  19.439  1.00  0.00    -0.315 OA
BRANCH  16  17
HETATM   17  C11 UNL     1       5.126  -2.537  19.646  1.00  0.00     0.255 C 
HETATM   18  C12 UNL     1       6.456  -2.347  19.034  1.00  0.00     0.126 C 
HETATM   19  O4  UNL     1       4.557  -1.704  20.377  1.00  0.00    -0.266 OA
ENDBRANCH  16  17
ENDBRANCH  10  16
BRANCH  15  20
HETATM   20  O5  UNL     1       2.820  -6.744  18.603  1.00  0.00    -0.387 OA
ATOM     21  H5  UNL     1       2.643  -7.623  18.292  1.00  0.00     0.210 HD
ENDBRANCH  15  20
BRANCH   1  22
HETATM   22  O1  UNL     1       6.745  -6.143  15.350  1.00  0.00    -0.359 OA
HETATM   23  C1  UNL     1       7.119  -5.061  14.524  1.00  0.00     0.209 C 
ENDBRANCH   1  22
TORSDOF 4
ENDMDL
MODEL 2
REMARK VINA RESULT: -6.724403090      2.185      4.110
REMARK  4 active torsions:
REMARK  status: ('A' for Active; 'I' for Inactive)
REMARK    1  A    between atoms: O1_2  and  C2_3 
REMARK    2  A    between atoms: C10_12  and  O3_13 
REMARK    3  A    between atoms: O3_13  and  C11_14 
REMARK    4  A    between atoms: C17_21  and  O5_22 
ROOT
HETATM    1  C2  UNL     1       4.329  -6.857  14.536  1.00  0.00     0.059 C 
HETATM    2  C3  UNL     1       3.155  -6.253  14.674  1.00  0.00     0.084 C 
HETATM    3  C4  UNL     1       3.148  -5.579  16.017  1.00  0.00     0.164 C 
HETATM    4  O2  UNL     1       2.167  -5.449  16.763  1.00  0.00    -0.292 OA
HETATM    5  C5  UNL     1       4.555  -5.205  16.053  1.00  0.00     0.066 C 
HETATM    6  C6  UNL     1       4.743  -4.275  14.874  1.00  0.00     0.028 C 
HETATM    7  C7  UNL     1       5.059  -6.610  15.752  1.00  0.00     0.025 C 
HETATM    8  C8  UNL     1       4.487  -7.642  16.720  1.00  0.00     0.024 C 
HETATM    9  C9  UNL     1       6.476  -6.542  15.900  1.00  0.00     0.051 C 
HETATM   10  C10 UNL     1       7.132  -5.207  16.172  1.00  0.00     0.144 C 
HETATM   11  C13 UNL     1       6.521  -4.153  16.912  1.00  0.00     0.021 A 
HETATM   12  C14 UNL     1       7.327  -2.934  16.818  1.00  0.00     0.021 C 
HETATM   13  C15 UNL     1       5.462  -3.599  17.764  1.00  0.00     0.032 A 
HETATM   14  C16 UNL     1       5.890  -3.291  19.205  1.00  0.00     0.014 C 
HETATM   15  C17 UNL     1       5.286  -4.809  17.252  1.00  0.00     0.088 A 
ENDROOT
BRANCH  10  16
HETATM   16  O3  UNL     1       8.469  -5.425  16.595  1.00  0.00    -0.315 OA
BRANCH  16  17
HETATM   17  C11 UNL     1       9.558  -5.632  15.814  1.00  0.00     0.255 C 
HETATM   18  C12 UNL     1      10.022  -6.999  15.508  1.00  0.00     0.126 C 
HETATM   19  O4  UNL     1      10.100  -4.590  15.401  1.00  0.00    -0.266 OA
ENDBRANCH  16  17
ENDBRANCH  10  16
BRANCH  15  20
HETATM   20  O5  UNL     1       5.339  -5.839  18.241  1.00  0.00    -0.387 OA
ATOM     21  H5  UNL     1       4.732  -5.698  18.958  1.00  0.00     0.210 HD
ENDBRANCH  15  20
BRANCH   1  22
HETATM   22  O1  UNL     1       4.779  -7.594  13.450  1.00  0.00    -0.359 OA
HETATM   23  C1  UNL     1       3.952  -7.928  12.355  1.00  0.00     0.209 C 
ENDBRANCH   1  22
TORSDOF 4
ENDMDL
MODEL 3
REMARK VINA RESULT: -6.496555338      1.861      4.432
REMARK  4 active torsions:
REMARK  status: ('A' for Active; 'I' for Inactive)
REMARK    1  A    between atoms: O1_2  and  C2_3 
REMARK    2  A    between atoms: C10_12  and  O3_13 
REMARK    3  A    between atoms: O3_13  and  C11_14 
REMARK    4  A    between atoms: C17_21  and  O5_22 
ROOT
HETATM    1  C2  UNL     1       4.722  -4.946  17.682  1.00  0.00     0.059 C 
HETATM    2  C3  UNL     1       5.744  -5.091  16.848  1.00  0.00     0.084 C 
HETATM    3  C4  UNL     1       5.451  -6.281  15.977  1.00  0.00     0.164 C 
HETATM    4  O2  UNL     1       6.284  -7.088  15.541  1.00  0.00    -0.292 OA
HETATM    5  C5  UNL     1       4.009  -6.101  15.883  1.00  0.00     0.066 C 
HETATM    6  C6  UNL     1       3.824  -4.759  15.209  1.00  0.00     0.028 C 
HETATM    7  C7  UNL     1       3.801  -6.013  17.390  1.00  0.00     0.025 C 
HETATM    8  C8  UNL     1       4.406  -7.208  18.121  1.00  0.00     0.024 C 
HETATM    9  C9  UNL     1       2.388  -5.997  17.575  1.00  0.00     0.051 C 
HETATM   10  C10 UNL     1       1.479  -5.951  16.366  1.00  0.00     0.144 C 
HETATM   11  C13 UNL     1       1.791  -6.544  15.109  1.00  0.00     0.021 A 
HETATM   12  C14 UNL     1       0.807  -6.144  14.102  1.00  0.00     0.021 C 
HETATM   13  C15 UNL     1       2.613  -7.385  14.229  1.00  0.00     0.032 A 
HETATM   14  C16 UNL     1       1.946  -8.692  13.783  1.00  0.00     0.014 C 
HETATM   15  C17 UNL     1       3.063  -7.125  15.449  1.00  0.00     0.088 A 
ENDROOT
BRANCH  10  16
HETATM   16  O3  UNL     1       0.155  -6.265  16.769  1.00  0.00    -0.315 OA
BRANCH  16  17
HETATM   17  C11 UNL     1      -0.784  -5.415  17.252  1.00  0.00     0.255 C 
HETATM   18  C12 UNL     1      -0.902  -5.159  18.701  1.00  0.00     0.126 C 
HETATM   19  O4  UNL     1      -1.505  -4.895  16.380  1.00  0.00    -0.266 OA
ENDBRANCH  16  17
ENDBRANCH  10  16
BRANCH  15  20
HETATM   20  O5  UNL     1       3.056  -8.275  16.296  1.00  0.00    -0.387 OA
ATOM     21  H5  UNL     1       2.573  -9.006  15.928  1.00  0.00     0.210 HD
ENDBRANCH  15  20
BRANCH   1  22
HETATM   22  O1  UNL     1       4.559  -3.972  18.657  1.00  0.00    -0.359 OA
HETATM   23  C1  UNL     1       5.644  -3.286  19.245  1.00  0.00     0.209 C 
ENDBRANCH   1  22
TORSDOF 4
ENDMDL
MODEL 4
REMARK VINA RESULT: -6.408198021      1.770      3.851
REMARK  4 active torsions:
REMARK  status: ('A' for Active; 'I' for Inactive)
REMARK    1  A    between atoms: O1_2  and  C2_3 
REMARK    2  A    between atoms: C10_12  and  O3_13 
REMARK    3  A    between atoms: O3_13  and  C11_14 
REMARK    4  A    between atoms: C17_21  and  O5_22 
ROOT
HETATM    1  C2  UNL     1       2.106  -7.064  16.719  1.00  0.00     0.059 C 
HETATM    2  C3  UNL     1       2.931  -7.992  16.249  1.00  0.00     0.084 C 
HETATM    3  C4  UNL     1       4.186  -7.295  15.802  1.00  0.00     0.164 C 
HETATM    4  O2  UNL     1       4.892  -7.613  14.834  1.00  0.00    -0.292 OA
HETATM    5  C5  UNL     1       4.210  -6.263  16.828  1.00  0.00     0.066 C 
HETATM    6  C6  UNL     1       4.329  -7.013  18.137  1.00  0.00     0.028 C 
HETATM    7  C7  UNL     1       2.782  -5.802  16.567  1.00  0.00     0.025 C 
HETATM    8  C8  UNL     1       2.553  -5.457  15.098  1.00  0.00     0.024 C 
HETATM    9  C9  UNL     1       2.608  -4.637  17.370  1.00  0.00     0.051 C 
HETATM   10  C10 UNL     1       3.713  -4.212  18.312  1.00  0.00     0.144 C 
HETATM   11  C13 UNL     1       5.100  -4.419  18.062  1.00  0.00     0.021 A 
HETATM   12  C14 UNL     1       5.886  -4.082  19.250  1.00  0.00     0.021 C 
HETATM   13  C15 UNL     1       6.229  -4.810  17.209  1.00  0.00     0.032 A 
HETATM   14  C16 UNL     1       7.137  -3.653  16.773  1.00  0.00     0.014 C 
HETATM   15  C17 UNL     1       5.000  -5.037  16.766  1.00  0.00     0.088 A 
ENDROOT
BRANCH  10  16
HETATM   16  O3  UNL     1       3.462  -2.886  18.752  1.00  0.00    -0.315 OA
BRANCH  16  17
HETATM   17  C11 UNL     1       3.057  -2.488  19.983  1.00  0.00     0.255 C 
HETATM   18  C12 UNL     1       1.924  -3.149  20.659  1.00  0.00     0.126 C 
HETATM   19  O4  UNL     1       3.715  -1.546  20.462  1.00  0.00    -0.266 OA
ENDBRANCH  16  17
ENDBRANCH  10  16
BRANCH  15  20
HETATM   20  O5  UNL     1       4.649  -4.200  15.663  1.00  0.00    -0.387 OA
ATOM     21  H5  UNL     1       5.366  -4.063  15.056  1.00  0.00     0.210 HD
ENDBRANCH  15  20
BRANCH   1  22
HETATM   22  O1  UNL     1       0.837  -7.251  17.247  1.00  0.00    -0.359 OA
HETATM   23  C1  UNL     1      -0.233  -7.788  16.497  1.00  0.00     0.209 C 
ENDBRANCH   1  22
TORSDOF 4
ENDMDL
MODEL 5
REMARK VINA RESULT: -6.355753029      1.499      1.707
REMARK  4 active torsions:
REMARK  status: ('A' for Active; 'I' for Inactive)
REMARK    1  A    between atoms: O1_2  and  C2_3 
REMARK    2  A    between atoms: C10_12  and  O3_13 
REMARK    3  A    between atoms: O3_13  and  C11_14 
REMARK    4  A    between atoms: C17_21  and  O5_22 
ROOT
HETATM    1  C2  UNL     1       5.700  -5.890  16.466  1.00  0.00     0.059 C 
HETATM    2  C3  UNL     1       5.455  -6.319  15.234  1.00  0.00     0.084 C 
HETATM    3  C4  UNL     1       4.062  -6.884  15.220  1.00  0.00     0.164 C 
HETATM    4  O2  UNL     1       3.675  -7.854  14.553  1.00  0.00    -0.292 OA
HETATM    5  C5  UNL     1       3.467  -5.953  16.168  1.00  0.00     0.066 C 
HETATM    6  C6  UNL     1       3.608  -4.592  15.521  1.00  0.00     0.028 C 
HETATM    7  C7  UNL     1       4.523  -6.183  17.241  1.00  0.00     0.025 C 
HETATM    8  C8  UNL     1       4.683  -7.663  17.577  1.00  0.00     0.024 C 
HETATM    9  C9  UNL     1       4.056  -5.475  18.387  1.00  0.00     0.051 C 
HETATM   10  C10 UNL     1       2.807  -4.628  18.281  1.00  0.00     0.144 C 
HETATM   11  C13 UNL     1       1.710  -4.927  17.422  1.00  0.00     0.021 A 
HETATM   12  C14 UNL     1       0.762  -3.811  17.403  1.00  0.00     0.021 C 
HETATM   13  C15 UNL     1       0.977  -5.797  16.494  1.00  0.00     0.032 A 
HETATM   14  C16 UNL     1      -0.331  -6.375  17.052  1.00  0.00     0.014 C 
HETATM   15  C17 UNL     1       2.199  -6.159  16.861  1.00  0.00     0.088 A 
ENDROOT
BRANCH  10  16
HETATM   16  O3  UNL     1       2.362  -4.292  19.586  1.00  0.00    -0.315 OA
BRANCH  16  17
HETATM   17  C11 UNL     1       2.566  -3.129  20.253  1.00  0.00     0.255 C 
HETATM   18  C12 UNL     1       3.618  -2.185  19.827  1.00  0.00     0.126 C 
HETATM   19  O4  UNL     1       1.803  -2.951  21.221  1.00  0.00    -0.266 OA
ENDBRANCH  16  17
ENDBRANCH  10  16
BRANCH  15  20
HETATM   20  O5  UNL     1       2.203  -7.311  17.705  1.00  0.00    -0.387 OA
ATOM     21  H5  UNL     1       1.373  -7.453  18.145  1.00  0.00     0.210 HD
ENDBRANCH  15  20
BRANCH   1  22
HETATM   22  O1  UNL     1       6.857  -5.287  16.937  1.00  0.00    -0.359 OA
HETATM   23  C1  UNL     1       7.122  -3.909  16.781  1.00  0.00     0.209 C 
ENDBRANCH   1  22
TORSDOF 4
ENDMDL
