MODEL 1
REMARK VINA RESULT: -6.030650965      0.000      0.000
REMARK  3 active torsions:
REMARK  status: ('A' for Active; 'I' for Inactive)
REMARK    1  A    between atoms: C2_2  and  C3_4 
REMARK    2  A    between atoms: C3_4  and  N1_5 
REMARK       I    between atoms: N1_5  and  C4_7 
REMARK    3  A    between atoms: C4_7  and  C5_9 
ROOT
HETATM    1  N1  UNL     1       4.223 141.840 350.918  1.00  0.00    -0.356 N 
ATOM      2  H1  UNL     1       3.881 141.441 350.045  1.00  0.00     0.162 HD
HETATM    3  C4  UNL     1       5.179 141.115 351.662  1.00  0.00     0.222 C 
HETATM    4  O1  UNL     1       5.609 141.588 352.731  1.00  0.00    -0.273 OA
ENDROOT
BRANCH   3   5
HETATM    5  C5  UNL     1       5.676 139.808 351.192  1.00  0.00     0.078 C 
HETATM    6  C6  UNL     1       5.649 138.781 352.278  1.00  0.00     0.014 C 
HETATM    7  C7  UNL     1       5.205 137.423 351.823  1.00  0.00     0.001 C 
HETATM    8  C8  UNL     1       3.908 137.424 351.088  1.00  0.00     0.000 C 
HETATM    9  C9  UNL     1       3.710 138.607 350.197  1.00  0.00     0.001 C 
HETATM   10  C10 UNL     1       4.983 139.366 349.929  1.00  0.00     0.014 C 
ENDBRANCH   3   5
BRANCH   1  11
HETATM   11  C3  UNL     1       3.706 143.129 351.343  1.00  0.00     0.168 C 
BRANCH  11  12
HETATM   12  C2  UNL     1       4.243 144.233 350.502  1.00  0.00    -0.003 C 
HETATM   13  C1  UNL     1       3.577 145.360 350.352  1.00  0.00     0.028 C 
HETATM   14 BR1  UNL     1       5.918 144.032 349.617  1.00  0.00    -0.055 Br
ENDBRANCH  11  12
ENDBRANCH   1  11
TORSDOF 3
ENDMDL
MODEL 2
REMARK VINA RESULT: -6.007939919      2.179      2.451
REMARK  3 active torsions:
REMARK  status: ('A' for Active; 'I' for Inactive)
REMARK    1  A    between atoms: C2_2  and  C3_4 
REMARK    2  A    between atoms: C3_4  and  N1_5 
REMARK       I    between atoms: N1_5  and  C4_7 
REMARK    3  A    between atoms: C4_7  and  C5_9 
ROOT
HETATM    1  N1  UNL     1       5.551 142.550 349.884  1.00  0.00    -0.356 N 
ATOM      2  H1  UNL     1       4.949 142.417 350.696  1.00  0.00     0.162 HD
HETATM    3  C4  UNL     1       5.896 141.421 349.110  1.00  0.00     0.222 C 
HETATM    4  O1  UNL     1       6.629 141.564 348.113  1.00  0.00    -0.273 OA
ENDROOT
BRANCH   3   5
HETATM    5  C5  UNL     1       5.401 140.077 349.463  1.00  0.00     0.078 C 
HETATM    6  C6  UNL     1       5.465 139.832 350.937  1.00  0.00     0.014 C 
HETATM    7  C7  UNL     1       4.279 139.098 351.486  1.00  0.00     0.001 C 
HETATM    8  C8  UNL     1       2.967 139.710 351.127  1.00  0.00     0.000 C 
HETATM    9  C9  UNL     1       2.915 140.278 349.745  1.00  0.00     0.001 C 
HETATM   10  C10 UNL     1       4.043 139.805 348.868  1.00  0.00     0.014 C 
ENDBRANCH   3   5
BRANCH   1  11
HETATM   11  C3  UNL     1       6.015 143.891 349.574  1.00  0.00     0.168 C 
BRANCH  11  12
HETATM   12  C2  UNL     1       4.884 144.856 349.515  1.00  0.00    -0.003 C 
HETATM   13  C1  UNL     1       4.920 145.897 348.708  1.00  0.00     0.028 C 
HETATM   14 BR1  UNL     1       3.353 144.601 350.617  1.00  0.00    -0.055 Br
ENDBRANCH  11  12
ENDBRANCH   1  11
TORSDOF 3
ENDMDL
MODEL 3
REMARK VINA RESULT: -5.930662199      2.390      5.229
REMARK  3 active torsions:
REMARK  status: ('A' for Active; 'I' for Inactive)
REMARK    1  A    between atoms: C2_2  and  C3_4 
REMARK    2  A    between atoms: C3_4  and  N1_5 
REMARK       I    between atoms: N1_5  and  C4_7 
REMARK    3  A    between atoms: C4_7  and  C5_9 
ROOT
HETATM    1  N1  UNL     1       3.639 141.613 350.934  1.00  0.00    -0.356 N 
ATOM      2  H1  UNL     1       3.225 142.206 350.216  1.00  0.00     0.162 HD
HETATM    3  C4  UNL     1       4.798 142.069 351.599  1.00  0.00     0.222 C 
HETATM    4  O1  UNL     1       5.317 141.358 352.480  1.00  0.00    -0.273 OA
ENDROOT
BRANCH   3   5
HETATM    5  C5  UNL     1       5.400 143.374 351.267  1.00  0.00     0.078 C 
HETATM    6  C6  UNL     1       5.643 143.515 349.799  1.00  0.00     0.014 C 
HETATM    7  C7  UNL     1       5.329 144.877 349.255  1.00  0.00     0.001 C 
HETATM    8  C8  UNL     1       3.962 145.365 349.596  1.00  0.00     0.000 C 
HETATM    9  C9  UNL     1       3.501 144.987 350.967  1.00  0.00     0.001 C 
HETATM   10  C10 UNL     1       4.620 144.520 351.859  1.00  0.00     0.014 C 
ENDBRANCH   3   5
BRANCH   1  11
HETATM   11  C3  UNL     1       3.013 140.336 351.228  1.00  0.00     0.168 C 
BRANCH  11  12
HETATM   12  C2  UNL     1       3.537 139.259 350.345  1.00  0.00    -0.003 C 
HETATM   13  C1  UNL     1       3.120 139.136 349.101  1.00  0.00     0.028 C 
HETATM   14 BR1  UNL     1       4.830 138.027 351.006  1.00  0.00    -0.055 Br
ENDBRANCH  11  12
ENDBRANCH   1  11
TORSDOF 3
ENDMDL
MODEL 4
REMARK VINA RESULT: -5.873524699      2.148      5.428
REMARK  3 active torsions:
REMARK  status: ('A' for Active; 'I' for Inactive)
REMARK    1  A    between atoms: C2_2  and  C3_4 
REMARK    2  A    between atoms: C3_4  and  N1_5 
REMARK       I    between atoms: N1_5  and  C4_7 
REMARK    3  A    between atoms: C4_7  and  C5_9 
ROOT
HETATM    1  N1  UNL     1       4.065 140.045 349.894  1.00  0.00    -0.356 N 
ATOM      2  H1  UNL     1       4.694 140.163 349.100  1.00  0.00     0.162 HD
HETATM    3  C4  UNL     1       3.493 141.195 350.478  1.00  0.00     0.222 C 
HETATM    4  O1  UNL     1       2.722 141.070 351.448  1.00  0.00    -0.273 OA
ENDROOT
BRANCH   3   5
HETATM    5  C5  UNL     1       3.795 142.542 349.957  1.00  0.00     0.078 C 
HETATM    6  C6  UNL     1       2.786 143.550 350.408  1.00  0.00     0.014 C 
HETATM    7  C7  UNL     1       3.375 144.877 350.784  1.00  0.00     0.001 C 
HETATM    8  C8  UNL     1       4.487 144.788 351.774  1.00  0.00     0.000 C 
HETATM    9  C9  UNL     1       5.381 143.605 351.586  1.00  0.00     0.001 C 
HETATM   10  C10 UNL     1       5.218 142.948 350.241  1.00  0.00     0.014 C 
ENDBRANCH   3   5
BRANCH   1  11
HETATM   11  C3  UNL     1       3.797 138.701 350.374  1.00  0.00     0.168 C 
BRANCH  11  12
HETATM   12  C2  UNL     1       4.860 138.235 351.305  1.00  0.00    -0.003 C 
HETATM   13  C1  UNL     1       5.097 136.950 351.479  1.00  0.00     0.028 C 
HETATM   14 BR1  UNL     1       5.904 139.500 352.272  1.00  0.00    -0.055 Br
ENDBRANCH  11  12
ENDBRANCH   1  11
TORSDOF 3
ENDMDL
MODEL 5
REMARK VINA RESULT: -5.840653810      2.547      5.543
REMARK  3 active torsions:
REMARK  status: ('A' for Active; 'I' for Inactive)
REMARK    1  A    between atoms: C2_2  and  C3_4 
REMARK    2  A    between atoms: C3_4  and  N1_5 
REMARK       I    between atoms: N1_5  and  C4_7 
REMARK    3  A    between atoms: C4_7  and  C5_9 
ROOT
HETATM    1  N1  UNL     1       5.200 140.231 350.801  1.00  0.00    -0.356 N 
ATOM      2  H1  UNL     1       5.023 140.061 349.811  1.00  0.00     0.162 HD
HETATM    3  C4  UNL     1       5.143 141.559 351.277  1.00  0.00     0.222 C 
HETATM    4  O1  UNL     1       5.355 141.785 352.484  1.00  0.00    -0.273 OA
ENDROOT
BRANCH   3   5
HETATM    5  C5  UNL     1       4.835 142.680 350.369  1.00  0.00     0.078 C 
HETATM    6  C6  UNL     1       3.362 142.838 350.164  1.00  0.00     0.014 C 
HETATM    7  C7  UNL     1       2.899 144.263 350.134  1.00  0.00     0.001 C 
HETATM    8  C8  UNL     1       3.340 145.069 351.308  1.00  0.00     0.000 C 
HETATM    9  C9  UNL     1       4.718 144.745 351.790  1.00  0.00     0.001 C 
HETATM   10  C10 UNL     1       5.522 143.952 350.794  1.00  0.00     0.014 C 
ENDBRANCH   3   5
BRANCH   1  11
HETATM   11  C3  UNL     1       5.500 139.098 351.658  1.00  0.00     0.168 C 
BRANCH  11  12
HETATM   12  C2  UNL     1       4.698 137.904 351.279  1.00  0.00    -0.003 C 
HETATM   13  C1  UNL     1       3.697 137.999 350.426  1.00  0.00     0.028 C 
HETATM   14 BR1  UNL     1       5.107 136.201 352.026  1.00  0.00    -0.055 Br
ENDBRANCH  11  12
ENDBRANCH   1  11
TORSDOF 3
ENDMDL
