MODEL 1
REMARK VINA RESULT: -5.573852652      0.000      0.000
REMARK  2 active torsions:
REMARK  status: ('A' for Active; 'I' for Inactive)
REMARK    1  A    between atoms: C4_7  and  C5_8 
REMARK    2  A    between atoms: C5_8  and  C6_9 
ROOT
HETATM    1 BR1  UNL     1      18.794 154.822 378.704  1.00  0.00    -0.049 Br
HETATM    2  C1  UNL     1      17.060 155.271 379.375  1.00  0.00     0.034 A 
HETATM    3  C2  UNL     1      16.459 156.501 379.214  1.00  0.00     0.038 A 
HETATM    4  C3  UNL     1      15.214 156.465 379.828  1.00  0.00     0.089 A 
HETATM    5  N1  UNL     1      15.097 155.210 380.347  1.00  0.00    -0.368 N 
ATOM      6  H1  UNL     1      14.287 154.871 380.865  1.00  0.00     0.165 HD
HETATM    7  C4  UNL     1      16.177 154.491 380.090  1.00  0.00     0.026 A 
ENDROOT
BRANCH   7   8
HETATM    8  C5  UNL     1      16.437 153.091 380.479  1.00  0.00     0.063 C 
BRANCH   8   9
HETATM    9  C6  UNL     1      16.817 152.934 381.934  1.00  0.00    -0.009 C 
HETATM   10  C7  UNL     1      18.323 152.802 381.966  1.00  0.00     0.005 C 
HETATM   11  C8  UNL     1      18.534 152.268 383.382  1.00  0.00     0.000 C 
HETATM   12  C9  UNL     1      17.490 151.166 383.414  1.00  0.00     0.000 C 
HETATM   13  C10 UNL     1      16.367 151.635 382.515  1.00  0.00     0.005 C 
ENDBRANCH   8   9
ENDBRANCH   7   8
TORSDOF 2
ENDMDL
MODEL 2
REMARK VINA RESULT: -5.464927646      1.770      4.490
REMARK  2 active torsions:
REMARK  status: ('A' for Active; 'I' for Inactive)
REMARK    1  A    between atoms: C4_7  and  C5_8 
REMARK    2  A    between atoms: C5_8  and  C6_9 
ROOT
HETATM    1 BR1  UNL     1      18.997 153.390 382.280  1.00  0.00    -0.049 Br
HETATM    2  C1  UNL     1      17.373 152.422 381.992  1.00  0.00     0.034 A 
HETATM    3  C2  UNL     1      16.744 151.656 382.950  1.00  0.00     0.038 A 
HETATM    4  C3  UNL     1      15.600 151.104 382.390  1.00  0.00     0.089 A 
HETATM    5  N1  UNL     1      15.569 151.552 381.103  1.00  0.00    -0.368 N 
ATOM      6  H1  UNL     1      14.843 151.318 380.426  1.00  0.00     0.165 HD
HETATM    7  C4  UNL     1      16.607 152.332 380.850  1.00  0.00     0.026 A 
ENDROOT
BRANCH   7   8
HETATM    8  C5  UNL     1      16.931 153.010 379.580  1.00  0.00     0.063 C 
BRANCH   8   9
HETATM    9  C6  UNL     1      16.153 154.288 379.365  1.00  0.00    -0.009 C 
HETATM   10  C7  UNL     1      17.174 155.355 379.039  1.00  0.00     0.005 C 
HETATM   11  C8  UNL     1      16.339 156.619 379.235  1.00  0.00     0.000 C 
HETATM   12  C9  UNL     1      15.693 156.312 380.573  1.00  0.00     0.000 C 
HETATM   13  C10 UNL     1      15.533 154.807 380.619  1.00  0.00     0.005 C 
ENDBRANCH   8   9
ENDBRANCH   7   8
TORSDOF 2
ENDMDL
MODEL 3
REMARK VINA RESULT: -5.363679111      1.873      4.841
REMARK  2 active torsions:
REMARK  status: ('A' for Active; 'I' for Inactive)
REMARK    1  A    between atoms: C4_7  and  C5_8 
REMARK    2  A    between atoms: C5_8  and  C6_9 
ROOT
HETATM    1 BR1  UNL     1      19.076 153.257 382.939  1.00  0.00    -0.049 Br
HETATM    2  C1  UNL     1      17.463 152.409 382.358  1.00  0.00     0.034 A 
HETATM    3  C2  UNL     1      16.816 151.410 383.053  1.00  0.00     0.038 A 
HETATM    4  C3  UNL     1      15.687 151.036 382.337  1.00  0.00     0.089 A 
HETATM    5  N1  UNL     1      15.683 151.822 381.223  1.00  0.00    -0.368 N 
ATOM      6  H1  UNL     1      14.974 151.785 380.491  1.00  0.00     0.165 HD
HETATM    7  C4  UNL     1      16.723 152.639 381.218  1.00  0.00     0.026 A 
ENDROOT
BRANCH   7   8
HETATM    8  C5  UNL     1      17.073 153.640 380.192  1.00  0.00     0.063 C 
BRANCH   8   9
HETATM    9  C6  UNL     1      16.693 155.051 380.576  1.00  0.00    -0.009 C 
HETATM   10  C7  UNL     1      15.404 155.357 379.846  1.00  0.00     0.005 C 
HETATM   11  C8  UNL     1      15.346 156.877 379.991  1.00  0.00     0.000 C 
HETATM   12  C9  UNL     1      16.764 157.242 379.592  1.00  0.00     0.000 C 
HETATM   13  C10 UNL     1      17.627 156.075 380.023  1.00  0.00     0.005 C 
ENDBRANCH   8   9
ENDBRANCH   7   8
TORSDOF 2
ENDMDL
MODEL 4
REMARK VINA RESULT: -5.335337728      2.437      5.176
REMARK  2 active torsions:
REMARK  status: ('A' for Active; 'I' for Inactive)
REMARK    1  A    between atoms: C4_7  and  C5_8 
REMARK    2  A    between atoms: C5_8  and  C6_9 
ROOT
HETATM    1 BR1  UNL     1      15.675 151.397 382.362  1.00  0.00    -0.049 Br
HETATM    2  C1  UNL     1      17.474 151.993 382.620  1.00  0.00     0.034 A 
HETATM    3  C2  UNL     1      18.275 151.614 383.676  1.00  0.00     0.038 A 
HETATM    4  C3  UNL     1      19.508 152.237 383.539  1.00  0.00     0.089 A 
HETATM    5  N1  UNL     1      19.418 152.980 382.399  1.00  0.00    -0.368 N 
ATOM      6  H1  UNL     1      20.170 153.560 382.026  1.00  0.00     0.165 HD
HETATM    7  C4  UNL     1      18.226 152.848 381.843  1.00  0.00     0.026 A 
ENDROOT
BRANCH   7   8
HETATM    8  C5  UNL     1      17.738 153.486 380.605  1.00  0.00     0.063 C 
BRANCH   8   9
HETATM    9  C6  UNL     1      17.085 154.829 380.839  1.00  0.00    -0.009 C 
HETATM   10  C7  UNL     1      15.702 154.740 380.235  1.00  0.00     0.005 C 
HETATM   11  C8  UNL     1      15.317 156.217 380.181  1.00  0.00     0.000 C 
HETATM   12  C9  UNL     1      16.576 156.803 379.569  1.00  0.00     0.000 C 
HETATM   13  C10 UNL     1      17.713 155.926 380.046  1.00  0.00     0.005 C 
ENDBRANCH   8   9
ENDBRANCH   7   8
TORSDOF 2
ENDMDL
MODEL 5
REMARK VINA RESULT: -5.297322691      2.052      2.679
REMARK  2 active torsions:
REMARK  status: ('A' for Active; 'I' for Inactive)
REMARK    1  A    between atoms: C4_7  and  C5_8 
REMARK    2  A    between atoms: C5_8  and  C6_9 
ROOT
HETATM    1 BR1  UNL     1      15.646 156.027 379.238  1.00  0.00    -0.049 Br
HETATM    2  C1  UNL     1      17.525 155.716 379.419  1.00  0.00     0.034 A 
HETATM    3  C2  UNL     1      18.467 156.077 378.479  1.00  0.00     0.038 A 
HETATM    4  C3  UNL     1      19.719 155.698 378.944  1.00  0.00     0.089 A 
HETATM    5  N1  UNL     1      19.498 155.114 380.156  1.00  0.00    -0.368 N 
ATOM      6  H1  UNL     1      20.229 154.728 380.753  1.00  0.00     0.165 HD
HETATM    7  C4  UNL     1      18.210 155.117 380.454  1.00  0.00     0.026 A 
ENDROOT
BRANCH   7   8
HETATM    8  C5  UNL     1      17.569 154.581 381.670  1.00  0.00     0.063 C 
BRANCH   8   9
HETATM    9  C6  UNL     1      17.390 153.080 381.643  1.00  0.00    -0.009 C 
HETATM   10  C7  UNL     1      15.928 152.822 381.932  1.00  0.00     0.005 C 
HETATM   11  C8  UNL     1      15.960 151.331 382.263  1.00  0.00     0.000 C 
HETATM   12  C9  UNL     1      17.132 151.292 383.226  1.00  0.00     0.000 C 
HETATM   13  C10 UNL     1      18.070 152.394 382.780  1.00  0.00     0.005 C 
ENDBRANCH   8   9
ENDBRANCH   7   8
TORSDOF 2
ENDMDL
