MODEL 1
REMARK VINA RESULT: -6.581907209      0.000      0.000
REMARK  2 active torsions:
REMARK  status: ('A' for Active; 'I' for Inactive)
REMARK       I    between atoms: N1_9  and  C7_10 
REMARK       I    between atoms: C7_10  and  N2_12 
REMARK    1  A    between atoms: N2_12  and  C8_14 
REMARK    2  A    between atoms: C8_14  and  C9_15 
ROOT
HETATM    1  C1  UNL     1      70.648 142.110 348.377  1.00  0.00     0.032 C 
HETATM    2  C2  UNL     1      69.717 142.101 349.596  1.00  0.00     0.090 C 
HETATM    3  C3  UNL     1      69.481 143.522 349.994  1.00  0.00     0.104 C 
HETATM    4  C4  UNL     1      70.362 144.025 351.081  1.00  0.00     0.247 C 
HETATM    5  F1  UNL     1      70.809 145.324 350.803  1.00  0.00    -0.206 F 
HETATM    6  F2  UNL     1      69.614 144.156 352.261  1.00  0.00    -0.206 F 
HETATM    7  C5  UNL     1      71.539 143.178 351.397  1.00  0.00     0.099 C 
HETATM    8  C6  UNL     1      71.076 141.769 351.679  1.00  0.00     0.134 C 
HETATM    9  N1  UNL     1      70.208 141.262 350.636  1.00  0.00    -0.330 N 
HETATM   10  C7  UNL     1      69.885 139.884 350.721  1.00  0.00     0.318 C 
HETATM   11  O1  UNL     1      69.128 139.415 349.822  1.00  0.00    -0.247 OA
HETATM   12  N2  UNL     1      70.344 139.022 351.722  1.00  0.00    -0.343 N 
ATOM     13  H2  UNL     1      70.954 139.392 352.451  1.00  0.00     0.164 HD
ENDROOT
BRANCH  12  14
HETATM   14  C8  UNL     1      69.981 137.627 351.758  1.00  0.00     0.129 C 
BRANCH  14  15
HETATM   15  C9  UNL     1      70.962 136.748 351.053  1.00  0.00     0.003 A 
HETATM   16  C10 UNL     1      70.784 135.277 351.005  1.00  0.00     0.007 A 
HETATM   17  C11 UNL     1      71.799 135.871 351.944  1.00  0.00     0.007 A 
ENDBRANCH  14  15
ENDBRANCH  12  14
TORSDOF 2
ENDMDL
MODEL 2
REMARK VINA RESULT: -6.536392637      2.051      3.145
REMARK  2 active torsions:
REMARK  status: ('A' for Active; 'I' for Inactive)
REMARK       I    between atoms: N1_9  and  C7_10 
REMARK       I    between atoms: C7_10  and  N2_12 
REMARK    1  A    between atoms: N2_12  and  C8_14 
REMARK    2  A    between atoms: C8_14  and  C9_15 
ROOT
HETATM    1  C1  UNL     1      70.385 144.477 352.681  1.00  0.00     0.032 C 
HETATM    2  C2  UNL     1      70.521 144.334 351.160  1.00  0.00     0.090 C 
HETATM    3  C3  UNL     1      70.206 145.663 350.552  1.00  0.00     0.104 C 
HETATM    4  C4  UNL     1      68.804 145.824 350.084  1.00  0.00     0.247 C 
HETATM    5  F1  UNL     1      68.302 147.088 350.424  1.00  0.00    -0.206 F 
HETATM    6  F2  UNL     1      68.778 145.803 348.681  1.00  0.00    -0.206 F 
HETATM    7  C5  UNL     1      67.846 144.793 350.557  1.00  0.00     0.099 C 
HETATM    8  C6  UNL     1      68.381 143.424 350.215  1.00  0.00     0.134 C 
HETATM    9  N1  UNL     1      69.750 143.249 350.655  1.00  0.00    -0.330 N 
HETATM   10  C7  UNL     1      70.266 141.931 350.551  1.00  0.00     0.318 C 
HETATM   11  O1  UNL     1      71.460 141.751 350.928  1.00  0.00    -0.247 OA
HETATM   12  N2  UNL     1      69.549 140.835 350.063  1.00  0.00    -0.343 N 
ATOM     13  H2  UNL     1      68.585 140.972 349.757  1.00  0.00     0.164 HD
ENDROOT
BRANCH  12  14
HETATM   14  C8  UNL     1      70.126 139.516 349.980  1.00  0.00     0.129 C 
BRANCH  14  15
HETATM   15  C9  UNL     1      69.312 138.475 350.675  1.00  0.00     0.003 A 
HETATM   16  C10 UNL     1      69.240 138.415 352.155  1.00  0.00     0.007 A 
HETATM   17  C11 UNL     1      70.100 137.427 351.414  1.00  0.00     0.007 A 
ENDBRANCH  14  15
ENDBRANCH  12  14
TORSDOF 2
ENDMDL
MODEL 3
REMARK VINA RESULT: -6.173076632      2.297      3.220
REMARK  2 active torsions:
REMARK  status: ('A' for Active; 'I' for Inactive)
REMARK       I    between atoms: N1_9  and  C7_10 
REMARK       I    between atoms: C7_10  and  N2_12 
REMARK    1  A    between atoms: N2_12  and  C8_14 
REMARK    2  A    between atoms: C8_14  and  C9_15 
ROOT
HETATM    1  C1  UNL     1      71.736 145.716 349.061  1.00  0.00     0.032 C 
HETATM    2  C2  UNL     1      70.331 145.107 348.980  1.00  0.00     0.090 C 
HETATM    3  C3  UNL     1      69.347 146.228 349.071  1.00  0.00     0.104 C 
HETATM    4  C4  UNL     1      68.804 146.480 350.432  1.00  0.00     0.247 C 
HETATM    5  F1  UNL     1      68.739 147.854 350.701  1.00  0.00    -0.206 F 
HETATM    6  F2  UNL     1      67.470 146.048 350.485  1.00  0.00    -0.206 F 
HETATM    7  C5  UNL     1      69.527 145.816 351.545  1.00  0.00     0.099 C 
HETATM    8  C6  UNL     1      69.624 144.336 351.261  1.00  0.00     0.134 C 
HETATM    9  N1  UNL     1      70.143 144.069 349.935  1.00  0.00    -0.330 N 
HETATM   10  C7  UNL     1      70.450 142.712 349.657  1.00  0.00     0.318 C 
HETATM   11  O1  UNL     1      70.905 142.451 348.506  1.00  0.00    -0.247 OA
HETATM   12  N2  UNL     1      70.284 141.659 350.562  1.00  0.00    -0.343 N 
ATOM     13  H2  UNL     1      69.917 141.861 351.492  1.00  0.00     0.164 HD
ENDROOT
BRANCH  12  14
HETATM   14  C8  UNL     1      70.613 140.297 350.223  1.00  0.00     0.129 C 
BRANCH  14  15
HETATM   15  C9  UNL     1      69.557 139.321 350.627  1.00  0.00     0.003 A 
HETATM   16  C10 UNL     1      69.473 138.809 352.016  1.00  0.00     0.007 A 
HETATM   17  C11 UNL     1      70.047 137.932 350.936  1.00  0.00     0.007 A 
ENDBRANCH  14  15
ENDBRANCH  12  14
TORSDOF 2
ENDMDL
MODEL 4
REMARK VINA RESULT: -6.169183210      1.233      1.390
REMARK  2 active torsions:
REMARK  status: ('A' for Active; 'I' for Inactive)
REMARK       I    between atoms: N1_9  and  C7_10 
REMARK       I    between atoms: C7_10  and  N2_12 
REMARK    1  A    between atoms: N2_12  and  C8_14 
REMARK    2  A    between atoms: C8_14  and  C9_15 
ROOT
HETATM    1  C1  UNL     1      68.236 140.959 348.249  1.00  0.00     0.032 C 
HETATM    2  C2  UNL     1      68.422 141.231 349.747  1.00  0.00     0.090 C 
HETATM    3  C3  UNL     1      68.393 142.712 349.945  1.00  0.00     0.104 C 
HETATM    4  C4  UNL     1      69.727 143.367 349.993  1.00  0.00     0.247 C 
HETATM    5  F1  UNL     1      69.726 144.564 349.264  1.00  0.00    -0.206 F 
HETATM    6  F2  UNL     1      70.003 143.759 351.311  1.00  0.00    -0.206 F 
HETATM    7  C5  UNL     1      70.867 142.535 349.532  1.00  0.00     0.099 C 
HETATM    8  C6  UNL     1      70.871 141.232 350.295  1.00  0.00     0.134 C 
HETATM    9  N1  UNL     1      69.577 140.582 350.268  1.00  0.00    -0.330 N 
HETATM   10  C7  UNL     1      69.540 139.263 350.789  1.00  0.00     0.318 C 
HETATM   11  O1  UNL     1      68.422 138.672 350.778  1.00  0.00    -0.247 OA
HETATM   12  N2  UNL     1      70.647 138.585 351.310  1.00  0.00    -0.343 N 
ATOM     13  H2  UNL     1      71.552 139.054 351.323  1.00  0.00     0.164 HD
ENDROOT
BRANCH  12  14
HETATM   14  C8  UNL     1      70.549 137.243 351.828  1.00  0.00     0.129 C 
BRANCH  14  15
HETATM   15  C9  UNL     1      71.344 136.252 351.042  1.00  0.00     0.003 A 
HETATM   16  C10 UNL     1      70.920 134.835 350.936  1.00  0.00     0.007 A 
HETATM   17  C11 UNL     1      72.053 135.203 351.855  1.00  0.00     0.007 A 
ENDBRANCH  14  15
ENDBRANCH  12  14
TORSDOF 2
ENDMDL
MODEL 5
REMARK VINA RESULT: -5.400457197      3.345      6.543
REMARK  2 active torsions:
REMARK  status: ('A' for Active; 'I' for Inactive)
REMARK       I    between atoms: N1_9  and  C7_10 
REMARK       I    between atoms: C7_10  and  N2_12 
REMARK    1  A    between atoms: N2_12  and  C8_14 
REMARK    2  A    between atoms: C8_14  and  C9_15 
ROOT
HETATM    1  C1  UNL     1      71.767 141.858 351.717  1.00  0.00     0.032 C 
HETATM    2  C2  UNL     1      70.259 141.680 351.498  1.00  0.00     0.090 C 
HETATM    3  C3  UNL     1      69.976 140.213 351.475  1.00  0.00     0.104 C 
HETATM    4  C4  UNL     1      69.914 139.605 350.120  1.00  0.00     0.247 C 
HETATM    5  F1  UNL     1      70.572 138.368 350.094  1.00  0.00    -0.206 F 
HETATM    6  F2  UNL     1      68.580 139.299 349.810  1.00  0.00    -0.206 F 
HETATM    7  C5  UNL     1      70.443 140.443 349.015  1.00  0.00     0.099 C 
HETATM    8  C6  UNL     1      69.757 141.788 349.041  1.00  0.00     0.134 C 
HETATM    9  N1  UNL     1      69.799 142.395 350.356  1.00  0.00    -0.330 N 
HETATM   10  C7  UNL     1      69.353 143.740 350.427  1.00  0.00     0.318 C 
HETATM   11  O1  UNL     1      69.379 144.293 351.564  1.00  0.00    -0.247 OA
HETATM   12  N2  UNL     1      68.893 144.482 349.335  1.00  0.00    -0.343 N 
ATOM     13  H2  UNL     1      68.869 144.043 348.415  1.00  0.00     0.164 HD
ENDROOT
BRANCH  12  14
HETATM   14  C8  UNL     1      68.452 145.848 349.468  1.00  0.00     0.129 C 
BRANCH  14  15
HETATM   15  C9  UNL     1      69.580 146.826 349.525  1.00  0.00     0.003 A 
HETATM   16  C10 UNL     1      70.242 147.311 348.291  1.00  0.00     0.007 A 
HETATM   17  C11 UNL     1      70.928 146.278 349.142  1.00  0.00     0.007 A 
ENDBRANCH  14  15
ENDBRANCH  12  14
TORSDOF 2
ENDMDL
