MODEL 1
REMARK VINA RESULT: -5.254367047      0.000      0.000
REMARK  3 active torsions:
REMARK  status: ('A' for Active; 'I' for Inactive)
REMARK    1  A    between atoms: C2_2  and  C3_3 
REMARK    2  A    between atoms: C3_3  and  N1_6 
REMARK    3  A    between atoms: N1_6  and  C5_8 
ROOT
HETATM    1  N1  UNL     1      69.234 143.434 349.270  1.00  0.00    -0.386 N 
ATOM      2  H1  UNL     1      69.119 143.485 348.258  1.00  0.00     0.160 HD
ENDROOT
BRANCH   1   3
HETATM    3  C3  UNL     1      69.721 142.240 349.858  1.00  0.00     0.016 C 
HETATM    4  C4  UNL     1      69.204 141.079 349.507  1.00  0.00     0.109 C 
HETATM    5 CL1  UNL     1      67.915 140.987 348.315  1.00  0.00    -0.095 Cl
BRANCH   3   6
HETATM    6  C2  UNL     1      70.797 142.323 350.850  1.00  0.00     0.053 C 
HETATM    7  C1  UNL     1      70.991 141.052 351.621  1.00  0.00     0.011 C 
ENDBRANCH   3   6
ENDBRANCH   1   3
BRANCH   1   8
HETATM    8  C5  UNL     1      68.896 144.582 350.087  1.00  0.00     0.102 A 
HETATM    9  C6  UNL     1      68.343 145.745 349.372  1.00  0.00     0.049 A 
HETATM   10  C7  UNL     1      69.683 145.832 349.968  1.00  0.00     0.037 A 
HETATM   11  C8  UNL     1      69.812 146.709 351.201  1.00  0.00     0.030 C 
HETATM   12 BR1  UNL     1      71.259 145.740 348.854  1.00  0.00    -0.084 Br
ENDBRANCH   1   8
TORSDOF 3
ENDMDL
MODEL 2
REMARK VINA RESULT: -5.113236017      1.503      1.790
REMARK  3 active torsions:
REMARK  status: ('A' for Active; 'I' for Inactive)
REMARK    1  A    between atoms: C2_2  and  C3_3 
REMARK    2  A    between atoms: C3_3  and  N1_6 
REMARK    3  A    between atoms: N1_6  and  C5_8 
ROOT
HETATM    1  N1  UNL     1      69.260 142.780 349.866  1.00  0.00    -0.386 N 
ATOM      2  H1  UNL     1      68.312 143.137 349.746  1.00  0.00     0.160 HD
ENDROOT
BRANCH   1   3
HETATM    3  C3  UNL     1      69.470 141.383 349.975  1.00  0.00     0.016 C 
HETATM    4  C4  UNL     1      68.742 140.552 349.255  1.00  0.00     0.109 C 
HETATM    5 CL1  UNL     1      67.507 141.154 348.157  1.00  0.00    -0.095 Cl
BRANCH   3   6
HETATM    6  C2  UNL     1      70.501 140.887 350.892  1.00  0.00     0.053 C 
HETATM    7  C1  UNL     1      70.050 139.718 351.715  1.00  0.00     0.011 C 
ENDBRANCH   3   6
ENDBRANCH   1   3
BRANCH   1   8
HETATM    8  C5  UNL     1      70.372 143.707 349.923  1.00  0.00     0.102 A 
HETATM    9  C6  UNL     1      70.466 144.532 351.139  1.00  0.00     0.049 A 
HETATM   10  C7  UNL     1      70.122 145.167 349.859  1.00  0.00     0.037 A 
HETATM   11  C8  UNL     1      71.194 146.043 349.238  1.00  0.00     0.030 C 
HETATM   12 BR1  UNL     1      68.303 145.702 349.488  1.00  0.00    -0.084 Br
ENDBRANCH   1   8
TORSDOF 3
ENDMDL
MODEL 3
REMARK VINA RESULT: -4.973135237      1.593      2.281
REMARK  3 active torsions:
REMARK  status: ('A' for Active; 'I' for Inactive)
REMARK    1  A    between atoms: C2_2  and  C3_3 
REMARK    2  A    between atoms: C3_3  and  N1_6 
REMARK    3  A    between atoms: N1_6  and  C5_8 
ROOT
HETATM    1  N1  UNL     1      69.579 143.405 349.401  1.00  0.00    -0.386 N 
ATOM      2  H1  UNL     1      70.334 143.524 348.726  1.00  0.00     0.160 HD
ENDROOT
BRANCH   1   3
HETATM    3  C3  UNL     1      69.008 142.122 349.590  1.00  0.00     0.016 C 
HETATM    4  C4  UNL     1      69.638 141.226 350.324  1.00  0.00     0.109 C 
HETATM    5 CL1  UNL     1      71.182 141.601 351.077  1.00  0.00    -0.095 Cl
BRANCH   3   6
HETATM    6  C2  UNL     1      67.720 141.816 348.960  1.00  0.00     0.053 C 
HETATM    7  C1  UNL     1      67.789 140.669 347.997  1.00  0.00     0.011 C 
ENDBRANCH   3   6
ENDBRANCH   1   3
BRANCH   1   8
HETATM    8  C5  UNL     1      69.104 144.550 350.152  1.00  0.00     0.102 A 
HETATM    9  C6  UNL     1      68.440 145.607 349.370  1.00  0.00     0.049 A 
HETATM   10  C7  UNL     1      69.752 145.872 349.976  1.00  0.00     0.037 A 
HETATM   11  C8  UNL     1      69.764 146.818 351.161  1.00  0.00     0.030 C 
HETATM   12 BR1  UNL     1      71.347 145.896 348.885  1.00  0.00    -0.084 Br
ENDBRANCH   1   8
TORSDOF 3
ENDMDL
MODEL 4
REMARK VINA RESULT: -4.798075559      2.082      2.757
REMARK  3 active torsions:
REMARK  status: ('A' for Active; 'I' for Inactive)
REMARK    1  A    between atoms: C2_2  and  C3_3 
REMARK    2  A    between atoms: C3_3  and  N1_6 
REMARK    3  A    between atoms: N1_6  and  C5_8 
ROOT
HETATM    1  N1  UNL     1      69.263 143.345 350.711  1.00  0.00    -0.386 N 
ATOM      2  H1  UNL     1      68.618 143.632 351.447  1.00  0.00     0.160 HD
ENDROOT
BRANCH   1   3
HETATM    3  C3  UNL     1      69.043 142.123 350.029  1.00  0.00     0.016 C 
HETATM    4  C4  UNL     1      69.765 141.062 350.333  1.00  0.00     0.109 C 
HETATM    5 CL1  UNL     1      71.002 141.140 351.579  1.00  0.00    -0.095 Cl
BRANCH   3   6
HETATM    6  C2  UNL     1      68.009 142.064 348.991  1.00  0.00     0.053 C 
HETATM    7  C1  UNL     1      67.962 140.747 348.275  1.00  0.00     0.011 C 
ENDBRANCH   3   6
ENDBRANCH   1   3
BRANCH   1   8
HETATM    8  C5  UNL     1      70.391 144.191 350.379  1.00  0.00     0.102 A 
HETATM    9  C6  UNL     1      70.594 145.368 351.241  1.00  0.00     0.049 A 
HETATM   10  C7  UNL     1      70.163 145.556 349.849  1.00  0.00     0.037 A 
HETATM   11  C8  UNL     1      71.197 146.130 348.899  1.00  0.00     0.030 C 
HETATM   12 BR1  UNL     1      68.329 146.012 349.444  1.00  0.00    -0.084 Br
ENDBRANCH   1   8
TORSDOF 3
ENDMDL
MODEL 5
REMARK VINA RESULT: -4.712796186      2.103      2.682
REMARK  3 active torsions:
REMARK  status: ('A' for Active; 'I' for Inactive)
REMARK    1  A    between atoms: C2_2  and  C3_3 
REMARK    2  A    between atoms: C3_3  and  N1_6 
REMARK    3  A    between atoms: N1_6  and  C5_8 
ROOT
HETATM    1  N1  UNL     1      70.300 143.183 349.807  1.00  0.00    -0.386 N 
ATOM      2  H1  UNL     1      71.285 143.041 350.027  1.00  0.00     0.160 HD
ENDROOT
BRANCH   1   3
HETATM    3  C3  UNL     1      69.398 142.095 349.911  1.00  0.00     0.016 C 
HETATM    4  C4  UNL     1      69.689 141.075 350.694  1.00  0.00     0.109 C 
HETATM    5 CL1  UNL     1      71.185 141.043 351.617  1.00  0.00    -0.095 Cl
BRANCH   3   6
HETATM    6  C2  UNL     1      68.152 142.127 349.139  1.00  0.00     0.053 C 
HETATM    7  C1  UNL     1      67.938 140.898 348.307  1.00  0.00     0.011 C 
ENDBRANCH   3   6
ENDBRANCH   1   3
BRANCH   1   8
HETATM    8  C5  UNL     1      69.842 144.493 349.391  1.00  0.00     0.102 A 
HETATM    9  C6  UNL     1      70.837 145.577 349.455  1.00  0.00     0.049 A 
HETATM   10  C7  UNL     1      69.703 145.580 350.390  1.00  0.00     0.037 A 
HETATM   11  C8  UNL     1      68.638 146.633 350.147  1.00  0.00     0.030 C 
HETATM   12 BR1  UNL     1      69.955 145.072 352.237  1.00  0.00    -0.084 Br
ENDBRANCH   1   8
TORSDOF 3
ENDMDL
