MODEL 1
REMARK VINA RESULT: -5.753167374      0.000      0.000
REMARK  5 active torsions:
REMARK  status: ('A' for Active; 'I' for Inactive)
REMARK    1  A    between atoms: C2_2  and  C3_3 
REMARK    2  A    between atoms: C3_3  and  C4_4 
REMARK    3  A    between atoms: C5_5  and  C6_6 
REMARK    4  A    between atoms: C6_6  and  O1_7 
REMARK    5  A    between atoms: N1_9  and  O2_11 
ROOT
HETATM    1  C3  UNL     1     -11.966  12.964 -15.552  1.00  0.00    -0.049 C 
HETATM    2  C7  UNL     1     -11.155  12.717 -16.569  1.00  0.00    -0.006 C 
HETATM    3  C8  UNL     1     -10.580  11.351 -16.792  1.00  0.00     0.043 C 
HETATM    4  C9  UNL     1      -9.681  11.459 -18.000  1.00  0.00     0.005 C 
HETATM    5  C10 UNL     1     -10.533  11.964 -19.173  1.00  0.00     0.008 C 
HETATM    6  C11 UNL     1     -10.860  13.437 -18.952  1.00  0.00     0.083 C 
HETATM    7  C12 UNL     1     -10.772  13.740 -17.501  1.00  0.00     0.156 C 
HETATM    8  O3  UNL     1     -10.379  14.846 -17.087  1.00  0.00    -0.293 OA
ENDROOT
BRANCH   1   9
HETATM    9  C2  UNL     1     -12.600  14.245 -15.216  1.00  0.00     0.035 C 
HETATM   10  C1  UNL     1     -13.883  14.483 -16.032  1.00  0.00     0.010 C 
ENDBRANCH   1   9
BRANCH   1  11
HETATM   11  C4  UNL     1     -12.254  11.845 -14.661  1.00  0.00     0.012 C 
HETATM   12  C5  UNL     1     -11.566  11.530 -13.586  1.00  0.00     0.058 C 
BRANCH  12  13
HETATM   13  C6  UNL     1     -11.983  10.378 -12.798  1.00  0.00     0.159 C 
HETATM   14  N1  UNL     1     -11.526   9.188 -13.046  1.00  0.00    -0.248 N 
ATOM     15  H1  UNL     1     -11.832   8.397 -12.480  1.00  0.00     0.196 HD
BRANCH  13  16
HETATM   16  O1  UNL     1     -12.884  10.483 -11.746  1.00  0.00    -0.345 OA
ATOM     17  H1  UNL     1     -12.988   9.800 -11.095  1.00  0.00     0.219 HD
ENDBRANCH  13  16
BRANCH  14  18
HETATM   18  O2  UNL     1     -10.639   8.992 -14.058  1.00  0.00    -0.288 OA
ATOM     19  H2  UNL     1     -10.779   9.401 -14.904  1.00  0.00     0.244 HD
ENDBRANCH  14  18
ENDBRANCH  12  13
ENDBRANCH   1  11
TORSDOF 5
ENDMDL
MODEL 2
REMARK VINA RESULT: -5.725532133      0.968      1.708
REMARK  5 active torsions:
REMARK  status: ('A' for Active; 'I' for Inactive)
REMARK    1  A    between atoms: C2_2  and  C3_3 
REMARK    2  A    between atoms: C3_3  and  C4_4 
REMARK    3  A    between atoms: C5_5  and  C6_6 
REMARK    4  A    between atoms: C6_6  and  O1_7 
REMARK    5  A    between atoms: N1_9  and  O2_11 
ROOT
HETATM    1  C3  UNL     1     -11.621  13.133 -15.796  1.00  0.00    -0.049 C 
HETATM    2  C7  UNL     1     -11.352  13.298 -17.082  1.00  0.00    -0.006 C 
HETATM    3  C8  UNL     1     -10.921  12.147 -17.940  1.00  0.00     0.043 C 
HETATM    4  C9  UNL     1     -10.665  12.714 -19.315  1.00  0.00     0.005 C 
HETATM    5  C10 UNL     1     -11.960  13.383 -19.794  1.00  0.00     0.008 C 
HETATM    6  C11 UNL     1     -12.173  14.674 -19.010  1.00  0.00     0.083 C 
HETATM    7  C12 UNL     1     -11.444  14.581 -17.719  1.00  0.00     0.156 C 
HETATM    8  O3  UNL     1     -10.922  15.579 -17.191  1.00  0.00    -0.293 OA
ENDROOT
BRANCH   1   9
HETATM    9  C2  UNL     1     -12.054  14.164 -14.843  1.00  0.00     0.035 C 
HETATM   10  C1  UNL     1     -13.567  14.427 -14.928  1.00  0.00     0.010 C 
ENDBRANCH   1   9
BRANCH   1  11
HETATM   11  C4  UNL     1     -11.461  11.784 -15.263  1.00  0.00     0.012 C 
HETATM   12  C5  UNL     1     -11.587  11.443 -14.000  1.00  0.00     0.058 C 
BRANCH  12  13
HETATM   13  C6  UNL     1     -11.395  10.048 -13.627  1.00  0.00     0.159 C 
HETATM   14  N1  UNL     1     -11.898   9.567 -12.530  1.00  0.00    -0.248 N 
ATOM     15  H1  UNL     1     -11.750   8.586 -12.291  1.00  0.00     0.196 HD
BRANCH  13  16
HETATM   16  O1  UNL     1     -10.674   9.160 -14.414  1.00  0.00    -0.345 OA
ATOM     17  H1  UNL     1      -9.993   9.447 -15.010  1.00  0.00     0.219 HD
ENDBRANCH  13  16
BRANCH  14  18
HETATM   18  O2  UNL     1     -12.620  10.365 -11.699  1.00  0.00    -0.288 OA
ATOM     19  H2  UNL     1     -12.293  11.223 -11.456  1.00  0.00     0.244 HD
ENDBRANCH  14  18
ENDBRANCH  12  13
ENDBRANCH   1  11
TORSDOF 5
ENDMDL
MODEL 3
REMARK VINA RESULT: -5.551326528      1.579      3.009
REMARK  5 active torsions:
REMARK  status: ('A' for Active; 'I' for Inactive)
REMARK    1  A    between atoms: C2_2  and  C3_3 
REMARK    2  A    between atoms: C3_3  and  C4_4 
REMARK    3  A    between atoms: C5_5  and  C6_6 
REMARK    4  A    between atoms: C6_6  and  O1_7 
REMARK    5  A    between atoms: N1_9  and  O2_11 
ROOT
HETATM    1  C3  UNL     1     -12.275  11.146 -16.165  1.00  0.00    -0.049 C 
HETATM    2  C7  UNL     1     -12.470  12.449 -16.293  1.00  0.00    -0.006 C 
HETATM    3  C8  UNL     1     -12.869  13.295 -15.122  1.00  0.00     0.043 C 
HETATM    4  C9  UNL     1     -13.041  14.698 -15.649  1.00  0.00     0.005 C 
HETATM    5  C10 UNL     1     -11.712  15.124 -16.288  1.00  0.00     0.008 C 
HETATM    6  C11 UNL     1     -11.525  14.369 -17.599  1.00  0.00     0.083 C 
HETATM    7  C12 UNL     1     -12.325  13.119 -17.555  1.00  0.00     0.156 C 
HETATM    8  O3  UNL     1     -12.861  12.650 -18.575  1.00  0.00    -0.293 OA
ENDROOT
BRANCH   1   9
HETATM    9  C2  UNL     1     -11.881  10.201 -17.218  1.00  0.00     0.035 C 
HETATM   10  C1  UNL     1     -10.355  10.139 -17.395  1.00  0.00     0.010 C 
ENDBRANCH   1   9
BRANCH   1  11
HETATM   11  C4  UNL     1     -12.483  10.583 -14.834  1.00  0.00     0.012 C 
HETATM   12  C5  UNL     1     -11.533  10.267 -13.983  1.00  0.00     0.058 C 
BRANCH  12  13
HETATM   13  C6  UNL     1     -11.906   9.712 -12.688  1.00  0.00     0.159 C 
HETATM   14  N1  UNL     1     -11.381   8.608 -12.250  1.00  0.00    -0.248 N 
ATOM     15  H1  UNL     1     -11.658   8.240 -11.340  1.00  0.00     0.196 HD
BRANCH  13  16
HETATM   16  O1  UNL     1     -12.835  10.324 -11.857  1.00  0.00    -0.345 OA
ATOM     17  H1  UNL     1     -12.630  11.102 -11.352  1.00  0.00     0.219 HD
ENDBRANCH  13  16
BRANCH  14  18
HETATM   18  O2  UNL     1     -10.462   7.941 -12.998  1.00  0.00    -0.288 OA
ATOM     19  H2  UNL     1      -9.779   8.418 -13.454  1.00  0.00     0.244 HD
ENDBRANCH  14  18
ENDBRANCH  12  13
ENDBRANCH   1  11
TORSDOF 5
ENDMDL
MODEL 4
REMARK VINA RESULT: -5.497152799      1.894      3.212
REMARK  5 active torsions:
REMARK  status: ('A' for Active; 'I' for Inactive)
REMARK    1  A    between atoms: C2_2  and  C3_3 
REMARK    2  A    between atoms: C3_3  and  C4_4 
REMARK    3  A    between atoms: C5_5  and  C6_6 
REMARK    4  A    between atoms: C6_6  and  O1_7 
REMARK    5  A    between atoms: N1_9  and  O2_11 
ROOT
HETATM    1  C3  UNL     1     -11.933  11.176 -16.322  1.00  0.00    -0.049 C 
HETATM    2  C7  UNL     1     -12.116  12.482 -16.444  1.00  0.00    -0.006 C 
HETATM    3  C8  UNL     1     -12.388  13.344 -15.249  1.00  0.00     0.043 C 
HETATM    4  C9  UNL     1     -12.584  14.746 -15.771  1.00  0.00     0.005 C 
HETATM    5  C10 UNL     1     -11.314  15.142 -16.537  1.00  0.00     0.008 C 
HETATM    6  C11 UNL     1     -11.266  14.373 -17.853  1.00  0.00     0.083 C 
HETATM    7  C12 UNL     1     -12.080  13.138 -17.721  1.00  0.00     0.156 C 
HETATM    8  O3  UNL     1     -12.718  12.671 -18.681  1.00  0.00    -0.293 OA
ENDROOT
BRANCH   1   9
HETATM    9  C2  UNL     1     -11.658  10.216 -17.399  1.00  0.00     0.035 C 
HETATM   10  C1  UNL     1     -10.159   9.889 -17.509  1.00  0.00     0.010 C 
ENDBRANCH   1   9
BRANCH   1  11
HETATM   11  C4  UNL     1     -12.024  10.628 -14.973  1.00  0.00     0.012 C 
HETATM   12  C5  UNL     1     -12.846   9.676 -14.590  1.00  0.00     0.058 C 
BRANCH  12  13
HETATM   13  C6  UNL     1     -12.814   9.237 -13.202  1.00  0.00     0.159 C 
HETATM   14  N1  UNL     1     -13.562   8.260 -12.786  1.00  0.00    -0.248 N 
ATOM     15  H1  UNL     1     -13.522   7.970 -11.808  1.00  0.00     0.196 HD
BRANCH  13  16
HETATM   16  O1  UNL     1     -11.992   9.829 -12.253  1.00  0.00    -0.345 OA
ATOM     17  H1  UNL     1     -11.331   9.341 -11.777  1.00  0.00     0.219 HD
ENDBRANCH  13  16
BRANCH  14  18
HETATM   18  O2  UNL     1     -14.398   7.621 -13.647  1.00  0.00    -0.288 OA
ATOM     19  H2  UNL     1     -15.317   7.513 -13.431  1.00  0.00     0.244 HD
ENDBRANCH  14  18
ENDBRANCH  12  13
ENDBRANCH   1  11
TORSDOF 5
ENDMDL
MODEL 5
REMARK VINA RESULT: -5.471166664      1.186      1.225
REMARK  5 active torsions:
REMARK  status: ('A' for Active; 'I' for Inactive)
REMARK    1  A    between atoms: C2_2  and  C3_3 
REMARK    2  A    between atoms: C3_3  and  C4_4 
REMARK    3  A    between atoms: C5_5  and  C6_6 
REMARK    4  A    between atoms: C6_6  and  O1_7 
REMARK    5  A    between atoms: N1_9  and  O2_11 
ROOT
HETATM    1  C3  UNL     1     -11.613  12.729 -15.226  1.00  0.00    -0.049 C 
HETATM    2  C7  UNL     1     -10.953  12.512 -16.354  1.00  0.00    -0.006 C 
HETATM    3  C8  UNL     1     -10.340  11.178 -16.652  1.00  0.00     0.043 C 
HETATM    4  C9  UNL     1      -9.644  11.318 -17.984  1.00  0.00     0.005 C 
HETATM    5  C10 UNL     1     -10.692  11.755 -19.016  1.00  0.00     0.008 C 
HETATM    6  C11 UNL     1     -11.067  13.211 -18.758  1.00  0.00     0.083 C 
HETATM    7  C12 UNL     1     -10.776  13.541 -17.340  1.00  0.00     0.156 C 
HETATM    8  O3  UNL     1     -10.391  14.673 -16.998  1.00  0.00    -0.293 OA
ENDROOT
BRANCH   1   9
HETATM    9  C2  UNL     1     -12.262  13.977 -14.806  1.00  0.00     0.035 C 
HETATM   10  C1  UNL     1     -13.640  14.159 -15.464  1.00  0.00     0.010 C 
ENDBRANCH   1   9
BRANCH   1  11
HETATM   11  C4  UNL     1     -11.696  11.609 -14.293  1.00  0.00     0.012 C 
HETATM   12  C5  UNL     1     -12.741  10.829 -14.130  1.00  0.00     0.058 C 
BRANCH  12  13
HETATM   13  C6  UNL     1     -12.665   9.749 -13.155  1.00  0.00     0.159 C 
HETATM   14  N1  UNL     1     -13.386   8.676 -13.278  1.00  0.00    -0.248 N 
ATOM     15  H1  UNL     1     -13.314   7.933 -12.583  1.00  0.00     0.196 HD
BRANCH  13  16
HETATM   16  O1  UNL     1     -11.827   9.804 -12.049  1.00  0.00    -0.345 OA
ATOM     17  H1  UNL     1     -10.978   9.378 -12.032  1.00  0.00     0.219 HD
ENDBRANCH  13  16
BRANCH  14  18
HETATM   18  O2  UNL     1     -14.234   8.537 -14.331  1.00  0.00    -0.288 OA
ATOM     19  H2  UNL     1     -14.850   7.814 -14.358  1.00  0.00     0.244 HD
ENDBRANCH  14  18
ENDBRANCH  12  13
ENDBRANCH   1  11
TORSDOF 5
ENDMDL
