MODEL 1
REMARK VINA RESULT: -4.025760857      0.000      0.000
REMARK  2 active torsions:
REMARK  status: ('A' for Active; 'I' for Inactive)
REMARK    1  A    between atoms: C2_2  and  C3_3 
REMARK    2  A    between atoms: C3_3  and  C4_4 
ROOT
HETATM    1  C4  UNL     1    -142.633-181.936 307.326  1.00  0.00     0.031 A 
HETATM    2  N1  UNL     1    -142.715-180.984 308.258  1.00  0.00    -0.366 N 
ATOM      3  H1  UNL     1    -142.394-181.073 309.223  1.00  0.00     0.165 HD
HETATM    4  C5  UNL     1    -143.282-179.898 307.729  1.00  0.00     0.108 A 
HETATM    5  C6  UNL     1    -143.590-180.127 306.409  1.00  0.00     0.045 A 
HETATM    6 BR1  UNL     1    -144.416-178.854 305.260  1.00  0.00    -0.048 Br
HETATM    7  C7  UNL     1    -143.173-181.416 306.172  1.00  0.00     0.052 A 
HETATM    8 BR2  UNL     1    -143.349-182.290 304.473  1.00  0.00    -0.048 Br
ENDROOT
BRANCH   1   9
HETATM    9  C3  UNL     1    -142.058-183.322 307.492  1.00  0.00     0.084 C 
BRANCH   9  10
HETATM   10  C2  UNL     1    -140.722-183.139 308.147  1.00  0.00    -0.031 C 
HETATM   11  C1  UNL     1    -139.654-183.558 307.501  1.00  0.00     0.007 C 
ENDBRANCH   9  10
ENDBRANCH   1   9
TORSDOF 2
ENDMDL
MODEL 2
REMARK VINA RESULT: -3.958252882     11.067     12.242
REMARK  2 active torsions:
REMARK  status: ('A' for Active; 'I' for Inactive)
REMARK    1  A    between atoms: C2_2  and  C3_3 
REMARK    2  A    between atoms: C3_3  and  C4_4 
ROOT
HETATM    1  C4  UNL     1    -135.862-184.012 297.921  1.00  0.00     0.031 A 
HETATM    2  N1  UNL     1    -135.373-182.977 297.233  1.00  0.00    -0.366 N 
ATOM      3  H1  UNL     1    -135.247-182.032 297.597  1.00  0.00     0.165 HD
HETATM    4  C5  UNL     1    -135.073-183.376 295.995  1.00  0.00     0.108 A 
HETATM    5  C6  UNL     1    -135.370-184.710 295.847  1.00  0.00     0.045 A 
HETATM    6 BR1  UNL     1    -135.107-185.700 294.243  1.00  0.00    -0.048 Br
HETATM    7  C7  UNL     1    -135.866-185.095 297.071  1.00  0.00     0.052 A 
HETATM    8 BR2  UNL     1    -136.453-186.878 297.462  1.00  0.00    -0.048 Br
ENDROOT
BRANCH   1   9
HETATM    9  C3  UNL     1    -136.326-184.008 299.357  1.00  0.00     0.084 C 
BRANCH   9  10
HETATM   10  C2  UNL     1    -137.801-183.745 299.315  1.00  0.00    -0.031 C 
HETATM   11  C1  UNL     1    -138.324-182.997 300.264  1.00  0.00     0.007 C 
ENDBRANCH   9  10
ENDBRANCH   1   9
TORSDOF 2
ENDMDL
MODEL 3
REMARK VINA RESULT: -3.846988192      1.858      2.280
REMARK  2 active torsions:
REMARK  status: ('A' for Active; 'I' for Inactive)
REMARK    1  A    between atoms: C2_2  and  C3_3 
REMARK    2  A    between atoms: C3_3  and  C4_4 
ROOT
HETATM    1  C4  UNL     1    -142.793-182.149 306.171  1.00  0.00     0.031 A 
HETATM    2  N1  UNL     1    -142.684-182.450 304.875  1.00  0.00    -0.366 N 
ATOM      3  H1  UNL     1    -142.345-183.337 304.502  1.00  0.00     0.165 HD
HETATM    4  C5  UNL     1    -143.087-181.407 304.146  1.00  0.00     0.108 A 
HETATM    5  C6  UNL     1    -143.476-180.380 304.972  1.00  0.00     0.045 A 
HETATM    6 BR1  UNL     1    -144.122-178.696 304.365  1.00  0.00    -0.048 Br
HETATM    7  C7  UNL     1    -143.285-180.865 306.246  1.00  0.00     0.052 A 
HETATM    8 BR2  UNL     1    -143.664-179.855 307.831  1.00  0.00    -0.048 Br
ENDROOT
BRANCH   1   9
HETATM    9  C3  UNL     1    -142.449-183.037 307.342  1.00  0.00     0.084 C 
BRANCH   9  10
HETATM   10  C2  UNL     1    -141.029-182.718 307.700  1.00  0.00    -0.031 C 
HETATM   11  C1  UNL     1    -140.182-183.718 307.824  1.00  0.00     0.007 C 
ENDBRANCH   9  10
ENDBRANCH   1   9
TORSDOF 2
ENDMDL
MODEL 4
REMARK VINA RESULT: -3.846306405      9.819     10.799
REMARK  2 active torsions:
REMARK  status: ('A' for Active; 'I' for Inactive)
REMARK    1  A    between atoms: C2_2  and  C3_3 
REMARK    2  A    between atoms: C3_3  and  C4_4 
ROOT
HETATM    1  C4  UNL     1    -137.651-183.389 298.661  1.00  0.00     0.031 A 
HETATM    2  N1  UNL     1    -138.116-182.558 297.725  1.00  0.00    -0.366 N 
ATOM      3  H1  UNL     1    -138.831-181.845 297.871  1.00  0.00     0.165 HD
HETATM    4  C5  UNL     1    -137.498-182.810 296.569  1.00  0.00     0.108 A 
HETATM    5  C6  UNL     1    -136.596-183.834 296.732  1.00  0.00     0.045 A 
HETATM    6 BR1  UNL     1    -135.492-184.528 295.346  1.00  0.00    -0.048 Br
HETATM    7  C7  UNL     1    -136.706-184.187 298.058  1.00  0.00     0.052 A 
HETATM    8 BR2  UNL     1    -135.672-185.583 298.871  1.00  0.00    -0.048 Br
ENDROOT
BRANCH   1   9
HETATM    9  C3  UNL     1    -138.072-183.450 300.110  1.00  0.00     0.084 C 
BRANCH   9  10
HETATM   10  C2  UNL     1    -139.563-183.301 300.114  1.00  0.00    -0.031 C 
HETATM   11  C1  UNL     1    -140.100-182.472 300.985  1.00  0.00     0.007 C 
ENDBRANCH   9  10
ENDBRANCH   1   9
TORSDOF 2
ENDMDL
MODEL 5
REMARK VINA RESULT: -3.813056017      9.055     10.243
REMARK  2 active torsions:
REMARK  status: ('A' for Active; 'I' for Inactive)
REMARK    1  A    between atoms: C2_2  and  C3_3 
REMARK    2  A    between atoms: C3_3  and  C4_4 
ROOT
HETATM    1  C4  UNL     1    -138.123-183.398 298.946  1.00  0.00     0.031 A 
HETATM    2  N1  UNL     1    -136.958-183.455 299.594  1.00  0.00    -0.366 N 
ATOM      3  H1  UNL     1    -136.700-182.883 300.399  1.00  0.00     0.165 HD
HETATM    4  C5  UNL     1    -136.182-184.379 299.022  1.00  0.00     0.108 A 
HETATM    5  C6  UNL     1    -136.843-184.956 297.964  1.00  0.00     0.045 A 
HETATM    6 BR1  UNL     1    -136.116-186.322 296.857  1.00  0.00    -0.048 Br
HETATM    7  C7  UNL     1    -138.065-184.325 297.931  1.00  0.00     0.052 A 
HETATM    8 BR2  UNL     1    -139.428-184.726 296.642  1.00  0.00    -0.048 Br
ENDROOT
BRANCH   1   9
HETATM    9  C3  UNL     1    -139.291-182.494 299.258  1.00  0.00     0.084 C 
BRANCH   9  10
HETATM   10  C2  UNL     1    -139.930-183.054 300.493  1.00  0.00    -0.031 C 
HETATM   11  C1  UNL     1    -140.419-182.208 301.376  1.00  0.00     0.007 C 
ENDBRANCH   9  10
ENDBRANCH   1   9
TORSDOF 2
ENDMDL
