MODEL 1
REMARK VINA RESULT: -5.246811677      0.000      0.000
REMARK  4 active torsions:
REMARK  status: ('A' for Active; 'I' for Inactive)
REMARK    1  A    between atoms: N1_2  and  C1_4 
REMARK    2  A    between atoms: N2_6  and  N3_7 
REMARK    3  A    between atoms: C3_9  and  C4_10 
REMARK    4  A    between atoms: C7_13  and  O3_14 
ROOT
HETATM    1  N3  UNL     1      -1.041  31.576 -23.029  1.00  0.00    -0.285 N 
ATOM      2  H3  UNL     1      -0.095  31.583 -23.410  1.00  0.00     0.188 HD
HETATM    3  C3  UNL     1      -1.433  30.595 -22.289  1.00  0.00     0.120 C 
ENDROOT
BRANCH   1   4
HETATM    4  N2  UNL     1      -1.916  32.630 -23.307  1.00  0.00    -0.161 N 
HETATM    5  C2  UNL     1      -2.675  32.968 -24.358  1.00  0.00     0.208 A 
HETATM    6  C1  UNL     1      -3.118  34.086 -23.681  1.00  0.00     0.257 A 
HETATM    7  O4  UNL     1      -2.351  33.690 -22.694  1.00  0.00    -0.190 OA
BRANCH   6   8
HETATM    8  N1  UNL     1      -4.011  35.158 -23.971  1.00  0.00    -0.087 N 
HETATM    9  O1  UNL     1      -5.212  35.102 -23.655  1.00  0.00    -0.530 OA
HETATM   10  O2  UNL     1      -3.571  36.287 -24.611  1.00  0.00    -0.530 OA
ENDBRANCH   6   8
ENDBRANCH   1   4
BRANCH   3  11
HETATM   11  C4  UNL     1      -0.558  29.468 -21.968  1.00  0.00    -0.019 A 
HETATM   12  C5  UNL     1       0.744  29.422 -22.416  1.00  0.00     0.015 A 
HETATM   13  C6  UNL     1       1.567  28.346 -22.104  1.00  0.00     0.037 A 
HETATM   14  C7  UNL     1       1.123  27.287 -21.341  1.00  0.00     0.065 A 
HETATM   15  C8  UNL     1      -0.180  27.335 -20.893  1.00  0.00     0.037 A 
HETATM   16  C9  UNL     1      -1.006  28.411 -21.204  1.00  0.00     0.015 A 
BRANCH  14  17
HETATM   17  O3  UNL     1       1.957  26.206 -21.030  1.00  0.00    -0.361 OA
ATOM     18  H3  UNL     1       1.684  25.308 -21.176  1.00  0.00     0.217 HD
ENDBRANCH  14  17
ENDBRANCH   3  11
TORSDOF 4
ENDMDL
MODEL 2
REMARK VINA RESULT: -5.211835257      0.157      1.423
REMARK  4 active torsions:
REMARK  status: ('A' for Active; 'I' for Inactive)
REMARK    1  A    between atoms: N1_2  and  C1_4 
REMARK    2  A    between atoms: N2_6  and  N3_7 
REMARK    3  A    between atoms: C3_9  and  C4_10 
REMARK    4  A    between atoms: C7_13  and  O3_14 
ROOT
HETATM    1  N3  UNL     1      -1.000  31.476 -23.081  1.00  0.00    -0.285 N 
ATOM      2  H3  UNL     1      -0.060  31.456 -23.477  1.00  0.00     0.188 HD
HETATM    3  C3  UNL     1      -1.394  30.525 -22.304  1.00  0.00     0.120 C 
ENDROOT
BRANCH   1   4
HETATM    4  N2  UNL     1      -1.864  32.533 -23.379  1.00  0.00    -0.161 N 
HETATM    5  C2  UNL     1      -2.743  32.780 -24.359  1.00  0.00     0.208 A 
HETATM    6  C1  UNL     1      -3.049  33.995 -23.781  1.00  0.00     0.257 A 
HETATM    7  O4  UNL     1      -2.172  33.683 -22.858  1.00  0.00    -0.190 OA
BRANCH   6   8
HETATM    8  N1  UNL     1      -3.931  35.070 -24.091  1.00  0.00    -0.087 N 
HETATM    9  O1  UNL     1      -3.586  35.991 -24.852  1.00  0.00    -0.530 OA
HETATM   10  O2  UNL     1      -5.193  35.123 -23.557  1.00  0.00    -0.530 OA
ENDBRANCH   6   8
ENDBRANCH   1   4
BRANCH   3  11
HETATM   11  C4  UNL     1      -0.530  29.395 -21.960  1.00  0.00    -0.019 A 
HETATM   12  C5  UNL     1      -0.995  28.343 -21.203  1.00  0.00     0.015 A 
HETATM   13  C6  UNL     1      -0.167  27.275 -20.882  1.00  0.00     0.037 A 
HETATM   14  C7  UNL     1       1.146  27.220 -21.302  1.00  0.00     0.065 A 
HETATM   15  C8  UNL     1       1.610  28.274 -22.061  1.00  0.00     0.037 A 
HETATM   16  C9  UNL     1       0.782  29.345 -22.383  1.00  0.00     0.015 A 
BRANCH  14  17
HETATM   17  O3  UNL     1       1.977  26.141 -20.976  1.00  0.00    -0.361 OA
ATOM     18  H3  UNL     1       1.918  25.311 -21.434  1.00  0.00     0.217 HD
ENDBRANCH  14  17
ENDBRANCH   3  11
TORSDOF 4
ENDMDL
MODEL 3
REMARK VINA RESULT: -5.115528834      1.488      1.605
REMARK  4 active torsions:
REMARK  status: ('A' for Active; 'I' for Inactive)
REMARK    1  A    between atoms: N1_2  and  C1_4 
REMARK    2  A    between atoms: N2_6  and  N3_7 
REMARK    3  A    between atoms: C3_9  and  C4_10 
REMARK    4  A    between atoms: C7_13  and  O3_14 
ROOT
HETATM    1  N3  UNL     1      -2.048  31.007 -24.007  1.00  0.00    -0.285 N 
ATOM      2  H3  UNL     1      -1.905  30.180 -24.588  1.00  0.00     0.188 HD
HETATM    3  C3  UNL     1      -1.467  31.098 -22.860  1.00  0.00     0.120 C 
ENDROOT
BRANCH   1   4
HETATM    4  N2  UNL     1      -2.875  32.042 -24.452  1.00  0.00    -0.161 N 
HETATM    5  C2  UNL     1      -2.750  33.372 -24.541  1.00  0.00     0.208 A 
HETATM    6  C1  UNL     1      -4.022  33.460 -25.068  1.00  0.00     0.257 A 
HETATM    7  O4  UNL     1      -4.070  32.155 -24.950  1.00  0.00    -0.190 OA
BRANCH   6   8
HETATM    8  N1  UNL     1      -4.860  34.519 -25.520  1.00  0.00    -0.087 N 
HETATM    9  O1  UNL     1      -4.932  34.817 -26.725  1.00  0.00    -0.530 OA
HETATM   10  O2  UNL     1      -5.614  35.247 -24.636  1.00  0.00    -0.530 OA
ENDBRANCH   6   8
ENDBRANCH   1   4
BRANCH   3  11
HETATM   11  C4  UNL     1      -0.592  30.044 -22.347  1.00  0.00    -0.019 A 
HETATM   12  C5  UNL     1       0.693  29.886 -22.819  1.00  0.00     0.015 A 
HETATM   13  C6  UNL     1       1.515  28.882 -22.325  1.00  0.00     0.037 A 
HETATM   14  C7  UNL     1       1.088  28.005 -21.350  1.00  0.00     0.065 A 
HETATM   15  C8  UNL     1      -0.198  28.165 -20.878  1.00  0.00     0.037 A 
HETATM   16  C9  UNL     1      -1.023  29.170 -21.371  1.00  0.00     0.015 A 
BRANCH  14  17
HETATM   17  O3  UNL     1       1.922  26.994 -20.855  1.00  0.00    -0.361 OA
ATOM     18  H3  UNL     1       2.108  26.211 -21.359  1.00  0.00     0.217 HD
ENDBRANCH  14  17
ENDBRANCH   3  11
TORSDOF 4
ENDMDL
MODEL 4
REMARK VINA RESULT: -5.113183056      2.410      2.512
REMARK  4 active torsions:
REMARK  status: ('A' for Active; 'I' for Inactive)
REMARK    1  A    between atoms: N1_2  and  C1_4 
REMARK    2  A    between atoms: N2_6  and  N3_7 
REMARK    3  A    between atoms: C3_9  and  C4_10 
REMARK    4  A    between atoms: C7_13  and  O3_14 
ROOT
HETATM    1  N3  UNL     1      -2.509  30.382 -24.460  1.00  0.00    -0.285 N 
ATOM      2  H3  UNL     1      -2.353  29.427 -24.782  1.00  0.00     0.188 HD
HETATM    3  C3  UNL     1      -1.805  30.862 -23.493  1.00  0.00     0.120 C 
ENDROOT
BRANCH   1   4
HETATM    4  N2  UNL     1      -3.488  31.174 -25.068  1.00  0.00    -0.161 N 
HETATM    5  C2  UNL     1      -4.271  31.037 -26.145  1.00  0.00     0.208 A 
HETATM    6  C1  UNL     1      -4.834  32.272 -25.896  1.00  0.00     0.257 A 
HETATM    7  O4  UNL     1      -4.035  32.335 -24.859  1.00  0.00    -0.190 OA
BRANCH   6   8
HETATM    8  N1  UNL     1      -5.832  33.075 -26.521  1.00  0.00    -0.087 N 
HETATM    9  O1  UNL     1      -7.043  32.852 -26.345  1.00  0.00    -0.530 OA
HETATM   10  O2  UNL     1      -5.486  34.119 -27.338  1.00  0.00    -0.530 OA
ENDBRANCH   6   8
ENDBRANCH   1   4
BRANCH   3  11
HETATM   11  C4  UNL     1      -0.769  30.077 -22.823  1.00  0.00    -0.019 A 
HETATM   12  C5  UNL     1       0.542  30.108 -23.249  1.00  0.00     0.015 A 
HETATM   13  C6  UNL     1       1.518  29.358 -22.605  1.00  0.00     0.037 A 
HETATM   14  C7  UNL     1       1.224  28.556 -21.523  1.00  0.00     0.065 A 
HETATM   15  C8  UNL     1      -0.088  28.526 -21.098  1.00  0.00     0.037 A 
HETATM   16  C9  UNL     1      -1.067  29.276 -21.741  1.00  0.00     0.015 A 
BRANCH  14  17
HETATM   17  O3  UNL     1       2.213  27.802 -20.878  1.00  0.00    -0.361 OA
ATOM     18  H3  UNL     1       2.294  26.866 -21.016  1.00  0.00     0.217 HD
ENDBRANCH  14  17
ENDBRANCH   3  11
TORSDOF 4
ENDMDL
MODEL 5
REMARK VINA RESULT: -5.106390643      2.431      2.790
REMARK  4 active torsions:
REMARK  status: ('A' for Active; 'I' for Inactive)
REMARK    1  A    between atoms: N1_2  and  C1_4 
REMARK    2  A    between atoms: N2_6  and  N3_7 
REMARK    3  A    between atoms: C3_9  and  C4_10 
REMARK    4  A    between atoms: C7_13  and  O3_14 
ROOT
HETATM    1  N3  UNL     1      -2.512  30.361 -24.470  1.00  0.00    -0.285 N 
ATOM      2  H3  UNL     1      -2.354  29.404 -24.788  1.00  0.00     0.188 HD
HETATM    3  C3  UNL     1      -1.812  30.844 -23.502  1.00  0.00     0.120 C 
ENDROOT
BRANCH   1   4
HETATM    4  N2  UNL     1      -3.489  31.150 -25.084  1.00  0.00    -0.161 N 
HETATM    5  C2  UNL     1      -4.256  31.017 -26.174  1.00  0.00     0.208 A 
HETATM    6  C1  UNL     1      -4.832  32.245 -25.922  1.00  0.00     0.257 A 
HETATM    7  O4  UNL     1      -4.048  32.304 -24.873  1.00  0.00    -0.190 OA
BRANCH   6   8
HETATM    8  N1  UNL     1      -5.828  33.045 -26.553  1.00  0.00    -0.087 N 
HETATM    9  O1  UNL     1      -7.039  32.841 -26.358  1.00  0.00    -0.530 OA
HETATM   10  O2  UNL     1      -5.480  34.066 -27.398  1.00  0.00    -0.530 OA
ENDBRANCH   6   8
ENDBRANCH   1   4
BRANCH   3  11
HETATM   11  C4  UNL     1      -0.778  30.061 -22.825  1.00  0.00    -0.019 A 
HETATM   12  C5  UNL     1      -1.073  29.283 -21.727  1.00  0.00     0.015 A 
HETATM   13  C6  UNL     1      -0.084  28.543 -21.092  1.00  0.00     0.037 A 
HETATM   14  C7  UNL     1       1.225  28.553 -21.526  1.00  0.00     0.065 A 
HETATM   15  C8  UNL     1       1.518  29.332 -22.626  1.00  0.00     0.037 A 
HETATM   16  C9  UNL     1       0.529  30.074 -23.263  1.00  0.00     0.015 A 
BRANCH  14  17
HETATM   17  O3  UNL     1       2.219  27.804 -20.882  1.00  0.00    -0.361 OA
ATOM     18  H3  UNL     1       2.027  26.967 -20.478  1.00  0.00     0.217 HD
ENDBRANCH  14  17
ENDBRANCH   3  11
TORSDOF 4
ENDMDL
