MODEL 1
REMARK VINA RESULT: -6.514251548      0.000      0.000
REMARK  4 active torsions:
REMARK  status: ('A' for Active; 'I' for Inactive)
REMARK    1  A    between atoms: O1_2  and  C2_3 
REMARK    2  A    between atoms: C2_3  and  C3_5 
REMARK    3  A    between atoms: C5_10  and  N3_11 
REMARK    4  A    between atoms: N3_11  and  N4_13 
ROOT
HETATM    1  C3  UNL     1     -21.555 -28.642   1.141  1.00  0.00     0.125 A 
HETATM    2  C4  UNL     1     -22.430 -28.857   0.069  1.00  0.00     0.152 A 
HETATM    3  N1  UNL     1     -23.768 -28.412   0.247  1.00  0.00    -0.081 NA
HETATM    4  N2  UNL     1     -22.021 -29.450  -1.061  1.00  0.00    -0.176 N 
ATOM      5  H2  UNL     1     -22.687 -29.590  -1.821  1.00  0.00     0.185 HD
HETATM    6  C5  UNL     1     -20.761 -29.861  -1.212  1.00  0.00     0.699 A 
HETATM    7  N5  UNL     1     -19.892 -29.678  -0.218  1.00  0.00    -0.175 N 
ATOM      8  H5  UNL     1     -18.928 -29.992  -0.332  1.00  0.00     0.186 HD
HETATM    9  C6  UNL     1     -20.274 -29.067   0.972  1.00  0.00     0.134 A 
HETATM   10  N6  UNL     1     -19.386 -28.932   1.867  1.00  0.00    -0.384 N 
ATOM     11  H61 UNL     1     -18.425 -29.251   1.740  1.00  0.00     0.157 HD
ATOM     12  H62 UNL     1     -19.666 -28.484   2.740  1.00  0.00     0.157 HD
ENDROOT
BRANCH   6  13
HETATM   13  N3  UNL     1     -20.360 -30.438  -2.310  1.00  0.00    -0.138 N 
ATOM     14  H3  UNL     1     -20.798 -31.315  -2.590  1.00  0.00     0.205 HD
BRANCH  13  15
HETATM   15  N4  UNL     1     -19.362 -29.908  -3.112  1.00  0.00    -0.331 N 
ATOM     16  H42 UNL     1     -19.457 -28.935  -3.405  1.00  0.00     0.177 HD
ATOM     17  H41 UNL     1     -18.552 -30.449  -3.414  1.00  0.00     0.177 HD
ENDBRANCH  13  15
ENDBRANCH   6  13
BRANCH   1  18
HETATM   18  C2  UNL     1     -22.061 -28.001   2.324  1.00  0.00     0.300 C 
HETATM   19  O2  UNL     1     -21.912 -26.809   2.669  1.00  0.00    -0.259 OA
BRANCH  18  20
HETATM   20  O1  UNL     1     -22.830 -28.745   3.260  1.00  0.00    -0.322 OA
HETATM   21  C1  UNL     1     -22.516 -30.055   3.635  1.00  0.00     0.213 C 
ENDBRANCH  18  20
ENDBRANCH   1  18
TORSDOF 4
ENDMDL
MODEL 2
REMARK VINA RESULT: -6.500407964      1.570      1.947
REMARK  4 active torsions:
REMARK  status: ('A' for Active; 'I' for Inactive)
REMARK    1  A    between atoms: O1_2  and  C2_3 
REMARK    2  A    between atoms: C2_3  and  C3_5 
REMARK    3  A    between atoms: C5_10  and  N3_11 
REMARK    4  A    between atoms: N3_11  and  N4_13 
ROOT
HETATM    1  C3  UNL     1     -21.402 -30.294   1.475  1.00  0.00     0.125 A 
HETATM    2  C4  UNL     1     -22.144 -31.062   0.568  1.00  0.00     0.152 A 
HETATM    3  N1  UNL     1     -23.256 -31.768   1.102  1.00  0.00    -0.081 NA
HETATM    4  N2  UNL     1     -21.818 -31.122  -0.729  1.00  0.00    -0.176 N 
ATOM      5  H2  UNL     1     -22.382 -31.692  -1.360  1.00  0.00     0.185 HD
HETATM    6  C5  UNL     1     -20.771 -30.452  -1.214  1.00  0.00     0.699 A 
HETATM    7  N5  UNL     1     -20.035 -29.708  -0.389  1.00  0.00    -0.175 N 
ATOM      8  H5  UNL     1     -19.234 -29.196  -0.758  1.00  0.00     0.186 HD
HETATM    9  C6  UNL     1     -20.338 -29.617   0.966  1.00  0.00     0.134 A 
HETATM   10  N6  UNL     1     -19.586 -28.889   1.681  1.00  0.00    -0.384 N 
ATOM     11  H61 UNL     1     -18.788 -28.381   1.299  1.00  0.00     0.157 HD
ATOM     12  H62 UNL     1     -19.808 -28.822   2.675  1.00  0.00     0.157 HD
ENDROOT
BRANCH   6  13
HETATM   13  N3  UNL     1     -20.452 -30.509  -2.477  1.00  0.00    -0.138 N 
ATOM     14  H3  UNL     1     -21.045 -31.047  -3.108  1.00  0.00     0.205 HD
BRANCH  13  15
HETATM   15  N4  UNL     1     -19.337 -29.869  -2.996  1.00  0.00    -0.331 N 
ATOM     16  H42 UNL     1     -18.431 -30.083  -2.579  1.00  0.00     0.177 HD
ATOM     17  H41 UNL     1     -19.395 -29.202  -3.765  1.00  0.00     0.177 HD
ENDBRANCH  13  15
ENDBRANCH   6  13
BRANCH   1  18
HETATM   18  C2  UNL     1     -21.807 -30.274   2.854  1.00  0.00     0.300 C 
HETATM   19  O2  UNL     1     -21.344 -30.953   3.796  1.00  0.00    -0.259 OA
BRANCH  18  20
HETATM   20  O1  UNL     1     -22.851 -29.405   3.273  1.00  0.00    -0.322 OA
HETATM   21  C1  UNL     1     -22.697 -28.019   3.368  1.00  0.00     0.213 C 
ENDBRANCH  18  20
ENDBRANCH   1  18
TORSDOF 4
ENDMDL
MODEL 3
REMARK VINA RESULT: -6.244380354      0.392      2.202
REMARK  4 active torsions:
REMARK  status: ('A' for Active; 'I' for Inactive)
REMARK    1  A    between atoms: O1_2  and  C2_3 
REMARK    2  A    between atoms: C2_3  and  C3_5 
REMARK    3  A    between atoms: C5_10  and  N3_11 
REMARK    4  A    between atoms: N3_11  and  N4_13 
ROOT
HETATM    1  C3  UNL     1     -21.470 -28.841   0.884  1.00  0.00     0.125 A 
HETATM    2  C4  UNL     1     -20.158 -29.262   0.632  1.00  0.00     0.152 A 
HETATM    3  N1  UNL     1     -19.222 -29.075   1.686  1.00  0.00    -0.081 NA
HETATM    4  N2  UNL     1     -19.811 -29.811  -0.539  1.00  0.00    -0.176 N 
ATOM      5  H2  UNL     1     -18.846 -30.105  -0.686  1.00  0.00     0.185 HD
HETATM    6  C5  UNL     1     -20.703 -29.980  -1.517  1.00  0.00     0.699 A 
HETATM    7  N5  UNL     1     -21.964 -29.595  -1.324  1.00  0.00    -0.175 N 
ATOM      8  H5  UNL     1     -22.646 -29.723  -2.070  1.00  0.00     0.186 HD
HETATM    9  C6  UNL     1     -22.367 -29.020  -0.122  1.00  0.00     0.134 A 
HETATM   10  N6  UNL     1     -23.584 -28.681  -0.021  1.00  0.00    -0.384 N 
ATOM     11  H61 UNL     1     -24.257 -28.815  -0.776  1.00  0.00     0.157 HD
ATOM     12  H62 UNL     1     -23.880 -28.259   0.860  1.00  0.00     0.157 HD
ENDROOT
BRANCH   6  13
HETATM   13  N3  UNL     1     -20.368 -30.514  -2.659  1.00  0.00    -0.138 N 
ATOM     14  H3  UNL     1     -20.920 -31.295  -3.015  1.00  0.00     0.205 HD
BRANCH  13  15
HETATM   15  N4  UNL     1     -19.293 -30.063  -3.408  1.00  0.00    -0.331 N 
ATOM     16  H42 UNL     1     -18.879 -29.167  -3.150  1.00  0.00     0.177 HD
ATOM     17  H41 UNL     1     -18.911 -30.589  -4.194  1.00  0.00     0.177 HD
ENDBRANCH  13  15
ENDBRANCH   6  13
BRANCH   1  18
HETATM   18  C2  UNL     1     -21.773 -28.260   2.164  1.00  0.00     0.300 C 
HETATM   19  O2  UNL     1     -21.519 -27.101   2.555  1.00  0.00    -0.259 OA
BRANCH  18  20
HETATM   20  O1  UNL     1     -22.441 -29.033   3.152  1.00  0.00    -0.322 OA
HETATM   21  C1  UNL     1     -22.159 -30.383   3.383  1.00  0.00     0.213 C 
ENDBRANCH  18  20
ENDBRANCH   1  18
TORSDOF 4
ENDMDL
MODEL 4
REMARK VINA RESULT: -6.240701502      1.413      2.670
REMARK  4 active torsions:
REMARK  status: ('A' for Active; 'I' for Inactive)
REMARK    1  A    between atoms: O1_2  and  C2_3 
REMARK    2  A    between atoms: C2_3  and  C3_5 
REMARK    3  A    between atoms: C5_10  and  N3_11 
REMARK    4  A    between atoms: N3_11  and  N4_13 
ROOT
HETATM    1  C3  UNL     1     -21.432 -30.224   1.071  1.00  0.00     0.125 A 
HETATM    2  C4  UNL     1     -20.210 -29.691   0.645  1.00  0.00     0.152 A 
HETATM    3  N1  UNL     1     -19.393 -29.102   1.649  1.00  0.00    -0.081 NA
HETATM    4  N2  UNL     1     -19.835 -29.737  -0.640  1.00  0.00    -0.176 N 
ATOM      5  H2  UNL     1     -18.937 -29.337  -0.913  1.00  0.00     0.185 HD
HETATM    6  C5  UNL     1     -20.613 -30.294  -1.570  1.00  0.00     0.699 A 
HETATM    7  N5  UNL     1     -21.786 -30.815  -1.212  1.00  0.00    -0.175 N 
ATOM      8  H5  UNL     1     -22.382 -31.241  -1.922  1.00  0.00     0.186 HD
HETATM    9  C6  UNL     1     -22.214 -30.789   0.112  1.00  0.00     0.134 A 
HETATM   10  N6  UNL     1     -23.343 -31.305   0.368  1.00  0.00    -0.384 N 
ATOM     11  H61 UNL     1     -23.929 -31.728  -0.352  1.00  0.00     0.157 HD
ATOM     12  H62 UNL     1     -23.657 -31.286   1.338  1.00  0.00     0.157 HD
ENDROOT
BRANCH   6  13
HETATM   13  N3  UNL     1     -20.252 -30.339  -2.822  1.00  0.00    -0.138 N 
ATOM     14  H3  UNL     1     -20.898 -30.734  -3.504  1.00  0.00     0.205 HD
BRANCH  13  15
HETATM   15  N4  UNL     1     -19.023 -29.873  -3.263  1.00  0.00    -0.331 N 
ATOM     16  H42 UNL     1     -18.605 -30.332  -4.072  1.00  0.00     0.177 HD
ATOM     17  H41 UNL     1     -18.534 -29.100  -2.812  1.00  0.00     0.177 HD
ENDBRANCH  13  15
ENDBRANCH   6  13
BRANCH   1  18
HETATM   18  C2  UNL     1     -21.771 -30.141   2.466  1.00  0.00     0.300 C 
HETATM   19  O2  UNL     1     -21.299 -30.811   3.408  1.00  0.00    -0.259 OA
BRANCH  18  20
HETATM   20  O1  UNL     1     -22.752 -29.208   2.902  1.00  0.00    -0.322 OA
HETATM   21  C1  UNL     1     -22.473 -27.856   3.122  1.00  0.00     0.213 C 
ENDBRANCH  18  20
ENDBRANCH   1  18
TORSDOF 4
ENDMDL
MODEL 5
REMARK VINA RESULT: -6.080473305      4.257      5.345
REMARK  4 active torsions:
REMARK  status: ('A' for Active; 'I' for Inactive)
REMARK    1  A    between atoms: O1_2  and  C2_3 
REMARK    2  A    between atoms: C2_3  and  C3_5 
REMARK    3  A    between atoms: C5_10  and  N3_11 
REMARK    4  A    between atoms: N3_11  and  N4_13 
ROOT
HETATM    1  C3  UNL     1     -21.257 -30.421  -3.661  1.00  0.00     0.125 A 
HETATM    2  C4  UNL     1     -21.325 -30.472  -5.059  1.00  0.00     0.152 A 
HETATM    3  N1  UNL     1     -22.537 -30.966  -5.614  1.00  0.00    -0.081 NA
HETATM    4  N2  UNL     1     -20.301 -30.075  -5.826  1.00  0.00    -0.176 N 
ATOM      5  H2  UNL     1     -20.388 -30.127  -6.841  1.00  0.00     0.185 HD
HETATM    6  C5  UNL     1     -19.170 -29.613  -5.289  1.00  0.00     0.699 A 
HETATM    7  N5  UNL     1     -19.058 -29.547  -3.963  1.00  0.00    -0.175 N 
ATOM      8  H5  UNL     1     -18.195 -29.194  -3.551  1.00  0.00     0.186 HD
HETATM    9  C6  UNL     1     -20.097 -29.948  -3.129  1.00  0.00     0.134 A 
HETATM   10  N6  UNL     1     -19.909 -29.853  -1.879  1.00  0.00    -0.384 N 
ATOM     11  H61 UNL     1     -19.040 -29.498  -1.480  1.00  0.00     0.157 HD
ATOM     12  H62 UNL     1     -20.671 -30.148  -1.267  1.00  0.00     0.157 HD
ENDROOT
BRANCH   6  13
HETATM   13  N3  UNL     1     -18.172 -29.227  -6.033  1.00  0.00    -0.138 N 
ATOM     14  H3  UNL     1     -18.143 -28.257  -6.348  1.00  0.00     0.205 HD
BRANCH  13  15
HETATM   15  N4  UNL     1     -17.148 -30.080  -6.412  1.00  0.00    -0.331 N 
ATOM     16  H42 UNL     1     -16.189 -29.773  -6.245  1.00  0.00     0.177 HD
ATOM     17  H41 UNL     1     -17.319 -30.987  -6.846  1.00  0.00     0.177 HD
ENDBRANCH  13  15
ENDBRANCH   6  13
BRANCH   1  18
HETATM   18  C2  UNL     1     -22.392 -30.863  -2.899  1.00  0.00     0.300 C 
HETATM   19  O2  UNL     1     -23.262 -30.158  -2.345  1.00  0.00    -0.259 OA
BRANCH  18  20
HETATM   20  O1  UNL     1     -22.621 -32.254  -2.711  1.00  0.00    -0.322 OA
HETATM   21  C1  UNL     1     -23.893 -32.832  -2.770  1.00  0.00     0.213 C 
ENDBRANCH  18  20
ENDBRANCH   1  18
TORSDOF 4
ENDMDL
