MODEL 1
REMARK VINA RESULT: -7.834479905      0.000      0.000
REMARK  3 active torsions:
REMARK  status: ('A' for Active; 'I' for Inactive)
REMARK    1  A    between atoms: N1_1  and  C1_4 
REMARK    2  A    between atoms: C5_13  and  N4_14 
REMARK    3  A    between atoms: N6_19  and  C6_20 
ROOT
HETATM    1  C1  UNL     1     -32.149 -13.051 -19.629  1.00  0.00     0.120 A 
HETATM    2  N2  UNL     1     -32.563 -13.984 -20.531  1.00  0.00    -0.294 N 
ATOM      3  H2  UNL     1     -33.469 -13.860 -20.981  1.00  0.00     0.172 HD
HETATM    4  C2  UNL     1     -31.827 -15.057 -20.849  1.00  0.00     0.327 A 
HETATM    5  O1  UNL     1     -32.271 -15.895 -21.700  1.00  0.00    -0.247 OA
HETATM    6  N3  UNL     1     -30.621 -15.242 -20.265  1.00  0.00    -0.292 N 
ATOM      7  H3  UNL     1     -30.068 -16.063 -20.514  1.00  0.00     0.172 HD
HETATM    8  C3  UNL     1     -30.136 -14.377 -19.370  1.00  0.00     0.151 A 
HETATM    9  C4  UNL     1     -30.909 -13.265 -19.047  1.00  0.00     0.099 A 
HETATM   10  C5  UNL     1     -30.143 -12.593 -18.121  1.00  0.00     0.132 A 
HETATM   11  N5  UNL     1     -28.984 -13.252 -17.898  1.00  0.00    -0.274 N 
ATOM     12  H5  UNL     1     -28.242 -12.969 -17.258  1.00  0.00     0.189 HD
HETATM   13  N6  UNL     1     -28.991 -14.319 -18.651  1.00  0.00    -0.212 N 
ENDROOT
BRANCH   1  14
HETATM   14  N1  UNL     1     -32.880 -12.042 -19.353  1.00  0.00    -0.384 N 
ATOM     15  H12 UNL     1     -33.420 -11.539 -20.058  1.00  0.00     0.157 HD
ATOM     16  H11 UNL     1     -32.950 -11.697 -18.396  1.00  0.00     0.157 HD
ENDBRANCH   1  14
BRANCH  10  17
HETATM   17  N4  UNL     1     -30.517 -11.488 -17.566  1.00  0.00    -0.384 N 
ATOM     18  H42 UNL     1     -31.461 -11.253 -17.259  1.00  0.00     0.157 HD
ATOM     19  H41 UNL     1     -29.878 -10.717 -17.375  1.00  0.00     0.157 HD
ENDBRANCH  10  17
BRANCH  13  20
HETATM   20  C6  UNL     1     -27.956 -15.303 -18.729  1.00  0.00     0.378 C 
HETATM   21  O2  UNL     1     -27.940 -16.092 -19.694  1.00  0.00    -0.281 OA
ENDBRANCH  13  20
TORSDOF 3
ENDMDL
MODEL 2
REMARK VINA RESULT: -7.785805293      1.058      3.621
REMARK  3 active torsions:
REMARK  status: ('A' for Active; 'I' for Inactive)
REMARK    1  A    between atoms: N1_1  and  C1_4 
REMARK    2  A    between atoms: C5_13  and  N4_14 
REMARK    3  A    between atoms: N6_19  and  C6_20 
ROOT
HETATM    1  C1  UNL     1     -29.933 -13.343 -19.022  1.00  0.00     0.120 A 
HETATM    2  N2  UNL     1     -28.818 -14.123 -18.967  1.00  0.00    -0.294 N 
ATOM      3  H2  UNL     1     -28.019 -13.796 -18.424  1.00  0.00     0.172 HD
HETATM    4  C2  UNL     1     -28.729 -15.301 -19.598  1.00  0.00     0.327 A 
HETATM    5  O1  UNL     1     -27.658 -15.985 -19.508  1.00  0.00    -0.247 OA
HETATM    6  N3  UNL     1     -29.777 -15.755 -20.324  1.00  0.00    -0.292 N 
ATOM      7  H3  UNL     1     -29.700 -16.654 -20.801  1.00  0.00     0.172 HD
HETATM    8  C3  UNL     1     -30.910 -15.056 -20.432  1.00  0.00     0.151 A 
HETATM    9  C4  UNL     1     -30.991 -13.832 -19.772  1.00  0.00     0.099 A 
HETATM   10  C5  UNL     1     -32.254 -13.379 -20.079  1.00  0.00     0.132 A 
HETATM   11  N5  UNL     1     -32.896 -14.267 -20.871  1.00  0.00    -0.274 N 
ATOM     12  H5  UNL     1     -33.842 -14.174 -21.240  1.00  0.00     0.189 HD
HETATM   13  N6  UNL     1     -32.082 -15.267 -21.076  1.00  0.00    -0.212 N 
ENDROOT
BRANCH   1  14
HETATM   14  N1  UNL     1     -29.978 -12.225 -18.407  1.00  0.00    -0.384 N 
ATOM     15  H12 UNL     1     -30.822 -11.874 -17.955  1.00  0.00     0.157 HD
ATOM     16  H11 UNL     1     -29.150 -11.632 -18.344  1.00  0.00     0.157 HD
ENDBRANCH   1  14
BRANCH  10  17
HETATM   17  N4  UNL     1     -32.723 -12.254 -19.649  1.00  0.00    -0.384 N 
ATOM     18  H42 UNL     1     -32.506 -11.328 -20.015  1.00  0.00     0.157 HD
ATOM     19  H41 UNL     1     -33.381 -12.186 -18.872  1.00  0.00     0.157 HD
ENDBRANCH  10  17
BRANCH  13  20
HETATM   20  C6  UNL     1     -32.356 -16.431 -21.860  1.00  0.00     0.378 C 
HETATM   21  O2  UNL     1     -31.413 -17.015 -22.429  1.00  0.00    -0.281 OA
ENDBRANCH  13  20
TORSDOF 3
ENDMDL
MODEL 3
REMARK VINA RESULT: -7.780719878      0.931      3.529
REMARK  3 active torsions:
REMARK  status: ('A' for Active; 'I' for Inactive)
REMARK    1  A    between atoms: N1_1  and  C1_4 
REMARK    2  A    between atoms: C5_13  and  N4_14 
REMARK    3  A    between atoms: N6_19  and  C6_20 
ROOT
HETATM    1  C1  UNL     1     -28.966 -13.423 -17.886  1.00  0.00     0.120 A 
HETATM    2  N2  UNL     1     -28.212 -14.470 -18.324  1.00  0.00    -0.294 N 
ATOM      3  H2  UNL     1     -27.298 -14.625 -17.901  1.00  0.00     0.172 HD
HETATM    4  C2  UNL     1     -28.626 -15.305 -19.287  1.00  0.00     0.327 A 
HETATM    5  O1  UNL     1     -27.874 -16.267 -19.653  1.00  0.00    -0.247 OA
HETATM    6  N3  UNL     1     -29.837 -15.120 -19.862  1.00  0.00    -0.292 N 
ATOM      7  H3  UNL     1     -30.143 -15.761 -20.595  1.00  0.00     0.172 HD
HETATM    8  C3  UNL     1     -30.641 -14.120 -19.495  1.00  0.00     0.151 A 
HETATM    9  C4  UNL     1     -30.201 -13.258 -18.492  1.00  0.00     0.099 A 
HETATM   10  C5  UNL     1     -31.237 -12.361 -18.354  1.00  0.00     0.132 A 
HETATM   11  N5  UNL     1     -32.237 -12.659 -19.214  1.00  0.00    -0.274 N 
ATOM     12  H5  UNL     1     -33.117 -12.153 -19.315  1.00  0.00     0.189 HD
HETATM   13  N6  UNL     1     -31.870 -13.713 -19.892  1.00  0.00    -0.212 N 
ENDROOT
BRANCH   1  14
HETATM   14  N1  UNL     1     -28.536 -12.651 -16.966  1.00  0.00    -0.384 N 
ATOM     15  H12 UNL     1     -28.018 -11.793 -17.159  1.00  0.00     0.157 HD
ATOM     16  H11 UNL     1     -28.700 -12.870 -15.984  1.00  0.00     0.157 HD
ENDBRANCH   1  14
BRANCH  10  17
HETATM   17  N4  UNL     1     -31.216 -11.386 -17.508  1.00  0.00    -0.384 N 
ATOM     18  H42 UNL     1     -30.637 -10.548 -17.563  1.00  0.00     0.157 HD
ATOM     19  H41 UNL     1     -31.802 -11.360 -16.673  1.00  0.00     0.157 HD
ENDBRANCH  10  17
BRANCH  13  20
HETATM   20  C6  UNL     1     -32.629 -14.368 -20.911  1.00  0.00     0.378 C 
HETATM   21  O2  UNL     1     -32.241 -15.471 -21.344  1.00  0.00    -0.281 OA
ENDBRANCH  13  20
TORSDOF 3
ENDMDL
MODEL 4
REMARK VINA RESULT: -7.421857434      1.816      3.877
REMARK  3 active torsions:
REMARK  status: ('A' for Active; 'I' for Inactive)
REMARK    1  A    between atoms: N1_1  and  C1_4 
REMARK    2  A    between atoms: C5_13  and  N4_14 
REMARK    3  A    between atoms: N6_19  and  C6_20 
ROOT
HETATM    1  C1  UNL     1     -31.982 -13.268 -19.875  1.00  0.00     0.120 A 
HETATM    2  N2  UNL     1     -30.774 -13.216 -19.249  1.00  0.00    -0.294 N 
ATOM      3  H2  UNL     1     -30.553 -12.401 -18.677  1.00  0.00     0.172 HD
HETATM    4  C2  UNL     1     -29.864 -14.193 -19.354  1.00  0.00     0.327 A 
HETATM    5  O1  UNL     1     -28.750 -14.087 -18.744  1.00  0.00    -0.247 OA
HETATM    6  N3  UNL     1     -30.134 -15.285 -20.107  1.00  0.00    -0.292 N 
ATOM      7  H3  UNL     1     -29.434 -16.024 -20.182  1.00  0.00     0.172 HD
HETATM    8  C3  UNL     1     -31.294 -15.419 -20.756  1.00  0.00     0.151 A 
HETATM    9  C4  UNL     1     -32.233 -14.397 -20.639  1.00  0.00     0.099 A 
HETATM   10  C5  UNL     1     -33.288 -14.833 -21.408  1.00  0.00     0.132 A 
HETATM   11  N5  UNL     1     -33.008 -16.038 -21.954  1.00  0.00    -0.274 N 
ATOM     12  H5  UNL     1     -33.619 -16.582 -22.564  1.00  0.00     0.189 HD
HETATM   13  N6  UNL     1     -31.812 -16.379 -21.556  1.00  0.00    -0.212 N 
ENDROOT
BRANCH   1  14
HETATM   14  N1  UNL     1     -32.822 -12.315 -19.749  1.00  0.00    -0.384 N 
ATOM     15  H12 UNL     1     -32.543 -11.339 -19.653  1.00  0.00     0.157 HD
ATOM     16  H11 UNL     1     -33.824 -12.503 -19.741  1.00  0.00     0.157 HD
ENDBRANCH   1  14
BRANCH  10  17
HETATM   17  N4  UNL     1     -34.376 -14.155 -21.560  1.00  0.00    -0.384 N 
ATOM     18  H42 UNL     1     -35.268 -14.328 -21.097  1.00  0.00     0.157 HD
ATOM     19  H41 UNL     1     -34.448 -13.351 -22.183  1.00  0.00     0.157 HD
ENDBRANCH  10  17
BRANCH  13  20
HETATM   20  C6  UNL     1     -31.121 -17.583 -21.899  1.00  0.00     0.378 C 
HETATM   21  O2  UNL     1     -29.968 -17.509 -22.367  1.00  0.00    -0.281 OA
ENDBRANCH  13  20
TORSDOF 3
ENDMDL
MODEL 5
REMARK VINA RESULT: -7.389717415      1.717      2.290
REMARK  3 active torsions:
REMARK  status: ('A' for Active; 'I' for Inactive)
REMARK    1  A    between atoms: N1_1  and  C1_4 
REMARK    2  A    between atoms: C5_13  and  N4_14 
REMARK    3  A    between atoms: N6_19  and  C6_20 
ROOT
HETATM    1  C1  UNL     1     -32.474 -14.677 -20.923  1.00  0.00     0.120 A 
HETATM    2  N2  UNL     1     -31.893 -15.815 -21.394  1.00  0.00    -0.294 N 
ATOM      3  H2  UNL     1     -32.414 -16.395 -22.050  1.00  0.00     0.172 HD
HETATM    4  C2  UNL     1     -30.663 -16.202 -21.029  1.00  0.00     0.327 A 
HETATM    5  O1  UNL     1     -30.174 -17.278 -21.505  1.00  0.00    -0.247 OA
HETATM    6  N3  UNL     1     -29.951 -15.448 -20.159  1.00  0.00    -0.292 N 
ATOM      7  H3  UNL     1     -29.016 -15.752 -19.888  1.00  0.00     0.172 HD
HETATM    8  C3  UNL     1     -30.443 -14.317 -19.648  1.00  0.00     0.151 A 
HETATM    9  C4  UNL     1     -31.722 -13.924 -20.034  1.00  0.00     0.099 A 
HETATM   10  C5  UNL     1     -31.925 -12.749 -19.345  1.00  0.00     0.132 A 
HETATM   11  N5  UNL     1     -30.842 -12.449 -18.593  1.00  0.00    -0.274 N 
ATOM     12  H5  UNL     1     -30.733 -11.635 -17.989  1.00  0.00     0.189 HD
HETATM   13  N6  UNL     1     -29.961 -13.395 -18.782  1.00  0.00    -0.212 N 
ENDROOT
BRANCH   1  14
HETATM   14  N1  UNL     1     -33.648 -14.342 -21.295  1.00  0.00    -0.384 N 
ATOM     15  H12 UNL     1     -34.111 -14.754 -22.105  1.00  0.00     0.157 HD
ATOM     16  H11 UNL     1     -34.175 -13.637 -20.782  1.00  0.00     0.157 HD
ENDBRANCH   1  14
BRANCH  10  17
HETATM   17  N4  UNL     1     -33.013 -12.059 -19.434  1.00  0.00    -0.384 N 
ATOM     18  H42 UNL     1     -33.590 -11.941 -20.267  1.00  0.00     0.157 HD
ATOM     19  H41 UNL     1     -33.413 -11.546 -18.648  1.00  0.00     0.157 HD
ENDBRANCH  10  17
BRANCH  13  20
HETATM   20  C6  UNL     1     -28.668 -13.475 -18.178  1.00  0.00     0.378 C 
HETATM   21  O2  UNL     1     -28.379 -12.691 -17.253  1.00  0.00    -0.281 OA
ENDBRANCH  13  20
TORSDOF 3
ENDMDL
