MODEL 1
REMARK VINA RESULT: -8.368663107      0.000      0.000
REMARK  1 active torsions:
REMARK  status: ('A' for Active; 'I' for Inactive)
REMARK    1  A    between atoms: C2_3  and  C3_4 
ROOT
HETATM    1  C1  UNL     1     -32.209 -13.514 -20.153  1.00  0.00     0.157 C 
HETATM    2  N1  UNL     1     -30.918 -13.949 -19.668  1.00  0.00    -0.341 N 
HETATM    3  C2  UNL     1     -30.281 -15.049 -20.144  1.00  0.00     0.127 A 
HETATM    4  C4  UNL     1     -29.097 -15.182 -19.484  1.00  0.00     0.108 A 
HETATM    5  N3  UNL     1     -28.105 -16.185 -19.650  1.00  0.00    -0.097 NA
HETATM    6  C5  UNL     1     -29.023 -14.128 -18.580  1.00  0.00     0.105 A 
HETATM    7  N4  UNL     1     -28.296 -13.536 -17.628  1.00  0.00    -0.295 N 
ATOM      8  H4  UNL     1     -27.387 -13.879 -17.315  1.00  0.00     0.187 HD
HETATM    9  N5  UNL     1     -28.874 -12.468 -17.140  1.00  0.00    -0.283 N 
ATOM     10  H5  UNL     1     -28.512 -11.856 -16.409  1.00  0.00     0.188 HD
HETATM   11  C6  UNL     1     -30.062 -12.336 -17.804  1.00  0.00     0.143 A 
HETATM   12  N6  UNL     1     -30.873 -11.387 -17.563  1.00  0.00    -0.383 N 
ATOM     13  H61 UNL     1     -31.759 -11.288 -18.059  1.00  0.00     0.157 HD
ATOM     14  H62 UNL     1     -30.789 -10.625 -16.891  1.00  0.00     0.157 HD
HETATM   15  C7  UNL     1     -30.175 -13.362 -18.709  1.00  0.00     0.110 A 
ENDROOT
BRANCH   3  16
HETATM   16  C3  UNL     1     -30.759 -15.939 -21.177  1.00  0.00     0.283 C 
HETATM   17  N2  UNL     1     -32.104 -16.101 -21.571  1.00  0.00    -0.056 NA
HETATM   18  O1  UNL     1     -29.930 -16.674 -21.829  1.00  0.00    -0.269 OA
ENDBRANCH   3  16
TORSDOF 1
ENDMDL
MODEL 2
REMARK VINA RESULT: -8.278293238      1.557      2.152
REMARK  1 active torsions:
REMARK  status: ('A' for Active; 'I' for Inactive)
REMARK    1  A    between atoms: C2_3  and  C3_4 
ROOT
HETATM    1  C1  UNL     1     -32.724 -15.734 -21.684  1.00  0.00     0.157 C 
HETATM    2  N1  UNL     1     -31.510 -15.453 -20.951  1.00  0.00    -0.341 N 
HETATM    3  C2  UNL     1     -30.446 -16.297 -20.928  1.00  0.00     0.127 A 
HETATM    4  C4  UNL     1     -29.473 -15.743 -20.152  1.00  0.00     0.108 A 
HETATM    5  N3  UNL     1     -28.189 -16.268 -19.843  1.00  0.00    -0.097 NA
HETATM    6  C5  UNL     1     -29.970 -14.528 -19.694  1.00  0.00     0.105 A 
HETATM    7  N4  UNL     1     -29.725 -13.439 -18.959  1.00  0.00    -0.295 N 
ATOM      8  H4  UNL     1     -28.852 -13.281 -18.455  1.00  0.00     0.187 HD
HETATM    9  N5  UNL     1     -30.727 -12.596 -18.953  1.00  0.00    -0.283 N 
ATOM     10  H5  UNL     1     -30.771 -11.702 -18.465  1.00  0.00     0.188 HD
HETATM   11  C6  UNL     1     -31.703 -13.154 -19.732  1.00  0.00     0.143 A 
HETATM   12  N6  UNL     1     -32.819 -12.581 -19.935  1.00  0.00    -0.383 N 
ATOM     13  H61 UNL     1     -33.548 -12.996 -20.517  1.00  0.00     0.157 HD
ATOM     14  H62 UNL     1     -33.155 -11.684 -19.583  1.00  0.00     0.157 HD
HETATM   15  C7  UNL     1     -31.250 -14.360 -20.206  1.00  0.00     0.110 A 
ENDROOT
BRANCH   3  16
HETATM   16  C3  UNL     1     -30.344 -17.569 -21.605  1.00  0.00     0.283 C 
HETATM   17  N2  UNL     1     -30.655 -18.827 -21.050  1.00  0.00    -0.056 NA
HETATM   18  O1  UNL     1     -29.939 -17.619 -22.824  1.00  0.00    -0.269 OA
ENDBRANCH   3  16
TORSDOF 1
ENDMDL
MODEL 3
REMARK VINA RESULT: -8.223168490      2.205      3.417
REMARK  1 active torsions:
REMARK  status: ('A' for Active; 'I' for Inactive)
REMARK    1  A    between atoms: C2_3  and  C3_4 
ROOT
HETATM    1  C1  UNL     1     -32.726 -17.141 -22.281  1.00  0.00     0.157 C 
HETATM    2  N1  UNL     1     -31.801 -16.319 -21.534  1.00  0.00    -0.341 N 
HETATM    3  C2  UNL     1     -30.530 -16.704 -21.251  1.00  0.00     0.127 A 
HETATM    4  C4  UNL     1     -29.927 -15.711 -20.540  1.00  0.00     0.108 A 
HETATM    5  N3  UNL     1     -28.601 -15.675 -20.030  1.00  0.00    -0.097 NA
HETATM    6  C5  UNL     1     -30.867 -14.698 -20.392  1.00  0.00     0.105 A 
HETATM    7  N4  UNL     1     -31.116 -13.484 -19.890  1.00  0.00    -0.295 N 
ATOM      8  H4  UNL     1     -30.432 -12.937 -19.367  1.00  0.00     0.187 HD
HETATM    9  N5  UNL     1     -32.333 -13.073 -20.140  1.00  0.00    -0.283 N 
ATOM     10  H5  UNL     1     -32.749 -12.185 -19.859  1.00  0.00     0.188 HD
HETATM   11  C6  UNL     1     -32.938 -14.071 -20.854  1.00  0.00     0.143 A 
HETATM   12  N6  UNL     1     -34.139 -13.984 -21.258  1.00  0.00    -0.383 N 
ATOM     13  H61 UNL     1     -34.590 -14.728 -21.791  1.00  0.00     0.157 HD
ATOM     14  H62 UNL     1     -34.807 -13.223 -21.133  1.00  0.00     0.157 HD
HETATM   15  C7  UNL     1     -32.039 -15.095 -21.023  1.00  0.00     0.110 A 
ENDROOT
BRANCH   3  16
HETATM   16  C3  UNL     1     -29.905 -17.950 -21.631  1.00  0.00     0.283 C 
HETATM   17  N2  UNL     1     -29.545 -18.994 -20.754  1.00  0.00    -0.056 NA
HETATM   18  O1  UNL     1     -29.630 -18.183 -22.865  1.00  0.00    -0.269 OA
ENDBRANCH   3  16
TORSDOF 1
ENDMDL
MODEL 4
REMARK VINA RESULT: -7.996574641      1.416      1.838
REMARK  1 active torsions:
REMARK  status: ('A' for Active; 'I' for Inactive)
REMARK    1  A    between atoms: C2_3  and  C3_4 
ROOT
HETATM    1  C1  UNL     1     -32.216 -14.238 -20.593  1.00  0.00     0.157 C 
HETATM    2  N1  UNL     1     -30.967 -14.948 -20.427  1.00  0.00    -0.341 N 
HETATM    3  C2  UNL     1     -30.771 -16.215 -20.875  1.00  0.00     0.127 A 
HETATM    4  C4  UNL     1     -29.499 -16.590 -20.563  1.00  0.00     0.108 A 
HETATM    5  N3  UNL     1     -28.855 -17.827 -20.835  1.00  0.00    -0.097 NA
HETATM    6  C5  UNL     1     -28.914 -15.514 -19.905  1.00  0.00     0.105 A 
HETATM    7  N4  UNL     1     -27.813 -15.046 -19.310  1.00  0.00    -0.295 N 
ATOM      8  H4  UNL     1     -26.951 -15.584 -19.214  1.00  0.00     0.187 HD
HETATM    9  N5  UNL     1     -27.959 -13.825 -18.861  1.00  0.00    -0.283 N 
ATOM     10  H5  UNL     1     -27.260 -13.265 -18.375  1.00  0.00     0.188 HD
HETATM   11  C6  UNL     1     -29.236 -13.450 -19.176  1.00  0.00     0.143 A 
HETATM   12  N6  UNL     1     -29.700 -12.305 -18.876  1.00  0.00    -0.383 N 
ATOM     13  H61 UNL     1     -30.653 -12.025 -19.111  1.00  0.00     0.157 HD
ATOM     14  H62 UNL     1     -29.243 -11.533 -18.391  1.00  0.00     0.157 HD
HETATM   15  C7  UNL     1     -29.850 -14.490 -19.829  1.00  0.00     0.110 A 
ENDROOT
BRANCH   3  16
HETATM   16  C3  UNL     1     -31.733 -17.040 -21.568  1.00  0.00     0.283 C 
HETATM   17  N2  UNL     1     -32.850 -17.673 -20.985  1.00  0.00    -0.056 NA
HETATM   18  O1  UNL     1     -31.610 -17.251 -22.830  1.00  0.00    -0.269 OA
ENDBRANCH   3  16
TORSDOF 1
ENDMDL
MODEL 5
REMARK VINA RESULT: -7.973721203      1.769      4.346
REMARK  1 active torsions:
REMARK  status: ('A' for Active; 'I' for Inactive)
REMARK    1  A    between atoms: C2_3  and  C3_4 
ROOT
HETATM    1  C1  UNL     1     -32.323 -13.166 -19.672  1.00  0.00     0.157 C 
HETATM    2  N1  UNL     1     -31.365 -14.197 -20.004  1.00  0.00    -0.341 N 
HETATM    3  C2  UNL     1     -30.114 -14.242 -19.478  1.00  0.00     0.127 A 
HETATM    4  C4  UNL     1     -29.469 -15.327 -19.990  1.00  0.00     0.108 A 
HETATM    5  N3  UNL     1     -28.145 -15.769 -19.725  1.00  0.00    -0.097 NA
HETATM    6  C5  UNL     1     -30.363 -15.952 -20.852  1.00  0.00     0.105 A 
HETATM    7  N4  UNL     1     -30.559 -16.973 -21.692  1.00  0.00    -0.295 N 
ATOM      8  H4  UNL     1     -29.853 -17.680 -21.899  1.00  0.00     0.187 HD
HETATM    9  N5  UNL     1     -31.756 -16.968 -22.224  1.00  0.00    -0.283 N 
ATOM     10  H5  UNL     1     -32.132 -17.643 -22.889  1.00  0.00     0.188 HD
HETATM   11  C6  UNL     1     -32.402 -15.878 -21.708  1.00  0.00     0.143 A 
HETATM   12  N6  UNL     1     -33.597 -15.585 -22.025  1.00  0.00    -0.383 N 
ATOM     13  H61 UNL     1     -34.079 -14.772 -21.640  1.00  0.00     0.157 HD
ATOM     14  H62 UNL     1     -34.230 -16.067 -22.664  1.00  0.00     0.157 HD
HETATM   15  C7  UNL     1     -31.550 -15.230 -20.849  1.00  0.00     0.110 A 
ENDROOT
BRANCH   3  16
HETATM   16  C3  UNL     1     -29.545 -13.308 -18.534  1.00  0.00     0.283 C 
HETATM   17  N2  UNL     1     -29.917 -13.172 -17.180  1.00  0.00    -0.056 NA
HETATM   18  O1  UNL     1     -28.613 -12.504 -18.905  1.00  0.00    -0.269 OA
ENDBRANCH   3  16
TORSDOF 1
ENDMDL
