MODEL 1
REMARK VINA RESULT: -4.830462171      0.000      0.000
REMARK  7 active torsions:
REMARK  status: ('A' for Active; 'I' for Inactive)
REMARK    1  A    between atoms: N1_2  and  C4_5 
REMARK    2  A    between atoms: C4_5  and  C5_6 
REMARK    3  A    between atoms: C5_6  and  N2_7 
REMARK    4  A    between atoms: C5_6  and  C6_11 
REMARK    5  A    between atoms: C6_11  and  N3_12 
REMARK    6  A    between atoms: C7_14  and  N4_15 
REMARK    7  A    between atoms: N4_15  and  N5_17 
ROOT
HETATM    1  C5  UNL     1     -41.895 -19.000  -1.348  1.00  0.00     0.227 C 
ENDROOT
BRANCH   1   2
HETATM    2  C4  UNL     1     -41.379 -19.373  -2.697  1.00  0.00     0.270 C 
BRANCH   2   3
HETATM    3  N1  UNL     1     -42.112 -20.374  -3.383  1.00  0.00    -0.076 N 
HETATM    4  C1  UNL     1     -43.479 -20.534  -2.869  1.00  0.00     0.271 C 
HETATM    5  C2  UNL     1     -42.284 -19.930  -4.775  1.00  0.00     0.271 C 
HETATM    6  C3  UNL     1     -41.523 -21.671  -3.427  1.00  0.00     0.271 C 
ENDBRANCH   2   3
ENDBRANCH   1   2
BRANCH   1   7
HETATM    7  N2  UNL     1     -41.916 -17.583  -1.132  1.00  0.00    -0.072 N 
ATOM      8  H23 UNL     1     -42.460 -17.349  -0.301  1.00  0.00     0.274 HD
ATOM      9  H22 UNL     1     -41.002 -17.247  -0.832  1.00  0.00     0.274 HD
ATOM     10  H21 UNL     1     -42.249 -17.064  -1.944  1.00  0.00     0.274 HD
ENDBRANCH   1   7
BRANCH   1  11
HETATM   11  C6  UNL     1     -40.925 -19.589  -0.313  1.00  0.00     0.154 C 
BRANCH  11  12
HETATM   12  N3  UNL     1     -41.486 -20.802   0.251  1.00  0.00    -0.383 N 
HETATM   13  C7  UNL     1     -41.127 -21.176   1.439  1.00  0.00     0.192 C 
ATOM     14  H3  UNL     1     -42.156 -21.355  -0.283  1.00  0.00     0.160 HD
BRANCH  13  15
HETATM   15  N4  UNL     1     -41.723 -22.378   1.921  1.00  0.00    -0.296 N 
ATOM     16  H4  UNL     1     -42.340 -22.934   1.328  1.00  0.00     0.187 HD
BRANCH  15  17
HETATM   17  N5  UNL     1     -41.437 -22.771   3.227  1.00  0.00    -0.298 N 
HETATM   18  C8  UNL     1     -41.820 -22.032   4.201  1.00  0.00     0.206 C 
HETATM   19  N6  UNL     1     -41.543 -22.405   5.562  1.00  0.00    -0.095 NA
ATOM     20  H5  UNL     1     -40.928 -23.637   3.406  1.00  0.00     0.187 HD
ENDBRANCH  15  17
ENDBRANCH  13  15
ENDBRANCH  11  12
ENDBRANCH   1  11
TORSDOF 7
ENDMDL
MODEL 2
REMARK VINA RESULT: -4.817302282      0.060      1.090
REMARK  7 active torsions:
REMARK  status: ('A' for Active; 'I' for Inactive)
REMARK    1  A    between atoms: N1_2  and  C4_5 
REMARK    2  A    between atoms: C4_5  and  C5_6 
REMARK    3  A    between atoms: C5_6  and  N2_7 
REMARK    4  A    between atoms: C5_6  and  C6_11 
REMARK    5  A    between atoms: C6_11  and  N3_12 
REMARK    6  A    between atoms: C7_14  and  N4_15 
REMARK    7  A    between atoms: N4_15  and  N5_17 
ROOT
HETATM    1  C5  UNL     1     -41.921 -19.003  -1.354  1.00  0.00     0.227 C 
ENDROOT
BRANCH   1   2
HETATM    2  C4  UNL     1     -41.377 -19.426  -2.676  1.00  0.00     0.270 C 
BRANCH   2   3
HETATM    3  N1  UNL     1     -42.179 -20.335  -3.411  1.00  0.00    -0.076 N 
HETATM    4  C1  UNL     1     -42.269 -19.994  -4.837  1.00  0.00     0.271 C 
HETATM    5  C2  UNL     1     -41.513 -21.647  -3.380  1.00  0.00     0.271 C 
HETATM    6  C3  UNL     1     -43.509 -20.530  -2.937  1.00  0.00     0.271 C 
ENDBRANCH   2   3
ENDBRANCH   1   2
BRANCH   1   7
HETATM    7  N2  UNL     1     -41.933 -17.579  -1.186  1.00  0.00    -0.072 N 
ATOM      8  H23 UNL     1     -41.004 -17.233  -0.948  1.00  0.00     0.274 HD
ATOM      9  H22 UNL     1     -42.062 -17.108  -2.081  1.00  0.00     0.274 HD
ATOM     10  H21 UNL     1     -42.624 -17.266  -0.505  1.00  0.00     0.274 HD
ENDBRANCH   1   7
BRANCH   1  11
HETATM   11  C6  UNL     1     -40.984 -19.566  -0.276  1.00  0.00     0.154 C 
BRANCH  11  12
HETATM   12  N3  UNL     1     -41.552 -20.778   0.284  1.00  0.00    -0.383 N 
HETATM   13  C7  UNL     1     -41.143 -21.197   1.440  1.00  0.00     0.192 C 
ATOM     14  H3  UNL     1     -42.265 -21.296  -0.229  1.00  0.00     0.160 HD
BRANCH  13  15
HETATM   15  N4  UNL     1     -41.750 -22.395   1.920  1.00  0.00    -0.296 N 
ATOM     16  H4  UNL     1     -42.364 -22.949   1.323  1.00  0.00     0.187 HD
BRANCH  15  17
HETATM   17  N5  UNL     1     -41.479 -22.785   3.230  1.00  0.00    -0.298 N 
HETATM   18  C8  UNL     1     -41.856 -22.034   4.197  1.00  0.00     0.206 C 
HETATM   19  N6  UNL     1     -41.594 -22.403   5.562  1.00  0.00    -0.095 NA
ATOM     20  H5  UNL     1     -40.987 -23.658   3.417  1.00  0.00     0.187 HD
ENDBRANCH  15  17
ENDBRANCH  13  15
ENDBRANCH  11  12
ENDBRANCH   1  11
TORSDOF 7
ENDMDL
MODEL 3
REMARK VINA RESULT: -4.649622410      1.240      1.721
REMARK  7 active torsions:
REMARK  status: ('A' for Active; 'I' for Inactive)
REMARK    1  A    between atoms: N1_2  and  C4_5 
REMARK    2  A    between atoms: C4_5  and  C5_6 
REMARK    3  A    between atoms: C5_6  and  N2_7 
REMARK    4  A    between atoms: C5_6  and  C6_11 
REMARK    5  A    between atoms: C6_11  and  N3_12 
REMARK    6  A    between atoms: C7_14  and  N4_15 
REMARK    7  A    between atoms: N4_15  and  N5_17 
ROOT
HETATM    1  C5  UNL     1     -41.975 -20.125  -1.638  1.00  0.00     0.227 C 
ENDROOT
BRANCH   1   2
HETATM    2  C4  UNL     1     -41.852 -19.078  -2.693  1.00  0.00     0.270 C 
BRANCH   2   3
HETATM    3  N1  UNL     1     -41.915 -19.543  -4.032  1.00  0.00    -0.076 N 
HETATM    4  C1  UNL     1     -40.682 -19.279  -4.786  1.00  0.00     0.271 C 
HETATM    5  C2  UNL     1     -42.025 -21.010  -3.993  1.00  0.00     0.271 C 
HETATM    6  C3  UNL     1     -43.003 -19.062  -4.817  1.00  0.00     0.271 C 
ENDBRANCH   2   3
ENDBRANCH   1   2
BRANCH   1   7
HETATM    7  N2  UNL     1     -43.330 -20.341  -1.223  1.00  0.00    -0.072 N 
ATOM      8  H23 UNL     1     -43.863 -19.471  -1.248  1.00  0.00     0.274 HD
ATOM      9  H22 UNL     1     -43.846 -20.871  -1.926  1.00  0.00     0.274 HD
ATOM     10  H21 UNL     1     -43.399 -20.785  -0.308  1.00  0.00     0.274 HD
ENDBRANCH   1   7
BRANCH   1  11
HETATM   11  C6  UNL     1     -41.214 -19.617  -0.405  1.00  0.00     0.154 C 
BRANCH  11  12
HETATM   12  N3  UNL     1     -40.724 -20.743   0.368  1.00  0.00    -0.383 N 
HETATM   13  C7  UNL     1     -41.081 -20.868   1.607  1.00  0.00     0.192 C 
ATOM     14  H3  UNL     1     -40.103 -21.429  -0.061  1.00  0.00     0.160 HD
BRANCH  13  15
HETATM   15  N4  UNL     1     -40.557 -22.001   2.296  1.00  0.00    -0.296 N 
ATOM     16  H4  UNL     1     -39.647 -22.391   2.050  1.00  0.00     0.187 HD
BRANCH  15  17
HETATM   17  N5  UNL     1     -41.325 -22.558   3.317  1.00  0.00    -0.298 N 
HETATM   18  C8  UNL     1     -41.432 -21.935   4.431  1.00  0.00     0.206 C 
HETATM   19  N6  UNL     1     -42.215 -22.478   5.507  1.00  0.00    -0.095 NA
ATOM     20  H5  UNL     1     -41.796 -23.452   3.178  1.00  0.00     0.187 HD
ENDBRANCH  15  17
ENDBRANCH  13  15
ENDBRANCH  11  12
ENDBRANCH   1  11
TORSDOF 7
ENDMDL
MODEL 4
REMARK VINA RESULT: -4.605030795      1.255      1.439
REMARK  7 active torsions:
REMARK  status: ('A' for Active; 'I' for Inactive)
REMARK    1  A    between atoms: N1_2  and  C4_5 
REMARK    2  A    between atoms: C4_5  and  C5_6 
REMARK    3  A    between atoms: C5_6  and  N2_7 
REMARK    4  A    between atoms: C5_6  and  C6_11 
REMARK    5  A    between atoms: C6_11  and  N3_12 
REMARK    6  A    between atoms: C7_14  and  N4_15 
REMARK    7  A    between atoms: N4_15  and  N5_17 
ROOT
HETATM    1  C5  UNL     1     -41.967 -20.143  -1.626  1.00  0.00     0.227 C 
ENDROOT
BRANCH   1   2
HETATM    2  C4  UNL     1     -41.859 -19.118  -2.704  1.00  0.00     0.270 C 
BRANCH   2   3
HETATM    3  N1  UNL     1     -41.852 -19.617  -4.031  1.00  0.00    -0.076 N 
HETATM    4  C1  UNL     1     -42.072 -21.068  -4.097  1.00  0.00     0.271 C 
HETATM    5  C2  UNL     1     -43.001 -19.030  -4.738  1.00  0.00     0.271 C 
HETATM    6  C3  UNL     1     -40.691 -19.330  -4.808  1.00  0.00     0.271 C 
ENDBRANCH   2   3
ENDBRANCH   1   2
BRANCH   1   7
HETATM    7  N2  UNL     1     -43.312 -20.327  -1.166  1.00  0.00    -0.072 N 
ATOM      8  H23 UNL     1     -43.378 -20.172  -0.160  1.00  0.00     0.274 HD
ATOM      9  H22 UNL     1     -43.915 -19.571  -1.490  1.00  0.00     0.274 HD
ATOM     10  H21 UNL     1     -43.697 -21.236  -1.420  1.00  0.00     0.274 HD
ENDBRANCH   1   7
BRANCH   1  11
HETATM   11  C6  UNL     1     -41.158 -19.628  -0.427  1.00  0.00     0.154 C 
BRANCH  11  12
HETATM   12  N3  UNL     1     -40.740 -20.744   0.399  1.00  0.00    -0.383 N 
HETATM   13  C7  UNL     1     -41.100 -20.784   1.644  1.00  0.00     0.192 C 
ATOM     14  H3  UNL     1     -40.168 -21.491   0.005  1.00  0.00     0.160 HD
BRANCH  13  15
HETATM   15  N4  UNL     1     -40.649 -21.913   2.388  1.00  0.00    -0.296 N 
ATOM     16  H4  UNL     1     -39.724 -22.313   2.228  1.00  0.00     0.187 HD
BRANCH  15  17
HETATM   17  N5  UNL     1     -41.510 -22.455   3.340  1.00  0.00    -0.298 N 
HETATM   18  C8  UNL     1     -41.618 -21.884   4.482  1.00  0.00     0.206 C 
HETATM   19  N6  UNL     1     -42.496 -22.414   5.490  1.00  0.00    -0.095 NA
ATOM     20  H5  UNL     1     -42.049 -23.296   3.131  1.00  0.00     0.187 HD
ENDBRANCH  15  17
ENDBRANCH  13  15
ENDBRANCH  11  12
ENDBRANCH   1  11
TORSDOF 7
ENDMDL
MODEL 5
REMARK VINA RESULT: -4.569126812      1.061      1.189
REMARK  7 active torsions:
REMARK  status: ('A' for Active; 'I' for Inactive)
REMARK    1  A    between atoms: N1_2  and  C4_5 
REMARK    2  A    between atoms: C4_5  and  C5_6 
REMARK    3  A    between atoms: C5_6  and  N2_7 
REMARK    4  A    between atoms: C5_6  and  C6_11 
REMARK    5  A    between atoms: C6_11  and  N3_12 
REMARK    6  A    between atoms: C7_14  and  N4_15 
REMARK    7  A    between atoms: N4_15  and  N5_17 
ROOT
HETATM    1  C5  UNL     1     -42.059 -18.811  -1.883  1.00  0.00     0.227 C 
ENDROOT
BRANCH   1   2
HETATM    2  C4  UNL     1     -41.092 -19.034  -2.996  1.00  0.00     0.270 C 
BRANCH   2   3
HETATM    3  N1  UNL     1     -41.626 -19.632  -4.166  1.00  0.00    -0.076 N 
HETATM    4  C1  UNL     1     -42.870 -18.993  -4.617  1.00  0.00     0.271 C 
HETATM    5  C2  UNL     1     -40.670 -19.407  -5.261  1.00  0.00     0.271 C 
HETATM    6  C3  UNL     1     -41.870 -21.035  -4.104  1.00  0.00     0.271 C 
ENDBRANCH   2   3
ENDBRANCH   1   2
BRANCH   1   7
HETATM    7  N2  UNL     1     -41.578 -17.879  -0.906  1.00  0.00    -0.072 N 
ATOM      8  H23 UNL     1     -41.841 -16.924  -1.152  1.00  0.00     0.274 HD
ATOM      9  H22 UNL     1     -42.092 -17.972  -0.030  1.00  0.00     0.274 HD
ATOM     10  H21 UNL     1     -40.573 -17.951  -0.750  1.00  0.00     0.274 HD
ENDBRANCH   1   7
BRANCH   1  11
HETATM   11  C6  UNL     1     -42.237 -20.154  -1.159  1.00  0.00     0.154 C 
BRANCH  11  12
HETATM   12  N3  UNL     1     -41.490 -20.144   0.084  1.00  0.00    -0.383 N 
HETATM   13  C7  UNL     1     -41.462 -21.212   0.818  1.00  0.00     0.192 C 
ATOM     14  H3  UNL     1     -40.991 -19.304   0.378  1.00  0.00     0.160 HD
BRANCH  13  15
HETATM   15  N4  UNL     1     -40.706 -21.122   2.024  1.00  0.00    -0.296 N 
ATOM     16  H4  UNL     1     -40.016 -20.382   2.158  1.00  0.00     0.187 HD
BRANCH  15  17
HETATM   17  N5  UNL     1     -40.939 -22.075   3.014  1.00  0.00    -0.298 N 
HETATM   18  C8  UNL     1     -41.445 -21.705   4.131  1.00  0.00     0.206 C 
HETATM   19  N6  UNL     1     -41.698 -22.659   5.177  1.00  0.00    -0.095 NA
ATOM     20  H5  UNL     1     -40.709 -23.055   2.851  1.00  0.00     0.187 HD
ENDBRANCH  15  17
ENDBRANCH  13  15
ENDBRANCH  11  12
ENDBRANCH   1  11
TORSDOF 7
ENDMDL
