MODEL 1
REMARK VINA RESULT: -8.618076758      0.000      0.000
REMARK  3 active torsions:
REMARK  status: ('A' for Active; 'I' for Inactive)
REMARK    1  A    between atoms: C2_2  and  C3_3 
REMARK    2  A    between atoms: C3_3  and  N1_4 
REMARK       I    between atoms: N1_4  and  C4_6 
REMARK    3  A    between atoms: C4_6  and  C5_8 
ROOT
HETATM    1  C1  UNL     1    -114.058-173.727 308.752  1.00  0.00     0.045 C 
HETATM    2  C2  UNL     1    -114.166-175.125 309.170  1.00  0.00    -0.063 C 
HETATM    3  C10 UNL     1    -113.038-175.709 309.620  1.00  0.00    -0.067 C 
HETATM    4  C11 UNL     1    -112.874-177.132 310.109  1.00  0.00     0.044 C 
HETATM    5  C12 UNL     1    -111.411-177.048 310.468  1.00  0.00     0.046 C 
HETATM    6  C13 UNL     1    -110.845-176.323 309.242  1.00  0.00     0.023 C 
HETATM    7  C14 UNL     1    -111.701-175.168 309.768  1.00  0.00     0.071 C 
HETATM    8  C15 UNL     1    -111.305-175.709 311.152  1.00  0.00     0.190 C 
HETATM    9  F1  UNL     1    -112.235-175.517 312.124  1.00  0.00    -0.224 F 
HETATM   10 CL1  UNL     1    -109.650-175.197 311.547  1.00  0.00    -0.081 Cl
ENDROOT
BRANCH   2  11
HETATM   11  C3  UNL     1    -115.396-175.919 309.092  1.00  0.00     0.156 C 
BRANCH  11  12
HETATM   12  N1  UNL     1    -116.469-175.331 308.385  1.00  0.00    -0.357 N 
HETATM   13  C4  UNL     1    -117.699-174.823 308.827  1.00  0.00     0.222 C 
HETATM   14  O1  UNL     1    -118.078-174.794 310.011  1.00  0.00    -0.273 OA
ATOM     15  H1  UNL     1    -116.322-175.264 307.378  1.00  0.00     0.162 HD
BRANCH  13  16
HETATM   16  C5  UNL     1    -118.663-174.261 307.806  1.00  0.00     0.078 C 
HETATM   17  C6  UNL     1    -118.644-175.100 306.543  1.00  0.00     0.014 C 
HETATM   18  C7  UNL     1    -120.063-175.257 306.101  1.00  0.00     0.001 C 
HETATM   19  C8  UNL     1    -120.862-174.336 306.989  1.00  0.00     0.001 C 
HETATM   20  C9  UNL     1    -120.077-174.354 308.278  1.00  0.00     0.014 C 
ENDBRANCH  13  16
ENDBRANCH  11  12
ENDBRANCH   2  11
TORSDOF 3
ENDMDL
MODEL 2
REMARK VINA RESULT: -8.282970876      1.431      2.138
REMARK  3 active torsions:
REMARK  status: ('A' for Active; 'I' for Inactive)
REMARK    1  A    between atoms: C2_2  and  C3_3 
REMARK    2  A    between atoms: C3_3  and  N1_4 
REMARK       I    between atoms: N1_4  and  C4_6 
REMARK    3  A    between atoms: C4_6  and  C5_8 
ROOT
HETATM    1  C1  UNL     1    -115.008-176.878 308.868  1.00  0.00     0.045 C 
HETATM    2  C2  UNL     1    -114.613-175.483 309.064  1.00  0.00    -0.063 C 
HETATM    3  C10 UNL     1    -113.345-175.265 309.461  1.00  0.00    -0.067 C 
HETATM    4  C11 UNL     1    -112.686-173.929 309.735  1.00  0.00     0.044 C 
HETATM    5  C12 UNL     1    -111.316-174.456 310.084  1.00  0.00     0.046 C 
HETATM    6  C13 UNL     1    -111.672-175.622 311.012  1.00  0.00     0.023 C 
HETATM    7  C14 UNL     1    -112.275-176.206 309.732  1.00  0.00     0.071 C 
HETATM    8  C15 UNL     1    -111.084-175.520 309.041  1.00  0.00     0.190 C 
HETATM    9  F1  UNL     1    -111.328-175.102 307.771  1.00  0.00    -0.224 F 
HETATM   10 CL1  UNL     1    -109.614-176.490 309.273  1.00  0.00    -0.081 Cl
ENDROOT
BRANCH   2  11
HETATM   11  C3  UNL     1    -115.512-174.337 308.892  1.00  0.00     0.156 C 
BRANCH  11  12
HETATM   12  N1  UNL     1    -116.763-174.616 308.297  1.00  0.00    -0.357 N 
HETATM   13  C4  UNL     1    -118.039-174.772 308.857  1.00  0.00     0.222 C 
HETATM   14  O1  UNL     1    -118.307-174.672 310.067  1.00  0.00    -0.273 OA
ATOM     15  H1  UNL     1    -116.732-174.722 307.283  1.00  0.00     0.162 HD
BRANCH  13  16
HETATM   16  C5  UNL     1    -119.202-175.087 307.942  1.00  0.00     0.078 C 
HETATM   17  C6  UNL     1    -120.271-174.019 308.061  1.00  0.00     0.014 C 
HETATM   18  C7  UNL     1    -120.751-173.725 306.676  1.00  0.00     0.001 C 
HETATM   19  C8  UNL     1    -120.107-174.771 305.800  1.00  0.00     0.001 C 
HETATM   20  C9  UNL     1    -118.799-175.035 306.505  1.00  0.00     0.014 C 
ENDBRANCH  13  16
ENDBRANCH  11  12
ENDBRANCH   2  11
TORSDOF 3
ENDMDL
MODEL 3
REMARK VINA RESULT: -7.887706252      1.691      2.121
REMARK  3 active torsions:
REMARK  status: ('A' for Active; 'I' for Inactive)
REMARK    1  A    between atoms: C2_2  and  C3_3 
REMARK    2  A    between atoms: C3_3  and  N1_4 
REMARK       I    between atoms: N1_4  and  C4_6 
REMARK    3  A    between atoms: C4_6  and  C5_8 
ROOT
HETATM    1  C1  UNL     1    -112.272-174.495 307.949  1.00  0.00     0.045 C 
HETATM    2  C2  UNL     1    -112.478-174.747 309.376  1.00  0.00    -0.063 C 
HETATM    3  C10 UNL     1    -111.622-175.604 309.967  1.00  0.00    -0.067 C 
HETATM    4  C11 UNL     1    -111.612-176.036 311.417  1.00  0.00     0.044 C 
HETATM    5  C12 UNL     1    -110.401-176.933 311.345  1.00  0.00     0.046 C 
HETATM    6  C13 UNL     1    -110.682-177.711 310.055  1.00  0.00     0.023 C 
HETATM    7  C14 UNL     1    -110.498-176.334 309.411  1.00  0.00     0.071 C 
HETATM    8  C15 UNL     1    -109.436-176.135 310.506  1.00  0.00     0.190 C 
HETATM    9  F1  UNL     1    -109.283-174.851 310.922  1.00  0.00    -0.224 F 
HETATM   10 CL1  UNL     1    -107.945-176.991 310.059  1.00  0.00    -0.081 Cl
ENDROOT
BRANCH   2  11
HETATM   11  C3  UNL     1    -113.562-174.163 310.172  1.00  0.00     0.156 C 
BRANCH  11  12
HETATM   12  N1  UNL     1    -114.779-173.939 309.489  1.00  0.00    -0.357 N 
HETATM   13  C4  UNL     1    -115.770-174.829 309.051  1.00  0.00     0.222 C 
HETATM   14  O1  UNL     1    -115.749-176.061 309.213  1.00  0.00    -0.273 OA
ATOM     15  H1  UNL     1    -114.969-172.960 309.278  1.00  0.00     0.162 HD
BRANCH  13  16
HETATM   16  C5  UNL     1    -116.974-174.275 308.321  1.00  0.00     0.078 C 
HETATM   17  C6  UNL     1    -117.338-175.168 307.151  1.00  0.00     0.014 C 
HETATM   18  C7  UNL     1    -118.829-175.290 307.143  1.00  0.00     0.001 C 
HETATM   19  C8  UNL     1    -119.316-174.302 308.173  1.00  0.00     0.001 C 
HETATM   20  C9  UNL     1    -118.194-174.294 309.183  1.00  0.00     0.014 C 
ENDBRANCH  13  16
ENDBRANCH  11  12
ENDBRANCH   2  11
TORSDOF 3
ENDMDL
MODEL 4
REMARK VINA RESULT: -7.859109107      1.872      2.540
REMARK  3 active torsions:
REMARK  status: ('A' for Active; 'I' for Inactive)
REMARK    1  A    between atoms: C2_2  and  C3_3 
REMARK    2  A    between atoms: C3_3  and  N1_4 
REMARK       I    between atoms: N1_4  and  C4_6 
REMARK    3  A    between atoms: C4_6  and  C5_8 
ROOT
HETATM    1  C1  UNL     1    -113.820-177.568 311.298  1.00  0.00     0.045 C 
HETATM    2  C2  UNL     1    -113.561-177.239 309.896  1.00  0.00    -0.063 C 
HETATM    3  C10 UNL     1    -112.361-176.696 309.615  1.00  0.00    -0.067 C 
HETATM    4  C11 UNL     1    -111.843-176.265 308.259  1.00  0.00     0.044 C 
HETATM    5  C12 UNL     1    -110.476-175.810 308.709  1.00  0.00     0.046 C 
HETATM    6  C13 UNL     1    -110.828-175.005 309.964  1.00  0.00     0.023 C 
HETATM    7  C14 UNL     1    -111.251-176.378 310.493  1.00  0.00     0.071 C 
HETATM    8  C15 UNL     1    -110.056-176.891 309.671  1.00  0.00     0.190 C 
HETATM    9  F1  UNL     1    -110.205-178.149 309.179  1.00  0.00    -0.224 F 
HETATM   10 CL1  UNL     1    -108.544-176.571 310.546  1.00  0.00    -0.081 Cl
ENDROOT
BRANCH   2  11
HETATM   11  C3  UNL     1    -114.528-177.428 308.809  1.00  0.00     0.156 C 
BRANCH  11  12
HETATM   12  N1  UNL     1    -115.605-176.514 308.773  1.00  0.00    -0.357 N 
HETATM   13  C4  UNL     1    -115.634-175.127 308.568  1.00  0.00     0.222 C 
HETATM   14  O1  UNL     1    -114.639-174.414 308.354  1.00  0.00    -0.273 OA
ATOM     15  H1  UNL     1    -116.520-176.937 308.924  1.00  0.00     0.162 HD
BRANCH  13  16
HETATM   16  C5  UNL     1    -116.968-174.414 308.603  1.00  0.00     0.078 C 
HETATM   17  C6  UNL     1    -117.833-174.854 307.439  1.00  0.00     0.014 C 
HETATM   18  C7  UNL     1    -119.218-175.042 307.969  1.00  0.00     0.001 C 
HETATM   19  C8  UNL     1    -119.181-174.507 309.379  1.00  0.00     0.001 C 
HETATM   20  C9  UNL     1    -117.763-174.799 309.808  1.00  0.00     0.014 C 
ENDBRANCH  13  16
ENDBRANCH  11  12
ENDBRANCH   2  11
TORSDOF 3
ENDMDL
MODEL 5
REMARK VINA RESULT: -7.824152096      1.461      1.913
REMARK  3 active torsions:
REMARK  status: ('A' for Active; 'I' for Inactive)
REMARK    1  A    between atoms: C2_2  and  C3_3 
REMARK    2  A    between atoms: C3_3  and  N1_4 
REMARK       I    between atoms: N1_4  and  C4_6 
REMARK    3  A    between atoms: C4_6  and  C5_8 
ROOT
HETATM    1  C1  UNL     1    -114.911-176.859 308.807  1.00  0.00     0.045 C 
HETATM    2  C2  UNL     1    -114.306-175.608 309.267  1.00  0.00    -0.063 C 
HETATM    3  C10 UNL     1    -112.999-175.652 309.587  1.00  0.00    -0.067 C 
HETATM    4  C11 UNL     1    -112.137-174.511 310.086  1.00  0.00     0.044 C 
HETATM    5  C12 UNL     1    -110.840-175.276 310.186  1.00  0.00     0.046 C 
HETATM    6  C13 UNL     1    -111.307-176.568 310.864  1.00  0.00     0.023 C 
HETATM    7  C14 UNL     1    -112.064-176.760 309.547  1.00  0.00     0.071 C 
HETATM    8  C15 UNL     1    -110.828-176.093 308.919  1.00  0.00     0.190 C 
HETATM    9  F1  UNL     1    -111.083-175.368 307.799  1.00  0.00    -0.224 F 
HETATM   10 CL1  UNL     1    -109.504-177.272 308.799  1.00  0.00    -0.081 Cl
ENDROOT
BRANCH   2  11
HETATM   11  C3  UNL     1    -115.037-174.347 309.432  1.00  0.00     0.156 C 
BRANCH  11  12
HETATM   12  N1  UNL     1    -116.160-174.169 308.594  1.00  0.00    -0.357 N 
HETATM   13  C4  UNL     1    -117.524-174.415 308.810  1.00  0.00     0.222 C 
HETATM   14  O1  UNL     1    -118.013-174.857 309.864  1.00  0.00    -0.273 OA
ATOM     15  H1  UNL     1    -115.941-173.796 307.670  1.00  0.00     0.162 HD
BRANCH  13  16
HETATM   16  C5  UNL     1    -118.502-174.132 307.691  1.00  0.00     0.078 C 
HETATM   17  C6  UNL     1    -118.411-175.207 306.626  1.00  0.00     0.014 C 
HETATM   18  C7  UNL     1    -119.812-175.536 306.218  1.00  0.00     0.001 C 
HETATM   19  C8  UNL     1    -120.678-174.504 306.896  1.00  0.00     0.001 C 
HETATM   20  C9  UNL     1    -119.915-174.212 308.166  1.00  0.00     0.014 C 
ENDBRANCH  13  16
ENDBRANCH  11  12
ENDBRANCH   2  11
TORSDOF 3
ENDMDL
