MODEL 1
REMARK VINA RESULT: -8.358058111      0.000      0.000
REMARK  4 active torsions:
REMARK  status: ('A' for Active; 'I' for Inactive)
REMARK       I    between atoms: N1_4  and  C4_5 
REMARK    1  A    between atoms: C4_5  and  C5_7 
REMARK    2  A    between atoms: C9_14  and  C10_15 
REMARK       I    between atoms: C10_15  and  N2_17 
REMARK    3  A    between atoms: C12_21  and  C13_22 
REMARK       I    between atoms: C13_22  and  N3_24 
REMARK    4  A    between atoms: N3_24  and  C14_26 
ROOT
HETATM    1  C1  UNL     1      -5.099 -47.860   3.289  1.00  0.00     0.018 C 
HETATM    2  C2  UNL     1      -5.170 -46.444   2.864  1.00  0.00    -0.009 C 
HETATM    3  C3  UNL     1      -3.914 -46.136   2.076  1.00  0.00     0.137 C 
HETATM    4  N1  UNL     1      -4.262 -46.173   0.686  1.00  0.00    -0.339 N 
HETATM    5  C4  UNL     1      -3.339 -46.377  -0.370  1.00  0.00     0.328 C 
HETATM    6  O1  UNL     1      -2.128 -46.534  -0.079  1.00  0.00    -0.263 OA
HETATM    7  C6  UNL     1      -5.688 -45.969   0.540  1.00  0.00     0.093 C 
HETATM    8  C7  UNL     1      -6.029 -44.507   0.735  1.00  0.00     0.031 C 
HETATM    9  C8  UNL     1      -6.781 -44.903   1.985  1.00  0.00     0.008 C 
HETATM   10  C9  UNL     1      -6.197 -44.338   3.260  1.00  0.00     0.096 C 
HETATM   11  C12 UNL     1      -5.455 -45.438   3.940  1.00  0.00     0.101 C 
HETATM   12  C20 UNL     1      -6.288 -46.320   1.854  1.00  0.00     0.024 C 
ENDROOT
BRANCH  11  13
HETATM   13  C13 UNL     1      -5.931 -45.928   5.201  1.00  0.00     0.223 C 
HETATM   14  O3  UNL     1      -7.178 -46.254   5.312  1.00  0.00    -0.273 OA
HETATM   15  N3  UNL     1      -5.249 -46.129   6.414  1.00  0.00    -0.356 N 
ATOM     16  H3  UNL     1      -4.254 -45.905   6.420  1.00  0.00     0.162 HD
BRANCH  15  17
HETATM   17  C14 UNL     1      -5.806 -46.620   7.648  1.00  0.00     0.084 C 
HETATM   18  C15 UNL     1      -6.261 -45.440   8.497  1.00  0.00     0.025 C 
HETATM   19  C16 UNL     1      -5.085 -44.705   9.095  1.00  0.00     0.002 C 
HETATM   20  C17 UNL     1      -4.334 -45.668   9.987  1.00  0.00     0.000 C 
HETATM   21  C18 UNL     1      -3.776 -46.766   9.108  1.00  0.00     0.002 C 
HETATM   22  C19 UNL     1      -4.869 -47.513   8.388  1.00  0.00     0.025 C 
ENDBRANCH  15  17
ENDBRANCH  11  13
BRANCH  10  23
HETATM   23  C10 UNL     1      -7.248 -43.661   3.989  1.00  0.00     0.227 C 
HETATM   24  O2  UNL     1      -8.441 -43.713   3.595  1.00  0.00    -0.273 OA
HETATM   25  N2  UNL     1      -7.030 -42.905   5.168  1.00  0.00    -0.331 N 
HETATM   26  C11 UNL     1      -7.826 -43.048   6.167  1.00  0.00     0.147 C 
ATOM     27  H2  UNL     1      -6.249 -42.252   5.222  1.00  0.00     0.168 HD
HETATM   28 BR1  UNL     1      -7.576 -42.046   7.790  1.00  0.00    -0.045 Br
ENDBRANCH  10  23
BRANCH   5  29
HETATM   29  C5  UNL     1      -3.789 -46.406  -1.789  1.00  0.00     0.472 C 
HETATM   30  F1  UNL     1      -2.810 -46.920  -2.589  1.00  0.00    -0.162 F 
HETATM   31  F2  UNL     1      -4.110 -45.120  -2.180  1.00  0.00    -0.162 F 
HETATM   32  F3  UNL     1      -4.898 -47.206  -1.885  1.00  0.00    -0.162 F 
ENDBRANCH   5  29
TORSDOF 4
ENDMDL
MODEL 2
REMARK VINA RESULT: -7.849860706      3.834      6.570
REMARK  4 active torsions:
REMARK  status: ('A' for Active; 'I' for Inactive)
REMARK       I    between atoms: N1_4  and  C4_5 
REMARK    1  A    between atoms: C4_5  and  C5_7 
REMARK    2  A    between atoms: C9_14  and  C10_15 
REMARK       I    between atoms: C10_15  and  N2_17 
REMARK    3  A    between atoms: C12_21  and  C13_22 
REMARK       I    between atoms: C13_22  and  N3_24 
REMARK    4  A    between atoms: N3_24  and  C14_26 
ROOT
HETATM    1  C1  UNL     1      -3.103 -46.746   1.651  1.00  0.00     0.018 C 
HETATM    2  C2  UNL     1      -4.043 -46.982   2.770  1.00  0.00    -0.009 C 
HETATM    3  C3  UNL     1      -4.082 -48.473   3.032  1.00  0.00     0.137 C 
HETATM    4  N1  UNL     1      -3.256 -48.728   4.174  1.00  0.00    -0.339 N 
HETATM    5  C4  UNL     1      -2.673 -49.984   4.483  1.00  0.00     0.328 C 
HETATM    6  O1  UNL     1      -2.893 -50.947   3.708  1.00  0.00    -0.263 OA
HETATM    7  C6  UNL     1      -3.118 -47.514   4.951  1.00  0.00     0.093 C 
HETATM    8  C7  UNL     1      -4.382 -47.254   5.742  1.00  0.00     0.031 C 
HETATM    9  C8  UNL     1      -4.596 -46.021   4.895  1.00  0.00     0.008 C 
HETATM   10  C9  UNL     1      -5.838 -46.074   4.034  1.00  0.00     0.096 C 
HETATM   11  C12 UNL     1      -5.406 -46.368   2.638  1.00  0.00     0.101 C 
HETATM   12  C20 UNL     1      -3.428 -46.397   4.021  1.00  0.00     0.024 C 
ENDROOT
BRANCH  11  13
HETATM   13  C13 UNL     1      -5.592 -45.372   1.623  1.00  0.00     0.223 C 
HETATM   14  O3  UNL     1      -4.714 -44.431   1.506  1.00  0.00    -0.273 OA
HETATM   15  N3  UNL     1      -6.620 -45.223   0.675  1.00  0.00    -0.356 N 
ATOM     16  H3  UNL     1      -7.357 -45.928   0.688  1.00  0.00     0.162 HD
BRANCH  15  17
HETATM   17  C14 UNL     1      -6.741 -44.181  -0.312  1.00  0.00     0.084 C 
HETATM   18  C15 UNL     1      -7.746 -43.145   0.173  1.00  0.00     0.025 C 
HETATM   19  C16 UNL     1      -9.161 -43.664   0.080  1.00  0.00     0.002 C 
HETATM   20  C17 UNL     1      -9.456 -43.966  -1.372  1.00  0.00     0.000 C 
HETATM   21  C18 UNL     1      -8.538 -45.089  -1.802  1.00  0.00     0.002 C 
HETATM   22  C19 UNL     1      -7.087 -44.706  -1.664  1.00  0.00     0.025 C 
ENDBRANCH  15  17
ENDBRANCH  11  13
BRANCH  10  23
HETATM   23  C10 UNL     1      -6.619 -44.881   4.278  1.00  0.00     0.227 C 
HETATM   24  O2  UNL     1      -7.601 -44.593   3.546  1.00  0.00    -0.273 OA
HETATM   25  N2  UNL     1      -6.352 -43.962   5.324  1.00  0.00    -0.331 N 
HETATM   26  C11 UNL     1      -7.325 -43.514   6.035  1.00  0.00     0.147 C 
ATOM     27  H2  UNL     1      -5.397 -43.659   5.511  1.00  0.00     0.168 HD
HETATM   28 BR1  UNL     1      -7.020 -42.266   7.467  1.00  0.00    -0.045 Br
ENDBRANCH  10  23
BRANCH   5  29
HETATM   29  C5  UNL     1      -1.821 -50.159   5.691  1.00  0.00     0.472 C 
HETATM   30  F1  UNL     1      -2.525 -49.849   6.819  1.00  0.00    -0.162 F 
HETATM   31  F2  UNL     1      -0.710 -49.347   5.574  1.00  0.00    -0.162 F 
HETATM   32  F3  UNL     1      -1.426 -51.470   5.767  1.00  0.00    -0.162 F 
ENDBRANCH   5  29
TORSDOF 4
ENDMDL
MODEL 3
REMARK VINA RESULT: -7.589837548      1.169      1.371
REMARK  4 active torsions:
REMARK  status: ('A' for Active; 'I' for Inactive)
REMARK       I    between atoms: N1_4  and  C4_5 
REMARK    1  A    between atoms: C4_5  and  C5_7 
REMARK    2  A    between atoms: C9_14  and  C10_15 
REMARK       I    between atoms: C10_15  and  N2_17 
REMARK    3  A    between atoms: C12_21  and  C13_22 
REMARK       I    between atoms: C13_22  and  N3_24 
REMARK    4  A    between atoms: N3_24  and  C14_26 
ROOT
HETATM    1  C1  UNL     1      -3.484 -48.463   3.723  1.00  0.00     0.018 C 
HETATM    2  C2  UNL     1      -3.993 -47.120   3.365  1.00  0.00    -0.009 C 
HETATM    3  C3  UNL     1      -2.979 -46.472   2.446  1.00  0.00     0.137 C 
HETATM    4  N1  UNL     1      -3.473 -46.598   1.107  1.00  0.00    -0.339 N 
HETATM    5  C4  UNL     1      -2.668 -46.534  -0.058  1.00  0.00     0.328 C 
HETATM    6  O1  UNL     1      -1.433 -46.350   0.083  1.00  0.00    -0.263 OA
HETATM    7  C6  UNL     1      -4.907 -46.797   1.139  1.00  0.00     0.093 C 
HETATM    8  C7  UNL     1      -5.608 -45.488   1.429  1.00  0.00     0.031 C 
HETATM    9  C8  UNL     1      -6.062 -46.082   2.742  1.00  0.00     0.008 C 
HETATM   10  C9  UNL     1      -5.502 -45.383   3.960  1.00  0.00     0.096 C 
HETATM   11  C12 UNL     1      -4.408 -46.237   4.505  1.00  0.00     0.101 C 
HETATM   12  C20 UNL     1      -5.219 -47.306   2.499  1.00  0.00     0.024 C 
ENDROOT
BRANCH  11  13
HETATM   13  C13 UNL     1      -4.571 -46.845   5.794  1.00  0.00     0.223 C 
HETATM   14  O3  UNL     1      -4.065 -48.017   5.998  1.00  0.00    -0.273 OA
HETATM   15  N3  UNL     1      -5.224 -46.371   6.946  1.00  0.00    -0.356 N 
ATOM     16  H3  UNL     1      -5.650 -45.446   6.881  1.00  0.00     0.162 HD
BRANCH  15  17
HETATM   17  C14 UNL     1      -5.353 -47.052   8.208  1.00  0.00     0.084 C 
HETATM   18  C15 UNL     1      -6.073 -46.145   9.197  1.00  0.00     0.025 C 
HETATM   19  C16 UNL     1      -5.177 -45.026   9.672  1.00  0.00     0.002 C 
HETATM   20  C17 UNL     1      -3.989 -45.644  10.375  1.00  0.00     0.000 C 
HETATM   21  C18 UNL     1      -3.210 -46.436   9.348  1.00  0.00     0.002 C 
HETATM   22  C19 UNL     1      -4.045 -47.533   8.740  1.00  0.00     0.025 C 
ENDBRANCH  15  17
ENDBRANCH  11  13
BRANCH  10  23
HETATM   23  C10 UNL     1      -6.599 -45.027   4.833  1.00  0.00     0.227 C 
HETATM   24  O2  UNL     1      -7.516 -45.851   5.085  1.00  0.00    -0.273 OA
HETATM   25  N2  UNL     1      -6.734 -43.761   5.457  1.00  0.00    -0.331 N 
HETATM   26  C11 UNL     1      -7.063 -43.700   6.698  1.00  0.00     0.147 C 
ATOM     27  H2  UNL     1      -6.570 -42.906   4.926  1.00  0.00     0.168 HD
HETATM   28 BR1  UNL     1      -7.259 -42.009   7.594  1.00  0.00    -0.045 Br
ENDBRANCH  10  23
BRANCH   5  29
HETATM   29  C5  UNL     1      -3.265 -46.681  -1.414  1.00  0.00     0.472 C 
HETATM   30  F1  UNL     1      -2.309 -47.044  -2.318  1.00  0.00    -0.162 F 
HETATM   31  F2  UNL     1      -3.844 -45.480  -1.777  1.00  0.00    -0.162 F 
HETATM   32  F3  UNL     1      -4.223 -47.660  -1.371  1.00  0.00    -0.162 F 
ENDBRANCH   5  29
TORSDOF 4
ENDMDL
MODEL 4
REMARK VINA RESULT: -7.560044896      4.103      7.617
REMARK  4 active torsions:
REMARK  status: ('A' for Active; 'I' for Inactive)
REMARK       I    between atoms: N1_4  and  C4_5 
REMARK    1  A    between atoms: C4_5  and  C5_7 
REMARK    2  A    between atoms: C9_14  and  C10_15 
REMARK       I    between atoms: C10_15  and  N2_17 
REMARK    3  A    between atoms: C12_21  and  C13_22 
REMARK       I    between atoms: C13_22  and  N3_24 
REMARK    4  A    between atoms: N3_24  and  C14_26 
ROOT
HETATM    1  C1  UNL     1      -2.592 -46.122   3.687  1.00  0.00     0.018 C 
HETATM    2  C2  UNL     1      -4.047 -46.390   3.741  1.00  0.00    -0.009 C 
HETATM    3  C3  UNL     1      -4.277 -47.475   4.772  1.00  0.00     0.137 C 
HETATM    4  N1  UNL     1      -4.738 -46.837   5.970  1.00  0.00    -0.339 N 
HETATM    5  C4  UNL     1      -4.650 -47.400   7.267  1.00  0.00     0.328 C 
HETATM    6  O1  UNL     1      -4.138 -48.540   7.387  1.00  0.00    -0.263 OA
HETATM    7  C6  UNL     1      -5.300 -45.544   5.641  1.00  0.00     0.093 C 
HETATM    8  C7  UNL     1      -6.674 -45.712   5.030  1.00  0.00     0.031 C 
HETATM    9  C8  UNL     1      -6.109 -45.169   3.738  1.00  0.00     0.008 C 
HETATM   10  C9  UNL     1      -6.117 -46.161   2.597  1.00  0.00     0.096 C 
HETATM   11  C12 UNL     1      -4.724 -46.666   2.431  1.00  0.00     0.101 C 
HETATM   12  C20 UNL     1      -4.722 -45.169   4.324  1.00  0.00     0.024 C 
ENDROOT
BRANCH  11  13
HETATM   13  C13 UNL     1      -4.005 -46.352   1.230  1.00  0.00     0.223 C 
HETATM   14  O3  UNL     1      -3.225 -45.321   1.223  1.00  0.00    -0.273 OA
HETATM   15  N3  UNL     1      -3.994 -47.001  -0.017  1.00  0.00    -0.356 N 
ATOM     16  H3  UNL     1      -4.577 -47.833  -0.104  1.00  0.00     0.162 HD
BRANCH  15  17
HETATM   17  C14 UNL     1      -3.245 -46.614  -1.186  1.00  0.00     0.084 C 
HETATM   18  C15 UNL     1      -4.119 -45.738  -2.074  1.00  0.00     0.025 C 
HETATM   19  C16 UNL     1      -5.176 -46.550  -2.782  1.00  0.00     0.002 C 
HETATM   20  C17 UNL     1      -4.478 -47.565  -3.659  1.00  0.00     0.000 C 
HETATM   21  C18 UNL     1      -3.720 -48.510  -2.752  1.00  0.00     0.002 C 
HETATM   22  C19 UNL     1      -2.690 -47.783  -1.926  1.00  0.00     0.025 C 
ENDBRANCH  15  17
ENDBRANCH  11  13
BRANCH  10  23
HETATM   23  C10 UNL     1      -6.770 -45.550   1.459  1.00  0.00     0.227 C 
HETATM   24  O2  UNL     1      -6.825 -46.145   0.353  1.00  0.00    -0.273 OA
HETATM   25  N2  UNL     1      -7.381 -44.271   1.492  1.00  0.00    -0.331 N 
HETATM   26  C11 UNL     1      -8.536 -44.109   0.952  1.00  0.00     0.147 C 
ATOM     27  H2  UNL     1      -6.908 -43.487   1.939  1.00  0.00     0.168 HD
HETATM   28 BR1  UNL     1      -9.410 -42.395   0.968  1.00  0.00    -0.045 Br
ENDBRANCH  10  23
BRANCH   5  29
HETATM   29  C5  UNL     1      -5.150 -46.662   8.461  1.00  0.00     0.472 C 
HETATM   30  F1  UNL     1      -6.474 -46.363   8.316  1.00  0.00    -0.162 F 
HETATM   31  F2  UNL     1      -4.406 -45.509   8.614  1.00  0.00    -0.162 F 
HETATM   32  F3  UNL     1      -4.998 -47.458   9.567  1.00  0.00    -0.162 F 
ENDBRANCH   5  29
TORSDOF 4
ENDMDL
MODEL 5
REMARK VINA RESULT: -7.367675639      3.508      5.164
REMARK  4 active torsions:
REMARK  status: ('A' for Active; 'I' for Inactive)
REMARK       I    between atoms: N1_4  and  C4_5 
REMARK    1  A    between atoms: C4_5  and  C5_7 
REMARK    2  A    between atoms: C9_14  and  C10_15 
REMARK       I    between atoms: C10_15  and  N2_17 
REMARK    3  A    between atoms: C12_21  and  C13_22 
REMARK       I    between atoms: C13_22  and  N3_24 
REMARK    4  A    between atoms: N3_24  and  C14_26 
ROOT
HETATM    1  C1  UNL     1      -7.327 -43.027   4.117  1.00  0.00     0.018 C 
HETATM    2  C2  UNL     1      -7.287 -44.111   3.111  1.00  0.00    -0.009 C 
HETATM    3  C3  UNL     1      -8.707 -44.363   2.648  1.00  0.00     0.137 C 
HETATM    4  N1  UNL     1      -8.866 -43.712   1.382  1.00  0.00    -0.339 N 
HETATM    5  C4  UNL     1     -10.111 -43.328   0.825  1.00  0.00     0.328 C 
HETATM    6  O1  UNL     1     -11.156 -43.573   1.478  1.00  0.00    -0.263 OA
HETATM    7  C6  UNL     1      -7.567 -43.517   0.773  1.00  0.00     0.093 C 
HETATM    8  C7  UNL     1      -7.057 -44.822   0.202  1.00  0.00     0.031 C 
HETATM    9  C8  UNL     1      -5.955 -44.785   1.235  1.00  0.00     0.008 C 
HETATM   10  C9  UNL     1      -6.012 -45.916   2.236  1.00  0.00     0.096 C 
HETATM   11  C12 UNL     1      -6.563 -45.364   3.507  1.00  0.00     0.101 C 
HETATM   12  C20 UNL     1      -6.582 -43.578   1.884  1.00  0.00     0.024 C 
ENDROOT
BRANCH  11  13
HETATM   13  C13 UNL     1      -5.723 -45.309   4.668  1.00  0.00     0.223 C 
HETATM   14  O3  UNL     1      -4.493 -44.934   4.530  1.00  0.00    -0.273 OA
HETATM   15  N3  UNL     1      -6.009 -45.608   6.012  1.00  0.00    -0.356 N 
ATOM     16  H3  UNL     1      -6.962 -45.907   6.219  1.00  0.00     0.162 HD
BRANCH  15  17
HETATM   17  C14 UNL     1      -5.100 -45.536   7.127  1.00  0.00     0.084 C 
HETATM   18  C15 UNL     1      -4.341 -46.851   7.241  1.00  0.00     0.025 C 
HETATM   19  C16 UNL     1      -5.221 -47.952   7.782  1.00  0.00     0.002 C 
HETATM   20  C17 UNL     1      -5.680 -47.548   9.165  1.00  0.00     0.000 C 
HETATM   21  C18 UNL     1      -6.543 -46.314   9.020  1.00  0.00     0.002 C 
HETATM   22  C19 UNL     1      -5.781 -45.171   8.402  1.00  0.00     0.025 C 
ENDBRANCH  15  17
ENDBRANCH  11  13
BRANCH  10  23
HETATM   23  C10 UNL     1      -4.720 -46.567   2.270  1.00  0.00     0.227 C 
HETATM   24  O2  UNL     1      -4.621 -47.787   2.559  1.00  0.00    -0.273 OA
HETATM   25  N2  UNL     1      -3.496 -45.909   1.992  1.00  0.00    -0.331 N 
HETATM   26  C11 UNL     1      -2.628 -46.480   1.235  1.00  0.00     0.147 C 
ATOM     27  H2  UNL     1      -3.305 -44.989   2.390  1.00  0.00     0.168 HD
HETATM   28 BR1  UNL     1      -0.951 -45.630   0.826  1.00  0.00    -0.045 Br
ENDBRANCH  10  23
BRANCH   5  29
HETATM   29  C5  UNL     1     -10.185 -42.649  -0.498  1.00  0.00     0.472 C 
HETATM   30  F1  UNL     1      -9.524 -43.378  -1.445  1.00  0.00    -0.162 F 
HETATM   31  F2  UNL     1      -9.631 -41.388  -0.383  1.00  0.00    -0.162 F 
HETATM   32  F3  UNL     1     -11.501 -42.541  -0.868  1.00  0.00    -0.162 F 
ENDBRANCH   5  29
TORSDOF 4
ENDMDL
