MODEL 1
REMARK VINA RESULT: -6.315552327      0.000      0.000
REMARK  4 active torsions:
REMARK  status: ('A' for Active; 'I' for Inactive)
REMARK    1  A    between atoms: C2_2  and  C3_3 
REMARK    2  A    between atoms: C8_8  and  O1_9 
REMARK    3  A    between atoms: C9_11  and  N1_12 
REMARK    4  A    between atoms: N1_12  and  C10_14 
ROOT
HETATM    1  C3  UNL     1      -9.010 -25.584  29.321  1.00  0.00     0.032 C 
HETATM    2  C4  UNL     1      -9.591 -24.834  28.179  1.00  0.00     0.011 C 
HETATM    3  C5  UNL     1      -8.747 -23.734  27.638  1.00  0.00     0.007 C 
HETATM    4  C6  UNL     1      -8.064 -22.912  28.661  1.00  0.00     0.012 C 
HETATM    5  C7  UNL     1      -8.906 -21.723  29.143  1.00  0.00     0.012 C 
HETATM    6  C8  UNL     1      -7.462 -23.681  29.814  1.00  0.00     0.144 C 
HETATM    7  C9  UNL     1      -8.409 -24.669  30.360  1.00  0.00     0.113 C 
ENDROOT
BRANCH   7   8
HETATM    8  N1  UNL     1      -8.052 -25.416  31.492  1.00  0.00    -0.410 N 
ATOM      9  H1  UNL     1      -8.756 -25.569  32.214  1.00  0.00     0.154 HD
BRANCH   8  10
HETATM   10  C10 UNL     1      -6.780 -25.958  31.678  1.00  0.00     0.077 C 
HETATM   11  C11 UNL     1      -6.555 -26.445  33.069  1.00  0.00     0.024 C 
HETATM   12  C12 UNL     1      -5.692 -27.706  33.089  1.00  0.00     0.002 C 
HETATM   13  C13 UNL     1      -6.404 -28.845  32.397  1.00  0.00     0.000 C 
HETATM   14  C14 UNL     1      -7.160 -28.345  31.155  1.00  0.00     0.002 C 
HETATM   15  C15 UNL     1      -6.482 -27.103  30.695  1.00  0.00     0.024 C 
ENDBRANCH   8  10
ENDBRANCH   7   8
BRANCH   1  16
HETATM   16  C2  UNL     1     -10.206 -26.225  30.005  1.00  0.00    -0.030 C 
HETATM   17  C1  UNL     1     -10.624 -27.416  29.628  1.00  0.00     0.007 C 
ENDBRANCH   1  16
BRANCH   6  18
HETATM   18  O1  UNL     1      -7.248 -22.693  30.820  1.00  0.00    -0.393 OA
ATOM     19  H1  UNL     1      -6.421 -22.290  30.581  1.00  0.00     0.210 HD
ENDBRANCH   6  18
TORSDOF 4
ENDMDL
MODEL 2
REMARK VINA RESULT: -6.236602100      1.257      1.486
REMARK  4 active torsions:
REMARK  status: ('A' for Active; 'I' for Inactive)
REMARK    1  A    between atoms: C2_2  and  C3_3 
REMARK    2  A    between atoms: C8_8  and  O1_9 
REMARK    3  A    between atoms: C9_11  and  N1_12 
REMARK    4  A    between atoms: N1_12  and  C10_14 
ROOT
HETATM    1  C3  UNL     1      -9.535 -25.825  28.288  1.00  0.00     0.032 C 
HETATM    2  C4  UNL     1     -10.577 -24.984  27.648  1.00  0.00     0.011 C 
HETATM    3  C5  UNL     1     -10.073 -23.806  26.889  1.00  0.00     0.007 C 
HETATM    4  C6  UNL     1      -8.970 -23.069  27.545  1.00  0.00     0.012 C 
HETATM    5  C7  UNL     1      -9.458 -21.965  28.492  1.00  0.00     0.012 C 
HETATM    6  C8  UNL     1      -7.905 -23.930  28.184  1.00  0.00     0.144 C 
HETATM    7  C9  UNL     1      -8.495 -25.001  29.006  1.00  0.00     0.113 C 
ENDROOT
BRANCH   7   8
HETATM    8  N1  UNL     1      -7.654 -25.846  29.745  1.00  0.00    -0.410 N 
ATOM      9  H1  UNL     1      -7.375 -26.736  29.331  1.00  0.00     0.154 HD
BRANCH   8  10
HETATM   10  C10 UNL     1      -7.182 -25.529  31.019  1.00  0.00     0.077 C 
HETATM   11  C11 UNL     1      -7.848 -26.314  32.097  1.00  0.00     0.024 C 
HETATM   12  C12 UNL     1      -6.874 -26.659  33.223  1.00  0.00     0.002 C 
HETATM   13  C13 UNL     1      -5.777 -27.565  32.715  1.00  0.00     0.000 C 
HETATM   14  C14 UNL     1      -5.338 -27.152  31.300  1.00  0.00     0.002 C 
HETATM   15  C15 UNL     1      -5.659 -25.708  31.141  1.00  0.00     0.024 C 
ENDBRANCH   8  10
ENDBRANCH   7   8
BRANCH   1  16
HETATM   16  C2  UNL     1     -10.272 -26.573  29.387  1.00  0.00    -0.030 C 
HETATM   17  C1  UNL     1     -11.548 -26.333  29.611  1.00  0.00     0.007 C 
ENDBRANCH   1  16
BRANCH   6  18
HETATM   18  O1  UNL     1      -7.218 -23.043  29.064  1.00  0.00    -0.393 OA
ATOM     19  H1  UNL     1      -6.299 -23.232  28.917  1.00  0.00     0.210 HD
ENDBRANCH   6  18
TORSDOF 4
ENDMDL
MODEL 3
REMARK VINA RESULT: -6.204745376      1.164      1.390
REMARK  4 active torsions:
REMARK  status: ('A' for Active; 'I' for Inactive)
REMARK    1  A    between atoms: C2_2  and  C3_3 
REMARK    2  A    between atoms: C8_8  and  O1_9 
REMARK    3  A    between atoms: C9_11  and  N1_12 
REMARK    4  A    between atoms: N1_12  and  C10_14 
ROOT
HETATM    1  C3  UNL     1      -9.639 -25.846  28.468  1.00  0.00     0.032 C 
HETATM    2  C4  UNL     1     -10.412 -25.140  27.415  1.00  0.00     0.011 C 
HETATM    3  C5  UNL     1      -9.631 -24.193  26.572  1.00  0.00     0.007 C 
HETATM    4  C6  UNL     1      -8.653 -23.364  27.311  1.00  0.00     0.012 C 
HETATM    5  C7  UNL     1      -9.247 -22.051  27.838  1.00  0.00     0.012 C 
HETATM    6  C8  UNL     1      -7.858 -24.089  28.372  1.00  0.00     0.144 C 
HETATM    7  C9  UNL     1      -8.727 -24.914  29.230  1.00  0.00     0.113 C 
ENDROOT
BRANCH   7   8
HETATM    8  N1  UNL     1      -8.173 -25.593  30.325  1.00  0.00    -0.410 N 
ATOM      9  H1  UNL     1      -8.591 -25.453  31.245  1.00  0.00     0.154 HD
BRANCH   8  10
HETATM   10  C10 UNL     1      -7.077 -26.450  30.217  1.00  0.00     0.077 C 
HETATM   11  C11 UNL     1      -6.000 -26.140  31.200  1.00  0.00     0.024 C 
HETATM   12  C12 UNL     1      -5.316 -27.413  31.700  1.00  0.00     0.002 C 
HETATM   13  C13 UNL     1      -6.294 -28.274  32.465  1.00  0.00     0.000 C 
HETATM   14  C14 UNL     1      -7.679 -28.253  31.798  1.00  0.00     0.002 C 
HETATM   15  C15 UNL     1      -7.474 -27.929  30.360  1.00  0.00     0.024 C 
ENDBRANCH   8  10
ENDBRANCH   7   8
BRANCH   1  16
HETATM   16  C2  UNL     1     -10.685 -26.287  29.478  1.00  0.00    -0.030 C 
HETATM   17  C1  UNL     1     -11.949 -25.956  29.309  1.00  0.00     0.007 C 
ENDBRANCH   1  16
BRANCH   6  18
HETATM   18  O1  UNL     1      -7.323 -23.046  29.184  1.00  0.00    -0.393 OA
ATOM     19  H1  UNL     1      -6.550 -23.431  29.580  1.00  0.00     0.210 HD
ENDBRANCH   6  18
TORSDOF 4
ENDMDL
MODEL 4
REMARK VINA RESULT: -5.988463887      1.694      2.046
REMARK  4 active torsions:
REMARK  status: ('A' for Active; 'I' for Inactive)
REMARK    1  A    between atoms: C2_2  and  C3_3 
REMARK    2  A    between atoms: C8_8  and  O1_9 
REMARK    3  A    between atoms: C9_11  and  N1_12 
REMARK    4  A    between atoms: N1_12  and  C10_14 
ROOT
HETATM    1  C3  UNL     1      -9.778 -24.989  27.657  1.00  0.00     0.032 C 
HETATM    2  C4  UNL     1     -10.989 -24.165  27.414  1.00  0.00     0.011 C 
HETATM    3  C5  UNL     1     -10.737 -22.739  27.069  1.00  0.00     0.007 C 
HETATM    4  C6  UNL     1      -9.668 -22.088  27.858  1.00  0.00     0.012 C 
HETATM    5  C7  UNL     1     -10.179 -21.448  29.156  1.00  0.00     0.012 C 
HETATM    6  C8  UNL     1      -8.431 -22.925  28.091  1.00  0.00     0.144 C 
HETATM    7  C9  UNL     1      -8.775 -24.286  28.538  1.00  0.00     0.113 C 
ENDROOT
BRANCH   7   8
HETATM    8  N1  UNL     1      -7.750 -25.178  28.886  1.00  0.00    -0.410 N 
ATOM      9  H1  UNL     1      -7.270 -25.681  28.139  1.00  0.00     0.154 HD
BRANCH   8  10
HETATM   10  C10 UNL     1      -7.354 -25.410  30.204  1.00  0.00     0.077 C 
HETATM   11  C11 UNL     1      -8.442 -25.149  31.190  1.00  0.00     0.024 C 
HETATM   12  C12 UNL     1      -8.389 -26.137  32.356  1.00  0.00     0.002 C 
HETATM   13  C13 UNL     1      -8.646 -27.544  31.868  1.00  0.00     0.000 C 
HETATM   14  C14 UNL     1      -7.965 -27.786  30.511  1.00  0.00     0.002 C 
HETATM   15  C15 UNL     1      -6.822 -26.838  30.413  1.00  0.00     0.024 C 
ENDBRANCH   8  10
ENDBRANCH   7   8
BRANCH   1  16
HETATM   16  C2  UNL     1     -10.274 -26.163  28.483  1.00  0.00    -0.030 C 
HETATM   17  C1  UNL     1     -11.367 -26.045  29.210  1.00  0.00     0.007 C 
ENDBRANCH   1  16
BRANCH   6  18
HETATM   18  O1  UNL     1      -7.766 -22.274  29.171  1.00  0.00    -0.393 OA
ATOM     19  H1  UNL     1      -7.156 -22.926  29.497  1.00  0.00     0.210 HD
ENDBRANCH   6  18
TORSDOF 4
ENDMDL
MODEL 5
REMARK VINA RESULT: -5.946852482      1.642      5.213
REMARK  4 active torsions:
REMARK  status: ('A' for Active; 'I' for Inactive)
REMARK    1  A    between atoms: C2_2  and  C3_3 
REMARK    2  A    between atoms: C8_8  and  O1_9 
REMARK    3  A    between atoms: C9_11  and  N1_12 
REMARK    4  A    between atoms: N1_12  and  C10_14 
ROOT
HETATM    1  C3  UNL     1      -9.118 -26.022  30.445  1.00  0.00     0.032 C 
HETATM    2  C4  UNL     1      -8.758 -27.213  31.254  1.00  0.00     0.011 C 
HETATM    3  C5  UNL     1      -7.741 -26.982  32.317  1.00  0.00     0.007 C 
HETATM    4  C6  UNL     1      -6.611 -26.114  31.919  1.00  0.00     0.012 C 
HETATM    5  C7  UNL     1      -5.446 -26.888  31.288  1.00  0.00     0.012 C 
HETATM    6  C8  UNL     1      -6.984 -24.895  31.107  1.00  0.00     0.144 C 
HETATM    7  C9  UNL     1      -7.904 -25.237  30.009  1.00  0.00     0.113 C 
ENDROOT
BRANCH   7   8
HETATM    8  N1  UNL     1      -8.290 -24.244  29.097  1.00  0.00    -0.410 N 
ATOM      9  H1  UNL     1      -8.068 -24.378  28.110  1.00  0.00     0.154 HD
BRANCH   8  10
HETATM   10  C10 UNL     1      -8.963 -23.082  29.474  1.00  0.00     0.077 C 
HETATM   11  C11 UNL     1      -8.137 -21.853  29.304  1.00  0.00     0.024 C 
HETATM   12  C12 UNL     1      -8.988 -20.663  28.857  1.00  0.00     0.002 C 
HETATM   13  C13 UNL     1      -9.577 -20.919  27.489  1.00  0.00     0.000 C 
HETATM   14  C14 UNL     1     -10.016 -22.386  27.348  1.00  0.00     0.002 C 
HETATM   15  C15 UNL     1     -10.290 -22.900  28.717  1.00  0.00     0.024 C 
ENDBRANCH   8  10
ENDBRANCH   7   8
BRANCH   1  16
HETATM   16  C2  UNL     1      -9.699 -26.593  29.162  1.00  0.00    -0.030 C 
HETATM   17  C1  UNL     1      -9.574 -27.877  28.894  1.00  0.00     0.007 C 
ENDBRANCH   1  16
BRANCH   6  18
HETATM   18  O1  UNL     1      -5.754 -24.476  30.520  1.00  0.00    -0.393 OA
ATOM     19  H1  UNL     1      -5.512 -25.193  29.946  1.00  0.00     0.210 HD
ENDBRANCH   6  18
TORSDOF 4
ENDMDL
