MODEL 1
REMARK VINA RESULT: -7.074266665      0.000      0.000
REMARK  2 active torsions:
REMARK  status: ('A' for Active; 'I' for Inactive)
REMARK       I    between atoms: C1_2  and  N1_3 
REMARK    1  A    between atoms: C1_2  and  C10_14 
REMARK    2  A    between atoms: N1_3  and  C2_5 
ROOT
HETATM    1  O1  UNL     1      -2.185   4.571  82.933  1.00  0.00    -0.273 OA
HETATM    2  C1  UNL     1      -1.364   3.924  83.658  1.00  0.00     0.222 C 
HETATM    3  N1  UNL     1      -0.202   3.368  83.041  1.00  0.00    -0.354 N 
ATOM      4  H1  UNL     1       0.464   2.847  83.612  1.00  0.00     0.162 HD
ENDROOT
BRANCH   3   5
HETATM    5  C2  UNL     1       0.052   3.525  81.618  1.00  0.00     0.114 C 
HETATM    6  C3  UNL     1       0.697   4.869  81.340  1.00  0.00     0.062 C 
HETATM    7  C4  UNL     1       2.140   4.512  81.633  1.00  0.00     0.225 C 
HETATM    8  C5  UNL     1       3.099   5.603  81.288  1.00  0.00     0.036 C 
HETATM    9  N2  UNL     1       2.291   3.322  80.843  1.00  0.00     0.095 N 
HETATM   10  C6  UNL     1       4.028   5.240  80.154  1.00  0.00     0.004 C 
HETATM   11  C7  UNL     1       3.195   4.711  79.025  1.00  0.00     0.030 C 
HETATM   12  C8  UNL     1       2.317   3.564  79.424  1.00  0.00     0.273 C 
HETATM   13  C9  UNL     1       1.094   2.560  81.135  1.00  0.00     0.298 C 
ENDBRANCH   3   5
BRANCH   2  14
HETATM   14  C10 UNL     1      -1.577   3.738  85.099  1.00  0.00     0.078 C 
HETATM   15  C11 UNL     1      -1.462   2.258  85.411  1.00  0.00     0.014 C 
HETATM   16  C12 UNL     1      -2.277   1.856  86.609  1.00  0.00     0.001 C 
HETATM   17  C13 UNL     1      -2.352   3.005  87.566  1.00  0.00     0.000 C 
HETATM   18  C14 UNL     1      -3.155   4.139  86.965  1.00  0.00     0.001 C 
HETATM   19  C15 UNL     1      -2.960   4.246  85.484  1.00  0.00     0.014 C 
ENDBRANCH   2  14
TORSDOF 2
ENDMDL
MODEL 2
REMARK VINA RESULT: -6.955021229      1.852      2.309
REMARK  2 active torsions:
REMARK  status: ('A' for Active; 'I' for Inactive)
REMARK       I    between atoms: C1_2  and  N1_3 
REMARK    1  A    between atoms: C1_2  and  C10_14 
REMARK    2  A    between atoms: N1_3  and  C2_5 
ROOT
HETATM    1  O1  UNL     1      -0.992   1.950  83.457  1.00  0.00    -0.273 OA
HETATM    2  C1  UNL     1      -0.944   3.087  84.027  1.00  0.00     0.222 C 
HETATM    3  N1  UNL     1      -0.374   4.183  83.311  1.00  0.00    -0.354 N 
ATOM      4  H1  UNL     1      -0.329   5.100  83.755  1.00  0.00     0.162 HD
ENDROOT
BRANCH   3   5
HETATM    5  C2  UNL     1       0.146   4.022  81.962  1.00  0.00     0.114 C 
HETATM    6  C3  UNL     1      -0.817   4.609  80.948  1.00  0.00     0.062 C 
HETATM    7  C4  UNL     1      -0.390   6.061  81.019  1.00  0.00     0.225 C 
HETATM    8  C5  UNL     1      -1.049   6.919  79.990  1.00  0.00     0.036 C 
HETATM    9  N2  UNL     1       1.032   5.934  80.859  1.00  0.00     0.095 N 
HETATM   10  C6  UNL     1      -0.082   7.469  78.968  1.00  0.00     0.004 C 
HETATM   11  C7  UNL     1       0.739   6.326  78.448  1.00  0.00     0.030 C 
HETATM   12  C8  UNL     1       1.437   5.559  79.530  1.00  0.00     0.273 C 
HETATM   13  C9  UNL     1       1.382   4.844  81.747  1.00  0.00     0.298 C 
ENDBRANCH   3   5
BRANCH   2  14
HETATM   14  C10 UNL     1      -1.455   3.299  85.386  1.00  0.00     0.078 C 
HETATM   15  C11 UNL     1      -1.666   1.944  86.033  1.00  0.00     0.014 C 
HETATM   16  C12 UNL     1      -2.752   1.964  87.075  1.00  0.00     0.001 C 
HETATM   17  C13 UNL     1      -2.801   3.317  87.713  1.00  0.00     0.000 C 
HETATM   18  C14 UNL     1      -3.262   4.355  86.712  1.00  0.00     0.001 C 
HETATM   19  C15 UNL     1      -2.774   4.060  85.327  1.00  0.00     0.014 C 
ENDBRANCH   2  14
TORSDOF 2
ENDMDL
MODEL 3
REMARK VINA RESULT: -6.924537793      2.951      3.789
REMARK  2 active torsions:
REMARK  status: ('A' for Active; 'I' for Inactive)
REMARK       I    between atoms: C1_2  and  N1_3 
REMARK    1  A    between atoms: C1_2  and  C10_14 
REMARK    2  A    between atoms: N1_3  and  C2_5 
ROOT
HETATM    1  O1  UNL     1      -1.731   4.074  82.487  1.00  0.00    -0.273 OA
HETATM    2  C1  UNL     1      -1.628   4.377  83.719  1.00  0.00     0.222 C 
HETATM    3  N1  UNL     1      -0.783   5.469  84.083  1.00  0.00    -0.354 N 
ATOM      4  H1  UNL     1      -0.692   5.722  85.067  1.00  0.00     0.162 HD
ENDROOT
BRANCH   3   5
HETATM    5  C2  UNL     1      -0.047   6.227  83.084  1.00  0.00     0.114 C 
HETATM    6  C3  UNL     1      -0.231   7.716  83.305  1.00  0.00     0.062 C 
HETATM    7  C4  UNL     1       0.831   7.938  84.363  1.00  0.00     0.225 C 
HETATM    8  C5  UNL     1       1.035   9.378  84.698  1.00  0.00     0.036 C 
HETATM    9  N2  UNL     1       1.965   7.310  83.744  1.00  0.00     0.095 N 
HETATM   10  C6  UNL     1       2.398   9.893  84.299  1.00  0.00     0.004 C 
HETATM   11  C7  UNL     1       2.635   9.509  82.869  1.00  0.00     0.030 C 
HETATM   12  C8  UNL     1       2.493   8.037  82.621  1.00  0.00     0.273 C 
HETATM   13  C9  UNL     1       1.434   6.057  83.244  1.00  0.00     0.298 C 
ENDBRANCH   3   5
BRANCH   2  14
HETATM   14  C10 UNL     1      -2.351   3.642  84.764  1.00  0.00     0.078 C 
HETATM   15  C11 UNL     1      -3.046   4.648  85.661  1.00  0.00     0.014 C 
HETATM   16  C12 UNL     1      -3.231   4.139  87.065  1.00  0.00     0.001 C 
HETATM   17  C13 UNL     1      -3.394   2.650  87.034  1.00  0.00     0.000 C 
HETATM   18  C14 UNL     1      -2.106   1.989  86.593  1.00  0.00     0.001 C 
HETATM   19  C15 UNL     1      -1.369   2.808  85.578  1.00  0.00     0.014 C 
ENDBRANCH   2  14
TORSDOF 2
ENDMDL
MODEL 4
REMARK VINA RESULT: -6.917230136      2.878      3.843
REMARK  2 active torsions:
REMARK  status: ('A' for Active; 'I' for Inactive)
REMARK       I    between atoms: C1_2  and  N1_3 
REMARK    1  A    between atoms: C1_2  and  C10_14 
REMARK    2  A    between atoms: N1_3  and  C2_5 
ROOT
HETATM    1  O1  UNL     1       0.133   3.187  83.787  1.00  0.00    -0.273 OA
HETATM    2  C1  UNL     1      -0.759   3.906  84.342  1.00  0.00     0.222 C 
HETATM    3  N1  UNL     1      -0.658   5.325  84.228  1.00  0.00    -0.354 N 
ATOM      4  H1  UNL     1      -1.367   5.913  84.668  1.00  0.00     0.162 HD
ENDROOT
BRANCH   3   5
HETATM    5  C2  UNL     1       0.432   5.954  83.498  1.00  0.00     0.114 C 
HETATM    6  C3  UNL     1       0.006   6.275  82.079  1.00  0.00     0.062 C 
HETATM    7  C4  UNL     1      -0.690   7.598  82.326  1.00  0.00     0.225 C 
HETATM    8  C5  UNL     1      -1.099   8.293  81.070  1.00  0.00     0.036 C 
HETATM    9  N2  UNL     1       0.313   8.293  83.086  1.00  0.00     0.095 N 
HETATM   10  C6  UNL     1      -0.356   9.587  80.839  1.00  0.00     0.004 C 
HETATM   11  C7  UNL     1       1.110   9.312  80.994  1.00  0.00     0.030 C 
HETATM   12  C8  UNL     1       1.459   8.689  82.312  1.00  0.00     0.273 C 
HETATM   13  C9  UNL     1       0.755   7.309  84.053  1.00  0.00     0.298 C 
ENDBRANCH   3   5
BRANCH   2  14
HETATM   14  C10 UNL     1      -1.878   3.318  85.089  1.00  0.00     0.078 C 
HETATM   15  C11 UNL     1      -2.764   4.445  85.585  1.00  0.00     0.014 C 
HETATM   16  C12 UNL     1      -3.499   4.088  86.848  1.00  0.00     0.001 C 
HETATM   17  C13 UNL     1      -3.770   2.615  86.865  1.00  0.00     0.000 C 
HETATM   18  C14 UNL     1      -2.473   1.843  86.988  1.00  0.00     0.001 C 
HETATM   19  C15 UNL     1      -1.344   2.516  86.270  1.00  0.00     0.014 C 
ENDBRANCH   2  14
TORSDOF 2
ENDMDL
MODEL 5
REMARK VINA RESULT: -6.902284725      1.374      2.094
REMARK  2 active torsions:
REMARK  status: ('A' for Active; 'I' for Inactive)
REMARK       I    between atoms: C1_2  and  N1_3 
REMARK    1  A    between atoms: C1_2  and  C10_14 
REMARK    2  A    between atoms: N1_3  and  C2_5 
ROOT
HETATM    1  O1  UNL     1      -2.614   6.066  83.816  1.00  0.00    -0.273 OA
HETATM    2  C1  UNL     1      -2.051   4.952  84.065  1.00  0.00     0.222 C 
HETATM    3  N1  UNL     1      -0.833   4.639  83.389  1.00  0.00    -0.354 N 
ATOM      4  H1  UNL     1      -0.371   3.749  83.580  1.00  0.00     0.162 HD
ENDROOT
BRANCH   3   5
HETATM    5  C2  UNL     1      -0.235   5.558  82.434  1.00  0.00     0.114 C 
HETATM    6  C3  UNL     1       1.230   5.228  82.225  1.00  0.00     0.062 C 
HETATM    7  C4  UNL     1       1.088   4.130  81.190  1.00  0.00     0.225 C 
HETATM    8  C5  UNL     1       2.394   3.680  80.625  1.00  0.00     0.036 C 
HETATM    9  N2  UNL     1       0.220   4.766  80.238  1.00  0.00     0.095 N 
HETATM   10  C6  UNL     1       2.549   4.005  79.159  1.00  0.00     0.004 C 
HETATM   11  C7  UNL     1       2.212   5.454  78.968  1.00  0.00     0.030 C 
HETATM   12  C8  UNL     1       0.853   5.817  79.485  1.00  0.00     0.273 C 
HETATM   13  C9  UNL     1      -0.807   5.373  81.060  1.00  0.00     0.298 C 
ENDBRANCH   3   5
BRANCH   2  14
HETATM   14  C10 UNL     1      -2.615   3.991  85.021  1.00  0.00     0.078 C 
HETATM   15  C11 UNL     1      -3.231   4.767  86.170  1.00  0.00     0.014 C 
HETATM   16  C12 UNL     1      -3.228   3.991  87.458  1.00  0.00     0.001 C 
HETATM   17  C13 UNL     1      -3.342   2.528  87.156  1.00  0.00     0.000 C 
HETATM   18  C14 UNL     1      -2.094   2.037  86.452  1.00  0.00     0.001 C 
HETATM   19  C15 UNL     1      -1.514   3.075  85.541  1.00  0.00     0.014 C 
ENDBRANCH   2  14
TORSDOF 2
ENDMDL
