MODEL 1
REMARK VINA RESULT: -7.785634560      0.000      0.000
REMARK  4 active torsions:
REMARK  status: ('A' for Active; 'I' for Inactive)
REMARK    1  A    between atoms: C6_6  and  C7_7 
REMARK    2  A    between atoms: C7_7  and  O1_8 
REMARK    3  A    between atoms: N1_11  and  C9_12 
REMARK    4  A    between atoms: C9_12  and  C10_13 
ROOT
HETATM    1  C1  UNL     1       1.396   7.586  85.688  1.00  0.00     0.010 C 
HETATM    2  C2  UNL     1       0.978   7.621  84.221  1.00  0.00    -0.018 C 
HETATM    3  C3  UNL     1       1.966   6.821  83.432  1.00  0.00     0.005 C 
HETATM    4  C4  UNL     1       1.373   5.898  82.421  1.00  0.00     0.006 C 
HETATM    5  C5  UNL     1       0.163   5.168  82.823  1.00  0.00    -0.001 C 
HETATM    6  C6  UNL     1       0.280   3.689  82.874  1.00  0.00     0.032 C 
HETATM    7  C8  UNL     1      -1.157   3.131  82.936  1.00  0.00     0.129 C 
HETATM    8  N1  UNL     1      -1.743   3.603  84.122  1.00  0.00    -0.392 N 
HETATM    9  C15 UNL     1      -1.772   5.034  84.280  1.00  0.00     0.126 C 
HETATM   10  C16 UNL     1      -0.367   5.599  84.200  1.00  0.00     0.008 C 
HETATM   11  C17 UNL     1      -0.427   7.090  84.161  1.00  0.00     0.011 C 
ENDROOT
BRANCH   8  12
HETATM   12  C9  UNL     1      -2.748   2.891  84.774  1.00  0.00     0.063 C 
BRANCH  12  13
HETATM   13  C10 UNL     1      -2.428   2.096  85.983  1.00  0.00     0.028 C 
HETATM   14  C11 UNL     1      -1.176   1.280  85.747  1.00  0.00     0.036 C 
HETATM   15  C12 UNL     1      -1.419  -0.148  85.462  1.00  0.00     0.168 C 
HETATM   16  O2  UNL     1      -2.440  -0.777  86.103  1.00  0.00    -0.391 OA
HETATM   17  C13 UNL     1      -3.040  -0.052  87.094  1.00  0.00     0.168 C 
HETATM   18  C14 UNL     1      -3.568   1.222  86.452  1.00  0.00     0.036 C 
ENDBRANCH  12  13
ENDBRANCH   8  12
BRANCH   6  19
HETATM   19  C7  UNL     1       1.065   3.039  81.792  1.00  0.00     0.170 C 
BRANCH  19  20
HETATM   20  O1  UNL     1       2.305   2.577  82.236  1.00  0.00    -0.400 OA
ATOM     21  H1  UNL     1       2.897   2.379  81.520  1.00  0.00     0.209 HD
ENDBRANCH  19  20
ENDBRANCH   6  19
TORSDOF 4
ENDMDL
MODEL 2
REMARK VINA RESULT: -7.346782263      1.150      1.170
REMARK  4 active torsions:
REMARK  status: ('A' for Active; 'I' for Inactive)
REMARK    1  A    between atoms: C6_6  and  C7_7 
REMARK    2  A    between atoms: C7_7  and  O1_8 
REMARK    3  A    between atoms: N1_11  and  C9_12 
REMARK    4  A    between atoms: C9_12  and  C10_13 
ROOT
HETATM    1  C1  UNL     1       1.421   7.301  85.208  1.00  0.00     0.010 C 
HETATM    2  C2  UNL     1       0.588   7.447  83.937  1.00  0.00    -0.018 C 
HETATM    3  C3  UNL     1       1.239   6.644  82.856  1.00  0.00     0.005 C 
HETATM    4  C4  UNL     1       0.308   5.816  82.033  1.00  0.00     0.006 C 
HETATM    5  C5  UNL     1      -0.775   5.130  82.750  1.00  0.00    -0.001 C 
HETATM    6  C6  UNL     1      -0.751   3.646  82.703  1.00  0.00     0.032 C 
HETATM    7  C8  UNL     1      -2.140   3.164  83.173  1.00  0.00     0.129 C 
HETATM    8  N1  UNL     1      -2.311   3.596  84.498  1.00  0.00    -0.392 N 
HETATM    9  C15 UNL     1      -2.192   5.014  84.716  1.00  0.00     0.126 C 
HETATM   10  C16 UNL     1      -0.839   5.506  84.240  1.00  0.00     0.008 C 
HETATM   11  C17 UNL     1      -0.804   6.998  84.281  1.00  0.00     0.011 C 
ENDROOT
BRANCH   8  12
HETATM   12  C9  UNL     1      -3.123   2.902  85.393  1.00  0.00     0.063 C 
BRANCH  12  13
HETATM   13  C10 UNL     1      -2.517   1.981  86.383  1.00  0.00     0.028 C 
HETATM   14  C11 UNL     1      -1.263   1.359  85.809  1.00  0.00     0.036 C 
HETATM   15  C12 UNL     1      -1.428  -0.031  85.339  1.00  0.00     0.168 C 
HETATM   16  O2  UNL     1      -2.253  -0.860  86.031  1.00  0.00    -0.391 OA
HETATM   17  C13 UNL     1      -2.722  -0.362  87.215  1.00  0.00     0.168 C 
HETATM   18  C14 UNL     1      -3.469   0.922  86.888  1.00  0.00     0.036 C 
ENDBRANCH  12  13
ENDBRANCH   8  12
BRANCH   6  19
HETATM   19  C7  UNL     1      -0.371   3.021  81.410  1.00  0.00     0.170 C 
BRANCH  19  20
HETATM   20  O1  UNL     1      -1.481   2.671  80.640  1.00  0.00    -0.400 OA
ATOM     21  H1  UNL     1      -1.535   1.735  80.484  1.00  0.00     0.209 HD
ENDBRANCH  19  20
ENDBRANCH   6  19
TORSDOF 4
ENDMDL
MODEL 3
REMARK VINA RESULT: -7.075823779      1.741      1.834
REMARK  4 active torsions:
REMARK  status: ('A' for Active; 'I' for Inactive)
REMARK    1  A    between atoms: C6_6  and  C7_7 
REMARK    2  A    between atoms: C7_7  and  O1_8 
REMARK    3  A    between atoms: N1_11  and  C9_12 
REMARK    4  A    between atoms: C9_12  and  C10_13 
ROOT
HETATM    1  C1  UNL     1       1.475   7.643  84.966  1.00  0.00     0.010 C 
HETATM    2  C2  UNL     1       0.130   7.844  84.273  1.00  0.00    -0.018 C 
HETATM    3  C3  UNL     1       0.359   7.838  82.794  1.00  0.00     0.005 C 
HETATM    4  C4  UNL     1      -0.619   7.033  82.004  1.00  0.00     0.006 C 
HETATM    5  C5  UNL     1      -1.025   5.742  82.575  1.00  0.00    -0.001 C 
HETATM    6  C6  UNL     1      -0.667   4.537  81.784  1.00  0.00     0.032 C 
HETATM    7  C8  UNL     1      -1.499   3.368  82.353  1.00  0.00     0.129 C 
HETATM    8  N1  UNL     1      -1.117   3.190  83.693  1.00  0.00    -0.392 N 
HETATM    9  C15 UNL     1      -1.257   4.342  84.543  1.00  0.00     0.126 C 
HETATM   10  C16 UNL     1      -0.460   5.506  83.985  1.00  0.00     0.008 C 
HETATM   11  C17 UNL     1      -0.773   6.745  84.757  1.00  0.00     0.011 C 
ENDROOT
BRANCH   8  12
HETATM   12  C9  UNL     1      -1.207   1.948  84.318  1.00  0.00     0.063 C 
BRANCH  12  13
HETATM   13  C10 UNL     1      -1.843   1.834  85.652  1.00  0.00     0.028 C 
HETATM   14  C11 UNL     1      -1.320   0.609  86.370  1.00  0.00     0.036 C 
HETATM   15  C12 UNL     1      -2.242  -0.544  86.366  1.00  0.00     0.168 C 
HETATM   16  O2  UNL     1      -3.578  -0.312  86.460  1.00  0.00    -0.391 OA
HETATM   17  C13 UNL     1      -3.928   0.983  86.726  1.00  0.00     0.168 C 
HETATM   18  C14 UNL     1      -3.353   1.835  85.604  1.00  0.00     0.036 C 
ENDBRANCH  12  13
ENDBRANCH   8  12
BRANCH   6  19
HETATM   19  C7  UNL     1      -0.810   4.634  80.309  1.00  0.00     0.170 C 
BRANCH  19  20
HETATM   20  O1  UNL     1      -2.145   4.676  79.904  1.00  0.00    -0.400 OA
ATOM     21  H1  UNL     1      -2.249   4.502  78.975  1.00  0.00     0.209 HD
ENDBRANCH  19  20
ENDBRANCH   6  19
TORSDOF 4
ENDMDL
MODEL 4
REMARK VINA RESULT: -7.003844738      0.594      1.201
REMARK  4 active torsions:
REMARK  status: ('A' for Active; 'I' for Inactive)
REMARK    1  A    between atoms: C6_6  and  C7_7 
REMARK    2  A    between atoms: C7_7  and  O1_8 
REMARK    3  A    between atoms: N1_11  and  C9_12 
REMARK    4  A    between atoms: C9_12  and  C10_13 
ROOT
HETATM    1  C1  UNL     1       1.802   7.943  85.513  1.00  0.00     0.010 C 
HETATM    2  C2  UNL     1       1.259   7.900  84.087  1.00  0.00    -0.018 C 
HETATM    3  C3  UNL     1       2.148   7.013  83.274  1.00  0.00     0.005 C 
HETATM    4  C4  UNL     1       1.438   6.050  82.381  1.00  0.00     0.006 C 
HETATM    5  C5  UNL     1       0.244   5.396  82.932  1.00  0.00    -0.001 C 
HETATM    6  C6  UNL     1       0.316   3.919  83.073  1.00  0.00     0.032 C 
HETATM    7  C8  UNL     1      -1.129   3.423  83.294  1.00  0.00     0.129 C 
HETATM    8  N1  UNL     1      -1.593   3.994  84.491  1.00  0.00    -0.392 N 
HETATM    9  C15 UNL     1      -1.560   5.431  84.553  1.00  0.00     0.126 C 
HETATM   10  C16 UNL     1      -0.149   5.935  84.317  1.00  0.00     0.008 C 
HETATM   11  C17 UNL     1      -0.162   7.421  84.182  1.00  0.00     0.011 C 
ENDROOT
BRANCH   8  12
HETATM   12  C9  UNL     1      -2.560   3.365  85.272  1.00  0.00     0.063 C 
BRANCH  12  13
HETATM   13  C10 UNL     1      -2.733   1.895  85.197  1.00  0.00     0.028 C 
HETATM   14  C11 UNL     1      -3.638   1.425  86.316  1.00  0.00     0.036 C 
HETATM   15  C12 UNL     1      -2.934   0.799  87.452  1.00  0.00     0.168 C 
HETATM   16  O2  UNL     1      -1.837   0.037  87.200  1.00  0.00    -0.391 OA
HETATM   17  C13 UNL     1      -1.594  -0.217  85.878  1.00  0.00     0.168 C 
HETATM   18  C14 UNL     1      -1.430   1.131  85.193  1.00  0.00     0.036 C 
ENDBRANCH  12  13
ENDBRANCH   8  12
BRANCH   6  19
HETATM   19  C7  UNL     1       0.981   3.171  81.975  1.00  0.00     0.170 C 
BRANCH  19  20
HETATM   20  O1  UNL     1       2.230   2.673  82.349  1.00  0.00    -0.400 OA
ATOM     21  H1  UNL     1       2.179   1.793  82.706  1.00  0.00     0.209 HD
ENDBRANCH  19  20
ENDBRANCH   6  19
TORSDOF 4
ENDMDL
MODEL 5
REMARK VINA RESULT: -6.993325561      1.638      1.991
REMARK  4 active torsions:
REMARK  status: ('A' for Active; 'I' for Inactive)
REMARK    1  A    between atoms: C6_6  and  C7_7 
REMARK    2  A    between atoms: C7_7  and  O1_8 
REMARK    3  A    between atoms: N1_11  and  C9_12 
REMARK    4  A    between atoms: C9_12  and  C10_13 
ROOT
HETATM    1  C1  UNL     1       1.329   8.282  84.429  1.00  0.00     0.010 C 
HETATM    2  C2  UNL     1      -0.059   8.221  83.798  1.00  0.00    -0.018 C 
HETATM    3  C3  UNL     1       0.102   7.938  82.338  1.00  0.00     0.005 C 
HETATM    4  C4  UNL     1      -0.827   6.908  81.785  1.00  0.00     0.006 C 
HETATM    5  C5  UNL     1      -1.078   5.728  82.623  1.00  0.00    -0.001 C 
HETATM    6  C6  UNL     1      -0.639   4.424  82.062  1.00  0.00     0.032 C 
HETATM    7  C8  UNL     1      -1.326   3.326  82.901  1.00  0.00     0.129 C 
HETATM    8  N1  UNL     1      -0.867   3.455  84.222  1.00  0.00    -0.392 N 
HETATM    9  C15 UNL     1      -1.081   4.738  84.838  1.00  0.00     0.126 C 
HETATM   10  C16 UNL     1      -0.429   5.831  84.013  1.00  0.00     0.008 C 
HETATM   11  C17 UNL     1      -0.827   7.167  84.546  1.00  0.00     0.011 C 
ENDROOT
BRANCH   8  12
HETATM   12  C9  UNL     1      -0.807   2.361  85.084  1.00  0.00     0.063 C 
BRANCH  12  13
HETATM   13  C10 UNL     1      -1.991   1.487  85.257  1.00  0.00     0.028 C 
HETATM   14  C11 UNL     1      -3.095   2.247  85.958  1.00  0.00     0.036 C 
HETATM   15  C12 UNL     1      -3.249   1.923  87.390  1.00  0.00     0.168 C 
HETATM   16  O2  UNL     1      -3.045   0.641  87.795  1.00  0.00    -0.391 OA
HETATM   17  C13 UNL     1      -2.882  -0.270  86.788  1.00  0.00     0.168 C 
HETATM   18  C14 UNL     1      -1.686   0.189  85.967  1.00  0.00     0.036 C 
ENDBRANCH  12  13
ENDBRANCH   8  12
BRANCH   6  19
HETATM   19  C7  UNL     1      -0.859   4.210  80.609  1.00  0.00     0.170 C 
BRANCH  19  20
HETATM   20  O1  UNL     1      -1.635   3.080  80.347  1.00  0.00    -0.400 OA
ATOM     21  H1  UNL     1      -1.584   2.807  79.437  1.00  0.00     0.209 HD
ENDBRANCH  19  20
ENDBRANCH   6  19
TORSDOF 4
ENDMDL
