MODEL 1
REMARK VINA RESULT: -6.477685473      0.000      0.000
REMARK  3 active torsions:
REMARK  status: ('A' for Active; 'I' for Inactive)
REMARK    1  A    between atoms: C2_2  and  C3_3 
REMARK    2  A    between atoms: C6_6  and  O1_7 
REMARK    3  A    between atoms: C12_15  and  C13_16 
ROOT
HETATM    1  C3  UNL     1      -2.333   3.345  85.240  1.00  0.00    -0.004 C 
HETATM    2  C4  UNL     1      -2.838   4.547  84.526  1.00  0.00     0.008 C 
HETATM    3  C5  UNL     1      -1.841   5.641  84.638  1.00  0.00     0.033 C 
HETATM    4  C6  UNL     1      -0.413   5.199  84.713  1.00  0.00     0.128 C 
HETATM    5  C7  UNL     1       0.019   4.308  83.591  1.00  0.00     0.014 C 
HETATM    6  C8  UNL     1       1.560   4.352  83.610  1.00  0.00     0.020 C 
HETATM    7  C9  UNL     1      -0.330   5.065  82.296  1.00  0.00     0.015 C 
HETATM    8  C10 UNL     1       0.180   4.351  81.080  1.00  0.00     0.031 C 
HETATM    9  C11 UNL     1       0.018   2.830  81.227  1.00  0.00     0.274 C 
HETATM   10  N1  UNL     1      -0.975   2.651  82.227  1.00  0.00     0.105 N 
HETATM   11  C12 UNL     1      -1.617   1.403  82.295  1.00  0.00     0.285 C 
HETATM   12  C14 UNL     1      -2.380   1.542  83.620  1.00  0.00     0.055 C 
HETATM   13  C15 UNL     1      -1.468   2.434  84.480  1.00  0.00    -0.006 C 
HETATM   14  C16 UNL     1      -0.851   1.464  85.502  1.00  0.00     0.018 C 
HETATM   15  C17 UNL     1      -0.456   2.928  83.582  1.00  0.00     0.243 C 
ENDROOT
BRANCH   1  16
HETATM   16  C2  UNL     1      -3.525   2.612  85.844  1.00  0.00     0.001 C 
HETATM   17  C1  UNL     1      -3.668   2.959  87.329  1.00  0.00     0.005 C 
ENDBRANCH   1  16
BRANCH   4  18
HETATM   18  O1  UNL     1       0.359   6.384  84.587  1.00  0.00    -0.395 OA
ATOM     19  H1  UNL     1       0.114   6.759  83.749  1.00  0.00     0.210 HD
ENDBRANCH   4  18
BRANCH  11  20
HETATM   20  C13 UNL     1      -0.774   0.218  82.312  1.00  0.00     0.267 C 
HETATM   21  O2  UNL     1      -1.099  -0.910  82.621  1.00  0.00    -0.305 OA
ENDBRANCH  11  20
TORSDOF 3
ENDMDL
MODEL 2
REMARK VINA RESULT: -6.088687715      1.165      5.214
REMARK  3 active torsions:
REMARK  status: ('A' for Active; 'I' for Inactive)
REMARK    1  A    between atoms: C2_2  and  C3_3 
REMARK    2  A    between atoms: C6_6  and  O1_7 
REMARK    3  A    between atoms: C12_15  and  C13_16 
ROOT
HETATM    1  C3  UNL     1       0.297   3.102  81.866  1.00  0.00    -0.004 C 
HETATM    2  C4  UNL     1      -0.968   2.527  81.341  1.00  0.00     0.008 C 
HETATM    3  C5  UNL     1      -1.238   1.233  82.017  1.00  0.00     0.033 C 
HETATM    4  C6  UNL     1      -0.746   1.135  83.427  1.00  0.00     0.128 C 
HETATM    5  C7  UNL     1      -1.231   2.225  84.330  1.00  0.00     0.014 C 
HETATM    6  C8  UNL     1      -1.000   1.698  85.761  1.00  0.00     0.020 C 
HETATM    7  C9  UNL     1      -2.766   2.221  84.205  1.00  0.00     0.015 C 
HETATM    8  C10 UNL     1      -3.404   3.175  85.171  1.00  0.00     0.031 C 
HETATM    9  C11 UNL     1      -2.580   4.466  85.294  1.00  0.00     0.274 C 
HETATM   10  N1  UNL     1      -1.779   4.516  84.122  1.00  0.00     0.105 N 
HETATM   11  C12 UNL     1      -1.227   5.757  83.760  1.00  0.00     0.285 C 
HETATM   12  C14 UNL     1      -0.260   5.329  82.648  1.00  0.00     0.055 C 
HETATM   13  C15 UNL     1       0.202   3.926  83.078  1.00  0.00    -0.006 C 
HETATM   14  C16 UNL     1       1.643   4.141  83.573  1.00  0.00     0.018 C 
HETATM   15  C17 UNL     1      -0.656   3.558  84.173  1.00  0.00     0.243 C 
ENDROOT
BRANCH   1  16
HETATM   16  C2  UNL     1       0.988   3.852  80.732  1.00  0.00     0.001 C 
HETATM   17  C1  UNL     1       0.211   3.675  79.424  1.00  0.00     0.005 C 
ENDBRANCH   1  16
BRANCH   4  18
HETATM   18  O1  UNL     1      -1.299  -0.068  83.940  1.00  0.00    -0.395 OA
ATOM     19  H1  UNL     1      -1.586  -0.561  83.180  1.00  0.00     0.210 HD
ENDBRANCH   4  18
BRANCH  11  20
HETATM   20  C13 UNL     1      -0.522   6.501  84.793  1.00  0.00     0.267 C 
HETATM   21  O2  UNL     1       0.405   7.269  84.640  1.00  0.00    -0.305 OA
ENDBRANCH  11  20
TORSDOF 3
ENDMDL
MODEL 3
REMARK VINA RESULT: -5.925289832      2.364      3.332
REMARK  3 active torsions:
REMARK  status: ('A' for Active; 'I' for Inactive)
REMARK    1  A    between atoms: C2_2  and  C3_3 
REMARK    2  A    between atoms: C6_6  and  O1_7 
REMARK    3  A    between atoms: C12_15  and  C13_16 
ROOT
HETATM    1  C3  UNL     1      -0.674   4.371  84.156  1.00  0.00    -0.004 C 
HETATM    2  C4  UNL     1      -1.597   5.453  84.585  1.00  0.00     0.008 C 
HETATM    3  C5  UNL     1      -0.806   6.588  85.126  1.00  0.00     0.033 C 
HETATM    4  C6  UNL     1       0.544   6.778  84.508  1.00  0.00     0.128 C 
HETATM    5  C7  UNL     1       0.530   6.907  83.017  1.00  0.00     0.014 C 
HETATM    6  C8  UNL     1       1.892   7.530  82.652  1.00  0.00     0.020 C 
HETATM    7  C9  UNL     1      -0.463   8.042  82.704  1.00  0.00     0.015 C 
HETATM    8  C10 UNL     1      -0.472   8.385  81.243  1.00  0.00     0.031 C 
HETATM    9  C11 UNL     1      -0.355   7.117  80.382  1.00  0.00     0.274 C 
HETATM   10  N1  UNL     1      -0.754   6.047  81.226  1.00  0.00     0.105 N 
HETATM   11  C12 UNL     1      -1.130   4.838  80.616  1.00  0.00     0.285 C 
HETATM   12  C14 UNL     1      -1.219   3.914  81.838  1.00  0.00     0.055 C 
HETATM   13  C15 UNL     1      -0.139   4.454  82.791  1.00  0.00    -0.006 C 
HETATM   14  C16 UNL     1       0.993   3.416  82.702  1.00  0.00     0.018 C 
HETATM   15  C17 UNL     1       0.283   5.707  82.222  1.00  0.00     0.243 C 
ENDROOT
BRANCH   1  16
HETATM   16  C2  UNL     1      -1.357   3.032  84.409  1.00  0.00     0.001 C 
HETATM   17  C1  UNL     1      -2.730   3.246  85.053  1.00  0.00     0.005 C 
ENDBRANCH   1  16
BRANCH   4  18
HETATM   18  O1  UNL     1       1.016   8.023  85.000  1.00  0.00    -0.395 OA
ATOM     19  H1  UNL     1       1.364   8.481  84.244  1.00  0.00     0.210 HD
ENDBRANCH   4  18
BRANCH  11  20
HETATM   20  C13 UNL     1      -0.227   4.283  79.620  1.00  0.00     0.267 C 
HETATM   21  O2  UNL     1      -0.474   3.416  78.808  1.00  0.00    -0.305 OA
ENDBRANCH  11  20
TORSDOF 3
ENDMDL
MODEL 4
REMARK VINA RESULT: -5.842125289      1.558      4.124
REMARK  3 active torsions:
REMARK  status: ('A' for Active; 'I' for Inactive)
REMARK    1  A    between atoms: C2_2  and  C3_3 
REMARK    2  A    between atoms: C6_6  and  O1_7 
REMARK    3  A    between atoms: C12_15  and  C13_16 
ROOT
HETATM    1  C3  UNL     1      -2.042   2.206  83.949  1.00  0.00    -0.004 C 
HETATM    2  C4  UNL     1      -1.062   1.167  83.540  1.00  0.00     0.008 C 
HETATM    3  C5  UNL     1      -1.240   0.864  82.097  1.00  0.00     0.033 C 
HETATM    4  C6  UNL     1      -1.707   2.012  81.257  1.00  0.00     0.128 C 
HETATM    5  C7  UNL     1      -0.859   3.241  81.359  1.00  0.00     0.014 C 
HETATM    6  C8  UNL     1      -1.228   4.091  80.127  1.00  0.00     0.020 C 
HETATM    7  C9  UNL     1       0.578   2.785  81.046  1.00  0.00     0.015 C 
HETATM    8  C10 UNL     1       1.525   3.946  80.969  1.00  0.00     0.031 C 
HETATM    9  C11 UNL     1       1.197   4.994  82.045  1.00  0.00     0.274 C 
HETATM   10  N1  UNL     1       0.439   4.303  83.027  1.00  0.00     0.105 N 
HETATM   11  C12 UNL     1       0.339   4.883  84.303  1.00  0.00     0.285 C 
HETATM   12  C14 UNL     1      -0.738   3.994  84.940  1.00  0.00     0.055 C 
HETATM   13  C15 UNL     1      -1.646   3.607  83.760  1.00  0.00    -0.006 C 
HETATM   14  C16 UNL     1      -2.914   4.452  83.969  1.00  0.00     0.018 C 
HETATM   15  C17 UNL     1      -0.944   4.039  82.579  1.00  0.00     0.243 C 
ENDROOT
BRANCH   1  16
HETATM   16  C2  UNL     1      -2.455   1.931  85.391  1.00  0.00     0.001 C 
HETATM   17  C1  UNL     1      -1.856   0.608  85.875  1.00  0.00     0.005 C 
ENDBRANCH   1  16
BRANCH   4  18
HETATM   18  O1  UNL     1      -1.590   1.571  79.913  1.00  0.00    -0.395 OA
ATOM     19  H1  UNL     1      -1.729   2.344  79.378  1.00  0.00     0.210 HD
ENDBRANCH   4  18
BRANCH  11  20
HETATM   20  C13 UNL     1      -0.047   6.284  84.372  1.00  0.00     0.267 C 
HETATM   21  O2  UNL     1      -0.782   6.803  85.186  1.00  0.00    -0.305 OA
ENDBRANCH  11  20
TORSDOF 3
ENDMDL
MODEL 5
REMARK VINA RESULT: -5.791041724      1.554      4.237
REMARK  3 active torsions:
REMARK  status: ('A' for Active; 'I' for Inactive)
REMARK    1  A    between atoms: C2_2  and  C3_3 
REMARK    2  A    between atoms: C6_6  and  O1_7 
REMARK    3  A    between atoms: C12_15  and  C13_16 
ROOT
HETATM    1  C3  UNL     1       0.409   5.424  81.603  1.00  0.00    -0.004 C 
HETATM    2  C4  UNL     1       1.353   5.315  82.745  1.00  0.00     0.008 C 
HETATM    3  C5  UNL     1       0.752   5.957  83.942  1.00  0.00     0.033 C 
HETATM    4  C6  UNL     1      -0.741   5.885  84.024  1.00  0.00     0.128 C 
HETATM    5  C7  UNL     1      -1.300   4.500  83.928  1.00  0.00     0.014 C 
HETATM    6  C8  UNL     1      -2.737   4.605  84.477  1.00  0.00     0.020 C 
HETATM    7  C9  UNL     1      -0.577   3.679  85.011  1.00  0.00     0.015 C 
HETATM    8  C10 UNL     1      -1.142   2.294  85.129  1.00  0.00     0.031 C 
HETATM    9  C11 UNL     1      -1.494   1.725  83.746  1.00  0.00     0.274 C 
HETATM   10  N1  UNL     1      -0.736   2.489  82.819  1.00  0.00     0.105 N 
HETATM   11  C12 UNL     1      -0.539   1.952  81.535  1.00  0.00     0.285 C 
HETATM   12  C14 UNL     1       0.066   3.160  80.806  1.00  0.00     0.055 C 
HETATM   13  C15 UNL     1      -0.606   4.371  81.475  1.00  0.00    -0.006 C 
HETATM   14  C16 UNL     1      -1.617   4.865  80.425  1.00  0.00     0.018 C 
HETATM   15  C17 UNL     1      -1.294   3.843  82.624  1.00  0.00     0.243 C 
ENDROOT
BRANCH   1  16
HETATM   16  C2  UNL     1       1.224   5.575  80.323  1.00  0.00     0.001 C 
HETATM   17  C1  UNL     1       2.675   5.936  80.654  1.00  0.00     0.005 C 
ENDBRANCH   1  16
BRANCH   4  18
HETATM   18  O1  UNL     1      -1.073   6.346  85.325  1.00  0.00    -0.395 OA
ATOM     19  H1  UNL     1      -0.274   6.727  85.672  1.00  0.00     0.210 HD
ENDBRANCH   4  18
BRANCH  11  20
HETATM   20  C13 UNL     1      -1.713   1.463  80.828  1.00  0.00     0.267 C 
HETATM   21  O2  UNL     1      -2.103   0.316  80.758  1.00  0.00    -0.305 OA
ENDBRANCH  11  20
TORSDOF 3
ENDMDL
