MODEL 1
REMARK VINA RESULT: -5.999742893      0.000      0.000
REMARK  5 active torsions:
REMARK  status: ('A' for Active; 'I' for Inactive)
REMARK    1  A    between atoms: C5_6  and  C6_7 
REMARK    2  A    between atoms: C5_6  and  C11_15 
REMARK    3  A    between atoms: C6_7  and  N2_8 
REMARK    4  A    between atoms: C9_11  and  O1_12 
REMARK    5  A    between atoms: C11_15  and  C12_16 
ROOT
HETATM    1  C1  UNL     1      19.263   5.181  14.489  1.00  0.00     0.310 C 
HETATM    2  N1  UNL     1      18.211   5.323  13.528  1.00  0.00     0.095 N 
HETATM    3  C2  UNL     1      18.624   4.659  12.332  1.00  0.00     0.273 C 
HETATM    4  C3  UNL     1      17.913   3.307  12.487  1.00  0.00     0.033 C 
HETATM    5  C4  UNL     1      16.547   3.842  12.859  1.00  0.00     0.045 C 
HETATM    6  C5  UNL     1      16.915   4.822  13.952  1.00  0.00     0.186 C 
ENDROOT
BRANCH   6   7
HETATM    7  C6  UNL     1      17.036   4.141  15.253  1.00  0.00     0.314 C 
BRANCH   7   8
HETATM    8  N2  UNL     1      16.201   3.015  15.577  1.00  0.00     0.093 N 
HETATM    9  C7  UNL     1      15.086   3.616  16.365  1.00  0.00     0.275 C 
HETATM   10  C8  UNL     1      14.704   2.698  17.439  1.00  0.00     0.064 C 
HETATM   11  C9  UNL     1      15.608   1.528  17.337  1.00  0.00     0.148 C 
HETATM   12  C10 UNL     1      16.811   2.121  16.587  1.00  0.00     0.303 C 
BRANCH  11  13
HETATM   13  O1  UNL     1      15.124   0.482  16.565  1.00  0.00    -0.394 OA
ATOM     14  H1  UNL     1      14.659  -0.191  17.050  1.00  0.00     0.210 HD
ENDBRANCH  11  13
ENDBRANCH   7   8
ENDBRANCH   6   7
BRANCH   6  15
HETATM   15  C11 UNL     1      15.857   5.892  13.847  1.00  0.00     0.051 C 
BRANCH  15  16
HETATM   16  C12 UNL     1      16.163   7.256  14.292  1.00  0.00    -0.049 C 
HETATM   17  C13 UNL     1      16.684   7.481  15.662  1.00  0.00     0.014 C 
HETATM   18  C14 UNL     1      14.775   7.969  14.303  1.00  0.00     0.014 C 
HETATM   19  C15 UNL     1      16.931   8.079  13.257  1.00  0.00     0.014 C 
ENDBRANCH  15  16
ENDBRANCH   6  15
TORSDOF 5
ENDMDL
MODEL 2
REMARK VINA RESULT: -5.188695398      2.249      4.723
REMARK  5 active torsions:
REMARK  status: ('A' for Active; 'I' for Inactive)
REMARK    1  A    between atoms: C5_6  and  C6_7 
REMARK    2  A    between atoms: C5_6  and  C11_15 
REMARK    3  A    between atoms: C6_7  and  N2_8 
REMARK    4  A    between atoms: C9_11  and  O1_12 
REMARK    5  A    between atoms: C11_15  and  C12_16 
ROOT
HETATM    1  C1  UNL     1      18.426   5.290  14.662  1.00  0.00     0.310 C 
HETATM    2  N1  UNL     1      17.274   5.065  15.484  1.00  0.00     0.095 N 
HETATM    3  C2  UNL     1      16.406   6.190  15.331  1.00  0.00     0.273 C 
HETATM    4  C3  UNL     1      15.414   5.654  14.288  1.00  0.00     0.033 C 
HETATM    5  C4  UNL     1      15.139   4.318  14.943  1.00  0.00     0.045 C 
HETATM    6  C5  UNL     1      16.550   3.837  15.207  1.00  0.00     0.186 C 
ENDROOT
BRANCH   6   7
HETATM    7  C6  UNL     1      17.112   3.172  14.019  1.00  0.00     0.314 C 
BRANCH   7   8
HETATM    8  N2  UNL     1      16.253   2.656  12.986  1.00  0.00     0.093 N 
HETATM    9  C7  UNL     1      16.666   1.228  12.863  1.00  0.00     0.275 C 
HETATM   10  C8  UNL     1      16.616   0.830  11.455  1.00  0.00     0.064 C 
HETATM   11  C9  UNL     1      16.198   2.029  10.692  1.00  0.00     0.148 C 
HETATM   12  C10 UNL     1      16.603   3.167  11.642  1.00  0.00     0.303 C 
BRANCH  11  13
HETATM   13  O1  UNL     1      14.831   2.141  10.482  1.00  0.00    -0.394 OA
ATOM     14  H1  UNL     1      14.492   3.028  10.523  1.00  0.00     0.210 HD
ENDBRANCH  11  13
ENDBRANCH   7   8
ENDBRANCH   6   7
BRANCH   6  15
HETATM   15  C11 UNL     1      16.415   2.994  16.451  1.00  0.00     0.051 C 
BRANCH  15  16
HETATM   16  C12 UNL     1      15.102   2.853  17.090  1.00  0.00    -0.049 C 
HETATM   17  C13 UNL     1      14.286   4.062  17.363  1.00  0.00     0.014 C 
HETATM   18  C14 UNL     1      15.431   2.301  18.512  1.00  0.00     0.014 C 
HETATM   19  C15 UNL     1      14.255   1.724  16.503  1.00  0.00     0.014 C 
ENDBRANCH  15  16
ENDBRANCH   6  15
TORSDOF 5
ENDMDL
MODEL 3
REMARK VINA RESULT: -5.181422355      1.852      3.304
REMARK  5 active torsions:
REMARK  status: ('A' for Active; 'I' for Inactive)
REMARK    1  A    between atoms: C5_6  and  C6_7 
REMARK    2  A    between atoms: C5_6  and  C11_15 
REMARK    3  A    between atoms: C6_7  and  N2_8 
REMARK    4  A    between atoms: C9_11  and  O1_12 
REMARK    5  A    between atoms: C11_15  and  C12_16 
ROOT
HETATM    1  C1  UNL     1      16.846   6.378  11.767  1.00  0.00     0.310 C 
HETATM    2  N1  UNL     1      16.663   7.412  12.740  1.00  0.00     0.095 N 
HETATM    3  C2  UNL     1      15.410   8.045  12.472  1.00  0.00     0.273 C 
HETATM    4  C3  UNL     1      14.498   7.328  13.479  1.00  0.00     0.033 C 
HETATM    5  C4  UNL     1      15.396   7.462  14.690  1.00  0.00     0.045 C 
HETATM    6  C5  UNL     1      16.711   6.972  14.124  1.00  0.00     0.186 C 
ENDROOT
BRANCH   6   7
HETATM    7  C6  UNL     1      16.798   5.503  14.186  1.00  0.00     0.314 C 
BRANCH   7   8
HETATM    8  N2  UNL     1      16.325   4.783  15.340  1.00  0.00     0.093 N 
HETATM    9  C7  UNL     1      17.432   3.829  15.639  1.00  0.00     0.275 C 
HETATM   10  C8  UNL     1      16.863   2.557  16.089  1.00  0.00     0.064 C 
HETATM   11  C9  UNL     1      15.390   2.711  16.041  1.00  0.00     0.148 C 
HETATM   12  C10 UNL     1      15.224   3.849  15.020  1.00  0.00     0.303 C 
BRANCH  11  13
HETATM   13  O1  UNL     1      14.809   3.140  17.225  1.00  0.00    -0.394 OA
ATOM     14  H1  UNL     1      13.859   3.135  17.229  1.00  0.00     0.210 HD
ENDBRANCH  11  13
ENDBRANCH   7   8
ENDBRANCH   6   7
BRANCH   6  15
HETATM   15  C11 UNL     1      17.748   7.743  14.904  1.00  0.00     0.051 C 
BRANCH  15  16
HETATM   16  C12 UNL     1      18.974   8.186  14.233  1.00  0.00    -0.049 C 
HETATM   17  C13 UNL     1      19.884   7.182  13.630  1.00  0.00     0.014 C 
HETATM   18  C14 UNL     1      19.825   8.815  15.379  1.00  0.00     0.014 C 
HETATM   19  C15 UNL     1      18.764   9.383  13.304  1.00  0.00     0.014 C 
ENDBRANCH  15  16
ENDBRANCH   6  15
TORSDOF 5
ENDMDL
MODEL 4
REMARK VINA RESULT: -5.097871721      2.534      3.637
REMARK  5 active torsions:
REMARK  status: ('A' for Active; 'I' for Inactive)
REMARK    1  A    between atoms: C5_6  and  C6_7 
REMARK    2  A    between atoms: C5_6  and  C11_15 
REMARK    3  A    between atoms: C6_7  and  N2_8 
REMARK    4  A    between atoms: C9_11  and  O1_12 
REMARK    5  A    between atoms: C11_15  and  C12_16 
ROOT
HETATM    1  C1  UNL     1      19.468   5.110  14.759  1.00  0.00     0.310 C 
HETATM    2  N1  UNL     1      18.882   6.161  13.983  1.00  0.00     0.095 N 
HETATM    3  C2  UNL     1      19.947   6.926  13.415  1.00  0.00     0.273 C 
HETATM    4  C3  UNL     1      20.028   6.317  12.008  1.00  0.00     0.033 C 
HETATM    5  C4  UNL     1      18.549   6.357  11.689  1.00  0.00     0.045 C 
HETATM    6  C5  UNL     1      17.974   5.723  12.937  1.00  0.00     0.186 C 
ENDROOT
BRANCH   6   7
HETATM    7  C6  UNL     1      17.987   4.253  12.837  1.00  0.00     0.314 C 
BRANCH   7   8
HETATM    8  N2  UNL     1      16.851   3.538  12.315  1.00  0.00     0.093 N 
HETATM    9  C7  UNL     1      16.954   2.195  12.957  1.00  0.00     0.275 C 
HETATM   10  C8  UNL     1      16.540   1.170  11.997  1.00  0.00     0.064 C 
HETATM   11  C9  UNL     1      16.206   1.878  10.739  1.00  0.00     0.148 C 
HETATM   12  C10 UNL     1      17.005   3.183  10.888  1.00  0.00     0.303 C 
BRANCH  11  13
HETATM   13  O1  UNL     1      14.871   2.232  10.605  1.00  0.00    -0.394 OA
ATOM     14  H1  UNL     1      14.708   3.167  10.555  1.00  0.00     0.210 HD
ENDBRANCH  11  13
ENDBRANCH   7   8
ENDBRANCH   6   7
BRANCH   6  15
HETATM   15  C11 UNL     1      16.622   6.377  13.082  1.00  0.00     0.051 C 
BRANCH  15  16
HETATM   16  C12 UNL     1      16.016   6.497  14.413  1.00  0.00    -0.049 C 
HETATM   17  C13 UNL     1      15.695   5.271  15.185  1.00  0.00     0.014 C 
HETATM   18  C14 UNL     1      14.620   7.135  14.136  1.00  0.00     0.014 C 
HETATM   19  C15 UNL     1      16.679   7.558  15.293  1.00  0.00     0.014 C 
ENDBRANCH  15  16
ENDBRANCH   6  15
TORSDOF 5
ENDMDL
MODEL 5
REMARK VINA RESULT: -4.957376637      1.276      1.646
REMARK  5 active torsions:
REMARK  status: ('A' for Active; 'I' for Inactive)
REMARK    1  A    between atoms: C5_6  and  C6_7 
REMARK    2  A    between atoms: C5_6  and  C11_15 
REMARK    3  A    between atoms: C6_7  and  N2_8 
REMARK    4  A    between atoms: C9_11  and  O1_12 
REMARK    5  A    between atoms: C11_15  and  C12_16 
ROOT
HETATM    1  C1  UNL     1      19.466   5.827  14.164  1.00  0.00     0.310 C 
HETATM    2  N1  UNL     1      18.495   6.294  13.220  1.00  0.00     0.095 N 
HETATM    3  C2  UNL     1      19.117   6.317  11.934  1.00  0.00     0.273 C 
HETATM    4  C3  UNL     1      18.627   4.984  11.348  1.00  0.00     0.033 C 
HETATM    5  C4  UNL     1      17.164   5.137  11.704  1.00  0.00     0.045 C 
HETATM    6  C5  UNL     1      17.267   5.520  13.165  1.00  0.00     0.186 C 
ENDROOT
BRANCH   6   7
HETATM    7  C6  UNL     1      17.381   4.325  14.018  1.00  0.00     0.314 C 
BRANCH   7   8
HETATM    8  N2  UNL     1      16.574   4.183  15.201  1.00  0.00     0.093 N 
HETATM    9  C7  UNL     1      17.274   3.121  15.982  1.00  0.00     0.275 C 
HETATM   10  C8  UNL     1      16.280   2.272  16.640  1.00  0.00     0.064 C 
HETATM   11  C9  UNL     1      14.950   2.791  16.243  1.00  0.00     0.148 C 
HETATM   12  C10 UNL     1      15.275   3.527  14.933  1.00  0.00     0.303 C 
BRANCH  11  13
HETATM   13  O1  UNL     1      14.406   3.727  17.110  1.00  0.00    -0.394 OA
ATOM     14  H1  UNL     1      13.581   3.473  17.507  1.00  0.00     0.210 HD
ENDBRANCH  11  13
ENDBRANCH   7   8
ENDBRANCH   6   7
BRANCH   6  15
HETATM   15  C11 UNL     1      16.061   6.399  13.391  1.00  0.00     0.051 C 
BRANCH  15  16
HETATM   16  C12 UNL     1      16.195   7.615  14.200  1.00  0.00    -0.049 C 
HETATM   17  C13 UNL     1      16.763   7.528  15.567  1.00  0.00     0.014 C 
HETATM   18  C14 UNL     1      14.723   8.073  14.440  1.00  0.00     0.014 C 
HETATM   19  C15 UNL     1      16.771   8.802  13.426  1.00  0.00     0.014 C 
ENDBRANCH  15  16
ENDBRANCH   6  15
TORSDOF 5
ENDMDL
