MODEL 1
REMARK VINA RESULT: -5.876740163      0.000      0.000
REMARK  7 active torsions:
REMARK  status: ('A' for Active; 'I' for Inactive)
REMARK    1  A    between atoms: O1_2  and  C2_3 
REMARK    2  A    between atoms: C4_5  and  N1_6 
REMARK    3  A    between atoms: N1_6  and  C5_8 
REMARK    4  A    between atoms: C5_8  and  N2_10 
REMARK    5  A    between atoms: N2_10  and  C6_12 
REMARK    6  A    between atoms: C13_19  and  O2_20 
REMARK    7  A    between atoms: C15_22  and  O3_23 
ROOT
HETATM    1  C2  UNL     1      54.580 136.967  20.116  1.00  0.00     0.106 A 
HETATM    2  C3  UNL     1      54.708 136.814  18.767  1.00  0.00     0.069 A 
HETATM    3  C4  UNL     1      54.774 135.581  18.105  1.00  0.00     0.039 A 
HETATM    4  C12 UNL     1      54.701 134.483  18.919  1.00  0.00     0.069 A 
HETATM    5  C13 UNL     1      54.568 134.561  20.314  1.00  0.00     0.106 A 
HETATM    6  C15 UNL     1      54.511 135.816  20.874  1.00  0.00     0.135 A 
ENDROOT
BRANCH   3   7
HETATM    7  N1  UNL     1      54.937 135.594  16.710  1.00  0.00    -0.333 N 
ATOM      8  H1  UNL     1      55.899 135.653  16.380  1.00  0.00     0.168 HD
BRANCH   7   9
HETATM    9  C5  UNL     1      53.965 135.538  15.722  1.00  0.00     0.172 C 
HETATM   10  S1  UNL     1      54.098 136.396  14.353  1.00  0.00    -0.041 SA
BRANCH   9  11
HETATM   11  N2  UNL     1      52.833 134.666  15.876  1.00  0.00    -0.362 N 
ATOM     12  H2  UNL     1      52.945 133.682  15.633  1.00  0.00     0.162 HD
BRANCH  11  13
HETATM   13  C6  UNL     1      51.553 135.106  16.355  1.00  0.00     0.083 C 
HETATM   14  C7  UNL     1      51.184 134.371  17.608  1.00  0.00     0.025 C 
HETATM   15  C8  UNL     1      49.982 135.130  18.179  1.00  0.00     0.002 C 
HETATM   16  C9  UNL     1      48.841 134.876  17.235  1.00  0.00     0.000 C 
HETATM   17  C10 UNL     1      49.101 135.123  15.808  1.00  0.00     0.002 C 
HETATM   18  C11 UNL     1      50.490 134.860  15.321  1.00  0.00     0.025 C 
ENDBRANCH  11  13
ENDBRANCH   9  11
ENDBRANCH   7   9
ENDBRANCH   3   7
BRANCH   1  19
HETATM   19  O1  UNL     1      54.522 138.240  20.709  1.00  0.00    -0.353 OA
HETATM   20  C1  UNL     1      55.719 138.970  20.830  1.00  0.00     0.210 C 
ENDBRANCH   1  19
BRANCH   5  21
HETATM   21  O2  UNL     1      54.499 133.406  21.071  1.00  0.00    -0.353 OA
HETATM   22  C14 UNL     1      54.851 132.179  20.468  1.00  0.00     0.210 C 
ENDBRANCH   5  21
BRANCH   6  23
HETATM   23  O3  UNL     1      54.382 135.946  22.244  1.00  0.00    -0.351 OA
HETATM   24  C16 UNL     1      55.444 135.954  23.154  1.00  0.00     0.210 C 
ENDBRANCH   6  23
TORSDOF 7
ENDMDL
MODEL 2
REMARK VINA RESULT: -5.865910333      0.565      2.766
REMARK  7 active torsions:
REMARK  status: ('A' for Active; 'I' for Inactive)
REMARK    1  A    between atoms: O1_2  and  C2_3 
REMARK    2  A    between atoms: C4_5  and  N1_6 
REMARK    3  A    between atoms: N1_6  and  C5_8 
REMARK    4  A    between atoms: C5_8  and  N2_10 
REMARK    5  A    between atoms: N2_10  and  C6_12 
REMARK    6  A    between atoms: C13_19  and  O2_20 
REMARK    7  A    between atoms: C15_22  and  O3_23 
ROOT
HETATM    1  C2  UNL     1      54.291 134.247  20.032  1.00  0.00     0.106 A 
HETATM    2  C3  UNL     1      54.335 134.157  18.672  1.00  0.00     0.069 A 
HETATM    3  C4  UNL     1      54.402 135.252  17.800  1.00  0.00     0.039 A 
HETATM    4  C12 UNL     1      54.421 136.477  18.411  1.00  0.00     0.069 A 
HETATM    5  C13 UNL     1      54.379 136.649  19.802  1.00  0.00     0.106 A 
HETATM    6  C15 UNL     1      54.314 135.514  20.578  1.00  0.00     0.135 A 
ENDROOT
BRANCH   3   7
HETATM    7  N1  UNL     1      54.411 134.991  16.420  1.00  0.00    -0.333 N 
ATOM      8  H1  UNL     1      55.168 134.394  16.090  1.00  0.00     0.168 HD
BRANCH   7   9
HETATM    9  C5  UNL     1      53.528 135.436  15.447  1.00  0.00     0.172 C 
HETATM   10  S1  UNL     1      53.882 136.700  14.495  1.00  0.00    -0.041 SA
BRANCH   9  11
HETATM   11  N2  UNL     1      52.289 134.741  15.229  1.00  0.00    -0.362 N 
ATOM     12  H2  UNL     1      52.292 133.935  14.604  1.00  0.00     0.162 HD
BRANCH  11  13
HETATM   13  C6  UNL     1      51.049 135.120  15.844  1.00  0.00     0.083 C 
HETATM   14  C7  UNL     1      50.849 134.364  17.123  1.00  0.00     0.025 C 
HETATM   15  C8  UNL     1      49.681 135.066  17.825  1.00  0.00     0.002 C 
HETATM   16  C9  UNL     1      48.460 134.762  17.005  1.00  0.00     0.000 C 
HETATM   17  C10 UNL     1      48.554 135.026  15.561  1.00  0.00     0.002 C 
HETATM   18  C11 UNL     1      49.894 134.828  14.927  1.00  0.00     0.025 C 
ENDBRANCH  11  13
ENDBRANCH   9  11
ENDBRANCH   7   9
ENDBRANCH   3   7
BRANCH   1  19
HETATM   19  O1  UNL     1      54.223 133.101  20.842  1.00  0.00    -0.353 OA
HETATM   20  C1  UNL     1      54.926 131.954  20.427  1.00  0.00     0.210 C 
ENDBRANCH   1  19
BRANCH   5  21
HETATM   21  O2  UNL     1      54.402 137.919  20.347  1.00  0.00    -0.353 OA
HETATM   22  C14 UNL     1      55.624 138.628  20.361  1.00  0.00     0.210 C 
ENDBRANCH   5  21
BRANCH   6  23
HETATM   23  O3  UNL     1      54.270 135.630  21.955  1.00  0.00    -0.351 OA
HETATM   24  C16 UNL     1      55.388 135.667  22.793  1.00  0.00     0.210 C 
ENDBRANCH   6  23
TORSDOF 7
ENDMDL
MODEL 3
REMARK VINA RESULT: -5.822477134      2.894      4.508
REMARK  7 active torsions:
REMARK  status: ('A' for Active; 'I' for Inactive)
REMARK    1  A    between atoms: O1_2  and  C2_3 
REMARK    2  A    between atoms: C4_5  and  N1_6 
REMARK    3  A    between atoms: N1_6  and  C5_8 
REMARK    4  A    between atoms: C5_8  and  N2_10 
REMARK    5  A    between atoms: N2_10  and  C6_12 
REMARK    6  A    between atoms: C13_19  and  O2_20 
REMARK    7  A    between atoms: C15_22  and  O3_23 
ROOT
HETATM    1  C2  UNL     1      55.553 138.827  23.003  1.00  0.00     0.106 A 
HETATM    2  C3  UNL     1      55.274 137.518  22.740  1.00  0.00     0.069 A 
HETATM    3  C4  UNL     1      54.884 137.019  21.490  1.00  0.00     0.039 A 
HETATM    4  C12 UNL     1      54.791 137.957  20.497  1.00  0.00     0.069 A 
HETATM    5  C13 UNL     1      55.063 139.320  20.691  1.00  0.00     0.106 A 
HETATM    6  C15 UNL     1      55.440 139.716  21.954  1.00  0.00     0.135 A 
ENDROOT
BRANCH   3   7
HETATM    7  N1  UNL     1      54.603 135.647  21.391  1.00  0.00    -0.333 N 
ATOM      8  H1  UNL     1      55.021 135.059  22.110  1.00  0.00     0.168 HD
BRANCH   7   9
HETATM    9  C5  UNL     1      53.833 134.985  20.446  1.00  0.00     0.172 C 
HETATM   10  S1  UNL     1      54.284 133.550  19.839  1.00  0.00    -0.041 SA
BRANCH   9  11
HETATM   11  N2  UNL     1      52.578 135.543  20.022  1.00  0.00    -0.362 N 
ATOM     12  H2  UNL     1      52.244 136.388  20.486  1.00  0.00     0.162 HD
BRANCH  11  13
HETATM   13  C6  UNL     1      51.770 134.976  18.980  1.00  0.00     0.083 C 
HETATM   14  C7  UNL     1      52.328 135.333  17.635  1.00  0.00     0.025 C 
HETATM   15  C8  UNL     1      51.584 134.433  16.641  1.00  0.00     0.002 C 
HETATM   16  C9  UNL     1      50.166 134.928  16.613  1.00  0.00     0.000 C 
HETATM   17  C10 UNL     1      49.498 135.087  17.913  1.00  0.00     0.002 C 
HETATM   18  C11 UNL     1      50.360 135.488  19.067  1.00  0.00     0.025 C 
ENDBRANCH  11  13
ENDBRANCH   9  11
ENDBRANCH   7   9
ENDBRANCH   3   7
BRANCH   1  19
HETATM   19  O1  UNL     1      55.937 139.252  24.286  1.00  0.00    -0.353 OA
HETATM   20  C1  UNL     1      57.176 138.809  24.787  1.00  0.00     0.210 C 
ENDBRANCH   1  19
BRANCH   5  21
HETATM   21  O2  UNL     1      54.949 140.208  19.638  1.00  0.00    -0.353 OA
HETATM   22  C14 UNL     1      55.794 140.044  18.519  1.00  0.00     0.210 C 
ENDBRANCH   5  21
BRANCH   6  23
HETATM   23  O3  UNL     1      55.717 141.048  22.197  1.00  0.00    -0.351 OA
HETATM   24  C16 UNL     1      56.955 141.661  21.983  1.00  0.00     0.210 C 
ENDBRANCH   6  23
TORSDOF 7
ENDMDL
MODEL 4
REMARK VINA RESULT: -5.785478792      2.582      3.801
REMARK  7 active torsions:
REMARK  status: ('A' for Active; 'I' for Inactive)
REMARK    1  A    between atoms: O1_2  and  C2_3 
REMARK    2  A    between atoms: C4_5  and  N1_6 
REMARK    3  A    between atoms: N1_6  and  C5_8 
REMARK    4  A    between atoms: C5_8  and  N2_10 
REMARK    5  A    between atoms: N2_10  and  C6_12 
REMARK    6  A    between atoms: C13_19  and  O2_20 
REMARK    7  A    between atoms: C15_22  and  O3_23 
ROOT
HETATM    1  C2  UNL     1      55.257 139.237  21.295  1.00  0.00     0.106 A 
HETATM    2  C3  UNL     1      55.067 138.165  20.474  1.00  0.00     0.069 A 
HETATM    3  C4  UNL     1      54.998 136.833  20.903  1.00  0.00     0.039 A 
HETATM    4  C12 UNL     1      55.141 136.652  22.252  1.00  0.00     0.069 A 
HETATM    5  C13 UNL     1      55.338 137.704  23.158  1.00  0.00     0.106 A 
HETATM    6  C15 UNL     1      55.391 138.980  22.643  1.00  0.00     0.135 A 
ENDROOT
BRANCH   3   7
HETATM    7  N1  UNL     1      54.828 135.838  19.926  1.00  0.00    -0.333 N 
ATOM      8  H1  UNL     1      55.512 135.840  19.171  1.00  0.00     0.168 HD
BRANCH   7   9
HETATM    9  C5  UNL     1      53.853 134.854  19.850  1.00  0.00     0.172 C 
HETATM   10  S1  UNL     1      54.233 133.279  19.907  1.00  0.00    -0.041 SA
BRANCH   9  11
HETATM   11  N2  UNL     1      52.466 135.221  19.770  1.00  0.00    -0.362 N 
ATOM     12  H2  UNL     1      52.086 135.831  20.494  1.00  0.00     0.162 HD
BRANCH  11  13
HETATM   13  C6  UNL     1      51.587 134.775  18.727  1.00  0.00     0.083 C 
HETATM   14  C7  UNL     1      52.092 135.231  17.390  1.00  0.00     0.025 C 
HETATM   15  C8  UNL     1      51.268 134.448  16.362  1.00  0.00     0.002 C 
HETATM   16  C9  UNL     1      49.869 134.990  16.450  1.00  0.00     0.000 C 
HETATM   17  C10 UNL     1      49.271 135.055  17.793  1.00  0.00     0.002 C 
HETATM   18  C11 UNL     1      50.203 135.324  18.931  1.00  0.00     0.025 C 
ENDBRANCH  11  13
ENDBRANCH   9  11
ENDBRANCH   7   9
ENDBRANCH   3   7
BRANCH   1  19
HETATM   19  O1  UNL     1      55.316 140.547  20.789  1.00  0.00    -0.353 OA
HETATM   20  C1  UNL     1      56.450 140.920  20.043  1.00  0.00     0.210 C 
ENDBRANCH   1  19
BRANCH   5  21
HETATM   21  O2  UNL     1      55.472 137.444  24.509  1.00  0.00    -0.353 OA
HETATM   22  C14 UNL     1      56.747 137.098  25.009  1.00  0.00     0.210 C 
ENDBRANCH   5  21
BRANCH   6  23
HETATM   23  O3  UNL     1      55.586 140.051  23.494  1.00  0.00    -0.351 OA
HETATM   24  C16 UNL     1      56.831 140.582  23.845  1.00  0.00     0.210 C 
ENDBRANCH   6  23
TORSDOF 7
ENDMDL
MODEL 5
REMARK VINA RESULT: -5.670319311      1.684      3.625
REMARK  7 active torsions:
REMARK  status: ('A' for Active; 'I' for Inactive)
REMARK    1  A    between atoms: O1_2  and  C2_3 
REMARK    2  A    between atoms: C4_5  and  N1_6 
REMARK    3  A    between atoms: N1_6  and  C5_8 
REMARK    4  A    between atoms: C5_8  and  N2_10 
REMARK    5  A    between atoms: N2_10  and  C6_12 
REMARK    6  A    between atoms: C13_19  and  O2_20 
REMARK    7  A    between atoms: C15_22  and  O3_23 
ROOT
HETATM    1  C2  UNL     1      55.004 137.678  20.024  1.00  0.00     0.106 A 
HETATM    2  C3  UNL     1      55.077 136.784  18.997  1.00  0.00     0.069 A 
HETATM    3  C4  UNL     1      55.376 137.115  17.668  1.00  0.00     0.039 A 
HETATM    4  C12 UNL     1      55.601 138.447  17.441  1.00  0.00     0.069 A 
HETATM    5  C13 UNL     1      55.544 139.424  18.446  1.00  0.00     0.106 A 
HETATM    6  C15 UNL     1      55.243 139.003  19.721  1.00  0.00     0.135 A 
ENDROOT
BRANCH   3   7
HETATM    7  N1  UNL     1      55.383 136.079  16.721  1.00  0.00    -0.333 N 
ATOM      8  H1  UNL     1      56.261 135.567  16.635  1.00  0.00     0.168 HD
BRANCH   7   9
HETATM    9  C5  UNL     1      54.359 135.659  15.885  1.00  0.00     0.172 C 
HETATM   10  S1  UNL     1      54.314 136.081  14.320  1.00  0.00    -0.041 SA
BRANCH   9  11
HETATM   11  N2  UNL     1      53.333 134.788  16.389  1.00  0.00    -0.362 N 
ATOM     12  H2  UNL     1      53.455 133.782  16.276  1.00  0.00     0.162 HD
BRANCH  11  13
HETATM   13  C6  UNL     1      52.145 135.259  17.043  1.00  0.00     0.083 C 
HETATM   14  C7  UNL     1      52.142 134.841  18.483  1.00  0.00     0.025 C 
HETATM   15  C8  UNL     1      51.013 135.648  19.133  1.00  0.00     0.002 C 
HETATM   16  C9  UNL     1      49.732 135.099  18.571  1.00  0.00     0.000 C 
HETATM   17  C10 UNL     1      49.647 134.995  17.107  1.00  0.00     0.002 C 
HETATM   18  C11 UNL     1      50.919 134.699  16.378  1.00  0.00     0.025 C 
ENDBRANCH  11  13
ENDBRANCH   9  11
ENDBRANCH   7   9
ENDBRANCH   3   7
BRANCH   1  19
HETATM   19  O1  UNL     1      54.697 137.269  21.333  1.00  0.00    -0.353 OA
HETATM   20  C1  UNL     1      54.154 135.983  21.515  1.00  0.00     0.210 C 
ENDBRANCH   1  19
BRANCH   5  21
HETATM   21  O2  UNL     1      55.784 140.750  18.141  1.00  0.00    -0.353 OA
HETATM   22  C14 UNL     1      54.689 141.578  17.808  1.00  0.00     0.210 C 
ENDBRANCH   5  21
BRANCH   6  23
HETATM   23  O3  UNL     1      55.174 139.927  20.747  1.00  0.00    -0.351 OA
HETATM   24  C16 UNL     1      56.259 140.353  21.518  1.00  0.00     0.210 C 
ENDBRANCH   6  23
TORSDOF 7
ENDMDL
