MODEL 1
REMARK VINA RESULT: -6.968353956      0.000      0.000
REMARK  3 active torsions:
REMARK  status: ('A' for Active; 'I' for Inactive)
REMARK    1  A    between atoms: O1_2  and  C2_3 
REMARK    2  A    between atoms: C6_9  and  O4_10 
REMARK    3  A    between atoms: C17_22  and  O5_23 
ROOT
HETATM    1  C2  UNL     1      42.119  15.742  -7.724  1.00  0.00     0.190 C 
HETATM    2  C3  UNL     1      41.969  16.681  -8.924  1.00  0.00     0.082 C 
HETATM    3  O2  UNL     1      42.068  16.471  -6.582  1.00  0.00    -0.315 OA
HETATM    4  C4  UNL     1      43.315  16.486  -5.977  1.00  0.00     0.182 C 
HETATM    5  O3  UNL     1      43.660  17.723  -5.574  1.00  0.00    -0.351 OA
HETATM    6  C5  UNL     1      42.628  18.241  -4.829  1.00  0.00     0.203 C 
HETATM    7  C6  UNL     1      41.890  17.378  -3.925  1.00  0.00     0.143 C 
HETATM    8  C7  UNL     1      42.054  15.863  -4.120  1.00  0.00     0.049 C 
HETATM    9  C8  UNL     1      43.339  15.654  -4.707  1.00  0.00     0.028 A 
HETATM   10  C9  UNL     1      44.501  15.787  -3.802  1.00  0.00     0.005 A 
HETATM   11  C10 UNL     1      44.230  15.121  -2.470  1.00  0.00     0.006 C 
HETATM   12  C11 UNL     1      45.494  14.265  -2.293  1.00  0.00     0.005 C 
HETATM   13  C12 UNL     1      45.493  13.568  -3.655  1.00  0.00    -0.014 C 
HETATM   14  C13 UNL     1      44.523  12.426  -3.691  1.00  0.00     0.010 C 
HETATM   15  C14 UNL     1      45.186  14.678  -4.570  1.00  0.00    -0.000 A 
HETATM   16  C15 UNL     1      43.940  14.595  -5.414  1.00  0.00     0.017 A 
HETATM   17  C16 UNL     1      44.174  15.527  -6.617  1.00  0.00     0.088 C 
HETATM   18  C17 UNL     1      43.433  15.056  -7.842  1.00  0.00     0.190 C 
ENDROOT
BRANCH   1  19
HETATM   19  O1  UNL     1      41.113  14.790  -7.846  1.00  0.00    -0.358 OA
HETATM   20  C1  UNL     1      39.944  15.177  -7.194  1.00  0.00     0.205 C 
ENDBRANCH   1  19
BRANCH  18  21
HETATM   21  O5  UNL     1      43.349  13.673  -7.846  1.00  0.00    -0.390 OA
ATOM     22  H5  UNL     1      43.712  13.262  -7.070  1.00  0.00     0.210 HD
ENDBRANCH  18  21
BRANCH   7  23
HETATM   23  O4  UNL     1      42.177  17.724  -2.582  1.00  0.00    -0.393 OA
ATOM     24  H4  UNL     1      41.645  18.464  -2.317  1.00  0.00     0.210 HD
ENDBRANCH   7  23
TORSDOF 3
ENDMDL
MODEL 2
REMARK VINA RESULT: -6.952281690      1.871      5.136
REMARK  3 active torsions:
REMARK  status: ('A' for Active; 'I' for Inactive)
REMARK    1  A    between atoms: O1_2  and  C2_3 
REMARK    2  A    between atoms: C6_9  and  O4_10 
REMARK    3  A    between atoms: C17_22  and  O5_23 
ROOT
HETATM    1  C2  UNL     1      44.298  14.579  -2.769  1.00  0.00     0.190 C 
HETATM    2  C3  UNL     1      45.447  15.098  -1.900  1.00  0.00     0.082 C 
HETATM    3  O2  UNL     1      44.536  14.909  -4.062  1.00  0.00    -0.315 OA
HETATM    4  C4  UNL     1      43.632  15.875  -4.476  1.00  0.00     0.182 C 
HETATM    5  O3  UNL     1      44.237  16.871  -5.149  1.00  0.00    -0.351 OA
HETATM    6  C5  UNL     1      45.014  16.317  -6.138  1.00  0.00     0.203 C 
HETATM    7  C6  UNL     1      44.535  15.156  -6.864  1.00  0.00     0.143 C 
HETATM    8  C7  UNL     1      43.358  14.385  -6.246  1.00  0.00     0.049 C 
HETATM    9  C8  UNL     1      42.616  15.317  -5.457  1.00  0.00     0.028 A 
HETATM   10  C9  UNL     1      41.762  16.268  -6.201  1.00  0.00     0.005 A 
HETATM   11  C10 UNL     1      41.028  15.572  -7.326  1.00  0.00     0.006 C 
HETATM   12  C11 UNL     1      39.586  16.051  -7.093  1.00  0.00     0.005 C 
HETATM   13  C12 UNL     1      39.468  15.712  -5.606  1.00  0.00    -0.014 C 
HETATM   14  C13 UNL     1      39.194  14.254  -5.392  1.00  0.00     0.010 C 
HETATM   15  C14 UNL     1      40.752  16.191  -5.076  1.00  0.00    -0.000 A 
HETATM   16  C15 UNL     1      41.676  15.199  -4.416  1.00  0.00     0.017 A 
HETATM   17  C16 UNL     1      42.594  16.019  -3.491  1.00  0.00     0.088 C 
HETATM   18  C17 UNL     1      43.042  15.219  -2.294  1.00  0.00     0.190 C 
ENDROOT
BRANCH   1  19
HETATM   19  O1  UNL     1      44.213  13.212  -2.529  1.00  0.00    -0.358 OA
HETATM   20  C1  UNL     1      45.017  12.477  -3.399  1.00  0.00     0.205 C 
ENDBRANCH   1  19
BRANCH  18  21
HETATM   21  O5  UNL     1      42.054  14.319  -1.927  1.00  0.00    -0.390 OA
ATOM     22  H5  UNL     1      41.794  14.382  -1.016  1.00  0.00     0.210 HD
ENDBRANCH  18  21
BRANCH   7  23
HETATM   23  O4  UNL     1      44.227  15.513  -8.200  1.00  0.00    -0.393 OA
ATOM     24  H4  UNL     1      43.537  14.953  -8.535  1.00  0.00     0.210 HD
ENDBRANCH   7  23
TORSDOF 3
ENDMDL
MODEL 3
REMARK VINA RESULT: -6.742794247      3.505      5.912
REMARK  3 active torsions:
REMARK  status: ('A' for Active; 'I' for Inactive)
REMARK    1  A    between atoms: O1_2  and  C2_3 
REMARK    2  A    between atoms: C6_9  and  O4_10 
REMARK    3  A    between atoms: C17_22  and  O5_23 
ROOT
HETATM    1  C2  UNL     1      45.480  11.796  -1.932  1.00  0.00     0.190 C 
HETATM    2  C3  UNL     1      46.561  11.143  -2.799  1.00  0.00     0.082 C 
HETATM    3  O2  UNL     1      44.860  12.763  -2.652  1.00  0.00    -0.315 OA
HETATM    4  C4  UNL     1      45.188  14.011  -2.146  1.00  0.00     0.182 C 
HETATM    5  O3  UNL     1      45.509  14.879  -3.123  1.00  0.00    -0.351 OA
HETATM    6  C5  UNL     1      44.508  14.861  -4.065  1.00  0.00     0.203 C 
HETATM    7  C6  UNL     1      43.125  14.744  -3.642  1.00  0.00     0.143 C 
HETATM    8  C7  UNL     1      42.874  14.275  -2.200  1.00  0.00     0.049 C 
HETATM    9  C8  UNL     1      44.016  14.660  -1.432  1.00  0.00     0.028 A 
HETATM   10  C9  UNL     1      44.114  16.093  -1.080  1.00  0.00     0.005 A 
HETATM   11  C10 UNL     1      42.769  16.638  -0.647  1.00  0.00     0.006 C 
HETATM   12  C11 UNL     1      43.136  17.347   0.667  1.00  0.00     0.005 C 
HETATM   13  C12 UNL     1      43.894  16.203   1.342  1.00  0.00    -0.014 C 
HETATM   14  C13 UNL     1      42.958  15.202   1.950  1.00  0.00     0.010 C 
HETATM   15  C14 UNL     1      44.728  15.693   0.244  1.00  0.00    -0.000 A 
HETATM   16  C15 UNL     1      44.550  14.261  -0.193  1.00  0.00     0.017 A 
HETATM   17  C16 UNL     1      45.864  13.858  -0.886  1.00  0.00     0.088 C 
HETATM   18  C17 UNL     1      46.146  12.384  -0.740  1.00  0.00     0.190 C 
ENDROOT
BRANCH   1  19
HETATM   19  O1  UNL     1      44.646  10.768  -1.509  1.00  0.00    -0.358 OA
HETATM   20  C1  UNL     1      44.628   9.703  -2.408  1.00  0.00     0.205 C 
ENDBRANCH   1  19
BRANCH  18  21
HETATM   21  O5  UNL     1      45.649  11.922   0.468  1.00  0.00    -0.390 OA
ATOM     22  H5  UNL     1      44.810  12.297   0.709  1.00  0.00     0.210 HD
ENDBRANCH  18  21
BRANCH   7  23
HETATM   23  O4  UNL     1      42.441  15.962  -3.877  1.00  0.00    -0.393 OA
ATOM     24  H4  UNL     1      41.549  15.786  -4.150  1.00  0.00     0.210 HD
ENDBRANCH   7  23
TORSDOF 3
ENDMDL
MODEL 4
REMARK VINA RESULT: -6.323418853      1.745      2.518
REMARK  3 active torsions:
REMARK  status: ('A' for Active; 'I' for Inactive)
REMARK    1  A    between atoms: O1_2  and  C2_3 
REMARK    2  A    between atoms: C6_9  and  O4_10 
REMARK    3  A    between atoms: C17_22  and  O5_23 
ROOT
HETATM    1  C2  UNL     1      41.921  16.017  -4.982  1.00  0.00     0.190 C 
HETATM    2  C3  UNL     1      41.605  17.345  -5.675  1.00  0.00     0.082 C 
HETATM    3  O2  UNL     1      42.183  16.252  -3.672  1.00  0.00    -0.315 OA
HETATM    4  C4  UNL     1      43.527  16.030  -3.413  1.00  0.00     0.182 C 
HETATM    5  O3  UNL     1      44.063  17.017  -2.672  1.00  0.00    -0.351 OA
HETATM    6  C5  UNL     1      43.267  17.212  -1.569  1.00  0.00     0.203 C 
HETATM    7  C6  UNL     1      42.663  16.071  -0.906  1.00  0.00     0.143 C 
HETATM    8  C7  UNL     1      42.641  14.745  -1.684  1.00  0.00     0.049 C 
HETATM    9  C8  UNL     1      43.746  14.774  -2.589  1.00  0.00     0.028 A 
HETATM   10  C9  UNL     1      45.082  14.546  -1.997  1.00  0.00     0.005 A 
HETATM   11  C10 UNL     1      45.042  13.421  -0.986  1.00  0.00     0.006 C 
HETATM   12  C11 UNL     1      46.231  12.558  -1.441  1.00  0.00     0.005 C 
HETATM   13  C12 UNL     1      45.873  12.438  -2.924  1.00  0.00    -0.014 C 
HETATM   14  C13 UNL     1      44.817  11.400  -3.155  1.00  0.00     0.010 C 
HETATM   15  C14 UNL     1      45.482  13.815  -3.261  1.00  0.00    -0.000 A 
HETATM   16  C15 UNL     1      44.081  14.066  -3.758  1.00  0.00     0.017 A 
HETATM   17  C16 UNL     1      44.137  15.387  -4.546  1.00  0.00     0.088 C 
HETATM   18  C17 UNL     1      43.111  15.425  -5.650  1.00  0.00     0.190 C 
ENDROOT
BRANCH   1  19
HETATM   19  O1  UNL     1      40.829  15.188  -5.211  1.00  0.00    -0.358 OA
HETATM   20  C1  UNL     1      39.749  15.881  -5.753  1.00  0.00     0.205 C 
ENDBRANCH   1  19
BRANCH  18  21
HETATM   21  O5  UNL     1      42.901  14.149  -6.149  1.00  0.00    -0.390 OA
ATOM     22  H5  UNL     1      43.194  13.455  -5.570  1.00  0.00     0.210 HD
ENDBRANCH  18  21
BRANCH   7  23
HETATM   23  O4  UNL     1      43.262  15.874   0.362  1.00  0.00    -0.393 OA
ATOM     24  H4  UNL     1      44.191  16.064   0.315  1.00  0.00     0.210 HD
ENDBRANCH   7  23
TORSDOF 3
ENDMDL
MODEL 5
REMARK VINA RESULT: -6.303948341      2.087      4.778
REMARK  3 active torsions:
REMARK  status: ('A' for Active; 'I' for Inactive)
REMARK    1  A    between atoms: O1_2  and  C2_3 
REMARK    2  A    between atoms: C6_9  and  O4_10 
REMARK    3  A    between atoms: C17_22  and  O5_23 
ROOT
HETATM    1  C2  UNL     1      43.657  15.595  -2.562  1.00  0.00     0.190 C 
HETATM    2  C3  UNL     1      43.273  15.580  -1.080  1.00  0.00     0.082 C 
HETATM    3  O2  UNL     1      43.264  16.773  -3.109  1.00  0.00    -0.315 OA
HETATM    4  C4  UNL     1      42.215  16.558  -3.988  1.00  0.00     0.182 C 
HETATM    5  O3  UNL     1      41.224  17.451  -3.812  1.00  0.00    -0.351 OA
HETATM    6  C5  UNL     1      41.768  18.712  -3.829  1.00  0.00     0.203 C 
HETATM    7  C6  UNL     1      42.846  19.019  -4.750  1.00  0.00     0.143 C 
HETATM    8  C7  UNL     1      43.571  17.826  -5.395  1.00  0.00     0.049 C 
HETATM    9  C8  UNL     1      42.640  16.744  -5.434  1.00  0.00     0.028 A 
HETATM   10  C9  UNL     1      41.588  16.823  -6.471  1.00  0.00     0.005 A 
HETATM   11  C10 UNL     1      42.162  17.294  -7.790  1.00  0.00     0.006 C 
HETATM   12  C11 UNL     1      41.599  16.242  -8.760  1.00  0.00     0.005 C 
HETATM   13  C12 UNL     1      42.020  14.981  -8.003  1.00  0.00    -0.014 C 
HETATM   14  C13 UNL     1      43.466  14.658  -8.230  1.00  0.00     0.010 C 
HETATM   15  C14 UNL     1      41.665  15.318  -6.618  1.00  0.00    -0.000 A 
HETATM   16  C15 UNL     1      42.756  15.349  -5.579  1.00  0.00     0.017 A 
HETATM   17  C16 UNL     1      42.061  15.147  -4.220  1.00  0.00     0.088 C 
HETATM   18  C17 UNL     1      42.962  14.460  -3.225  1.00  0.00     0.190 C 
ENDROOT
BRANCH   1  19
HETATM   19  O1  UNL     1      45.026  15.364  -2.613  1.00  0.00    -0.358 OA
HETATM   20  C1  UNL     1      45.530  14.929  -1.389  1.00  0.00     0.205 C 
ENDBRANCH   1  19
BRANCH  18  21
HETATM   21  O5  UNL     1      43.812  13.584  -3.880  1.00  0.00    -0.390 OA
ATOM     22  H5  UNL     1      43.622  12.667  -3.718  1.00  0.00     0.210 HD
ENDBRANCH  18  21
BRANCH   7  23
HETATM   23  O4  UNL     1      42.388  19.903  -5.756  1.00  0.00    -0.393 OA
ATOM     24  H4  UNL     1      41.908  20.622  -5.363  1.00  0.00     0.210 HD
ENDBRANCH   7  23
TORSDOF 3
ENDMDL
