MODEL 1
REMARK VINA RESULT: -7.344354790      0.000      0.000
REMARK  3 active torsions:
REMARK  status: ('A' for Active; 'I' for Inactive)
REMARK    1  A    between atoms: C3_6  and  C4_7 
REMARK    2  A    between atoms: C4_7  and  C5_8 
REMARK    3  A    between atoms: C7_12  and  O3_13 
ROOT
HETATM    1  C5  UNL     1      42.670  17.448  -3.123  1.00  0.00     0.021 C 
HETATM    2  N1  UNL     1      42.859  16.226  -3.431  1.00  0.00    -0.384 N 
ATOM      3  H1  UNL     1      43.174  15.690  -2.622  1.00  0.00     0.160 HD
HETATM    4  C6  UNL     1      42.757  15.407  -4.564  1.00  0.00     0.119 C 
HETATM    5  C7  UNL     1      43.972  15.498  -5.420  1.00  0.00     0.141 C 
HETATM    6  C8  UNL     1      43.853  14.609  -6.662  1.00  0.00     0.034 C 
HETATM    7  C9  UNL     1      42.731  15.279  -7.471  1.00  0.00     0.003 C 
HETATM    8  C10 UNL     1      41.477  15.036  -6.706  1.00  0.00     0.012 C 
HETATM    9  C11 UNL     1      41.457  15.525  -5.302  1.00  0.00     0.049 C 
HETATM   10  C12 UNL     1      40.833  16.895  -5.244  1.00  0.00     0.067 C 
HETATM   11  N2  UNL     1      41.683  17.993  -5.250  1.00  0.00    -0.377 N 
ATOM     12  H2  UNL     1      41.925  18.442  -6.134  1.00  0.00     0.164 HD
HETATM   13  C13 UNL     1      42.209  18.488  -4.056  1.00  0.00     0.112 C 
ENDROOT
BRANCH   1  14
HETATM   14  C4  UNL     1      42.944  17.778  -1.716  1.00  0.00     0.062 C 
BRANCH  14  15
HETATM   15  C3  UNL     1      43.111  16.510  -0.924  1.00  0.00    -0.007 C 
HETATM   16  C2  UNL     1      44.510  16.014  -1.201  1.00  0.00     0.020 C 
HETATM   17  C1  UNL     1      44.807  14.680  -0.589  1.00  0.00     0.140 C 
HETATM   18  S1  UNL     1      44.598  14.872   1.184  1.00  0.00     0.144 S 
HETATM   19  O1  UNL     1      45.688  15.831   1.620  1.00  0.00    -0.228 OA
HETATM   20  O2  UNL     1      44.696  13.560   1.886  1.00  0.00    -0.228 OA
HETATM   21  C15 UNL     1      43.018  15.616   1.429  1.00  0.00     0.140 C 
HETATM   22  C14 UNL     1      42.879  16.822   0.527  1.00  0.00     0.020 C 
ENDBRANCH  14  15
ENDBRANCH   1  14
BRANCH   5  23
HETATM   23  O3  UNL     1      44.355  16.750  -5.815  1.00  0.00    -0.393 OA
ATOM     24  H3  UNL     1      45.282  16.952  -5.759  1.00  0.00     0.210 HD
ENDBRANCH   5  23
TORSDOF 3
ENDMDL
MODEL 2
REMARK VINA RESULT: -7.313836662      2.398      3.061
REMARK  3 active torsions:
REMARK  status: ('A' for Active; 'I' for Inactive)
REMARK    1  A    between atoms: C3_6  and  C4_7 
REMARK    2  A    between atoms: C4_7  and  C5_8 
REMARK    3  A    between atoms: C7_12  and  O3_13 
ROOT
HETATM    1  C5  UNL     1      42.704  16.228  -4.493  1.00  0.00     0.021 C 
HETATM    2  N1  UNL     1      42.246  15.330  -5.272  1.00  0.00    -0.384 N 
ATOM      3  H1  UNL     1      41.962  14.503  -4.748  1.00  0.00     0.160 HD
HETATM    4  C6  UNL     1      42.022  15.155  -6.645  1.00  0.00     0.119 C 
HETATM    5  C7  UNL     1      43.256  14.715  -7.353  1.00  0.00     0.141 C 
HETATM    6  C8  UNL     1      43.010  14.535  -8.854  1.00  0.00     0.034 C 
HETATM    7  C9  UNL     1      42.744  15.966  -9.345  1.00  0.00     0.003 C 
HETATM    8  C10 UNL     1      41.419  16.350  -8.784  1.00  0.00     0.012 C 
HETATM    9  C11 UNL     1      41.287  16.284  -7.304  1.00  0.00     0.049 C 
HETATM   10  C12 UNL     1      41.561  17.638  -6.703  1.00  0.00     0.067 C 
HETATM   11  N2  UNL     1      42.843  17.888  -6.231  1.00  0.00    -0.377 N 
ATOM     12  H2  UNL     1      43.531  18.326  -6.844  1.00  0.00     0.164 HD
HETATM   13  C13 UNL     1      43.196  17.546  -4.925  1.00  0.00     0.112 C 
ENDROOT
BRANCH   1  14
HETATM   14  C4  UNL     1      42.709  15.863  -3.068  1.00  0.00     0.062 C 
BRANCH  14  15
HETATM   15  C3  UNL     1      44.008  15.184  -2.726  1.00  0.00    -0.007 C 
HETATM   16  C2  UNL     1      43.804  14.521  -1.385  1.00  0.00     0.020 C 
HETATM   17  C1  UNL     1      45.047  13.902  -0.825  1.00  0.00     0.140 C 
HETATM   18  S1  UNL     1      45.579  12.663  -2.011  1.00  0.00     0.144 S 
HETATM   19  O1  UNL     1      44.494  11.603  -2.007  1.00  0.00    -0.228 OA
HETATM   20  O2  UNL     1      46.910  12.099  -1.645  1.00  0.00    -0.228 OA
HETATM   21  C15 UNL     1      45.628  13.458  -3.585  1.00  0.00     0.140 C 
HETATM   22  C14 UNL     1      44.334  14.205  -3.817  1.00  0.00     0.020 C 
ENDBRANCH  14  15
ENDBRANCH   1  14
BRANCH   5  23
HETATM   23  O3  UNL     1      44.372  15.489  -7.185  1.00  0.00    -0.393 OA
ATOM     24  H3  UNL     1      45.156  15.049  -6.878  1.00  0.00     0.210 HD
ENDBRANCH   5  23
TORSDOF 3
ENDMDL
MODEL 3
REMARK VINA RESULT: -7.145689973      1.131      1.782
REMARK  3 active torsions:
REMARK  status: ('A' for Active; 'I' for Inactive)
REMARK    1  A    between atoms: C3_6  and  C4_7 
REMARK    2  A    between atoms: C4_7  and  C5_8 
REMARK    3  A    between atoms: C7_12  and  O3_13 
ROOT
HETATM    1  C5  UNL     1      42.364  17.312  -3.937  1.00  0.00     0.021 C 
HETATM    2  N1  UNL     1      42.260  16.073  -4.218  1.00  0.00    -0.384 N 
ATOM      3  H1  UNL     1      41.913  15.546  -3.416  1.00  0.00     0.160 HD
HETATM    4  C6  UNL     1      42.485  15.229  -5.313  1.00  0.00     0.119 C 
HETATM    5  C7  UNL     1      43.914  14.821  -5.410  1.00  0.00     0.141 C 
HETATM    6  C8  UNL     1      44.158  13.907  -6.615  1.00  0.00     0.034 C 
HETATM    7  C9  UNL     1      43.914  14.831  -7.818  1.00  0.00     0.003 C 
HETATM    8  C10 UNL     1      42.449  15.101  -7.833  1.00  0.00     0.012 C 
HETATM    9  C11 UNL     1      41.877  15.704  -6.600  1.00  0.00     0.049 C 
HETATM   10  C12 UNL     1      41.817  17.203  -6.742  1.00  0.00     0.067 C 
HETATM   11  N2  UNL     1      42.861  17.945  -6.206  1.00  0.00    -0.377 N 
ATOM     12  H2  UNL     1      43.657  18.197  -6.793  1.00  0.00     0.164 HD
HETATM   13  C13 UNL     1      42.830  18.350  -4.870  1.00  0.00     0.112 C 
ENDROOT
BRANCH   1  14
HETATM   14  C4  UNL     1      41.970  17.668  -2.565  1.00  0.00     0.062 C 
BRANCH  14  15
HETATM   15  C3  UNL     1      43.075  17.302  -1.612  1.00  0.00    -0.007 C 
HETATM   16  C2  UNL     1      42.587  17.670  -0.231  1.00  0.00     0.020 C 
HETATM   17  C1  UNL     1      43.620  17.492   0.839  1.00  0.00     0.140 C 
HETATM   18  S1  UNL     1      44.076  15.755   0.826  1.00  0.00     0.144 S 
HETATM   19  O1  UNL     1      42.831  15.005   1.259  1.00  0.00    -0.228 OA
HETATM   20  O2  UNL     1      45.229  15.490   1.733  1.00  0.00    -0.228 OA
HETATM   21  C15 UNL     1      44.465  15.347  -0.845  1.00  0.00     0.140 C 
HETATM   22  C14 UNL     1      43.362  15.835  -1.757  1.00  0.00     0.020 C 
ENDBRANCH  14  15
ENDBRANCH   1  14
BRANCH   5  23
HETATM   23  O3  UNL     1      44.841  15.827  -5.432  1.00  0.00    -0.393 OA
ATOM     24  H3  UNL     1      45.537  15.782  -4.786  1.00  0.00     0.210 HD
ENDBRANCH   5  23
TORSDOF 3
ENDMDL
MODEL 4
REMARK VINA RESULT: -7.085943610      1.545      2.369
REMARK  3 active torsions:
REMARK  status: ('A' for Active; 'I' for Inactive)
REMARK    1  A    between atoms: C3_6  and  C4_7 
REMARK    2  A    between atoms: C4_7  and  C5_8 
REMARK    3  A    between atoms: C7_12  and  O3_13 
ROOT
HETATM    1  C5  UNL     1      42.767  16.367  -3.587  1.00  0.00     0.021 C 
HETATM    2  N1  UNL     1      41.925  17.038  -4.268  1.00  0.00    -0.384 N 
ATOM      3  H1  UNL     1      41.663  17.896  -3.782  1.00  0.00     0.160 HD
HETATM    4  C6  UNL     1      41.254  16.934  -5.495  1.00  0.00     0.119 C 
HETATM    5  C7  UNL     1      40.036  16.085  -5.386  1.00  0.00     0.141 C 
HETATM    6  C8  UNL     1      39.312  15.965  -6.731  1.00  0.00     0.034 C 
HETATM    7  C9  UNL     1      40.297  15.161  -7.594  1.00  0.00     0.003 C 
HETATM    8  C10 UNL     1      41.445  16.072  -7.858  1.00  0.00     0.012 C 
HETATM    9  C11 UNL     1      42.140  16.618  -6.663  1.00  0.00     0.049 C 
HETATM   10  C12 UNL     1      43.331  15.759  -6.324  1.00  0.00     0.067 C 
HETATM   11  N2  UNL     1      43.166  14.780  -5.353  1.00  0.00    -0.377 N 
ATOM     12  H2  UNL     1      42.907  13.832  -5.628  1.00  0.00     0.164 HD
HETATM   13  C13 UNL     1      43.352  15.083  -4.003  1.00  0.00     0.112 C 
ENDROOT
BRANCH   1  14
HETATM   14  C4  UNL     1      43.146  16.976  -2.303  1.00  0.00     0.062 C 
BRANCH  14  15
HETATM   15  C3  UNL     1      43.276  15.905  -1.255  1.00  0.00    -0.007 C 
HETATM   16  C2  UNL     1      44.704  15.416  -1.318  1.00  0.00     0.020 C 
HETATM   17  C1  UNL     1      44.978  14.247  -0.424  1.00  0.00     0.140 C 
HETATM   18  S1  UNL     1      44.623  14.790   1.251  1.00  0.00     0.144 S 
HETATM   19  O1  UNL     1      45.654  15.859   1.559  1.00  0.00    -0.228 OA
HETATM   20  O2  UNL     1      44.692  13.655   2.215  1.00  0.00    -0.228 OA
HETATM   21  C15 UNL     1      43.013  15.509   1.217  1.00  0.00     0.140 C 
HETATM   22  C14 UNL     1      42.921  16.498   0.078  1.00  0.00     0.020 C 
ENDBRANCH  14  15
ENDBRANCH   1  14
BRANCH   5  23
HETATM   23  O3  UNL     1      40.205  14.829  -4.869  1.00  0.00    -0.393 OA
ATOM     24  H3  UNL     1      39.422  14.382  -4.569  1.00  0.00     0.210 HD
ENDBRANCH   5  23
TORSDOF 3
ENDMDL
MODEL 5
REMARK VINA RESULT: -7.080553991      4.147      7.262
REMARK  3 active torsions:
REMARK  status: ('A' for Active; 'I' for Inactive)
REMARK    1  A    between atoms: C3_6  and  C4_7 
REMARK    2  A    between atoms: C4_7  and  C5_8 
REMARK    3  A    between atoms: C7_12  and  O3_13 
ROOT
HETATM    1  C5  UNL     1      45.530  13.401  -2.209  1.00  0.00     0.021 C 
HETATM    2  N1  UNL     1      46.102  12.414  -2.776  1.00  0.00    -0.384 N 
ATOM      3  H1  UNL     1      46.384  12.654  -3.727  1.00  0.00     0.160 HD
HETATM    4  C6  UNL     1      46.455  11.093  -2.467  1.00  0.00     0.119 C 
HETATM    5  C7  UNL     1      45.314  10.158  -2.665  1.00  0.00     0.141 C 
HETATM    6  C8  UNL     1      45.700   8.717  -2.316  1.00  0.00     0.034 C 
HETATM    7  C9  UNL     1      45.930   8.768  -0.798  1.00  0.00     0.003 C 
HETATM    8  C10 UNL     1      47.177   9.556  -0.601  1.00  0.00     0.012 C 
HETATM    9  C11 UNL     1      47.183  10.932  -1.166  1.00  0.00     0.049 C 
HETATM   10  C12 UNL     1      46.785  11.925  -0.105  1.00  0.00     0.067 C 
HETATM   11  N2  UNL     1      45.455  12.321  -0.058  1.00  0.00    -0.377 N 
ATOM     12  H2  UNL     1      44.800  11.826   0.548  1.00  0.00     0.164 HD
HETATM   13  C13 UNL     1      45.007  13.393  -0.833  1.00  0.00     0.112 C 
ENDROOT
BRANCH   1  14
HETATM   14  C4  UNL     1      45.420  14.610  -3.039  1.00  0.00     0.062 C 
BRANCH  14  15
HETATM   15  C3  UNL     1      44.331  14.423  -4.060  1.00  0.00    -0.007 C 
HETATM   16  C2  UNL     1      43.197  15.331  -3.648  1.00  0.00     0.020 C 
HETATM   17  C1  UNL     1      41.967  15.175  -4.488  1.00  0.00     0.140 C 
HETATM   18  S1  UNL     1      42.445  15.570  -6.173  1.00  0.00     0.144 S 
HETATM   19  O1  UNL     1      42.810  17.042  -6.158  1.00  0.00    -0.228 OA
HETATM   20  O2  UNL     1      41.341  15.279  -7.132  1.00  0.00    -0.228 OA
HETATM   21  C15 UNL     1      43.878  14.605  -6.531  1.00  0.00     0.140 C 
HETATM   22  C14 UNL     1      44.886  14.760  -5.414  1.00  0.00     0.020 C 
ENDBRANCH  14  15
ENDBRANCH   1  14
BRANCH   5  23
HETATM   23  O3  UNL     1      44.147  10.464  -2.019  1.00  0.00    -0.393 OA
ATOM     24  H3  UNL     1      43.888   9.889  -1.308  1.00  0.00     0.210 HD
ENDBRANCH   5  23
TORSDOF 3
ENDMDL
