MODEL 1
REMARK VINA RESULT: -9.795012464      0.000      0.000
REMARK  7 active torsions:
REMARK  status: ('A' for Active; 'I' for Inactive)
REMARK    1  A    between atoms: O1_1  and  C1_3 
REMARK    2  A    between atoms: C1_3  and  C2_4 
REMARK    3  A    between atoms: C1_3  and  N3_19 
REMARK    4  A    between atoms: C2_4  and  N1_5 
REMARK    5  A    between atoms: N3_19  and  N4_20 
REMARK       I    between atoms: N4_20  and  C12_22 
REMARK       I    between atoms: C12_22  and  N5_24 
REMARK    6  A    between atoms: N5_24  and  C13_26 
REMARK    7  A    between atoms: C14_29  and  C15_30 
ROOT
HETATM    1  N4  UNL     1       4.916 -22.534  -2.809  1.00  0.00    -0.182 N 
ATOM      2  H4  UNL     1       5.500 -22.877  -2.046  1.00  0.00     0.207 HD
HETATM    3  C12 UNL     1       3.838 -21.647  -2.481  1.00  0.00     0.347 C 
HETATM    4  O3  UNL     1       3.015 -21.434  -3.438  1.00  0.00    -0.245 OA
HETATM    5  N5  UNL     1       3.730 -21.038  -1.206  1.00  0.00    -0.307 N 
ATOM      6  H5  UNL     1       4.410 -21.273  -0.483  1.00  0.00     0.167 HD
ENDROOT
BRANCH   1   7
HETATM    7  N3  UNL     1       5.207 -22.943  -4.057  1.00  0.00    -0.299 NA
BRANCH   7   8
HETATM    8  C1  UNL     1       5.498 -23.350  -5.293  1.00  0.00     0.233 C 
BRANCH   8   9
HETATM    9  O1  UNL     1       4.612 -24.097  -5.956  1.00  0.00    -0.336 OA
ATOM     10  H1  UNL     1       3.951 -23.573  -6.392  1.00  0.00     0.220 HD
ENDBRANCH   8   9
BRANCH   8  11
HETATM   11  C2  UNL     1       6.729 -23.094  -6.086  1.00  0.00     0.236 C 
BRANCH  11  12
HETATM   12  N1  UNL     1       7.791 -23.981  -5.651  1.00  0.00    -0.285 N 
HETATM   13  C3  UNL     1       8.373 -23.755  -4.380  1.00  0.00     0.230 C 
HETATM   14  O2  UNL     1       8.310 -22.615  -3.924  1.00  0.00    -0.273 OA
HETATM   15  C4  UNL     1       9.058 -24.762  -3.495  1.00  0.00     0.144 C 
HETATM   16  C5  UNL     1      10.233 -25.372  -4.149  1.00  0.00    -0.023 A 
HETATM   17  C6  UNL     1      11.316 -25.444  -3.300  1.00  0.00     0.010 A 
HETATM   18  C10 UNL     1      10.352 -25.849  -5.429  1.00  0.00     0.041 A 
HETATM   19  C7  UNL     1      12.534 -25.987  -3.705  1.00  0.00     0.001 A 
HETATM   20  C8  UNL     1      12.637 -26.458  -4.997  1.00  0.00     0.002 A 
HETATM   21  C9  UNL     1      11.544 -26.385  -5.847  1.00  0.00     0.030 A 
HETATM   22  N2  UNL     1       9.352 -25.856  -6.460  1.00  0.00    -0.332 N 
HETATM   23  C11 UNL     1       8.224 -25.005  -6.550  1.00  0.00     0.181 C 
ATOM     24  H2  UNL     1       9.467 -26.544  -7.205  1.00  0.00     0.168 HD
HETATM   25  S1  UNL     1       7.272 -25.160  -7.883  1.00  0.00    -0.040 SA
ENDBRANCH  11  12
ENDBRANCH   8  11
ENDBRANCH   7   8
ENDBRANCH   1   7
BRANCH   5  26
HETATM   26  C13 UNL     1       2.691 -20.102  -0.909  1.00  0.00     0.317 C 
HETATM   27  N6  UNL     1       2.098 -20.187   0.396  1.00  0.00    -0.355 N 
HETATM   28  C14 UNL     1       2.670 -19.878   1.556  1.00  0.00     0.052 C 
ATOM     29  H6  UNL     1       1.135 -20.519   0.437  1.00  0.00     0.162 HD
HETATM   30  C21 UNL     1       3.949 -19.219   1.666  1.00  0.00     0.013 A 
HETATM   31  C22 UNL     1       4.725 -19.327   2.847  1.00  0.00     0.015 A 
HETATM   32  C26 UNL     1       4.661 -18.801   0.529  1.00  0.00     0.075 A 
HETATM   33  C23 UNL     1       6.071 -19.044   2.864  1.00  0.00     0.001 A 
HETATM   34  C24 UNL     1       6.710 -18.642   1.707  1.00  0.00     0.002 A 
HETATM   35  C25 UNL     1       5.964 -18.530   0.538  1.00  0.00     0.024 A 
HETATM   36  S2  UNL     1       3.595 -18.495  -0.813  1.00  0.00     0.216 S 
HETATM   37  O4  UNL     1       2.574 -17.479  -0.311  1.00  0.00    -0.219 OA
HETATM   38  O5  UNL     1       4.229 -18.111  -2.058  1.00  0.00    -0.219 OA
BRANCH  28  39
HETATM   39  C15 UNL     1       1.772 -20.084   2.711  1.00  0.00    -0.009 A 
HETATM   40  C16 UNL     1       1.479 -21.230   3.354  1.00  0.00     0.014 A 
HETATM   41  C17 UNL     1       0.554 -21.432   4.351  1.00  0.00     0.001 A 
HETATM   42  C18 UNL     1      -0.167 -20.321   4.752  1.00  0.00     0.000 A 
HETATM   43  C19 UNL     1       0.080 -19.084   4.133  1.00  0.00     0.001 A 
HETATM   44  C20 UNL     1       1.016 -18.974   3.145  1.00  0.00     0.014 A 
ENDBRANCH  28  39
ENDBRANCH   5  26
TORSDOF 7
ENDMDL
MODEL 2
REMARK VINA RESULT: -8.961498227      1.409      1.731
REMARK  7 active torsions:
REMARK  status: ('A' for Active; 'I' for Inactive)
REMARK    1  A    between atoms: O1_1  and  C1_3 
REMARK    2  A    between atoms: C1_3  and  C2_4 
REMARK    3  A    between atoms: C1_3  and  N3_19 
REMARK    4  A    between atoms: C2_4  and  N1_5 
REMARK    5  A    between atoms: N3_19  and  N4_20 
REMARK       I    between atoms: N4_20  and  C12_22 
REMARK       I    between atoms: C12_22  and  N5_24 
REMARK    6  A    between atoms: N5_24  and  C13_26 
REMARK    7  A    between atoms: C14_29  and  C15_30 
ROOT
HETATM    1  N4  UNL     1       4.405 -22.705  -2.792  1.00  0.00    -0.182 N 
ATOM      2  H4  UNL     1       5.155 -22.900  -2.128  1.00  0.00     0.207 HD
HETATM    3  C12 UNL     1       3.390 -21.773  -2.400  1.00  0.00     0.347 C 
HETATM    4  O3  UNL     1       2.370 -21.741  -3.174  1.00  0.00    -0.245 OA
HETATM    5  N5  UNL     1       3.536 -20.937  -1.266  1.00  0.00    -0.307 N 
ATOM      6  H5  UNL     1       4.366 -21.034  -0.680  1.00  0.00     0.167 HD
ENDROOT
BRANCH   1   7
HETATM    7  N3  UNL     1       4.435 -23.340  -3.978  1.00  0.00    -0.299 NA
BRANCH   7   8
HETATM    8  C1  UNL     1       4.464 -23.966  -5.155  1.00  0.00     0.233 C 
BRANCH   8   9
HETATM    9  O1  UNL     1       3.569 -24.926  -5.402  1.00  0.00    -0.336 OA
ATOM     10  H1  UNL     1       3.930 -25.629  -5.930  1.00  0.00     0.220 HD
ENDBRANCH   8   9
BRANCH   8  11
HETATM   11  C2  UNL     1       5.398 -23.756  -6.292  1.00  0.00     0.236 C 
BRANCH  11  12
HETATM   12  N1  UNL     1       6.715 -24.261  -5.951  1.00  0.00    -0.285 N 
HETATM   13  C3  UNL     1       6.995 -25.625  -6.206  1.00  0.00     0.230 C 
HETATM   14  O2  UNL     1       6.040 -26.400  -6.250  1.00  0.00    -0.273 OA
HETATM   15  C4  UNL     1       8.341 -26.253  -6.450  1.00  0.00     0.144 C 
HETATM   16  C5  UNL     1       9.258 -26.069  -5.307  1.00  0.00    -0.023 A 
HETATM   17  C6  UNL     1       9.937 -27.228  -4.998  1.00  0.00     0.010 A 
HETATM   18  C10 UNL     1       9.495 -24.937  -4.570  1.00  0.00     0.041 A 
HETATM   19  C7  UNL     1      10.858 -27.286  -3.954  1.00  0.00     0.001 A 
HETATM   20  C8  UNL     1      11.081 -26.139  -3.221  1.00  0.00     0.002 A 
HETATM   21  C9  UNL     1      10.397 -24.975  -3.536  1.00  0.00     0.030 A 
HETATM   22  N2  UNL     1       8.888 -23.645  -4.725  1.00  0.00    -0.332 N 
HETATM   23  C11 UNL     1       7.640 -23.364  -5.332  1.00  0.00     0.181 C 
ATOM     24  H2  UNL     1       9.409 -22.847  -4.361  1.00  0.00     0.168 HD
HETATM   25  S1  UNL     1       7.129 -21.800  -5.307  1.00  0.00    -0.040 SA
ENDBRANCH  11  12
ENDBRANCH   8  11
ENDBRANCH   7   8
ENDBRANCH   1   7
BRANCH   5  26
HETATM   26  C13 UNL     1       2.549 -19.962  -0.922  1.00  0.00     0.317 C 
HETATM   27  N6  UNL     1       1.979 -20.055   0.393  1.00  0.00    -0.355 N 
HETATM   28  C14 UNL     1       2.587 -19.807   1.549  1.00  0.00     0.052 C 
ATOM     29  H6  UNL     1       1.001 -20.342   0.445  1.00  0.00     0.162 HD
HETATM   30  C21 UNL     1       3.899 -19.211   1.650  1.00  0.00     0.013 A 
HETATM   31  C22 UNL     1       4.691 -19.390   2.811  1.00  0.00     0.015 A 
HETATM   32  C26 UNL     1       4.607 -18.796   0.509  1.00  0.00     0.075 A 
HETATM   33  C23 UNL     1       6.049 -19.171   2.807  1.00  0.00     0.001 A 
HETATM   34  C24 UNL     1       6.684 -18.767   1.648  1.00  0.00     0.002 A 
HETATM   35  C25 UNL     1       5.921 -18.587   0.498  1.00  0.00     0.024 A 
HETATM   36  S2  UNL     1       3.530 -18.402  -0.801  1.00  0.00     0.216 S 
HETATM   37  O4  UNL     1       2.569 -17.354  -0.250  1.00  0.00    -0.219 OA
HETATM   38  O5  UNL     1       4.157 -18.014  -2.048  1.00  0.00    -0.219 OA
BRANCH  28  39
HETATM   39  C15 UNL     1       1.703 -20.002   2.717  1.00  0.00    -0.009 A 
HETATM   40  C16 UNL     1       1.405 -21.145   3.362  1.00  0.00     0.014 A 
HETATM   41  C17 UNL     1       0.492 -21.336   4.372  1.00  0.00     0.001 A 
HETATM   42  C18 UNL     1      -0.209 -20.217   4.785  1.00  0.00     0.000 A 
HETATM   43  C19 UNL     1       0.045 -18.982   4.164  1.00  0.00     0.001 A 
HETATM   44  C20 UNL     1       0.969 -18.883   3.162  1.00  0.00     0.014 A 
ENDBRANCH  28  39
ENDBRANCH   5  26
TORSDOF 7
ENDMDL
MODEL 3
REMARK VINA RESULT: -8.885649060      2.331      9.844
REMARK  7 active torsions:
REMARK  status: ('A' for Active; 'I' for Inactive)
REMARK    1  A    between atoms: O1_1  and  C1_3 
REMARK    2  A    between atoms: C1_3  and  C2_4 
REMARK    3  A    between atoms: C1_3  and  N3_19 
REMARK    4  A    between atoms: C2_4  and  N1_5 
REMARK    5  A    between atoms: N3_19  and  N4_20 
REMARK       I    between atoms: N4_20  and  C12_22 
REMARK       I    between atoms: C12_22  and  N5_24 
REMARK    6  A    between atoms: N5_24  and  C13_26 
REMARK    7  A    between atoms: C14_29  and  C15_30 
ROOT
HETATM    1  N4  UNL     1       2.700 -23.684  -1.704  1.00  0.00    -0.182 N 
ATOM      2  H4  UNL     1       2.439 -24.402  -2.380  1.00  0.00     0.207 HD
HETATM    3  C12 UNL     1       4.021 -23.135  -1.785  1.00  0.00     0.347 C 
HETATM    4  O3  UNL     1       4.360 -22.413  -0.784  1.00  0.00    -0.245 OA
HETATM    5  N5  UNL     1       4.857 -23.356  -2.907  1.00  0.00    -0.307 N 
ATOM      6  H5  UNL     1       4.531 -23.963  -3.660  1.00  0.00     0.167 HD
ENDROOT
BRANCH   1   7
HETATM    7  N3  UNL     1       1.781 -23.315  -0.793  1.00  0.00    -0.299 NA
BRANCH   7   8
HETATM    8  C1  UNL     1       0.871 -22.946   0.109  1.00  0.00     0.233 C 
BRANCH   8   9
HETATM    9  O1  UNL     1       0.308 -23.877   0.882  1.00  0.00    -0.336 OA
ATOM     10  H1  UNL     1      -0.618 -23.987   0.699  1.00  0.00     0.220 HD
ENDBRANCH   8   9
BRANCH   8  11
HETATM   11  C2  UNL     1       0.350 -21.583   0.394  1.00  0.00     0.236 C 
BRANCH  11  12
HETATM   12  N1  UNL     1       1.431 -20.723   0.839  1.00  0.00    -0.285 N 
HETATM   13  C3  UNL     1       2.098 -19.934  -0.128  1.00  0.00     0.230 C 
HETATM   14  O2  UNL     1       2.077 -20.329  -1.293  1.00  0.00    -0.273 OA
HETATM   15  C4  UNL     1       2.832 -18.638   0.095  1.00  0.00     0.144 C 
HETATM   16  C5  UNL     1       3.954 -18.789   1.042  1.00  0.00    -0.023 A 
HETATM   17  C6  UNL     1       5.092 -18.148   0.600  1.00  0.00     0.010 A 
HETATM   18  C10 UNL     1       3.982 -19.452   2.242  1.00  0.00     0.041 A 
HETATM   19  C7  UNL     1       6.275 -18.156   1.338  1.00  0.00     0.001 A 
HETATM   20  C8  UNL     1       6.286 -18.832   2.539  1.00  0.00     0.002 A 
HETATM   21  C9  UNL     1       5.139 -19.474   2.981  1.00  0.00     0.030 A 
HETATM   22  N2  UNL     1       2.915 -20.184   2.866  1.00  0.00    -0.332 N 
HETATM   23  C11 UNL     1       1.792 -20.755   2.221  1.00  0.00     0.181 C 
ATOM     24  H2  UNL     1       2.974 -20.306   3.877  1.00  0.00     0.168 HD
HETATM   25  S1  UNL     1       0.751 -21.621   3.157  1.00  0.00    -0.040 SA
ENDBRANCH  11  12
ENDBRANCH   8  11
ENDBRANCH   7   8
ENDBRANCH   1   7
BRANCH   5  26
HETATM   26  C13 UNL     1       6.147 -22.748  -3.012  1.00  0.00     0.317 C 
HETATM   27  N6  UNL     1       7.264 -23.630  -3.205  1.00  0.00    -0.355 N 
HETATM   28  C14 UNL     1       7.542 -24.343  -4.293  1.00  0.00     0.052 C 
ATOM     29  H6  UNL     1       7.913 -23.719  -2.424  1.00  0.00     0.162 HD
HETATM   30  C21 UNL     1       6.843 -24.192  -5.547  1.00  0.00     0.013 A 
HETATM   31  C22 UNL     1       6.828 -25.240  -6.502  1.00  0.00     0.015 A 
HETATM   32  C26 UNL     1       5.840 -23.223  -5.718  1.00  0.00     0.075 A 
HETATM   33  C23 UNL     1       5.895 -25.292  -7.512  1.00  0.00     0.001 A 
HETATM   34  C24 UNL     1       4.933 -24.306  -7.619  1.00  0.00     0.002 A 
HETATM   35  C25 UNL     1       4.933 -23.270  -6.691  1.00  0.00     0.024 A 
HETATM   36  S2  UNL     1       6.065 -21.876  -4.638  1.00  0.00     0.216 S 
HETATM   37  O4  UNL     1       7.477 -21.363  -4.900  1.00  0.00    -0.219 OA
HETATM   38  O5  UNL     1       5.054 -20.840  -4.690  1.00  0.00    -0.219 OA
BRANCH  28  39
HETATM   39  C15 UNL     1       8.773 -25.148  -4.152  1.00  0.00    -0.009 A 
HETATM   40  C16 UNL     1       8.969 -26.443  -4.462  1.00  0.00     0.014 A 
HETATM   41  C17 UNL     1      10.081 -27.215  -4.219  1.00  0.00     0.001 A 
HETATM   42  C18 UNL     1      11.135 -26.587  -3.580  1.00  0.00     0.000 A 
HETATM   43  C19 UNL     1      11.013 -25.233  -3.225  1.00  0.00     0.001 A 
HETATM   44  C20 UNL     1       9.868 -24.542  -3.501  1.00  0.00     0.014 A 
ENDBRANCH  28  39
ENDBRANCH   5  26
TORSDOF 7
ENDMDL
MODEL 4
REMARK VINA RESULT: -8.748376813      2.085      3.375
REMARK  7 active torsions:
REMARK  status: ('A' for Active; 'I' for Inactive)
REMARK    1  A    between atoms: O1_1  and  C1_3 
REMARK    2  A    between atoms: C1_3  and  C2_4 
REMARK    3  A    between atoms: C1_3  and  N3_19 
REMARK    4  A    between atoms: C2_4  and  N1_5 
REMARK    5  A    between atoms: N3_19  and  N4_20 
REMARK       I    between atoms: N4_20  and  C12_22 
REMARK       I    between atoms: C12_22  and  N5_24 
REMARK    6  A    between atoms: N5_24  and  C13_26 
REMARK    7  A    between atoms: C14_29  and  C15_30 
ROOT
HETATM    1  N4  UNL     1       3.866 -22.023  -4.698  1.00  0.00    -0.182 N 
ATOM      2  H4  UNL     1       3.415 -21.279  -5.232  1.00  0.00     0.207 HD
HETATM    3  C12 UNL     1       3.627 -22.074  -3.286  1.00  0.00     0.347 C 
HETATM    4  O3  UNL     1       4.388 -22.881  -2.646  1.00  0.00    -0.245 OA
HETATM    5  N5  UNL     1       2.602 -21.313  -2.672  1.00  0.00    -0.307 N 
ATOM      6  H5  UNL     1       2.048 -20.672  -3.240  1.00  0.00     0.167 HD
ENDROOT
BRANCH   1   7
HETATM    7  N3  UNL     1       4.648 -22.892  -5.366  1.00  0.00    -0.299 NA
BRANCH   7   8
HETATM    8  C1  UNL     1       5.421 -23.755  -6.026  1.00  0.00     0.233 C 
BRANCH   8   9
HETATM    9  O1  UNL     1       5.042 -25.032  -6.111  1.00  0.00    -0.336 OA
ATOM     10  H1  UNL     1       4.871 -25.416  -5.259  1.00  0.00     0.220 HD
ENDBRANCH   8   9
BRANCH   8  11
HETATM   11  C2  UNL     1       6.717 -23.502  -6.709  1.00  0.00     0.236 C 
BRANCH  11  12
HETATM   12  N1  UNL     1       7.767 -24.281  -6.081  1.00  0.00    -0.285 N 
HETATM   13  C3  UNL     1       8.179 -23.919  -4.776  1.00  0.00     0.230 C 
HETATM   14  O2  UNL     1       7.998 -22.753  -4.430  1.00  0.00    -0.273 OA
HETATM   15  C4  UNL     1       8.809 -24.806  -3.736  1.00  0.00     0.144 C 
HETATM   16  C5  UNL     1      10.086 -25.387  -4.197  1.00  0.00    -0.023 A 
HETATM   17  C6  UNL     1      11.063 -25.321  -3.226  1.00  0.00     0.010 A 
HETATM   18  C10 UNL     1      10.383 -25.954  -5.409  1.00  0.00     0.041 A 
HETATM   19  C7  UNL     1      12.349 -25.813  -3.442  1.00  0.00     0.001 A 
HETATM   20  C8  UNL     1      12.631 -26.376  -4.669  1.00  0.00     0.002 A 
HETATM   21  C9  UNL     1      11.645 -26.442  -5.641  1.00  0.00     0.030 A 
HETATM   22  N2  UNL     1       9.516 -26.107  -6.544  1.00  0.00    -0.332 N 
HETATM   23  C11 UNL     1       8.361 -25.342  -6.834  1.00  0.00     0.181 C 
ATOM     24  H2  UNL     1       9.757 -26.842  -7.209  1.00  0.00     0.168 HD
HETATM   25  S1  UNL     1       7.585 -25.663  -8.249  1.00  0.00    -0.040 SA
ENDBRANCH  11  12
ENDBRANCH   8  11
ENDBRANCH   7   8
ENDBRANCH   1   7
BRANCH   5  26
HETATM   26  C13 UNL     1       2.324 -21.422  -1.273  1.00  0.00     0.317 C 
HETATM   27  N6  UNL     1       3.229 -20.755  -0.380  1.00  0.00    -0.355 N 
HETATM   28  C14 UNL     1       3.376 -19.444  -0.221  1.00  0.00     0.052 C 
ATOM     29  H6  UNL     1       3.824 -21.353   0.194  1.00  0.00     0.162 HD
HETATM   30  C21 UNL     1       2.491 -18.464  -0.806  1.00  0.00     0.013 A 
HETATM   31  C22 UNL     1       2.920 -17.130  -1.015  1.00  0.00     0.015 A 
HETATM   32  C26 UNL     1       1.363 -18.845  -1.551  1.00  0.00     0.075 A 
HETATM   33  C23 UNL     1       2.272 -16.284  -1.885  1.00  0.00     0.001 A 
HETATM   34  C24 UNL     1       1.169 -16.725  -2.590  1.00  0.00     0.002 A 
HETATM   35  C25 UNL     1       0.734 -18.033  -2.398  1.00  0.00     0.024 A 
HETATM   36  S2  UNL     1       0.787 -20.418  -1.076  1.00  0.00     0.216 S 
HETATM   37  O4  UNL     1       0.541 -20.335   0.427  1.00  0.00    -0.219 OA
HETATM   38  O5  UNL     1      -0.343 -20.936  -1.820  1.00  0.00    -0.219 OA
BRANCH  28  39
HETATM   39  C15 UNL     1       4.402 -19.098   0.785  1.00  0.00    -0.009 A 
HETATM   40  C16 UNL     1       5.654 -18.646   0.586  1.00  0.00     0.014 A 
HETATM   41  C17 UNL     1       6.640 -18.440   1.522  1.00  0.00     0.001 A 
HETATM   42  C18 UNL     1       6.309 -18.726   2.835  1.00  0.00     0.000 A 
HETATM   43  C19 UNL     1       5.019 -19.200   3.129  1.00  0.00     0.001 A 
HETATM   44  C20 UNL     1       4.101 -19.381   2.134  1.00  0.00     0.014 A 
ENDBRANCH  28  39
ENDBRANCH   5  26
TORSDOF 7
ENDMDL
MODEL 5
REMARK VINA RESULT: -8.734463186      1.822      2.362
REMARK  7 active torsions:
REMARK  status: ('A' for Active; 'I' for Inactive)
REMARK    1  A    between atoms: O1_1  and  C1_3 
REMARK    2  A    between atoms: C1_3  and  C2_4 
REMARK    3  A    between atoms: C1_3  and  N3_19 
REMARK    4  A    between atoms: C2_4  and  N1_5 
REMARK    5  A    between atoms: N3_19  and  N4_20 
REMARK       I    between atoms: N4_20  and  C12_22 
REMARK       I    between atoms: C12_22  and  N5_24 
REMARK    6  A    between atoms: N5_24  and  C13_26 
REMARK    7  A    between atoms: C14_29  and  C15_30 
ROOT
HETATM    1  N4  UNL     1       5.338 -22.946  -2.484  1.00  0.00    -0.182 N 
ATOM      2  H4  UNL     1       5.942 -23.152  -1.688  1.00  0.00     0.207 HD
HETATM    3  C12 UNL     1       4.202 -22.101  -2.263  1.00  0.00     0.347 C 
HETATM    4  O3  UNL     1       3.368 -22.064  -3.234  1.00  0.00    -0.245 OA
HETATM    5  N5  UNL     1       4.049 -21.347  -1.073  1.00  0.00    -0.307 N 
ATOM      6  H5  UNL     1       4.741 -21.445  -0.330  1.00  0.00     0.167 HD
ENDROOT
BRANCH   1   7
HETATM    7  N3  UNL     1       5.659 -23.487  -3.674  1.00  0.00    -0.299 NA
BRANCH   7   8
HETATM    8  C1  UNL     1       5.975 -24.021  -4.854  1.00  0.00     0.233 C 
BRANCH   8   9
HETATM    9  O1  UNL     1       5.119 -24.866  -5.434  1.00  0.00    -0.336 OA
ATOM     10  H1  UNL     1       4.213 -24.633  -5.268  1.00  0.00     0.220 HD
ENDBRANCH   8   9
BRANCH   8  11
HETATM   11  C2  UNL     1       7.206 -23.820  -5.663  1.00  0.00     0.236 C 
BRANCH  11  12
HETATM   12  N1  UNL     1       7.954 -25.061  -5.743  1.00  0.00    -0.285 N 
HETATM   13  C3  UNL     1       7.739 -25.899  -6.863  1.00  0.00     0.230 C 
HETATM   14  O2  UNL     1       6.658 -25.803  -7.442  1.00  0.00    -0.273 OA
HETATM   15  C4  UNL     1       8.695 -26.902  -7.453  1.00  0.00     0.144 C 
HETATM   16  C5  UNL     1       9.071 -27.951  -6.485  1.00  0.00    -0.023 A 
HETATM   17  C6  UNL     1       9.042 -29.208  -7.050  1.00  0.00     0.010 A 
HETATM   18  C10 UNL     1       9.428 -27.816  -5.168  1.00  0.00     0.041 A 
HETATM   19  C7  UNL     1       9.364 -30.350  -6.318  1.00  0.00     0.001 A 
HETATM   20  C8  UNL     1       9.716 -30.196  -4.995  1.00  0.00     0.002 A 
HETATM   21  C9  UNL     1       9.745 -28.929  -4.431  1.00  0.00     0.030 A 
HETATM   22  N2  UNL     1       9.507 -26.605  -4.399  1.00  0.00    -0.332 N 
HETATM   23  C11 UNL     1       8.832 -25.389  -4.664  1.00  0.00     0.181 C 
ATOM     24  H2  UNL     1      10.112 -26.623  -3.577  1.00  0.00     0.168 HD
HETATM   25  S1  UNL     1       9.028 -24.170  -3.576  1.00  0.00    -0.040 SA
ENDBRANCH  11  12
ENDBRANCH   8  11
ENDBRANCH   7   8
ENDBRANCH   1   7
BRANCH   5  26
HETATM   26  C13 UNL     1       2.948 -20.454  -0.888  1.00  0.00     0.317 C 
HETATM   27  N6  UNL     1       2.317 -20.463   0.402  1.00  0.00    -0.355 N 
HETATM   28  C14 UNL     1       2.831 -20.023   1.547  1.00  0.00     0.052 C 
ATOM     29  H6  UNL     1       1.374 -20.848   0.444  1.00  0.00     0.162 HD
HETATM   30  C21 UNL     1       4.066 -19.280   1.635  1.00  0.00     0.013 A 
HETATM   31  C22 UNL     1       4.806 -19.240   2.843  1.00  0.00     0.015 A 
HETATM   32  C26 UNL     1       4.790 -18.918   0.487  1.00  0.00     0.075 A 
HETATM   33  C23 UNL     1       6.132 -18.876   2.874  1.00  0.00     0.001 A 
HETATM   34  C24 UNL     1       6.785 -18.535   1.705  1.00  0.00     0.002 A 
HETATM   35  C25 UNL     1       6.074 -18.569   0.509  1.00  0.00     0.024 A 
HETATM   36  S2  UNL     1       3.753 -18.792  -0.907  1.00  0.00     0.216 S 
HETATM   37  O4  UNL     1       2.659 -17.801  -0.524  1.00  0.00    -0.219 OA
HETATM   38  O5  UNL     1       4.406 -18.478  -2.161  1.00  0.00    -0.219 OA
BRANCH  28  39
HETATM   39  C15 UNL     1       1.907 -20.183   2.689  1.00  0.00    -0.009 A 
HETATM   40  C16 UNL     1       1.599 -21.304   3.368  1.00  0.00     0.014 A 
HETATM   41  C17 UNL     1       0.652 -21.466   4.352  1.00  0.00     0.001 A 
HETATM   42  C18 UNL     1      -0.075 -20.340   4.695  1.00  0.00     0.000 A 
HETATM   43  C19 UNL     1       0.188 -19.127   4.036  1.00  0.00     0.001 A 
HETATM   44  C20 UNL     1       1.146 -19.056   3.064  1.00  0.00     0.014 A 
ENDBRANCH  28  39
ENDBRANCH   5  26
TORSDOF 7
ENDMDL
