MODEL 1
REMARK VINA RESULT: -8.326027475      0.000      0.000
REMARK  10 active torsions:
REMARK  status: ('A' for Active; 'I' for Inactive)
REMARK    1  A    between atoms: C2_2  and  C5_5 
REMARK    2  A    between atoms: C8_8  and  C9_9 
REMARK    3  A    between atoms: C10_10  and  C11_11 
REMARK    4  A    between atoms: C13_13  and  C14_14 
REMARK    5  A    between atoms: C15_15  and  C16_16 
REMARK    6  A    between atoms: N3_24  and  C20_25 
REMARK    7  A    between atoms: C20_25  and  C21_26 
REMARK    8  A    between atoms: C21_26  and  O2_27 
REMARK    9  A    between atoms: C23_30  and  C24_31 
REMARK       I    between atoms: C24_31  and  N4_33 
REMARK   10  A    between atoms: N5_36  and  C27_37 
REMARK       I    between atoms: N6_41  and  C31_42 
ROOT
HETATM    1  C5  UNL     1      16.929  -7.505  14.152  1.00  0.00    -0.050 A 
HETATM    2  C6  UNL     1      16.062  -6.485  14.526  1.00  0.00     0.009 A 
HETATM    3  C7  UNL     1      14.743  -6.809  14.688  1.00  0.00     0.022 A 
HETATM    4  C8  UNL     1      14.226  -8.098  14.496  1.00  0.00     0.033 A 
HETATM    5  C23 UNL     1      15.108  -9.077  14.126  1.00  0.00     0.051 A 
HETATM    6  C36 UNL     1      16.466  -8.786  13.952  1.00  0.00     0.026 A 
ENDROOT
BRANCH   4   7
HETATM    7  C9  UNL     1      12.828  -8.344  14.735  1.00  0.00    -0.060 C 
HETATM    8  C10 UNL     1      11.624  -8.495  14.934  1.00  0.00    -0.059 C 
BRANCH   8   9
HETATM    9  C11 UNL     1      10.192  -8.570  15.153  1.00  0.00     0.048 A 
HETATM   10  C12 UNL     1       9.382  -7.793  14.299  1.00  0.00     0.043 A 
HETATM   11  C13 UNL     1       8.021  -7.774  14.433  1.00  0.00     0.021 A 
HETATM   12  C17 UNL     1       7.491  -8.543  15.433  1.00  0.00     0.052 A 
HETATM   13  C18 UNL     1       8.275  -9.306  16.274  1.00  0.00     0.063 A 
HETATM   14  N2  UNL     1       8.006 -10.117  17.311  1.00  0.00    -0.350 N 
HETATM   15  C22 UNL     1       9.671  -9.334  16.143  1.00  0.00     0.081 A 
HETATM   16  C19 UNL     1       9.132 -10.609  17.785  1.00  0.00     0.184 A 
ATOM     17  H2  UNL     1       7.074 -10.319  17.675  1.00  0.00     0.166 HD
HETATM   18  N3  UNL     1      10.205 -10.132  17.064  1.00  0.00    -0.338 N 
BRANCH  11  19
HETATM   19  C14 UNL     1       7.195  -6.972  13.539  1.00  0.00    -0.057 C 
HETATM   20  C15 UNL     1       6.528  -6.292  12.806  1.00  0.00    -0.003 C 
BRANCH  20  21
HETATM   21  C16 UNL     1       5.754  -5.464  11.942  1.00  0.00     0.309 C 
HETATM   22  N1  UNL     1       4.378  -5.184  12.064  1.00  0.00    -0.049 NA
HETATM   23  O1  UNL     1       6.334  -4.902  10.945  1.00  0.00    -0.262 OA
ENDBRANCH  20  21
ENDBRANCH  11  19
BRANCH  18  24
HETATM   24  C20 UNL     1      11.559 -10.552  17.329  1.00  0.00     0.156 C 
BRANCH  24  25
HETATM   25  C21 UNL     1      12.200  -9.828  18.476  1.00  0.00     0.184 C 
BRANCH  25  26
HETATM   26  O2  UNL     1      12.157  -8.468  18.325  1.00  0.00    -0.399 OA
ATOM     27  H2  UNL     1      12.702  -8.166  17.609  1.00  0.00     0.209 HD
ENDBRANCH  25  26
ENDBRANCH  24  25
ENDBRANCH  18  24
ENDBRANCH   8   9
ENDBRANCH   4   7
BRANCH   5  28
HETATM   28  C24 UNL     1      14.640 -10.436  13.893  1.00  0.00     0.255 C 
HETATM   29  O3  UNL     1      14.366 -11.172  14.872  1.00  0.00    -0.267 OA
HETATM   30  N4  UNL     1      14.484 -10.961  12.569  1.00  0.00    -0.345 N 
HETATM   31  C25 UNL     1      14.805 -10.153  11.410  1.00  0.00     0.156 C 
HETATM   32  C35 UNL     1      13.979 -12.296  12.368  1.00  0.00     0.156 C 
HETATM   33  C26 UNL     1      15.481 -11.000  10.380  1.00  0.00     0.293 C 
HETATM   34  N5  UNL     1      14.816 -12.261  10.106  1.00  0.00     0.101 N 
HETATM   35  C34 UNL     1      14.730 -13.067  11.315  1.00  0.00     0.293 C 
BRANCH  34  36
HETATM   36  C27 UNL     1      15.510 -12.974   9.040  1.00  0.00     0.159 C 
HETATM   37  C28 UNL     1      15.197 -12.285   7.734  1.00  0.00     0.049 C 
HETATM   38  C29 UNL     1      14.920 -14.366   8.952  1.00  0.00     0.061 C 
HETATM   39  C30 UNL     1      15.474 -15.132   7.766  1.00  0.00     0.128 C 
HETATM   40  N6  UNL     1      16.866 -14.888   7.543  1.00  0.00    -0.356 N 
HETATM   41  C31 UNL     1      17.587 -15.808   6.721  1.00  0.00     0.183 C 
HETATM   42  C32 UNL     1      17.603 -13.777   8.091  1.00  0.00     0.128 C 
HETATM   43  N7  UNL     1      17.254 -17.018   6.504  1.00  0.00    -0.374 N 
HETATM   44  N8  UNL     1      18.782 -15.334   6.088  1.00  0.00    -0.064 NA
ATOM     45  H72 UNL     1      16.404 -17.356   6.955  1.00  0.00     0.158 HD
ATOM     46  H71 UNL     1      17.769 -17.675   5.918  1.00  0.00     0.158 HD
HETATM   47  C33 UNL     1      16.978 -13.156   9.303  1.00  0.00     0.061 C 
ENDBRANCH  34  36
ENDBRANCH   5  28
BRANCH   1  48
HETATM   48  C2  UNL     1      18.354  -7.106  14.010  1.00  0.00    -0.024 C 
HETATM   49  C1  UNL     1      18.490  -5.830  13.209  1.00  0.00     0.019 C 
HETATM   50  C3  UNL     1      19.109  -8.190  13.295  1.00  0.00     0.019 C 
HETATM   51  C4  UNL     1      19.001  -6.915  15.375  1.00  0.00     0.019 C 
ENDBRANCH   1  48
TORSDOF 10
ENDMDL
MODEL 2
REMARK VINA RESULT: -7.825056914      4.940      9.133
REMARK  10 active torsions:
REMARK  status: ('A' for Active; 'I' for Inactive)
REMARK    1  A    between atoms: C2_2  and  C5_5 
REMARK    2  A    between atoms: C8_8  and  C9_9 
REMARK    3  A    between atoms: C10_10  and  C11_11 
REMARK    4  A    between atoms: C13_13  and  C14_14 
REMARK    5  A    between atoms: C15_15  and  C16_16 
REMARK    6  A    between atoms: N3_24  and  C20_25 
REMARK    7  A    between atoms: C20_25  and  C21_26 
REMARK    8  A    between atoms: C21_26  and  O2_27 
REMARK    9  A    between atoms: C23_30  and  C24_31 
REMARK       I    between atoms: C24_31  and  N4_33 
REMARK   10  A    between atoms: N5_36  and  C27_37 
REMARK       I    between atoms: N6_41  and  C31_42 
ROOT
HETATM    1  C5  UNL     1      15.425  -6.748  13.478  1.00  0.00    -0.050 A 
HETATM    2  C6  UNL     1      14.328  -5.929  13.236  1.00  0.00     0.009 A 
HETATM    3  C7  UNL     1      13.097  -6.409  13.587  1.00  0.00     0.022 A 
HETATM    4  C8  UNL     1      12.884  -7.667  14.166  1.00  0.00     0.033 A 
HETATM    5  C23 UNL     1      13.986  -8.448  14.388  1.00  0.00     0.051 A 
HETATM    6  C36 UNL     1      15.265  -7.992  14.044  1.00  0.00     0.026 A 
ENDROOT
BRANCH   4   7
HETATM    7  C9  UNL     1      11.550  -8.061  14.538  1.00  0.00    -0.060 C 
HETATM    8  C10 UNL     1      10.432  -8.452  14.867  1.00  0.00    -0.059 C 
BRANCH   8   9
HETATM    9  C11 UNL     1       9.157  -9.006  15.280  1.00  0.00     0.048 A 
HETATM   10  C12 UNL     1       9.184  -9.919  16.355  1.00  0.00     0.043 A 
HETATM   11  C13 UNL     1       8.040 -10.516  16.810  1.00  0.00     0.021 A 
HETATM   12  C17 UNL     1       6.877 -10.183  16.170  1.00  0.00     0.052 A 
HETATM   13  C18 UNL     1       6.840  -9.292  15.118  1.00  0.00     0.063 A 
HETATM   14  N2  UNL     1       5.854  -8.820  14.336  1.00  0.00    -0.350 N 
HETATM   15  C22 UNL     1       8.007  -8.673  14.646  1.00  0.00     0.081 A 
HETATM   16  C19 UNL     1       6.359  -7.979  13.457  1.00  0.00     0.184 A 
ATOM     17  H2  UNL     1       4.868  -9.073  14.413  1.00  0.00     0.166 HD
HETATM   18  N3  UNL     1       7.720  -7.865  13.628  1.00  0.00    -0.338 N 
BRANCH  11  19
HETATM   19  C14 UNL     1       8.081 -11.452  17.927  1.00  0.00    -0.057 C 
HETATM   20  C15 UNL     1       8.094 -12.216  18.855  1.00  0.00    -0.003 C 
BRANCH  20  21
HETATM   21  C16 UNL     1       8.084 -13.110  19.964  1.00  0.00     0.309 C 
HETATM   22  N1  UNL     1       8.225 -14.511  19.909  1.00  0.00    -0.049 NA
HETATM   23  O1  UNL     1       7.934 -12.627  21.143  1.00  0.00    -0.262 OA
ENDBRANCH  20  21
ENDBRANCH  11  19
BRANCH  18  24
HETATM   24  C20 UNL     1       8.524  -6.966  12.837  1.00  0.00     0.156 C 
BRANCH  24  25
HETATM   25  C21 UNL     1       7.719  -5.975  12.047  1.00  0.00     0.184 C 
BRANCH  25  26
HETATM   26  O2  UNL     1       7.400  -6.438  10.799  1.00  0.00    -0.399 OA
ATOM     27  H2  UNL     1       6.475  -6.349  10.606  1.00  0.00     0.209 HD
ENDBRANCH  25  26
ENDBRANCH  24  25
ENDBRANCH  18  24
ENDBRANCH   8   9
ENDBRANCH   4   7
BRANCH   5  28
HETATM   28  C24 UNL     1      13.841  -9.774  14.971  1.00  0.00     0.255 C 
HETATM   29  O3  UNL     1      13.770 -10.776  14.219  1.00  0.00    -0.267 OA
HETATM   30  N4  UNL     1      13.775  -9.969  16.389  1.00  0.00    -0.345 N 
HETATM   31  C25 UNL     1      13.835  -8.840  17.295  1.00  0.00     0.156 C 
HETATM   32  C35 UNL     1      13.674 -11.297  16.940  1.00  0.00     0.156 C 
HETATM   33  C26 UNL     1      12.876  -9.050  18.422  1.00  0.00     0.293 C 
HETATM   34  N5  UNL     1      12.952 -10.361  19.041  1.00  0.00     0.101 N 
HETATM   35  C34 UNL     1      12.678 -11.404  18.065  1.00  0.00     0.293 C 
BRANCH  34  36
HETATM   36  C27 UNL     1      12.033 -10.437  20.171  1.00  0.00     0.159 C 
HETATM   37  C28 UNL     1      11.478 -11.840  20.232  1.00  0.00     0.049 C 
HETATM   38  C29 UNL     1      10.864  -9.518  19.881  1.00  0.00     0.061 C 
HETATM   39  C30 UNL     1       9.779  -9.648  20.933  1.00  0.00     0.128 C 
HETATM   40  N6  UNL     1      10.298  -9.813  22.256  1.00  0.00    -0.356 N 
HETATM   41  C31 UNL     1       9.421  -9.571  23.358  1.00  0.00     0.183 C 
HETATM   42  C32 UNL     1      11.650 -10.205  22.565  1.00  0.00     0.128 C 
HETATM   43  N7  UNL     1       8.377  -8.842  23.321  1.00  0.00    -0.374 N 
HETATM   44  N8  UNL     1       9.739 -10.199  24.607  1.00  0.00    -0.064 NA
ATOM     45  H72 UNL     1       8.151  -8.396  22.433  1.00  0.00     0.158 HD
ATOM     46  H71 UNL     1       7.751  -8.669  24.107  1.00  0.00     0.158 HD
HETATM   47  C33 UNL     1      12.634  -9.957  21.461  1.00  0.00     0.061 C 
ENDBRANCH  34  36
ENDBRANCH   5  28
BRANCH   1  48
HETATM   48  C2  UNL     1      16.742  -6.172  13.099  1.00  0.00    -0.024 C 
HETATM   49  C1  UNL     1      17.447  -5.578  14.297  1.00  0.00     0.019 C 
HETATM   50  C3  UNL     1      16.539  -5.081  12.086  1.00  0.00     0.019 C 
HETATM   51  C4  UNL     1      17.633  -7.231  12.464  1.00  0.00     0.019 C 
ENDBRANCH   1  48
TORSDOF 10
ENDMDL
MODEL 3
REMARK VINA RESULT: -7.795075688      4.920      8.886
REMARK  10 active torsions:
REMARK  status: ('A' for Active; 'I' for Inactive)
REMARK    1  A    between atoms: C2_2  and  C5_5 
REMARK    2  A    between atoms: C8_8  and  C9_9 
REMARK    3  A    between atoms: C10_10  and  C11_11 
REMARK    4  A    between atoms: C13_13  and  C14_14 
REMARK    5  A    between atoms: C15_15  and  C16_16 
REMARK    6  A    between atoms: N3_24  and  C20_25 
REMARK    7  A    between atoms: C20_25  and  C21_26 
REMARK    8  A    between atoms: C21_26  and  O2_27 
REMARK    9  A    between atoms: C23_30  and  C24_31 
REMARK       I    between atoms: C24_31  and  N4_33 
REMARK   10  A    between atoms: N5_36  and  C27_37 
REMARK       I    between atoms: N6_41  and  C31_42 
ROOT
HETATM    1  C5  UNL     1      15.454  -6.717  13.494  1.00  0.00    -0.050 A 
HETATM    2  C6  UNL     1      14.350  -5.902  13.272  1.00  0.00     0.009 A 
HETATM    3  C7  UNL     1      13.121  -6.407  13.598  1.00  0.00     0.022 A 
HETATM    4  C8  UNL     1      12.918  -7.685  14.135  1.00  0.00     0.033 A 
HETATM    5  C23 UNL     1      14.027  -8.461  14.338  1.00  0.00     0.051 A 
HETATM    6  C36 UNL     1      15.303  -7.981  14.019  1.00  0.00     0.026 A 
ENDROOT
BRANCH   4   7
HETATM    7  C9  UNL     1      11.586  -8.105  14.485  1.00  0.00    -0.060 C 
HETATM    8  C10 UNL     1      10.471  -8.519  14.794  1.00  0.00    -0.059 C 
BRANCH   8   9
HETATM    9  C11 UNL     1       9.199  -9.097  15.185  1.00  0.00     0.048 A 
HETATM   10  C12 UNL     1       9.241 -10.104  16.172  1.00  0.00     0.043 A 
HETATM   11  C13 UNL     1       8.102 -10.731  16.597  1.00  0.00     0.021 A 
HETATM   12  C17 UNL     1       6.929 -10.333  16.016  1.00  0.00     0.052 A 
HETATM   13  C18 UNL     1       6.877  -9.350  15.049  1.00  0.00     0.063 A 
HETATM   14  N2  UNL     1       5.879  -8.802  14.336  1.00  0.00    -0.350 N 
HETATM   15  C22 UNL     1       8.039  -8.700  14.609  1.00  0.00     0.081 A 
HETATM   16  C19 UNL     1       6.372  -7.889  13.525  1.00  0.00     0.184 A 
ATOM     17  H2  UNL     1       4.893  -9.054  14.412  1.00  0.00     0.166 HD
HETATM   18  N3  UNL     1       7.738  -7.801  13.675  1.00  0.00    -0.338 N 
BRANCH  11  19
HETATM   19  C14 UNL     1       8.159 -11.764  17.624  1.00  0.00    -0.057 C 
HETATM   20  C15 UNL     1       8.189 -12.629  18.459  1.00  0.00    -0.003 C 
BRANCH  20  21
HETATM   21  C16 UNL     1       8.204 -13.667  19.434  1.00  0.00     0.309 C 
HETATM   22  N1  UNL     1       9.171 -14.684  19.557  1.00  0.00    -0.049 NA
HETATM   23  O1  UNL     1       7.259 -13.711  20.302  1.00  0.00    -0.262 OA
ENDBRANCH  20  21
ENDBRANCH  11  19
BRANCH  18  24
HETATM   24  C20 UNL     1       8.533  -6.840  12.949  1.00  0.00     0.156 C 
BRANCH  24  25
HETATM   25  C21 UNL     1       7.723  -5.919  12.086  1.00  0.00     0.184 C 
BRANCH  25  26
HETATM   26  O2  UNL     1       7.478  -6.445  10.847  1.00  0.00    -0.399 OA
ATOM     27  H2  UNL     1       8.169  -7.029  10.558  1.00  0.00     0.209 HD
ENDBRANCH  25  26
ENDBRANCH  24  25
ENDBRANCH  18  24
ENDBRANCH   8   9
ENDBRANCH   4   7
BRANCH   5  28
HETATM   28  C24 UNL     1      13.892  -9.807  14.877  1.00  0.00     0.255 C 
HETATM   29  O3  UNL     1      13.839 -10.785  14.092  1.00  0.00    -0.267 OA
HETATM   30  N4  UNL     1      13.819 -10.049  16.287  1.00  0.00    -0.345 N 
HETATM   31  C25 UNL     1      13.859  -8.950  17.230  1.00  0.00     0.156 C 
HETATM   32  C35 UNL     1      13.728 -11.395  16.793  1.00  0.00     0.156 C 
HETATM   33  C26 UNL     1      12.894  -9.207  18.342  1.00  0.00     0.293 C 
HETATM   34  N5  UNL     1      12.980 -10.536  18.919  1.00  0.00     0.101 N 
HETATM   35  C34 UNL     1      12.726 -11.550  17.906  1.00  0.00     0.293 C 
BRANCH  34  36
HETATM   36  C27 UNL     1      12.054 -10.659  20.038  1.00  0.00     0.159 C 
HETATM   37  C28 UNL     1      12.719 -10.081  21.264  1.00  0.00     0.049 C 
HETATM   38  C29 UNL     1      11.847 -12.134  20.309  1.00  0.00     0.061 C 
HETATM   39  C30 UNL     1      11.017 -12.360  21.559  1.00  0.00     0.128 C 
HETATM   40  N6  UNL     1       9.956 -11.410  21.706  1.00  0.00    -0.356 N 
HETATM   41  C31 UNL     1       8.893 -11.725  22.607  1.00  0.00     0.183 C 
HETATM   42  C32 UNL     1       9.878 -10.153  21.007  1.00  0.00     0.128 C 
HETATM   43  N7  UNL     1       8.563 -12.898  22.976  1.00  0.00    -0.374 N 
HETATM   44  N8  UNL     1       8.133 -10.632  23.140  1.00  0.00    -0.064 NA
ATOM     45  H72 UNL     1       9.103 -13.675  22.596  1.00  0.00     0.158 HD
ATOM     46  H71 UNL     1       7.803 -13.122  23.618  1.00  0.00     0.158 HD
HETATM   47  C33 UNL     1      10.694 -10.090  19.751  1.00  0.00     0.061 C 
ENDBRANCH  34  36
ENDBRANCH   5  28
BRANCH   1  48
HETATM   48  C2  UNL     1      16.767  -6.115  13.143  1.00  0.00    -0.024 C 
HETATM   49  C1  UNL     1      17.409  -5.459  14.345  1.00  0.00     0.019 C 
HETATM   50  C3  UNL     1      16.571  -5.066  12.086  1.00  0.00     0.019 C 
HETATM   51  C4  UNL     1      17.711  -7.168  12.579  1.00  0.00     0.019 C 
ENDBRANCH   1  48
TORSDOF 10
ENDMDL
MODEL 4
REMARK VINA RESULT: -7.789919368      4.532      7.273
REMARK  10 active torsions:
REMARK  status: ('A' for Active; 'I' for Inactive)
REMARK    1  A    between atoms: C2_2  and  C5_5 
REMARK    2  A    between atoms: C8_8  and  C9_9 
REMARK    3  A    between atoms: C10_10  and  C11_11 
REMARK    4  A    between atoms: C13_13  and  C14_14 
REMARK    5  A    between atoms: C15_15  and  C16_16 
REMARK    6  A    between atoms: N3_24  and  C20_25 
REMARK    7  A    between atoms: C20_25  and  C21_26 
REMARK    8  A    between atoms: C21_26  and  O2_27 
REMARK    9  A    between atoms: C23_30  and  C24_31 
REMARK       I    between atoms: C24_31  and  N4_33 
REMARK   10  A    between atoms: N5_36  and  C27_37 
REMARK       I    between atoms: N6_41  and  C31_42 
ROOT
HETATM    1  C5  UNL     1      11.257  -9.589  21.513  1.00  0.00    -0.050 A 
HETATM    2  C6  UNL     1       9.978  -9.045  21.541  1.00  0.00     0.009 A 
HETATM    3  C7  UNL     1       9.210  -9.187  20.419  1.00  0.00     0.022 A 
HETATM    4  C8  UNL     1       9.638  -9.841  19.256  1.00  0.00     0.033 A 
HETATM    5  C23 UNL     1      10.903 -10.363  19.262  1.00  0.00     0.051 A 
HETATM    6  C36 UNL     1      11.721 -10.239  20.392  1.00  0.00     0.026 A 
ENDROOT
BRANCH   4   7
HETATM    7  C9  UNL     1       8.734  -9.975  18.144  1.00  0.00    -0.060 C 
HETATM    8  C10 UNL     1       8.005 -10.064  17.158  1.00  0.00    -0.059 C 
BRANCH   8   9
HETATM    9  C11 UNL     1       7.223 -10.133  15.938  1.00  0.00     0.048 A 
HETATM   10  C12 UNL     1       7.092  -8.936  15.204  1.00  0.00     0.043 A 
HETATM   11  C13 UNL     1       6.359  -8.886  14.051  1.00  0.00     0.021 A 
HETATM   12  C17 UNL     1       5.762 -10.050  13.651  1.00  0.00     0.052 A 
HETATM   13  C18 UNL     1       5.883 -11.226  14.362  1.00  0.00     0.063 A 
HETATM   14  N2  UNL     1       5.399 -12.468  14.190  1.00  0.00    -0.350 N 
HETATM   15  C22 UNL     1       6.635 -11.288  15.544  1.00  0.00     0.081 A 
HETATM   16  C19 UNL     1       5.813 -13.238  15.175  1.00  0.00     0.184 A 
ATOM     17  H2  UNL     1       4.804 -12.767  13.417  1.00  0.00     0.166 HD
HETATM   18  N3  UNL     1       6.599 -12.520  16.049  1.00  0.00    -0.338 N 
BRANCH  11  19
HETATM   19  C14 UNL     1       6.238  -7.643  13.298  1.00  0.00    -0.057 C 
HETATM   20  C15 UNL     1       6.126  -6.631  12.660  1.00  0.00    -0.003 C 
BRANCH  20  21
HETATM   21  C16 UNL     1       5.980  -5.445  11.883  1.00  0.00     0.309 C 
HETATM   22  N1  UNL     1       6.811  -5.034  10.822  1.00  0.00    -0.049 NA
HETATM   23  O1  UNL     1       5.008  -4.651  12.148  1.00  0.00    -0.262 OA
ENDBRANCH  20  21
ENDBRANCH  11  19
BRANCH  18  24
HETATM   24  C20 UNL     1       7.235 -13.127  17.192  1.00  0.00     0.156 C 
BRANCH  24  25
HETATM   25  C21 UNL     1       8.417 -13.982  16.839  1.00  0.00     0.184 C 
BRANCH  25  26
HETATM   26  O2  UNL     1       9.448 -13.254  16.309  1.00  0.00    -0.399 OA
ATOM     27  H2  UNL     1       9.177 -12.384  16.041  1.00  0.00     0.209 HD
ENDBRANCH  25  26
ENDBRANCH  24  25
ENDBRANCH  18  24
ENDBRANCH   8   9
ENDBRANCH   4   7
BRANCH   5  28
HETATM   28  C24 UNL     1      11.422 -11.042  18.084  1.00  0.00     0.255 C 
HETATM   29  O3  UNL     1      11.580 -12.287  18.107  1.00  0.00    -0.267 OA
HETATM   30  N4  UNL     1      11.762 -10.325  16.890  1.00  0.00    -0.345 N 
HETATM   31  C25 UNL     1      11.612  -8.885  16.824  1.00  0.00     0.156 C 
HETATM   32  C35 UNL     1      12.234 -11.029  15.725  1.00  0.00     0.156 C 
HETATM   33  C26 UNL     1      12.767  -8.295  16.081  1.00  0.00     0.293 C 
HETATM   34  N5  UNL     1      13.076  -8.956  14.826  1.00  0.00     0.101 N 
HETATM   35  C34 UNL     1      13.401 -10.356  15.052  1.00  0.00     0.293 C 
BRANCH  34  36
HETATM   36  C27 UNL     1      14.164  -8.261  14.147  1.00  0.00     0.159 C 
HETATM   37  C28 UNL     1      14.753  -9.199  13.122  1.00  0.00     0.049 C 
HETATM   38  C29 UNL     1      15.250  -7.991  15.167  1.00  0.00     0.061 C 
HETATM   39  C30 UNL     1      16.490  -7.406  14.518  1.00  0.00     0.128 C 
HETATM   40  N6  UNL     1      16.191  -6.477  13.471  1.00  0.00    -0.356 N 
HETATM   41  C31 UNL     1      17.226  -5.589  13.045  1.00  0.00     0.183 C 
HETATM   42  C32 UNL     1      14.914  -6.366  12.813  1.00  0.00     0.128 C 
HETATM   43  N7  UNL     1      18.233  -5.243  13.743  1.00  0.00    -0.374 N 
HETATM   44  N8  UNL     1      17.124  -5.042  11.724  1.00  0.00    -0.064 NA
ATOM     45  H72 UNL     1      18.305  -5.633  14.682  1.00  0.00     0.158 HD
ATOM     46  H71 UNL     1      18.971  -4.609  13.438  1.00  0.00     0.158 HD
HETATM   47  C33 UNL     1      13.762  -6.922  13.596  1.00  0.00     0.061 C 
ENDBRANCH  34  36
ENDBRANCH   5  28
BRANCH   1  48
HETATM   48  C2  UNL     1      12.044  -9.425  22.763  1.00  0.00    -0.024 C 
HETATM   49  C1  UNL     1      11.843 -10.599  23.695  1.00  0.00     0.019 C 
HETATM   50  C3  UNL     1      11.599  -8.180  23.476  1.00  0.00     0.019 C 
HETATM   51  C4  UNL     1      13.527  -9.276  22.454  1.00  0.00     0.019 C 
ENDBRANCH   1  48
TORSDOF 10
ENDMDL
MODEL 5
REMARK VINA RESULT: -7.775196980      3.306      9.009
REMARK  10 active torsions:
REMARK  status: ('A' for Active; 'I' for Inactive)
REMARK    1  A    between atoms: C2_2  and  C5_5 
REMARK    2  A    between atoms: C8_8  and  C9_9 
REMARK    3  A    between atoms: C10_10  and  C11_11 
REMARK    4  A    between atoms: C13_13  and  C14_14 
REMARK    5  A    between atoms: C15_15  and  C16_16 
REMARK    6  A    between atoms: N3_24  and  C20_25 
REMARK    7  A    between atoms: C20_25  and  C21_26 
REMARK    8  A    between atoms: C21_26  and  O2_27 
REMARK    9  A    between atoms: C23_30  and  C24_31 
REMARK       I    between atoms: C24_31  and  N4_33 
REMARK   10  A    between atoms: N5_36  and  C27_37 
REMARK       I    between atoms: N6_41  and  C31_42 
ROOT
HETATM    1  C5  UNL     1       5.192 -13.201  18.860  1.00  0.00    -0.050 A 
HETATM    2  C6  UNL     1       4.542 -12.518  17.839  1.00  0.00     0.009 A 
HETATM    3  C7  UNL     1       5.277 -11.618  17.119  1.00  0.00     0.022 A 
HETATM    4  C8  UNL     1       6.632 -11.349  17.354  1.00  0.00     0.033 A 
HETATM    5  C23 UNL     1       7.240 -12.038  18.368  1.00  0.00     0.051 A 
HETATM    6  C36 UNL     1       6.522 -12.969  19.128  1.00  0.00     0.026 A 
ENDROOT
BRANCH   4   7
HETATM    7  C9  UNL     1       7.327 -10.413  16.509  1.00  0.00    -0.060 C 
HETATM    8  C10 UNL     1       7.962  -9.609  15.830  1.00  0.00    -0.059 C 
BRANCH   8   9
HETATM    9  C11 UNL     1       8.786  -8.662  15.102  1.00  0.00     0.048 A 
HETATM   10  C12 UNL     1      10.157  -8.632  15.435  1.00  0.00     0.043 A 
HETATM   11  C13 UNL     1      11.017  -7.762  14.826  1.00  0.00     0.021 A 
HETATM   12  C17 UNL     1      10.482  -6.927  13.883  1.00  0.00     0.052 A 
HETATM   13  C18 UNL     1       9.143  -6.947  13.551  1.00  0.00     0.063 A 
HETATM   14  N2  UNL     1       8.390  -6.242  12.690  1.00  0.00    -0.350 N 
HETATM   15  C22 UNL     1       8.253  -7.838  14.169  1.00  0.00     0.081 A 
HETATM   16  C19 UNL     1       7.141  -6.656  12.762  1.00  0.00     0.184 A 
ATOM     17  H2  UNL     1       8.732  -5.501  12.077  1.00  0.00     0.166 HD
HETATM   18  N3  UNL     1       7.023  -7.667  13.689  1.00  0.00    -0.338 N 
BRANCH  11  19
HETATM   19  C14 UNL     1      12.433  -7.747  15.174  1.00  0.00    -0.057 C 
HETATM   20  C15 UNL     1      13.606  -7.731  15.437  1.00  0.00    -0.003 C 
BRANCH  20  21
HETATM   21  C16 UNL     1      15.002  -7.709  15.723  1.00  0.00     0.309 C 
HETATM   22  N1  UNL     1      15.903  -8.781  15.567  1.00  0.00    -0.049 NA
HETATM   23  O1  UNL     1      15.523  -6.624  16.166  1.00  0.00    -0.262 OA
ENDBRANCH  20  21
ENDBRANCH  11  19
BRANCH  18  24
HETATM   24  C20 UNL     1       5.775  -8.347  13.933  1.00  0.00     0.156 C 
BRANCH  24  25
HETATM   25  C21 UNL     1       5.667  -9.674  13.241  1.00  0.00     0.184 C 
BRANCH  25  26
HETATM   26  O2  UNL     1       4.530 -10.353  13.586  1.00  0.00    -0.399 OA
ATOM     27  H2  UNL     1       4.711 -11.106  14.135  1.00  0.00     0.209 HD
ENDBRANCH  25  26
ENDBRANCH  24  25
ENDBRANCH  18  24
ENDBRANCH   8   9
ENDBRANCH   4   7
BRANCH   5  28
HETATM   28  C24 UNL     1       8.641 -11.799  18.682  1.00  0.00     0.255 C 
HETATM   29  O3  UNL     1       8.941 -11.026  19.625  1.00  0.00    -0.267 OA
HETATM   30  N4  UNL     1       9.696 -12.423  17.939  1.00  0.00    -0.345 N 
HETATM   31  C25 UNL     1       9.397 -13.308  16.832  1.00  0.00     0.156 C 
HETATM   32  C35 UNL     1      11.073 -12.201  18.299  1.00  0.00     0.156 C 
HETATM   33  C26 UNL     1      10.371 -13.071  15.723  1.00  0.00     0.293 C 
HETATM   34  N5  UNL     1      11.761 -13.030  16.142  1.00  0.00     0.101 N 
HETATM   35  C34 UNL     1      11.971 -11.967  17.113  1.00  0.00     0.293 C 
BRANCH  34  36
HETATM   36  C27 UNL     1      12.630 -12.869  14.982  1.00  0.00     0.159 C 
HETATM   37  C28 UNL     1      14.048 -13.153  15.415  1.00  0.00     0.049 C 
HETATM   38  C29 UNL     1      12.584 -11.414  14.566  1.00  0.00     0.061 C 
HETATM   39  C30 UNL     1      13.579 -11.119  13.459  1.00  0.00     0.128 C 
HETATM   40  N6  UNL     1      13.678 -12.175  12.499  1.00  0.00    -0.356 N 
HETATM   41  C31 UNL     1      14.274 -11.880  11.234  1.00  0.00     0.183 C 
HETATM   42  C32 UNL     1      13.215 -13.523  12.710  1.00  0.00     0.128 C 
HETATM   43  N7  UNL     1      14.352 -10.722  10.709  1.00  0.00    -0.374 N 
HETATM   44  N8  UNL     1      14.831 -12.974  10.494  1.00  0.00    -0.064 NA
ATOM     45  H72 UNL     1      13.956  -9.944  11.235  1.00  0.00     0.158 HD
ATOM     46  H71 UNL     1      14.777 -10.511   9.806  1.00  0.00     0.158 HD
HETATM   47  C33 UNL     1      12.182 -13.662  13.787  1.00  0.00     0.061 C 
ENDBRANCH  34  36
ENDBRANCH   5  28
BRANCH   1  48
HETATM   48  C2  UNL     1       4.356 -14.183  19.599  1.00  0.00    -0.024 C 
HETATM   49  C1  UNL     1       2.895 -13.790  19.573  1.00  0.00     0.019 C 
HETATM   50  C3  UNL     1       4.799 -14.240  21.034  1.00  0.00     0.019 C 
HETATM   51  C4  UNL     1       4.512 -15.579  19.012  1.00  0.00     0.019 C 
ENDBRANCH   1  48
TORSDOF 10
ENDMDL
