MODEL 1
REMARK VINA RESULT: -8.134977646      0.000      0.000
REMARK  5 active torsions:
REMARK  status: ('A' for Active; 'I' for Inactive)
REMARK    1  A    between atoms: N1_1  and  N2_4 
REMARK    2  A    between atoms: N2_4  and  O1_5 
REMARK       I    between atoms: N3_7  and  C1_9 
REMARK       I    between atoms: C1_9  and  N4_11 
REMARK    3  A    between atoms: C3_14  and  C4_15 
REMARK    4  A    between atoms: C3_14  and  C10_21 
REMARK       I    between atoms: N5_29  and  C17_31 
REMARK    5  A    between atoms: C17_31  and  C18_33 
ROOT
HETATM    1  N2  UNL     1       9.670  13.746   0.409  1.00  0.00    -0.098 N 
HETATM    2  N3  UNL     1       9.039  14.832   0.475  1.00  0.00    -0.209 N 
ATOM      3  H3  UNL     1       8.299  14.897   1.174  1.00  0.00     0.196 HD
HETATM    4  C1  UNL     1       9.259  15.951  -0.319  1.00  0.00     0.353 C 
HETATM    5  O2  UNL     1       9.786  15.726  -1.468  1.00  0.00    -0.244 OA
HETATM    6  N4  UNL     1       8.967  17.319   0.003  1.00  0.00    -0.209 N 
HETATM    7  C2  UNL     1       9.265  18.441  -0.823  1.00  0.00     0.263 C 
HETATM    8  O3  UNL     1       9.276  18.325  -2.105  1.00  0.00    -0.270 OA
HETATM    9  C3  UNL     1       9.547  19.682  -0.141  1.00  0.00     0.151 C 
HETATM   10  S1  UNL     1       9.375  19.203   1.638  1.00  0.00    -0.063 SA
HETATM   11  C16 UNL     1       8.346  17.716   1.233  1.00  0.00     0.162 C 
HETATM   12  N5  UNL     1       7.391  17.320   1.915  1.00  0.00    -0.305 N 
ATOM     13  H5  UNL     1       7.287  17.902   2.746  1.00  0.00     0.171 HD
HETATM   14  C17 UNL     1       6.428  16.341   1.902  1.00  0.00     0.247 C 
HETATM   15  O4  UNL     1       5.822  15.981   0.825  1.00  0.00    -0.271 OA
ENDROOT
BRANCH   9  16
HETATM   16  C4  UNL     1       8.546  20.769  -0.299  1.00  0.00    -0.025 A 
HETATM   17  C5  UNL     1       7.224  20.382  -0.468  1.00  0.00     0.009 A 
HETATM   18  C6  UNL     1       6.206  21.294  -0.624  1.00  0.00     0.001 A 
HETATM   19  C7  UNL     1       6.490  22.633  -0.616  1.00  0.00     0.000 A 
HETATM   20  C8  UNL     1       7.797  23.031  -0.449  1.00  0.00     0.001 A 
HETATM   21  C9  UNL     1       8.817  22.101  -0.292  1.00  0.00     0.009 A 
ENDBRANCH   9  16
BRANCH   9  22
HETATM   22  C10 UNL     1      10.881  20.247  -0.387  1.00  0.00    -0.025 A 
HETATM   23  C11 UNL     1      11.814  20.193   0.631  1.00  0.00     0.009 A 
HETATM   24  C12 UNL     1      13.088  20.705   0.479  1.00  0.00     0.001 A 
HETATM   25  C13 UNL     1      13.481  21.293  -0.705  1.00  0.00     0.000 A 
HETATM   26  C14 UNL     1      12.559  21.350  -1.726  1.00  0.00     0.001 A 
HETATM   27  C15 UNL     1      11.276  20.833  -1.565  1.00  0.00     0.009 A 
ENDBRANCH   9  22
BRANCH  14  28
HETATM   28  C18 UNL     1       5.980  15.595   3.129  1.00  0.00     0.189 C 
HETATM   29  C19 UNL     1       5.193  14.407   2.671  1.00  0.00     0.075 C 
HETATM   30  C20 UNL     1       4.905  13.457   3.769  1.00  0.00    -0.032 A 
HETATM   31  C21 UNL     1       5.076  12.101   3.613  1.00  0.00     0.009 A 
HETATM   32  C25 UNL     1       4.456  13.947   4.966  1.00  0.00     0.085 A 
HETATM   33  C22 UNL     1       4.791  11.235   4.675  1.00  0.00     0.001 A 
HETATM   34  C23 UNL     1       4.337  11.760   5.877  1.00  0.00     0.002 A 
HETATM   35  C24 UNL     1       4.164  13.103   6.042  1.00  0.00     0.026 A 
HETATM   36  S2  UNL     1       4.256  15.674   5.117  1.00  0.00     0.260 S 
HETATM   37  O5  UNL     1       4.720  16.092   6.493  1.00  0.00    -0.200 OA
HETATM   38  O6  UNL     1       2.815  16.058   4.946  1.00  0.00    -0.200 OA
HETATM   39  N6  UNL     1       5.253  16.485   3.968  1.00  0.00    -0.301 N 
ATOM     40  H6  UNL     1       5.315  17.500   3.897  1.00  0.00     0.173 HD
ENDBRANCH  14  28
BRANCH   1  41
HETATM   41  N1  UNL     1      10.681  13.605  -0.521  1.00  0.00    -0.303 N 
ATOM     42  H12 UNL     1      10.920  12.675  -0.864  1.00  0.00     0.181 HD
ATOM     43  H11 UNL     1      11.178  14.431  -0.854  1.00  0.00     0.181 HD
ENDBRANCH   1  41
BRANCH   1  44
HETATM   44  O1  UNL     1       9.368  12.707   1.240  1.00  0.00    -0.254 OA
ATOM     45  H1  UNL     1       8.478  12.377   1.277  1.00  0.00     0.248 HD
ENDBRANCH   1  44
TORSDOF 5
ENDMDL
MODEL 2
REMARK VINA RESULT: -8.040516102      2.298      2.822
REMARK  5 active torsions:
REMARK  status: ('A' for Active; 'I' for Inactive)
REMARK    1  A    between atoms: N1_1  and  N2_4 
REMARK    2  A    between atoms: N2_4  and  O1_5 
REMARK       I    between atoms: N3_7  and  C1_9 
REMARK       I    between atoms: C1_9  and  N4_11 
REMARK    3  A    between atoms: C3_14  and  C4_15 
REMARK    4  A    between atoms: C3_14  and  C10_21 
REMARK       I    between atoms: N5_29  and  C17_31 
REMARK    5  A    between atoms: C17_31  and  C18_33 
ROOT
HETATM    1  N2  UNL     1      10.053  14.812  -0.711  1.00  0.00    -0.098 N 
HETATM    2  N3  UNL     1       9.624  15.994  -0.685  1.00  0.00    -0.209 N 
ATOM      3  H3  UNL     1       8.795  16.176  -0.119  1.00  0.00     0.196 HD
HETATM    4  C1  UNL     1      10.179  17.076  -1.360  1.00  0.00     0.353 C 
HETATM    5  O2  UNL     1      10.853  16.792  -2.415  1.00  0.00    -0.244 OA
HETATM    6  N4  UNL     1      10.083  18.465  -1.007  1.00  0.00    -0.209 N 
HETATM    7  C2  UNL     1      10.718  19.536  -1.700  1.00  0.00     0.263 C 
HETATM    8  O3  UNL     1      10.936  19.458  -2.966  1.00  0.00    -0.270 OA
HETATM    9  C3  UNL     1      11.092  20.681  -0.904  1.00  0.00     0.151 C 
HETATM   10  S1  UNL     1      10.523  20.189   0.787  1.00  0.00    -0.063 SA
HETATM   11  C16 UNL     1       9.333  18.933   0.121  1.00  0.00     0.162 C 
HETATM   12  N5  UNL     1       8.218  18.702   0.607  1.00  0.00    -0.305 N 
ATOM     13  H5  UNL     1       8.074  19.269   1.442  1.00  0.00     0.171 HD
HETATM   14  C17 UNL     1       7.114  17.922   0.370  1.00  0.00     0.247 C 
HETATM   15  O4  UNL     1       6.654  17.713  -0.814  1.00  0.00    -0.271 OA
ENDROOT
BRANCH   9  16
HETATM   16  C4  UNL     1      10.344  21.940  -1.162  1.00  0.00    -0.025 A 
HETATM   17  C5  UNL     1       9.048  21.812  -1.639  1.00  0.00     0.009 A 
HETATM   18  C6  UNL     1       8.255  22.902  -1.915  1.00  0.00     0.001 A 
HETATM   19  C7  UNL     1       8.748  24.164  -1.718  1.00  0.00     0.000 A 
HETATM   20  C8  UNL     1      10.033  24.305  -1.245  1.00  0.00     0.001 A 
HETATM   21  C9  UNL     1      10.824  23.197  -0.969  1.00  0.00     0.009 A 
ENDBRANCH   9  16
BRANCH   9  22
HETATM   22  C10 UNL     1      12.527  20.994  -0.885  1.00  0.00    -0.025 A 
HETATM   23  C11 UNL     1      13.194  20.940   0.323  1.00  0.00     0.009 A 
HETATM   24  C12 UNL     1      14.542  21.223   0.424  1.00  0.00     0.001 A 
HETATM   25  C13 UNL     1      15.280  21.573  -0.686  1.00  0.00     0.000 A 
HETATM   26  C14 UNL     1      14.624  21.629  -1.897  1.00  0.00     0.001 A 
HETATM   27  C15 UNL     1      13.265  21.343  -1.990  1.00  0.00     0.009 A 
ENDBRANCH   9  22
BRANCH  14  28
HETATM   28  C18 UNL     1       6.328  17.236   1.455  1.00  0.00     0.189 C 
HETATM   29  C19 UNL     1       5.069  18.018   1.662  1.00  0.00     0.075 C 
HETATM   30  C20 UNL     1       4.096  17.313   2.526  1.00  0.00    -0.032 A 
HETATM   31  C21 UNL     1       2.763  17.235   2.196  1.00  0.00     0.009 A 
HETATM   32  C25 UNL     1       4.540  16.729   3.682  1.00  0.00     0.085 A 
HETATM   33  C22 UNL     1       1.874  16.560   3.041  1.00  0.00     0.001 A 
HETATM   34  C23 UNL     1       2.352  15.977   4.206  1.00  0.00     0.002 A 
HETATM   35  C24 UNL     1       3.673  16.049   4.543  1.00  0.00     0.026 A 
HETATM   36  S2  UNL     1       6.240  16.854   4.058  1.00  0.00     0.260 S 
HETATM   37  O5  UNL     1       6.702  15.537   4.636  1.00  0.00    -0.200 OA
HETATM   38  O6  UNL     1       6.482  17.945   5.061  1.00  0.00    -0.200 OA
HETATM   39  N6  UNL     1       7.143  17.129   2.615  1.00  0.00    -0.301 N 
ATOM     40  H6  UNL     1       8.159  17.207   2.596  1.00  0.00     0.173 HD
ENDBRANCH  14  28
BRANCH   1  41
HETATM   41  N1  UNL     1      11.171  14.513  -1.464  1.00  0.00    -0.303 N 
ATOM     42  H12 UNL     1      11.945  14.008  -1.032  1.00  0.00     0.181 HD
ATOM     43  H11 UNL     1      11.213  14.801  -2.441  1.00  0.00     0.181 HD
ENDBRANCH   1  41
BRANCH   1  44
HETATM   44  O1  UNL     1       9.428  13.823  -0.009  1.00  0.00    -0.254 OA
ATOM     45  H1  UNL     1       8.585  13.498  -0.304  1.00  0.00     0.248 HD
ENDBRANCH   1  44
TORSDOF 5
ENDMDL
MODEL 3
REMARK VINA RESULT: -7.893236072      3.306      9.266
REMARK  5 active torsions:
REMARK  status: ('A' for Active; 'I' for Inactive)
REMARK    1  A    between atoms: N1_1  and  N2_4 
REMARK    2  A    between atoms: N2_4  and  O1_5 
REMARK       I    between atoms: N3_7  and  C1_9 
REMARK       I    between atoms: C1_9  and  N4_11 
REMARK    3  A    between atoms: C3_14  and  C4_15 
REMARK    4  A    between atoms: C3_14  and  C10_21 
REMARK       I    between atoms: N5_29  and  C17_31 
REMARK    5  A    between atoms: C17_31  and  C18_33 
ROOT
HETATM    1  N2  UNL     1       7.630  20.555  -0.108  1.00  0.00    -0.098 N 
HETATM    2  N3  UNL     1       7.901  19.546   0.593  1.00  0.00    -0.209 N 
ATOM      3  H3  UNL     1       8.763  19.577   1.138  1.00  0.00     0.196 HD
HETATM    4  C1  UNL     1       7.131  18.392   0.691  1.00  0.00     0.353 C 
HETATM    5  O2  UNL     1       6.375  18.138  -0.315  1.00  0.00    -0.244 OA
HETATM    6  N4  UNL     1       7.088  17.464   1.785  1.00  0.00    -0.209 N 
HETATM    7  C2  UNL     1       6.239  16.323   1.864  1.00  0.00     0.263 C 
HETATM    8  O3  UNL     1       5.878  15.701   0.797  1.00  0.00    -0.270 OA
HETATM    9  C3  UNL     1       5.820  15.926   3.187  1.00  0.00     0.151 C 
HETATM   10  S1  UNL     1       6.653  17.185   4.259  1.00  0.00    -0.063 SA
HETATM   11  C16 UNL     1       7.904  17.600   2.956  1.00  0.00     0.162 C 
HETATM   12  N5  UNL     1       9.092  17.864   3.188  1.00  0.00    -0.305 N 
ATOM     13  H5  UNL     1       9.263  17.861   4.193  1.00  0.00     0.171 HD
HETATM   14  C17 UNL     1      10.250  18.158   2.513  1.00  0.00     0.247 C 
HETATM   15  O4  UNL     1      10.583  17.567   1.419  1.00  0.00    -0.271 OA
ENDROOT
BRANCH   9  16
HETATM   16  C4  UNL     1       6.360  14.638   3.695  1.00  0.00    -0.025 A 
HETATM   17  C5  UNL     1       7.091  14.685   4.873  1.00  0.00     0.009 A 
HETATM   18  C6  UNL     1       7.641  13.561   5.443  1.00  0.00     0.001 A 
HETATM   19  C7  UNL     1       7.471  12.344   4.838  1.00  0.00     0.000 A 
HETATM   20  C8  UNL     1       6.748  12.282   3.668  1.00  0.00     0.001 A 
HETATM   21  C9  UNL     1       6.197  13.424   3.102  1.00  0.00     0.009 A 
ENDBRANCH   9  16
BRANCH   9  22
HETATM   22  C10 UNL     1       4.369  15.941   3.421  1.00  0.00    -0.025 A 
HETATM   23  C11 UNL     1       3.582  16.727   2.602  1.00  0.00     0.009 A 
HETATM   24  C12 UNL     1       2.211  16.796   2.759  1.00  0.00     0.001 A 
HETATM   25  C13 UNL     1       1.571  16.078   3.747  1.00  0.00     0.000 A 
HETATM   26  C14 UNL     1       2.348  15.291   4.569  1.00  0.00     0.001 A 
HETATM   27  C15 UNL     1       3.729  15.227   4.404  1.00  0.00     0.009 A 
ENDBRANCH   9  22
BRANCH  14  28
HETATM   28  C18 UNL     1      11.246  19.187   2.973  1.00  0.00     0.189 C 
HETATM   29  C19 UNL     1      12.288  19.315   1.907  1.00  0.00     0.075 C 
HETATM   30  C20 UNL     1      13.188  20.470   2.124  1.00  0.00    -0.032 A 
HETATM   31  C21 UNL     1      13.522  21.327   1.101  1.00  0.00     0.009 A 
HETATM   32  C25 UNL     1      13.699  20.683   3.376  1.00  0.00     0.085 A 
HETATM   33  C22 UNL     1      14.377  22.407   1.348  1.00  0.00     0.001 A 
HETATM   34  C23 UNL     1      14.880  22.599   2.627  1.00  0.00     0.002 A 
HETATM   35  C24 UNL     1      14.555  21.754   3.648  1.00  0.00     0.026 A 
HETATM   36  S2  UNL     1      13.246  19.570   4.642  1.00  0.00     0.260 S 
HETATM   37  O5  UNL     1      13.020  20.355   5.913  1.00  0.00    -0.200 OA
HETATM   38  O6  UNL     1      14.333  18.560   4.874  1.00  0.00    -0.200 OA
HETATM   39  N6  UNL     1      11.759  18.797   4.241  1.00  0.00    -0.301 N 
ATOM     40  H6  UNL     1      11.293  18.126   4.852  1.00  0.00     0.173 HD
ENDBRANCH  14  28
BRANCH   1  41
HETATM   41  N1  UNL     1       6.476  20.563  -0.866  1.00  0.00    -0.303 N 
ATOM     42  H12 UNL     1       6.540  20.459  -1.878  1.00  0.00     0.181 HD
ATOM     43  H11 UNL     1       5.572  20.675  -0.407  1.00  0.00     0.181 HD
ENDBRANCH   1  41
BRANCH   1  44
HETATM   44  O1  UNL     1       8.461  21.637  -0.131  1.00  0.00    -0.254 OA
ATOM     45  H1  UNL     1       8.918  21.895   0.661  1.00  0.00     0.248 HD
ENDBRANCH   1  44
TORSDOF 5
ENDMDL
MODEL 4
REMARK VINA RESULT: -7.873563148      2.901      4.447
REMARK  5 active torsions:
REMARK  status: ('A' for Active; 'I' for Inactive)
REMARK    1  A    between atoms: N1_1  and  N2_4 
REMARK    2  A    between atoms: N2_4  and  O1_5 
REMARK       I    between atoms: N3_7  and  C1_9 
REMARK       I    between atoms: C1_9  and  N4_11 
REMARK    3  A    between atoms: C3_14  and  C4_15 
REMARK    4  A    between atoms: C3_14  and  C10_21 
REMARK       I    between atoms: N5_29  and  C17_31 
REMARK    5  A    between atoms: C17_31  and  C18_33 
ROOT
HETATM    1  N2  UNL     1       9.639  19.057   5.683  1.00  0.00    -0.098 N 
HETATM    2  N3  UNL     1       9.625  18.595   4.513  1.00  0.00    -0.209 N 
ATOM      3  H3  UNL     1       8.858  17.969   4.270  1.00  0.00     0.196 HD
HETATM    4  C1  UNL     1      10.563  18.863   3.522  1.00  0.00     0.353 C 
HETATM    5  O2  UNL     1      11.731  19.200   3.933  1.00  0.00    -0.244 OA
HETATM    6  N4  UNL     1      10.368  18.805   2.100  1.00  0.00    -0.209 N 
HETATM    7  C2  UNL     1      11.346  19.144   1.121  1.00  0.00     0.263 C 
HETATM    8  O3  UNL     1      12.598  18.973   1.361  1.00  0.00    -0.270 OA
HETATM    9  C3  UNL     1      10.847  19.681  -0.123  1.00  0.00     0.151 C 
HETATM   10  S1  UNL     1       9.017  19.676   0.150  1.00  0.00    -0.063 SA
HETATM   11  C16 UNL     1       9.129  18.409   1.498  1.00  0.00     0.162 C 
HETATM   12  N5  UNL     1       8.301  17.506   1.678  1.00  0.00    -0.305 N 
ATOM     13  H5  UNL     1       7.536  17.592   1.009  1.00  0.00     0.171 HD
HETATM   14  C17 UNL     1       8.091  16.424   2.497  1.00  0.00     0.247 C 
HETATM   15  O4  UNL     1       9.044  15.639   2.865  1.00  0.00    -0.271 OA
ENDROOT
BRANCH   9  16
HETATM   16  C4  UNL     1      11.013  18.825  -1.327  1.00  0.00    -0.025 A 
HETATM   17  C5  UNL     1       9.869  18.220  -1.828  1.00  0.00     0.009 A 
HETATM   18  C6  UNL     1       9.894  17.407  -2.937  1.00  0.00     0.001 A 
HETATM   19  C7  UNL     1      11.080  17.175  -3.580  1.00  0.00     0.000 A 
HETATM   20  C8  UNL     1      12.223  17.769  -3.094  1.00  0.00     0.001 A 
HETATM   21  C9  UNL     1      12.186  18.589  -1.973  1.00  0.00     0.009 A 
ENDBRANCH   9  16
BRANCH   9  22
HETATM   22  C10 UNL     1      11.307  21.036  -0.455  1.00  0.00    -0.025 A 
HETATM   23  C11 UNL     1      10.432  21.884  -1.106  1.00  0.00     0.009 A 
HETATM   24  C12 UNL     1      10.791  23.172  -1.454  1.00  0.00     0.001 A 
HETATM   25  C13 UNL     1      12.045  23.665  -1.162  1.00  0.00     0.000 A 
HETATM   26  C14 UNL     1      12.924  22.827  -0.512  1.00  0.00     0.001 A 
HETATM   27  C15 UNL     1      12.556  21.530  -0.165  1.00  0.00     0.009 A 
ENDBRANCH   9  22
BRANCH  14  28
HETATM   28  C18 UNL     1       6.744  16.041   3.045  1.00  0.00     0.189 C 
HETATM   29  C19 UNL     1       5.822  17.200   2.828  1.00  0.00     0.075 C 
HETATM   30  C20 UNL     1       4.407  16.861   3.098  1.00  0.00    -0.032 A 
HETATM   31  C21 UNL     1       3.399  17.235   2.239  1.00  0.00     0.009 A 
HETATM   32  C25 UNL     1       4.100  16.160   4.233  1.00  0.00     0.085 A 
HETATM   33  C22 UNL     1       2.073  16.897   2.530  1.00  0.00     0.001 A 
HETATM   34  C23 UNL     1       1.791  16.185   3.687  1.00  0.00     0.002 A 
HETATM   35  C24 UNL     1       2.783  15.809   4.546  1.00  0.00     0.026 A 
HETATM   36  S2  UNL     1       5.411  15.705   5.291  1.00  0.00     0.260 S 
HETATM   37  O5  UNL     1       5.152  14.309   5.805  1.00  0.00    -0.200 OA
HETATM   38  O6  UNL     1       5.504  16.649   6.455  1.00  0.00    -0.200 OA
HETATM   39  N6  UNL     1       6.892  15.664   4.409  1.00  0.00    -0.301 N 
ATOM     40  H6  UNL     1       7.784  15.396   4.823  1.00  0.00     0.173 HD
ENDBRANCH  14  28
BRANCH   1  41
HETATM   41  N1  UNL     1      10.656  19.910   6.063  1.00  0.00    -0.303 N 
ATOM     42  H12 UNL     1      10.427  20.782   6.540  1.00  0.00     0.181 HD
ATOM     43  H11 UNL     1      11.624  19.661   5.863  1.00  0.00     0.181 HD
ENDBRANCH   1  41
BRANCH   1  44
HETATM   44  O1  UNL     1       8.665  18.727   6.580  1.00  0.00    -0.254 OA
ATOM     45  H1  UNL     1       8.906  18.363   7.423  1.00  0.00     0.248 HD
ENDBRANCH   1  44
TORSDOF 5
ENDMDL
MODEL 5
REMARK VINA RESULT: -7.835738834      2.753      9.691
REMARK  5 active torsions:
REMARK  status: ('A' for Active; 'I' for Inactive)
REMARK    1  A    between atoms: N1_1  and  N2_4 
REMARK    2  A    between atoms: N2_4  and  O1_5 
REMARK       I    between atoms: N3_7  and  C1_9 
REMARK       I    between atoms: C1_9  and  N4_11 
REMARK    3  A    between atoms: C3_14  and  C4_15 
REMARK    4  A    between atoms: C3_14  and  C10_21 
REMARK       I    between atoms: N5_29  and  C17_31 
REMARK    5  A    between atoms: C17_31  and  C18_33 
ROOT
HETATM    1  N2  UNL     1       3.115  16.953   2.287  1.00  0.00    -0.098 N 
HETATM    2  N3  UNL     1       4.161  16.304   2.542  1.00  0.00    -0.209 N 
ATOM      3  H3  UNL     1       5.016  16.595   2.067  1.00  0.00     0.196 HD
HETATM    4  C1  UNL     1       4.258  15.226   3.415  1.00  0.00     0.353 C 
HETATM    5  O2  UNL     1       3.177  14.561   3.605  1.00  0.00    -0.244 OA
HETATM    6  N4  UNL     1       5.426  14.780   4.122  1.00  0.00    -0.209 N 
HETATM    7  C2  UNL     1       5.462  13.701   5.052  1.00  0.00     0.263 C 
HETATM    8  O3  UNL     1       4.664  12.700   4.924  1.00  0.00    -0.270 OA
HETATM    9  C3  UNL     1       6.428  13.808   6.120  1.00  0.00     0.151 C 
HETATM   10  S1  UNL     1       7.242  15.429   5.754  1.00  0.00    -0.063 SA
HETATM   11  C16 UNL     1       6.709  15.401   3.979  1.00  0.00     0.162 C 
HETATM   12  N5  UNL     1       7.401  15.810   3.036  1.00  0.00    -0.305 N 
ATOM     13  H5  UNL     1       8.276  16.199   3.385  1.00  0.00     0.171 HD
HETATM   14  C17 UNL     1       7.355  15.901   1.667  1.00  0.00     0.247 C 
HETATM   15  O4  UNL     1       6.878  14.963   0.926  1.00  0.00    -0.271 OA
ENDROOT
BRANCH   9  16
HETATM   16  C4  UNL     1       7.561  12.845   6.088  1.00  0.00    -0.025 A 
HETATM   17  C5  UNL     1       8.682  13.172   6.838  1.00  0.00     0.009 A 
HETATM   18  C6  UNL     1       9.792  12.362   6.890  1.00  0.00     0.001 A 
HETATM   19  C7  UNL     1       9.809  11.190   6.183  1.00  0.00     0.000 A 
HETATM   20  C8  UNL     1       8.703  10.854   5.435  1.00  0.00     0.001 A 
HETATM   21  C9  UNL     1       7.587  11.679   5.390  1.00  0.00     0.009 A 
ENDBRANCH   9  16
BRANCH   9  22
HETATM   22  C10 UNL     1       5.869  13.816   7.478  1.00  0.00    -0.025 A 
HETATM   23  C11 UNL     1       5.642  15.036   8.086  1.00  0.00     0.009 A 
HETATM   24  C12 UNL     1       5.120  15.127   9.362  1.00  0.00     0.001 A 
HETATM   25  C13 UNL     1       4.804  13.995  10.084  1.00  0.00     0.000 A 
HETATM   26  C14 UNL     1       5.026  12.774   9.485  1.00  0.00     0.001 A 
HETATM   27  C15 UNL     1       5.552  12.691   8.199  1.00  0.00     0.009 A 
ENDBRANCH   9  22
BRANCH  14  28
HETATM   28  C18 UNL     1       7.855  17.090   0.893  1.00  0.00     0.189 C 
HETATM   29  C19 UNL     1       6.660  17.816   0.360  1.00  0.00     0.075 C 
HETATM   30  C20 UNL     1       7.003  19.139  -0.210  1.00  0.00    -0.032 A 
HETATM   31  C21 UNL     1       6.262  20.262   0.076  1.00  0.00     0.009 A 
HETATM   32  C25 UNL     1       8.085  19.239  -1.043  1.00  0.00     0.085 A 
HETATM   33  C22 UNL     1       6.619  21.494  -0.483  1.00  0.00     0.001 A 
HETATM   34  C23 UNL     1       7.720  21.566  -1.324  1.00  0.00     0.002 A 
HETATM   35  C24 UNL     1       8.462  20.458  -1.615  1.00  0.00     0.026 A 
HETATM   36  S2  UNL     1       8.996  17.787  -1.375  1.00  0.00     0.260 S 
HETATM   37  O5  UNL     1      10.465  18.137  -1.397  1.00  0.00    -0.200 OA
HETATM   38  O6  UNL     1       8.607  17.211  -2.706  1.00  0.00    -0.200 OA
HETATM   39  N6  UNL     1       8.757  16.640  -0.111  1.00  0.00    -0.301 N 
ATOM     40  H6  UNL     1       9.215  15.730  -0.085  1.00  0.00     0.173 HD
ENDBRANCH  14  28
BRANCH   1  41
HETATM   41  N1  UNL     1       1.931  16.599   2.904  1.00  0.00    -0.303 N 
ATOM     42  H12 UNL     1       1.095  17.162   2.745  1.00  0.00     0.181 HD
ATOM     43  H11 UNL     1       1.904  15.781   3.512  1.00  0.00     0.181 HD
ENDBRANCH   1  41
BRANCH   1  44
HETATM   44  O1  UNL     1       3.132  17.997   1.410  1.00  0.00    -0.254 OA
ATOM     45  H1  UNL     1       3.804  18.665   1.487  1.00  0.00     0.248 HD
ENDBRANCH   1  44
TORSDOF 5
ENDMDL
