MODEL 1
REMARK VINA RESULT: -3.942868609      0.000      0.000
REMARK  4 active torsions:
REMARK  status: ('A' for Active; 'I' for Inactive)
REMARK    1  A    between atoms: N1_2  and  N2_4 
REMARK    2  A    between atoms: N3_6  and  C2_8 
REMARK    3  A    between atoms: C2_8  and  O2_13 
REMARK    4  A    between atoms: N4_9  and  O1_11 
ROOT
HETATM    1  N2  UNL     1       0.392   9.350   5.015  1.00  0.00    -0.244 N 
ATOM      2  H2  UNL     1       0.986  10.079   4.619  1.00  0.00     0.208 HD
HETATM    3  N3  UNL     1      -0.833   9.581   5.176  1.00  0.00    -0.249 N 
ATOM      4  H3  UNL     1      -1.455   8.874   5.570  1.00  0.00     0.192 HD
ENDROOT
BRANCH   3   5
HETATM    5  C2  UNL     1      -1.322  10.857   4.791  1.00  0.00     0.259 C 
HETATM    6  N4  UNL     1      -0.758  11.910   5.243  1.00  0.00    -0.231 N 
ATOM      7  H4  UNL     1      -1.140  12.807   4.944  1.00  0.00     0.198 HD
BRANCH   6   8
HETATM    8  O1  UNL     1       0.300  11.940   6.083  1.00  0.00    -0.287 OA
ATOM      9  H1  UNL     1       0.484  11.308   6.767  1.00  0.00     0.244 HD
ENDBRANCH   6   8
BRANCH   5  10
HETATM   10  O2  UNL     1      -2.406  10.934   3.931  1.00  0.00    -0.325 OA
HETATM   11  C3  UNL     1      -3.235  12.074   4.069  1.00  0.00     0.213 C 
ENDBRANCH   5  10
ENDBRANCH   3   5
BRANCH   1  12
HETATM   12  N1  UNL     1       0.966   8.122   5.365  1.00  0.00    -0.326 N 
HETATM   13  C1  UNL     1       1.222   7.854   6.750  1.00  0.00     0.169 C 
ATOM     14  H1  UNL     1       1.196   7.432   4.650  1.00  0.00     0.181 HD
ENDBRANCH   1  12
TORSDOF 4
ENDMDL
MODEL 2
REMARK VINA RESULT: -3.898463976      2.262      3.985
REMARK  4 active torsions:
REMARK  status: ('A' for Active; 'I' for Inactive)
REMARK    1  A    between atoms: N1_2  and  N2_4 
REMARK    2  A    between atoms: N3_6  and  C2_8 
REMARK    3  A    between atoms: C2_8  and  O2_13 
REMARK    4  A    between atoms: N4_9  and  O1_11 
ROOT
HETATM    1  N2  UNL     1      -1.263  12.803   7.279  1.00  0.00    -0.244 N 
ATOM      2  H2  UNL     1      -0.829  12.004   7.743  1.00  0.00     0.208 HD
HETATM    3  N3  UNL     1      -1.550  12.718   6.059  1.00  0.00    -0.249 N 
ATOM      4  H3  UNL     1      -1.984  13.498   5.563  1.00  0.00     0.192 HD
ENDROOT
BRANCH   3   5
HETATM    5  C2  UNL     1      -1.249  11.501   5.391  1.00  0.00     0.259 C 
HETATM    6  N4  UNL     1      -0.053  11.056   5.403  1.00  0.00    -0.231 N 
ATOM      7  H4  UNL     1       0.122  10.179   4.912  1.00  0.00     0.198 HD
BRANCH   6   8
HETATM    8  O1  UNL     1       1.003  11.643   6.009  1.00  0.00    -0.287 OA
ATOM      9  H1  UNL     1       1.899  11.330   5.988  1.00  0.00     0.244 HD
ENDBRANCH   6   8
BRANCH   5  10
HETATM   10  O2  UNL     1      -2.264  10.820   4.737  1.00  0.00    -0.325 OA
HETATM   11  C3  UNL     1      -3.137  11.606   3.945  1.00  0.00     0.213 C 
ENDBRANCH   5  10
ENDBRANCH   3   5
BRANCH   1  12
HETATM   12  N1  UNL     1      -1.521  13.962   8.021  1.00  0.00    -0.326 N 
HETATM   13  C1  UNL     1      -2.886  14.325   8.273  1.00  0.00     0.169 C 
ATOM     14  H1  UNL     1      -0.756  14.536   8.374  1.00  0.00     0.181 HD
ENDBRANCH   1  12
TORSDOF 4
ENDMDL
MODEL 3
REMARK VINA RESULT: -3.895182340      1.903      2.579
REMARK  4 active torsions:
REMARK  status: ('A' for Active; 'I' for Inactive)
REMARK    1  A    between atoms: N1_2  and  N2_4 
REMARK    2  A    between atoms: N3_6  and  C2_8 
REMARK    3  A    between atoms: C2_8  and  O2_13 
REMARK    4  A    between atoms: N4_9  and  O1_11 
ROOT
HETATM    1  N2  UNL     1      -0.163  10.768   5.488  1.00  0.00    -0.244 N 
ATOM      2  H2  UNL     1       0.043  11.455   6.213  1.00  0.00     0.208 HD
HETATM    3  N3  UNL     1      -1.225  10.881   4.826  1.00  0.00    -0.249 N 
ATOM      4  H3  UNL     1      -1.464  10.212   4.093  1.00  0.00     0.192 HD
ENDROOT
BRANCH   3   5
HETATM    5  C2  UNL     1      -2.083  11.970   5.131  1.00  0.00     0.259 C 
HETATM    6  N4  UNL     1      -3.048  12.253   4.343  1.00  0.00    -0.231 N 
ATOM      7  H4  UNL     1      -3.640  13.043   4.597  1.00  0.00     0.198 HD
BRANCH   6   8
HETATM    8  O1  UNL     1      -3.352  11.597   3.201  1.00  0.00    -0.287 OA
ATOM      9  H1  UNL     1      -2.983  11.775   2.344  1.00  0.00     0.244 HD
ENDBRANCH   6   8
BRANCH   5  10
HETATM   10  O2  UNL     1      -1.855  12.709   6.282  1.00  0.00    -0.325 OA
HETATM   11  C3  UNL     1      -3.005  13.126   6.997  1.00  0.00     0.213 C 
ENDBRANCH   5  10
ENDBRANCH   3   5
BRANCH   1  12
HETATM   12  N1  UNL     1       0.744   9.727   5.258  1.00  0.00    -0.326 N 
HETATM   13  C1  UNL     1       0.233   8.402   5.063  1.00  0.00     0.169 C 
ATOM     14  H1  UNL     1       1.748   9.908   5.230  1.00  0.00     0.181 HD
ENDBRANCH   1  12
TORSDOF 4
ENDMDL
MODEL 4
REMARK VINA RESULT: -3.869810949      2.287      4.122
REMARK  4 active torsions:
REMARK  status: ('A' for Active; 'I' for Inactive)
REMARK    1  A    between atoms: N1_2  and  N2_4 
REMARK    2  A    between atoms: N3_6  and  C2_8 
REMARK    3  A    between atoms: C2_8  and  O2_13 
REMARK    4  A    between atoms: N4_9  and  O1_11 
ROOT
HETATM    1  N2  UNL     1      -1.161  12.748   7.224  1.00  0.00    -0.244 N 
ATOM      2  H2  UNL     1      -0.694  12.061   7.816  1.00  0.00     0.208 HD
HETATM    3  N3  UNL     1      -1.390  12.462   6.022  1.00  0.00    -0.249 N 
ATOM      4  H3  UNL     1      -1.854  13.125   5.401  1.00  0.00     0.192 HD
ENDROOT
BRANCH   3   5
HETATM    5  C2  UNL     1      -0.982  11.184   5.556  1.00  0.00     0.259 C 
HETATM    6  N4  UNL     1       0.261  10.891   5.529  1.00  0.00    -0.231 N 
ATOM      7  H4  UNL     1       0.513   9.964   5.188  1.00  0.00     0.198 HD
BRANCH   6   8
HETATM    8  O1  UNL     1       1.272  11.701   5.914  1.00  0.00    -0.287 OA
ATOM      9  H1  UNL     1       2.182  11.447   6.005  1.00  0.00     0.244 HD
ENDBRANCH   6   8
BRANCH   5  10
HETATM   10  O2  UNL     1      -1.944  10.277   5.138  1.00  0.00    -0.325 OA
HETATM   11  C3  UNL     1      -1.466   9.035   4.653  1.00  0.00     0.213 C 
ENDBRANCH   5  10
ENDBRANCH   3   5
BRANCH   1  12
HETATM   12  N1  UNL     1      -1.526  13.983   7.772  1.00  0.00    -0.326 N 
HETATM   13  C1  UNL     1      -2.918  14.251   7.993  1.00  0.00     0.169 C 
ATOM     14  H1  UNL     1      -0.819  14.677   8.010  1.00  0.00     0.181 HD
ENDBRANCH   1  12
TORSDOF 4
ENDMDL
MODEL 5
REMARK VINA RESULT: -3.867577771      2.724      3.425
REMARK  4 active torsions:
REMARK  status: ('A' for Active; 'I' for Inactive)
REMARK    1  A    between atoms: N1_2  and  N2_4 
REMARK    2  A    between atoms: N3_6  and  C2_8 
REMARK    3  A    between atoms: C2_8  and  O2_13 
REMARK    4  A    between atoms: N4_9  and  O1_11 
ROOT
HETATM    1  N2  UNL     1      -0.994  12.213   5.282  1.00  0.00    -0.244 N 
ATOM      2  H2  UNL     1      -1.003  12.893   4.522  1.00  0.00     0.208 HD
HETATM    3  N3  UNL     1      -2.083  11.868   5.806  1.00  0.00    -0.249 N 
ATOM      4  H3  UNL     1      -2.111  11.191   6.569  1.00  0.00     0.192 HD
ENDROOT
BRANCH   3   5
HETATM    5  C2  UNL     1      -3.274  12.452   5.300  1.00  0.00     0.259 C 
HETATM    6  N4  UNL     1      -3.668  12.160   4.121  1.00  0.00    -0.231 N 
ATOM      7  H4  UNL     1      -4.528  12.601   3.795  1.00  0.00     0.198 HD
BRANCH   6   8
HETATM    8  O1  UNL     1      -3.045  11.317   3.267  1.00  0.00    -0.287 OA
ATOM      9  H1  UNL     1      -2.169  10.968   3.373  1.00  0.00     0.244 HD
ENDBRANCH   6   8
BRANCH   5  10
HETATM   10  O2  UNL     1      -3.988  13.332   6.099  1.00  0.00    -0.325 OA
HETATM   11  C3  UNL     1      -3.483  13.544   7.405  1.00  0.00     0.213 C 
ENDBRANCH   5  10
ENDBRANCH   3   5
BRANCH   1  12
HETATM   12  N1  UNL     1       0.232  11.691   5.713  1.00  0.00    -0.326 N 
HETATM   13  C1  UNL     1       0.358  11.275   7.080  1.00  0.00     0.169 C 
ATOM     14  H1  UNL     1       1.018  11.609   5.069  1.00  0.00     0.181 HD
ENDBRANCH   1  12
TORSDOF 4
ENDMDL
