MODEL 1
REMARK VINA RESULT: -7.247995723      0.000      0.000
REMARK  4 active torsions:
REMARK  status: ('A' for Active; 'I' for Inactive)
REMARK    1  A    between atoms: C5_5  and  C6_6 
REMARK    2  A    between atoms: C5_5  and  N5_17 
REMARK    3  A    between atoms: C6_6  and  N1_7 
REMARK    4  A    between atoms: C8_11  and  N3_12 
ROOT
HETATM    1  C1  UNL     1      -1.002  -0.031  79.797  1.00  0.00     0.010 C 
HETATM    2  C2  UNL     1      -0.917   0.591  81.158  1.00  0.00    -0.019 C 
HETATM    3  C3  UNL     1      -2.114   1.513  81.397  1.00  0.00     0.007 C 
HETATM    4  C4  UNL     1      -1.595   2.950  81.236  1.00  0.00     0.044 C 
HETATM    5  C5  UNL     1      -0.843   3.236  82.550  1.00  0.00     0.179 C 
HETATM    6  C15 UNL     1       0.194   2.143  82.669  1.00  0.00     0.044 C 
HETATM    7  C16 UNL     1       0.366   1.341  81.393  1.00  0.00     0.007 C 
ENDROOT
BRANCH   5   8
HETATM    8  C6  UNL     1      -0.163   4.569  82.493  1.00  0.00     0.211 C 
BRANCH   8   9
HETATM    9  N1  UNL     1       1.112   4.566  81.805  1.00  0.00    -0.230 N 
HETATM   10  N2  UNL     1       1.297   4.766  80.497  1.00  0.00    -0.292 N 
HETATM   11  C7  UNL     1       2.590   4.713  80.171  1.00  0.00     0.158 A 
ATOM     12  H2  UNL     1       0.544   4.938  79.831  1.00  0.00     0.188 HD
HETATM   13  C8  UNL     1       3.267   4.466  81.326  1.00  0.00     0.132 A 
HETATM   14  N4  UNL     1       2.325   4.384  82.294  1.00  0.00    -0.268 N 
ATOM     15  H4  UNL     1       2.526   4.205  83.279  1.00  0.00     0.190 HD
BRANCH  13  16
HETATM   16  N3  UNL     1       4.554   4.339  81.451  1.00  0.00    -0.383 N 
ATOM     17  H32 UNL     1       5.065   3.754  82.112  1.00  0.00     0.157 HD
ATOM     18  H31 UNL     1       5.265   4.816  80.896  1.00  0.00     0.157 HD
ENDBRANCH  13  16
ENDBRANCH   8   9
ENDBRANCH   5   8
BRANCH   5  19
HETATM   19  N5  UNL     1      -1.719   3.117  83.666  1.00  0.00     0.105 N 
HETATM   20  C9  UNL     1      -2.215   4.337  84.228  1.00  0.00     0.280 C 
HETATM   21  C10 UNL     1      -3.329   4.027  85.172  1.00  0.00     0.089 C 
HETATM   22  C11 UNL     1      -3.199   2.784  85.932  1.00  0.00     0.036 A 
HETATM   23  N6  UNL     1      -3.993   2.227  86.889  1.00  0.00    -0.354 N 
HETATM   24  C13 UNL     1      -2.137   1.952  85.733  1.00  0.00     0.061 A 
HETATM   25  C12 UNL     1      -3.396   1.080  87.245  1.00  0.00     0.180 A 
ATOM     26  H6  UNL     1      -4.864   2.606  87.261  1.00  0.00     0.166 HD
HETATM   27  N7  UNL     1      -2.264   0.914  86.536  1.00  0.00    -0.353 N 
ATOM     28  H7  UNL     1      -1.619   0.126  86.608  1.00  0.00     0.166 HD
HETATM   29  C14 UNL     1      -1.111   2.357  84.714  1.00  0.00     0.332 C 
ENDBRANCH   5  19
TORSDOF 4
ENDMDL
MODEL 2
REMARK VINA RESULT: -7.151356663      1.813      3.558
REMARK  4 active torsions:
REMARK  status: ('A' for Active; 'I' for Inactive)
REMARK    1  A    between atoms: C5_5  and  C6_6 
REMARK    2  A    between atoms: C5_5  and  N5_17 
REMARK    3  A    between atoms: C6_6  and  N1_7 
REMARK    4  A    between atoms: C8_11  and  N3_12 
ROOT
HETATM    1  C1  UNL     1       0.784   7.634  84.292  1.00  0.00     0.010 C 
HETATM    2  C2  UNL     1      -0.225   6.526  84.283  1.00  0.00    -0.019 C 
HETATM    3  C3  UNL     1       0.461   5.180  84.523  1.00  0.00     0.007 C 
HETATM    4  C4  UNL     1       0.532   4.477  83.158  1.00  0.00     0.044 C 
HETATM    5  C5  UNL     1      -0.896   3.948  82.926  1.00  0.00     0.179 C 
HETATM    6  C15 UNL     1      -1.798   5.156  83.028  1.00  0.00     0.044 C 
HETATM    7  C16 UNL     1      -1.041   6.469  83.020  1.00  0.00     0.007 C 
ENDROOT
BRANCH   5   8
HETATM    8  C6  UNL     1      -1.021   3.342  81.561  1.00  0.00     0.211 C 
BRANCH   8   9
HETATM    9  N1  UNL     1      -0.098   3.874  80.579  1.00  0.00    -0.230 N 
HETATM   10  N2  UNL     1      -0.311   4.937  79.798  1.00  0.00    -0.292 N 
HETATM   11  C7  UNL     1       0.736   5.180  79.007  1.00  0.00     0.158 A 
ATOM     12  H2  UNL     1      -1.166   5.493  79.807  1.00  0.00     0.188 HD
HETATM   13  C8  UNL     1       1.664   4.227  79.293  1.00  0.00     0.132 A 
HETATM   14  N4  UNL     1       1.111   3.453  80.257  1.00  0.00    -0.268 N 
ATOM     15  H4  UNL     1       1.571   2.647  80.681  1.00  0.00     0.190 HD
BRANCH  13  16
HETATM   16  N3  UNL     1       2.835   4.103  78.743  1.00  0.00    -0.383 N 
ATOM     17  H32 UNL     1       3.737   3.996  79.206  1.00  0.00     0.157 HD
ATOM     18  H31 UNL     1       3.034   4.094  77.742  1.00  0.00     0.157 HD
ENDBRANCH  13  16
ENDBRANCH   8   9
ENDBRANCH   5   8
BRANCH   5  19
HETATM   19  N5  UNL     1      -1.272   3.044  83.960  1.00  0.00     0.105 N 
HETATM   20  C9  UNL     1      -1.203   1.648  83.651  1.00  0.00     0.280 C 
HETATM   21  C10 UNL     1      -1.335   0.859  84.911  1.00  0.00     0.089 C 
HETATM   22  C11 UNL     1      -2.227   1.417  85.928  1.00  0.00     0.036 A 
HETATM   23  N6  UNL     1      -2.604   0.948  87.151  1.00  0.00    -0.354 N 
HETATM   24  C13 UNL     1      -2.849   2.614  85.730  1.00  0.00     0.061 A 
HETATM   25  C12 UNL     1      -3.439   1.866  87.659  1.00  0.00     0.180 A 
ATOM     26  H6  UNL     1      -2.311   0.076  87.590  1.00  0.00     0.166 HD
HETATM   27  N7  UNL     1      -3.586   2.884  86.790  1.00  0.00    -0.353 N 
ATOM     28  H7  UNL     1      -4.163   3.713  86.926  1.00  0.00     0.166 HD
HETATM   29  C14 UNL     1      -2.588   3.333  84.437  1.00  0.00     0.332 C 
ENDBRANCH   5  19
TORSDOF 4
ENDMDL
MODEL 3
REMARK VINA RESULT: -7.133381733      1.831      3.642
REMARK  4 active torsions:
REMARK  status: ('A' for Active; 'I' for Inactive)
REMARK    1  A    between atoms: C5_5  and  C6_6 
REMARK    2  A    between atoms: C5_5  and  N5_17 
REMARK    3  A    between atoms: C6_6  and  N1_7 
REMARK    4  A    between atoms: C8_11  and  N3_12 
ROOT
HETATM    1  C1  UNL     1       0.543   7.854  84.233  1.00  0.00     0.010 C 
HETATM    2  C2  UNL     1      -0.437   6.722  84.301  1.00  0.00    -0.019 C 
HETATM    3  C3  UNL     1       0.279   5.419  84.658  1.00  0.00     0.007 C 
HETATM    4  C4  UNL     1       0.387   4.610  83.356  1.00  0.00     0.044 C 
HETATM    5  C5  UNL     1      -1.023   4.026  83.149  1.00  0.00     0.179 C 
HETATM    6  C15 UNL     1      -1.957   5.215  83.142  1.00  0.00     0.044 C 
HETATM    7  C16 UNL     1      -1.233   6.543  83.036  1.00  0.00     0.007 C 
ENDROOT
BRANCH   5   8
HETATM    8  C6  UNL     1      -1.114   3.309  81.837  1.00  0.00     0.211 C 
BRANCH   8   9
HETATM    9  N1  UNL     1       0.135   3.228  81.107  1.00  0.00    -0.230 N 
HETATM   10  N2  UNL     1       1.082   2.302  81.276  1.00  0.00    -0.292 N 
HETATM   11  C7  UNL     1       2.108   2.494  80.444  1.00  0.00     0.158 A 
ATOM     12  H2  UNL     1       1.028   1.542  81.955  1.00  0.00     0.188 HD
HETATM   13  C8  UNL     1       1.804   3.597  79.707  1.00  0.00     0.132 A 
HETATM   14  N4  UNL     1       0.593   4.010  80.147  1.00  0.00    -0.268 N 
ATOM     15  H4  UNL     1       0.096   4.823  79.782  1.00  0.00     0.190 HD
BRANCH  13  16
HETATM   16  N3  UNL     1       2.541   4.128  78.777  1.00  0.00    -0.383 N 
ATOM     17  H32 UNL     1       3.481   3.856  78.491  1.00  0.00     0.157 HD
ATOM     18  H31 UNL     1       2.285   4.914  78.179  1.00  0.00     0.157 HD
ENDBRANCH  13  16
ENDBRANCH   8   9
ENDBRANCH   5   8
BRANCH   5  19
HETATM   19  N5  UNL     1      -1.391   3.200  84.248  1.00  0.00     0.105 N 
HETATM   20  C9  UNL     1      -1.156   1.795  84.105  1.00  0.00     0.280 C 
HETATM   21  C10 UNL     1      -1.314   1.132  85.433  1.00  0.00     0.089 C 
HETATM   22  C11 UNL     1      -2.340   1.692  86.313  1.00  0.00     0.036 A 
HETATM   23  N6  UNL     1      -2.768   1.315  87.551  1.00  0.00    -0.354 N 
HETATM   24  C13 UNL     1      -3.060   2.787  85.937  1.00  0.00     0.061 A 
HETATM   25  C12 UNL     1      -3.731   2.184  87.891  1.00  0.00     0.180 A 
ATOM     26  H6  UNL     1      -2.426   0.531  88.106  1.00  0.00     0.166 HD
HETATM   27  N7  UNL     1      -3.906   3.083  86.904  1.00  0.00    -0.353 N 
ATOM     28  H7  UNL     1      -4.574   3.854  86.904  1.00  0.00     0.166 HD
HETATM   29  C14 UNL     1      -2.766   3.391  84.594  1.00  0.00     0.332 C 
ENDBRANCH   5  19
TORSDOF 4
ENDMDL
MODEL 4
REMARK VINA RESULT: -6.935942403      2.531      5.395
REMARK  4 active torsions:
REMARK  status: ('A' for Active; 'I' for Inactive)
REMARK    1  A    between atoms: C5_5  and  C6_6 
REMARK    2  A    between atoms: C5_5  and  N5_17 
REMARK    3  A    between atoms: C6_6  and  N1_7 
REMARK    4  A    between atoms: C8_11  and  N3_12 
ROOT
HETATM    1  C1  UNL     1      -3.042   2.236  87.375  1.00  0.00     0.010 C 
HETATM    2  C2  UNL     1      -2.812   2.435  85.907  1.00  0.00    -0.019 C 
HETATM    3  C3  UNL     1      -1.354   2.141  85.552  1.00  0.00     0.007 C 
HETATM    4  C4  UNL     1      -0.671   3.503  85.353  1.00  0.00     0.044 C 
HETATM    5  C5  UNL     1      -1.138   3.966  83.960  1.00  0.00     0.179 C 
HETATM    6  C15 UNL     1      -2.649   3.958  84.016  1.00  0.00     0.044 C 
HETATM    7  C16 UNL     1      -3.194   3.807  85.422  1.00  0.00     0.007 C 
ENDROOT
BRANCH   5   8
HETATM    8  C6  UNL     1      -0.654   5.354  83.672  1.00  0.00     0.211 C 
BRANCH   8   9
HETATM    9  N1  UNL     1      -1.452   6.082  82.707  1.00  0.00    -0.230 N 
HETATM   10  N2  UNL     1      -1.174   6.224  81.408  1.00  0.00    -0.292 N 
HETATM   11  C7  UNL     1      -2.110   6.942  80.783  1.00  0.00     0.158 A 
ATOM     12  H2  UNL     1      -0.350   5.833  80.951  1.00  0.00     0.188 HD
HETATM   13  C8  UNL     1      -3.032   7.276  81.727  1.00  0.00     0.132 A 
HETATM   14  N4  UNL     1      -2.588   6.730  82.884  1.00  0.00    -0.268 N 
ATOM     15  H4  UNL     1      -3.071   6.810  83.779  1.00  0.00     0.190 HD
BRANCH  13  16
HETATM   16  N3  UNL     1      -4.110   7.976  81.536  1.00  0.00    -0.383 N 
ATOM     17  H32 UNL     1      -4.358   8.535  80.719  1.00  0.00     0.157 HD
ATOM     18  H31 UNL     1      -4.889   8.076  82.187  1.00  0.00     0.157 HD
ENDBRANCH  13  16
ENDBRANCH   8   9
ENDBRANCH   5   8
BRANCH   5  19
HETATM   19  N5  UNL     1      -0.743   3.031  82.961  1.00  0.00     0.105 N 
HETATM   20  C9  UNL     1       0.450   3.337  82.230  1.00  0.00     0.280 C 
HETATM   21  C10 UNL     1       0.874   2.134  81.455  1.00  0.00     0.089 C 
HETATM   22  C11 UNL     1      -0.205   1.298  80.926  1.00  0.00     0.036 A 
HETATM   23  N6  UNL     1      -0.178   0.174  80.157  1.00  0.00    -0.354 N 
HETATM   24  C13 UNL     1      -1.509   1.597  81.184  1.00  0.00     0.061 A 
HETATM   25  C12 UNL     1      -1.458  -0.178  79.968  1.00  0.00     0.180 A 
ATOM     26  H6  UNL     1       0.649  -0.304  79.797  1.00  0.00     0.166 HD
HETATM   27  N7  UNL     1      -2.270   0.693  80.598  1.00  0.00    -0.353 N 
ATOM     28  H7  UNL     1      -3.289   0.659  80.617  1.00  0.00     0.166 HD
HETATM   29  C14 UNL     1      -1.798   2.809  82.023  1.00  0.00     0.332 C 
ENDBRANCH   5  19
TORSDOF 4
ENDMDL
MODEL 5
REMARK VINA RESULT: -6.917403792      1.230      1.510
REMARK  4 active torsions:
REMARK  status: ('A' for Active; 'I' for Inactive)
REMARK    1  A    between atoms: C5_5  and  C6_6 
REMARK    2  A    between atoms: C5_5  and  N5_17 
REMARK    3  A    between atoms: C6_6  and  N1_7 
REMARK    4  A    between atoms: C8_11  and  N3_12 
ROOT
HETATM    1  C1  UNL     1      -0.268  -0.093  80.222  1.00  0.00     0.010 C 
HETATM    2  C2  UNL     1      -0.393   0.745  81.458  1.00  0.00    -0.019 C 
HETATM    3  C3  UNL     1      -1.854   1.130  81.695  1.00  0.00     0.007 C 
HETATM    4  C4  UNL     1      -1.991   2.600  81.267  1.00  0.00     0.044 C 
HETATM    5  C5  UNL     1      -1.373   3.397  82.432  1.00  0.00     0.179 C 
HETATM    6  C15 UNL     1       0.031   2.858  82.591  1.00  0.00     0.044 C 
HETATM    7  C16 UNL     1       0.468   1.979  81.435  1.00  0.00     0.007 C 
ENDROOT
BRANCH   5   8
HETATM    8  C6  UNL     1      -1.315   4.857  82.104  1.00  0.00     0.211 C 
BRANCH   8   9
HETATM    9  N1  UNL     1      -0.046   5.491  82.400  1.00  0.00    -0.230 N 
HETATM   10  N2  UNL     1       0.290   6.069  83.557  1.00  0.00    -0.292 N 
HETATM   11  C7  UNL     1       1.533   6.553  83.519  1.00  0.00     0.158 A 
ATOM     12  H2  UNL     1      -0.326   6.131  84.367  1.00  0.00     0.188 HD
HETATM   13  C8  UNL     1       2.017   6.272  82.278  1.00  0.00     0.132 A 
HETATM   14  N4  UNL     1       1.020   5.625  81.632  1.00  0.00    -0.268 N 
ATOM     15  H4  UNL     1       1.083   5.284  80.672  1.00  0.00     0.190 HD
BRANCH  13  16
HETATM   16  N3  UNL     1       3.199   6.573  81.827  1.00  0.00    -0.383 N 
ATOM     17  H32 UNL     1       3.496   7.438  81.376  1.00  0.00     0.157 HD
ATOM     18  H31 UNL     1       4.026   5.977  81.856  1.00  0.00     0.157 HD
ENDBRANCH  13  16
ENDBRANCH   8   9
ENDBRANCH   5   8
BRANCH   5  19
HETATM   19  N5  UNL     1      -2.070   3.138  83.645  1.00  0.00     0.105 N 
HETATM   20  C9  UNL     1      -2.647   4.267  84.310  1.00  0.00     0.280 C 
HETATM   21  C10 UNL     1      -3.576   3.789  85.376  1.00  0.00     0.089 C 
HETATM   22  C11 UNL     1      -3.183   2.560  86.067  1.00  0.00     0.036 A 
HETATM   23  N6  UNL     1      -3.763   1.881  87.096  1.00  0.00    -0.354 N 
HETATM   24  C13 UNL     1      -2.055   1.886  85.704  1.00  0.00     0.061 A 
HETATM   25  C12 UNL     1      -2.977   0.820  87.330  1.00  0.00     0.180 A 
ATOM     26  H6  UNL     1      -4.620   2.129  87.589  1.00  0.00     0.166 HD
HETATM   27  N7  UNL     1      -1.935   0.824  86.477  1.00  0.00    -0.353 N 
ATOM     28  H7  UNL     1      -1.187   0.131  86.437  1.00  0.00     0.166 HD
HETATM   29  C14 UNL     1      -1.235   2.447  84.578  1.00  0.00     0.332 C 
ENDBRANCH   5  19
TORSDOF 4
ENDMDL
