MODEL 1
REMARK VINA RESULT: -7.466392319      0.000      0.000
REMARK  6 active torsions:
REMARK  status: ('A' for Active; 'I' for Inactive)
REMARK    1  A    between atoms: C2_2  and  C3_3 
REMARK    2  A    between atoms: C9_9  and  O1_10 
REMARK    3  A    between atoms: O1_10  and  C10_11 
REMARK    4  A    between atoms: C10_11  and  C11_13 
REMARK    5  A    between atoms: C11_13  and  N1_14 
REMARK    6  A    between atoms: C16_23  and  O3_24 
ROOT
HETATM    1  C3  UNL     1       0.588   5.184  82.793  1.00  0.00     0.004 C 
HETATM    2  C4  UNL     1       1.521   5.059  83.975  1.00  0.00     0.022 C 
HETATM    3  C5  UNL     1      -0.400   6.243  82.834  1.00  0.00     0.001 C 
HETATM    4  C6  UNL     1      -0.997   6.755  84.147  1.00  0.00     0.011 C 
HETATM    5  C7  UNL     1      -1.814   5.729  84.683  1.00  0.00    -0.007 C 
HETATM    6  C8  UNL     1      -3.015   5.592  85.446  1.00  0.00     0.037 C 
HETATM    7  C9  UNL     1      -3.486   4.133  85.379  1.00  0.00     0.132 C 
HETATM    8  C12 UNL     1      -2.611   3.103  84.744  1.00  0.00     0.039 C 
HETATM    9  C13 UNL     1      -1.543   3.634  83.855  1.00  0.00     0.013 C 
HETATM   10  C14 UNL     1      -0.883   3.005  82.780  1.00  0.00     0.127 C 
HETATM   11  C15 UNL     1      -1.851   2.542  81.748  1.00  0.00     0.067 C 
HETATM   12  N2  UNL     1      -2.607   2.201  80.937  1.00  0.00    -0.197 NA
HETATM   13  C16 UNL     1       0.202   3.837  82.237  1.00  0.00     0.148 C 
HETATM   14  C17 UNL     1      -2.125   4.914  83.440  1.00  0.00    -0.004 C 
HETATM   15  C18 UNL     1      -1.663   5.645  82.256  1.00  0.00     0.011 C 
ENDROOT
BRANCH  13  16
HETATM   16  O3  UNL     1       1.434   3.116  82.262  1.00  0.00    -0.393 OA
ATOM     17  H3  UNL     1       1.285   2.464  82.936  1.00  0.00     0.210 HD
ENDBRANCH  13  16
BRANCH   1  18
HETATM   18  C2  UNL     1       1.539   5.653  81.701  1.00  0.00    -0.025 C 
HETATM   19  C1  UNL     1       2.483   6.546  81.969  1.00  0.00     0.008 C 
ENDBRANCH   1  18
BRANCH   7  20
HETATM   20  O1  UNL     1      -3.842   3.667  86.685  1.00  0.00    -0.315 OA
BRANCH  20  21
HETATM   21  C10 UNL     1      -3.852   2.344  87.054  1.00  0.00     0.284 C 
HETATM   22  O2  UNL     1      -4.898   1.686  86.725  1.00  0.00    -0.263 OA
BRANCH  21  23
HETATM   23  C11 UNL     1      -2.737   1.684  87.789  1.00  0.00     0.340 C 
BRANCH  23  24
HETATM   24  N1  UNL     1      -2.775   0.261  87.493  1.00  0.00    -0.070 N 
ATOM     25  H13 UNL     1      -2.034  -0.258  87.963  1.00  0.00     0.274 HD
ATOM     26  H12 UNL     1      -3.570  -0.209  87.928  1.00  0.00     0.274 HD
ATOM     27  H11 UNL     1      -2.755   0.144  86.480  1.00  0.00     0.274 HD
ENDBRANCH  23  24
ENDBRANCH  21  23
ENDBRANCH  20  21
ENDBRANCH   7  20
TORSDOF 6
ENDMDL
MODEL 2
REMARK VINA RESULT: -6.975119529      2.966      5.481
REMARK  6 active torsions:
REMARK  status: ('A' for Active; 'I' for Inactive)
REMARK    1  A    between atoms: C2_2  and  C3_3 
REMARK    2  A    between atoms: C9_9  and  O1_10 
REMARK    3  A    between atoms: O1_10  and  C10_11 
REMARK    4  A    between atoms: C10_11  and  C11_13 
REMARK    5  A    between atoms: C11_13  and  N1_14 
REMARK    6  A    between atoms: C16_23  and  O3_24 
ROOT
HETATM    1  C3  UNL     1      -1.453   3.179  84.584  1.00  0.00     0.004 C 
HETATM    2  C4  UNL     1      -2.963   3.226  84.562  1.00  0.00     0.022 C 
HETATM    3  C5  UNL     1      -0.754   4.399  84.933  1.00  0.00     0.001 C 
HETATM    4  C6  UNL     1      -1.322   5.785  84.623  1.00  0.00     0.011 C 
HETATM    5  C7  UNL     1      -1.297   5.962  83.217  1.00  0.00    -0.007 C 
HETATM    6  C8  UNL     1      -1.116   7.011  82.262  1.00  0.00     0.037 C 
HETATM    7  C9  UNL     1      -0.893   6.393  80.876  1.00  0.00     0.132 C 
HETATM    8  C12 UNL     1      -1.065   4.922  80.687  1.00  0.00     0.039 C 
HETATM    9  C13 UNL     1      -1.029   4.110  81.933  1.00  0.00     0.013 C 
HETATM   10  C14 UNL     1      -0.692   2.752  82.103  1.00  0.00     0.127 C 
HETATM   11  C15 UNL     1       0.674   2.465  81.585  1.00  0.00     0.067 C 
HETATM   12  N2  UNL     1       1.747   2.249  81.199  1.00  0.00    -0.197 NA
HETATM   13  C16 UNL     1      -0.902   2.302  83.488  1.00  0.00     0.148 C 
HETATM   14  C17 UNL     1      -0.224   4.967  82.810  1.00  0.00    -0.004 C 
HETATM   15  C18 UNL     1       0.445   4.460  84.012  1.00  0.00     0.011 C 
ENDROOT
BRANCH  13  16
HETATM   16  O3  UNL     1      -1.778   1.175  83.511  1.00  0.00    -0.393 OA
ATOM     17  H3  UNL     1      -2.480   1.439  82.929  1.00  0.00     0.210 HD
ENDBRANCH  13  16
BRANCH   1  18
HETATM   18  C2  UNL     1      -1.192   2.284  85.788  1.00  0.00    -0.025 C 
HETATM   19  C1  UNL     1      -2.110   2.150  86.737  1.00  0.00     0.008 C 
ENDBRANCH   1  18
BRANCH   7  20
HETATM   20  O1  UNL     1      -1.699   7.062  79.901  1.00  0.00    -0.315 OA
BRANCH  20  21
HETATM   21  C10 UNL     1      -3.038   7.328  80.060  1.00  0.00     0.284 C 
HETATM   22  O2  UNL     1      -3.835   6.410  79.663  1.00  0.00    -0.263 OA
BRANCH  21  23
HETATM   23  C11 UNL     1      -3.563   8.589  80.653  1.00  0.00     0.340 C 
BRANCH  23  24
HETATM   24  N1  UNL     1      -4.642   8.249  81.566  1.00  0.00    -0.070 N 
ATOM     25  H13 UNL     1      -5.201   7.461  81.238  1.00  0.00     0.274 HD
ATOM     26  H12 UNL     1      -4.306   7.828  82.432  1.00  0.00     0.274 HD
ATOM     27  H11 UNL     1      -5.202   9.087  81.727  1.00  0.00     0.274 HD
ENDBRANCH  23  24
ENDBRANCH  21  23
ENDBRANCH  20  21
ENDBRANCH   7  20
TORSDOF 6
ENDMDL
MODEL 3
REMARK VINA RESULT: -6.968039850      2.381      4.991
REMARK  6 active torsions:
REMARK  status: ('A' for Active; 'I' for Inactive)
REMARK    1  A    between atoms: C2_2  and  C3_3 
REMARK    2  A    between atoms: C9_9  and  O1_10 
REMARK    3  A    between atoms: O1_10  and  C10_11 
REMARK    4  A    between atoms: C10_11  and  C11_13 
REMARK    5  A    between atoms: C11_13  and  N1_14 
REMARK    6  A    between atoms: C16_23  and  O3_24 
ROOT
HETATM    1  C3  UNL     1      -0.321   6.363  83.754  1.00  0.00     0.004 C 
HETATM    2  C4  UNL     1      -1.279   6.883  82.708  1.00  0.00     0.022 C 
HETATM    3  C5  UNL     1       1.068   6.211  83.368  1.00  0.00     0.001 C 
HETATM    4  C6  UNL     1       1.488   5.888  81.932  1.00  0.00     0.011 C 
HETATM    5  C7  UNL     1       1.079   4.563  81.646  1.00  0.00    -0.007 C 
HETATM    6  C8  UNL     1       1.515   3.438  80.879  1.00  0.00     0.037 C 
HETATM    7  C9  UNL     1       0.721   2.199  81.311  1.00  0.00     0.132 C 
HETATM    8  C12 UNL     1      -0.428   2.349  82.252  1.00  0.00     0.039 C 
HETATM    9  C13 UNL     1      -0.456   3.619  83.026  1.00  0.00     0.013 C 
HETATM   10  C14 UNL     1      -1.062   3.893  84.269  1.00  0.00     0.127 C 
HETATM   11  C15 UNL     1      -0.563   2.974  85.328  1.00  0.00     0.067 C 
HETATM   12  N2  UNL     1      -0.156   2.269  86.155  1.00  0.00    -0.197 NA
HETATM   13  C16 UNL     1      -0.961   5.316  84.630  1.00  0.00     0.148 C 
HETATM   14  C17 UNL     1       0.966   3.977  83.043  1.00  0.00    -0.004 C 
HETATM   15  C18 UNL     1       1.531   4.923  84.010  1.00  0.00     0.011 C 
ENDROOT
BRANCH  13  16
HETATM   16  O3  UNL     1      -2.259   5.855  84.875  1.00  0.00    -0.393 OA
ATOM     17  H3  UNL     1      -2.462   5.533  85.746  1.00  0.00     0.210 HD
ENDBRANCH  13  16
BRANCH   1  18
HETATM   18  C2  UNL     1      -0.274   7.527  84.732  1.00  0.00    -0.025 C 
HETATM   19  C1  UNL     1       0.726   8.398  84.695  1.00  0.00     0.008 C 
ENDBRANCH   1  18
BRANCH   7  20
HETATM   20  O1  UNL     1       0.261   1.481  80.161  1.00  0.00    -0.315 OA
BRANCH  20  21
HETATM   21  C10 UNL     1      -0.511   0.346  80.221  1.00  0.00     0.284 C 
HETATM   22  O2  UNL     1      -1.593   0.375  79.538  1.00  0.00    -0.263 OA
BRANCH  21  23
HETATM   23  C11 UNL     1      -0.145  -0.859  81.016  1.00  0.00     0.340 C 
BRANCH  23  24
HETATM   24  N1  UNL     1      -1.192  -1.093  81.998  1.00  0.00    -0.070 N 
ATOM     25  H13 UNL     1      -2.128  -1.028  81.597  1.00  0.00     0.274 HD
ATOM     26  H12 UNL     1      -1.238  -2.066  82.299  1.00  0.00     0.274 HD
ATOM     27  H11 UNL     1      -1.052  -0.446  82.775  1.00  0.00     0.274 HD
ENDBRANCH  23  24
ENDBRANCH  21  23
ENDBRANCH  20  21
ENDBRANCH   7  20
TORSDOF 6
ENDMDL
MODEL 4
REMARK VINA RESULT: -6.943975665      2.014      2.436
REMARK  6 active torsions:
REMARK  status: ('A' for Active; 'I' for Inactive)
REMARK    1  A    between atoms: C2_2  and  C3_3 
REMARK    2  A    between atoms: C9_9  and  O1_10 
REMARK    3  A    between atoms: O1_10  and  C10_11 
REMARK    4  A    between atoms: C10_11  and  C11_13 
REMARK    5  A    between atoms: C11_13  and  N1_14 
REMARK    6  A    between atoms: C16_23  and  O3_24 
ROOT
HETATM    1  C3  UNL     1       0.523   6.830  83.013  1.00  0.00     0.004 C 
HETATM    2  C4  UNL     1       1.579   6.517  84.046  1.00  0.00     0.022 C 
HETATM    3  C5  UNL     1      -0.840   6.986  83.480  1.00  0.00     0.001 C 
HETATM    4  C6  UNL     1      -1.376   6.239  84.703  1.00  0.00     0.011 C 
HETATM    5  C7  UNL     1      -1.459   4.864  84.373  1.00  0.00    -0.007 C 
HETATM    6  C8  UNL     1      -2.275   3.728  84.668  1.00  0.00     0.037 C 
HETATM    7  C9  UNL     1      -1.951   2.607  83.672  1.00  0.00     0.132 C 
HETATM    8  C12 UNL     1      -0.801   2.763  82.733  1.00  0.00     0.039 C 
HETATM    9  C13 UNL     1      -0.318   4.157  82.543  1.00  0.00     0.013 C 
HETATM   10  C14 UNL     1       0.372   4.720  81.450  1.00  0.00     0.127 C 
HETATM   11  C15 UNL     1      -0.393   4.553  80.184  1.00  0.00     0.067 C 
HETATM   12  N2  UNL     1      -1.002   4.439  79.203  1.00  0.00    -0.197 NA
HETATM   13  C16 UNL     1       0.778   6.110  81.713  1.00  0.00     0.148 C 
HETATM   14  C17 UNL     1      -1.527   4.925  82.857  1.00  0.00    -0.004 C 
HETATM   15  C18 UNL     1      -1.708   6.318  82.437  1.00  0.00     0.011 C 
ENDROOT
BRANCH  13  16
HETATM   16  O3  UNL     1       2.188   6.251  81.541  1.00  0.00    -0.393 OA
ATOM     17  H3  UNL     1       2.278   7.154  81.260  1.00  0.00     0.210 HD
ENDBRANCH  13  16
BRANCH   1  18
HETATM   18  C2  UNL     1       0.904   8.246  82.604  1.00  0.00    -0.025 C 
HETATM   19  C1  UNL     1       1.154   9.167  83.525  1.00  0.00     0.008 C 
ENDBRANCH   1  18
BRANCH   7  20
HETATM   20  O1  UNL     1      -1.793   1.363  84.364  1.00  0.00    -0.315 OA
BRANCH  20  21
HETATM   21  C10 UNL     1      -1.744   1.243  85.732  1.00  0.00     0.284 C 
HETATM   22  O2  UNL     1      -0.575   1.121  86.235  1.00  0.00    -0.263 OA
BRANCH  21  23
HETATM   23  C11 UNL     1      -2.952   1.252  86.603  1.00  0.00     0.340 C 
BRANCH  23  24
HETATM   24  N1  UNL     1      -2.817   0.183  87.580  1.00  0.00    -0.070 N 
ATOM     25  H13 UNL     1      -2.081   0.364  88.261  1.00  0.00     0.274 HD
ATOM     26  H12 UNL     1      -3.602   0.145  88.231  1.00  0.00     0.274 HD
ATOM     27  H11 UNL     1      -2.680  -0.694  87.077  1.00  0.00     0.274 HD
ENDBRANCH  23  24
ENDBRANCH  21  23
ENDBRANCH  20  21
ENDBRANCH   7  20
TORSDOF 6
ENDMDL
MODEL 5
REMARK VINA RESULT: -6.904750359      1.730      2.104
REMARK  6 active torsions:
REMARK  status: ('A' for Active; 'I' for Inactive)
REMARK    1  A    between atoms: C2_2  and  C3_3 
REMARK    2  A    between atoms: C9_9  and  O1_10 
REMARK    3  A    between atoms: O1_10  and  C10_11 
REMARK    4  A    between atoms: C10_11  and  C11_13 
REMARK    5  A    between atoms: C11_13  and  N1_14 
REMARK    6  A    between atoms: C16_23  and  O3_24 
ROOT
HETATM    1  C3  UNL     1       0.662   4.152  81.305  1.00  0.00     0.004 C 
HETATM    2  C4  UNL     1       1.893   4.353  82.156  1.00  0.00     0.022 C 
HETATM    3  C5  UNL     1      -0.524   4.904  81.661  1.00  0.00     0.001 C 
HETATM    4  C6  UNL     1      -0.832   5.310  83.104  1.00  0.00     0.011 C 
HETATM    5  C7  UNL     1      -1.143   4.134  83.831  1.00  0.00    -0.007 C 
HETATM    6  C8  UNL     1      -1.985   3.720  84.910  1.00  0.00     0.037 C 
HETATM    7  C9  UNL     1      -2.034   2.187  84.946  1.00  0.00     0.132 C 
HETATM    8  C12 UNL     1      -1.131   1.398  84.056  1.00  0.00     0.039 C 
HETATM    9  C13 UNL     1      -0.556   2.147  82.907  1.00  0.00     0.013 C 
HETATM   10  C14 UNL     1      -0.089   1.659  81.669  1.00  0.00     0.127 C 
HETATM   11  C15 UNL     1      -1.147   0.892  80.956  1.00  0.00     0.067 C 
HETATM   12  N2  UNL     1      -1.981   0.313  80.394  1.00  0.00    -0.197 NA
HETATM   13  C16 UNL     1       0.519   2.721  80.853  1.00  0.00     0.148 C 
HETATM   14  C17 UNL     1      -1.563   3.195  82.714  1.00  0.00    -0.004 C 
HETATM   15  C18 UNL     1      -1.684   3.954  81.465  1.00  0.00     0.011 C 
ENDROOT
BRANCH  13  16
HETATM   16  O3  UNL     1       1.854   2.364  80.496  1.00  0.00    -0.393 OA
ATOM     17  H3  UNL     1       1.746   1.504  80.105  1.00  0.00     0.210 HD
ENDBRANCH  13  16
BRANCH   1  18
HETATM   18  C2  UNL     1       1.089   4.797  79.994  1.00  0.00    -0.025 C 
HETATM   19  C1  UNL     1       1.004   6.111  79.831  1.00  0.00     0.008 C 
ENDBRANCH   1  18
BRANCH   7  20
HETATM   20  O1  UNL     1      -1.854   1.719  86.287  1.00  0.00    -0.315 OA
BRANCH  20  21
HETATM   21  C10 UNL     1      -2.871   1.245  87.080  1.00  0.00     0.284 C 
HETATM   22  O2  UNL     1      -2.900  -0.023  87.244  1.00  0.00    -0.263 OA
BRANCH  21  23
HETATM   23  C11 UNL     1      -3.890   2.120  87.724  1.00  0.00     0.340 C 
BRANCH  23  24
HETATM   24  N1  UNL     1      -3.329   2.640  88.961  1.00  0.00    -0.070 N 
ATOM     25  H13 UNL     1      -2.354   2.374  89.092  1.00  0.00     0.274 HD
ATOM     26  H12 UNL     1      -3.196   3.651  88.937  1.00  0.00     0.274 HD
ATOM     27  H11 UNL     1      -3.925   2.339  89.733  1.00  0.00     0.274 HD
ENDBRANCH  23  24
ENDBRANCH  21  23
ENDBRANCH  20  21
ENDBRANCH   7  20
TORSDOF 6
ENDMDL
