MODEL 1
REMARK VINA RESULT: -8.160145528      0.000      0.000
REMARK  17 active torsions:
REMARK  status: ('A' for Active; 'I' for Inactive)
REMARK    1  A    between atoms: C2_2  and  C3_3 
REMARK    2  A    between atoms: C3_3  and  C4_4 
REMARK    3  A    between atoms: C4_4  and  C5_5 
REMARK    4  A    between atoms: C5_5  and  C6_6 
REMARK    5  A    between atoms: C6_6  and  C7_7 
REMARK    6  A    between atoms: C7_7  and  C8_8 
REMARK    7  A    between atoms: C8_8  and  C9_9 
REMARK    8  A    between atoms: C9_9  and  C10_10 
REMARK    9  A    between atoms: C10_10  and  N1_11 
REMARK   10  A    between atoms: N1_11  and  C11_13 
REMARK   11  A    between atoms: C12_16  and  N3_17 
REMARK   12  A    between atoms: N3_17  and  C13_19 
REMARK   13  A    between atoms: C13_19  and  C14_20 
REMARK   14  A    between atoms: N5_24  and  C16_25 
REMARK   15  A    between atoms: C16_25  and  C17_26 
REMARK   16  A    between atoms: C17_26  and  O1_27 
REMARK   17  A    between atoms: C20_33  and  N7_34 
ROOT
HETATM    1  C11 UNL     1      45.963  20.890 -12.413  1.00  0.00     0.680 A 
HETATM    2  N2  UNL     1      46.805  19.853 -12.314  1.00  0.00    -0.175 N 
ATOM      3  H2  UNL     1      46.442  18.973 -11.948  1.00  0.00     0.186 HD
HETATM    4  C12 UNL     1      48.097  19.903 -12.668  1.00  0.00     0.147 A 
HETATM    5  C19 UNL     1      48.618  21.082 -13.169  1.00  0.00     0.124 A 
HETATM    6  N6  UNL     1      49.915  21.174 -13.536  1.00  0.00    -0.186 N 
ATOM      7  H6  UNL     1      50.513  20.354 -13.440  1.00  0.00     0.184 HD
HETATM    8  C20 UNL     1      50.441  22.304 -14.020  1.00  0.00     0.679 A 
HETATM    9  N8  UNL     1      49.628  23.361 -14.133  1.00  0.00    -0.175 N 
ATOM     10  H8  UNL     1      50.012  24.232 -14.502  1.00  0.00     0.186 HD
HETATM   11  C22 UNL     1      48.302  23.334 -13.778  1.00  0.00     0.144 A 
HETATM   12  N9  UNL     1      47.606  24.391 -13.919  1.00  0.00    -0.383 N 
ATOM     13  H91 UNL     1      46.621  24.370 -13.655  1.00  0.00     0.157 HD
ATOM     14  H92 UNL     1      48.001  25.256 -14.288  1.00  0.00     0.157 HD
HETATM   15  C23 UNL     1      47.769  22.164 -13.280  1.00  0.00     0.124 A 
HETATM   16  N10 UNL     1      46.482  22.052 -12.907  1.00  0.00    -0.186 N 
ATOM     17  H10 UNL     1      45.872  22.865 -12.997  1.00  0.00     0.184 HD
ENDROOT
BRANCH   4  18
HETATM   18  N3  UNL     1      48.913  18.921 -12.575  1.00  0.00    -0.370 N 
ATOM     19  H3  UNL     1      49.761  18.899 -13.142  1.00  0.00     0.161 HD
BRANCH  18  20
HETATM   20  C13 UNL     1      48.619  17.842 -11.657  1.00  0.00     0.162 C 
BRANCH  20  21
HETATM   21  C14 UNL     1      49.152  18.123 -10.298  1.00  0.00    -0.007 A 
HETATM   22  C15 UNL     1      49.208  17.190  -9.288  1.00  0.00     0.117 A 
HETATM   23  N4  UNL     1      49.751  17.840  -8.236  1.00  0.00    -0.309 N 
HETATM   24  N5  UNL     1      50.021  19.113  -8.569  1.00  0.00    -0.301 N 
ATOM     25  H4  UNL     1      49.928  17.426  -7.321  1.00  0.00     0.186 HD
HETATM   26  C18 UNL     1      49.659  19.317  -9.845  1.00  0.00     0.120 A 
BRANCH  24  27
HETATM   27  C16 UNL     1      50.612  20.079  -7.660  1.00  0.00     0.174 C 
BRANCH  27  28
HETATM   28  C17 UNL     1      51.571  19.346  -6.717  1.00  0.00     0.185 C 
BRANCH  28  29
HETATM   29  O1  UNL     1      52.660  18.850  -7.436  1.00  0.00    -0.399 OA
ATOM     30  H1  UNL     1      52.779  17.926  -7.249  1.00  0.00     0.209 HD
ENDBRANCH  28  29
ENDBRANCH  27  28
ENDBRANCH  24  27
ENDBRANCH  20  21
ENDBRANCH  18  20
ENDBRANCH   4  18
BRANCH   1  31
HETATM   31  N1  UNL     1      44.721  20.860 -12.070  1.00  0.00    -0.226 N 
ATOM     32  H1  UNL     1      44.134  21.646 -12.349  1.00  0.00     0.177 HD
BRANCH  31  33
HETATM   33  C10 UNL     1      44.104  19.795 -11.321  1.00  0.00     0.138 C 
BRANCH  33  34
HETATM   34  C9  UNL     1      42.695  20.011 -10.935  1.00  0.00     0.020 C 
BRANCH  34  35
HETATM   35  C8  UNL     1      41.923  18.884 -10.385  1.00  0.00     0.002 C 
BRANCH  35  36
HETATM   36  C7  UNL     1      42.000  17.572 -11.067  1.00  0.00     0.000 C 
BRANCH  36  37
HETATM   37  C6  UNL     1      41.706  16.489 -10.041  1.00  0.00     0.000 C 
BRANCH  37  38
HETATM   38  C5  UNL     1      42.263  16.798  -8.676  1.00  0.00     0.000 C 
BRANCH  38  39
HETATM   39  C4  UNL     1      43.383  15.826  -8.394  1.00  0.00     0.000 C 
BRANCH  39  40
HETATM   40  C3  UNL     1      44.649  16.520  -7.962  1.00  0.00    -0.000 C 
BRANCH  40  41
HETATM   41  C2  UNL     1      45.361  17.197  -9.098  1.00  0.00    -0.005 C 
HETATM   42  C1  UNL     1      45.528  16.305 -10.295  1.00  0.00     0.005 C 
ENDBRANCH  40  41
ENDBRANCH  39  40
ENDBRANCH  38  39
ENDBRANCH  37  38
ENDBRANCH  36  37
ENDBRANCH  35  36
ENDBRANCH  34  35
ENDBRANCH  33  34
ENDBRANCH  31  33
ENDBRANCH   1  31
BRANCH   8  43
HETATM   43  N7  UNL     1      51.683  22.358 -14.361  1.00  0.00    -0.230 N 
HETATM   44  C21 UNL     1      52.101  22.523 -15.733  1.00  0.00     0.165 C 
ATOM     45  H7  UNL     1      52.395  22.282 -13.636  1.00  0.00     0.177 HD
ENDBRANCH   8  43
TORSDOF 17
ENDMDL
MODEL 2
REMARK VINA RESULT: -8.068341007      1.686      2.300
REMARK  17 active torsions:
REMARK  status: ('A' for Active; 'I' for Inactive)
REMARK    1  A    between atoms: C2_2  and  C3_3 
REMARK    2  A    between atoms: C3_3  and  C4_4 
REMARK    3  A    between atoms: C4_4  and  C5_5 
REMARK    4  A    between atoms: C5_5  and  C6_6 
REMARK    5  A    between atoms: C6_6  and  C7_7 
REMARK    6  A    between atoms: C7_7  and  C8_8 
REMARK    7  A    between atoms: C8_8  and  C9_9 
REMARK    8  A    between atoms: C9_9  and  C10_10 
REMARK    9  A    between atoms: C10_10  and  N1_11 
REMARK   10  A    between atoms: N1_11  and  C11_13 
REMARK   11  A    between atoms: C12_16  and  N3_17 
REMARK   12  A    between atoms: N3_17  and  C13_19 
REMARK   13  A    between atoms: C13_19  and  C14_20 
REMARK   14  A    between atoms: N5_24  and  C16_25 
REMARK   15  A    between atoms: C16_25  and  C17_26 
REMARK   16  A    between atoms: C17_26  and  O1_27 
REMARK   17  A    between atoms: C20_33  and  N7_34 
ROOT
HETATM    1  C11 UNL     1      46.437  20.625 -11.415  1.00  0.00     0.680 A 
HETATM    2  N2  UNL     1      47.612  20.106 -11.034  1.00  0.00    -0.175 N 
ATOM      3  H2  UNL     1      47.605  19.380 -10.318  1.00  0.00     0.186 HD
HETATM    4  C12 UNL     1      48.794  20.485 -11.537  1.00  0.00     0.147 A 
HETATM    5  C19 UNL     1      48.834  21.467 -12.510  1.00  0.00     0.124 A 
HETATM    6  N6  UNL     1      50.006  21.877 -13.043  1.00  0.00    -0.186 N 
ATOM      7  H6  UNL     1      50.872  21.449 -12.717  1.00  0.00     0.184 HD
HETATM    8  C20 UNL     1      50.069  22.826 -13.983  1.00  0.00     0.679 A 
HETATM    9  N8  UNL     1      48.914  23.367 -14.389  1.00  0.00    -0.175 N 
ATOM     10  H8  UNL     1      48.944  24.092 -15.107  1.00  0.00     0.186 HD
HETATM   11  C22 UNL     1      47.692  22.994 -13.889  1.00  0.00     0.144 A 
HETATM   12  N9  UNL     1      46.645  23.567 -14.334  1.00  0.00    -0.383 N 
ATOM     13  H91 UNL     1      45.737  23.291 -13.962  1.00  0.00     0.157 HD
ATOM     14  H92 UNL     1      46.686  24.291 -15.052  1.00  0.00     0.157 HD
HETATM   15  C23 UNL     1      47.637  22.015 -12.920  1.00  0.00     0.124 A 
HETATM   16  N10 UNL     1      46.482  21.594 -12.376  1.00  0.00    -0.186 N 
ATOM     17  H10 UNL     1      45.608  22.014 -12.692  1.00  0.00     0.184 HD
ENDROOT
BRANCH   4  18
HETATM   18  N3  UNL     1      49.924  20.001 -11.179  1.00  0.00    -0.370 N 
ATOM     19  H3  UNL     1      50.400  19.312 -11.763  1.00  0.00     0.161 HD
BRANCH  18  20
HETATM   20  C13 UNL     1      50.519  20.441  -9.935  1.00  0.00     0.162 C 
BRANCH  20  21
HETATM   21  C14 UNL     1      50.571  19.341  -8.936  1.00  0.00    -0.007 A 
HETATM   22  C15 UNL     1      49.981  18.111  -9.118  1.00  0.00     0.117 A 
HETATM   23  N4  UNL     1      50.260  17.416  -7.994  1.00  0.00    -0.309 N 
HETATM   24  N5  UNL     1      50.988  18.169  -7.154  1.00  0.00    -0.301 N 
ATOM     25  H4  UNL     1      49.962  16.458  -7.810  1.00  0.00     0.186 HD
HETATM   26  C18 UNL     1      51.196  19.372  -7.714  1.00  0.00     0.120 A 
BRANCH  24  27
HETATM   27  C16 UNL     1      51.454  17.714  -5.856  1.00  0.00     0.174 C 
BRANCH  27  28
HETATM   28  C17 UNL     1      52.370  18.788  -5.259  1.00  0.00     0.185 C 
BRANCH  28  29
HETATM   29  O1  UNL     1      53.706  18.457  -5.490  1.00  0.00    -0.399 OA
ATOM     30  H1  UNL     1      54.035  17.919  -4.780  1.00  0.00     0.209 HD
ENDBRANCH  28  29
ENDBRANCH  27  28
ENDBRANCH  24  27
ENDBRANCH  20  21
ENDBRANCH  18  20
ENDBRANCH   4  18
BRANCH   1  31
HETATM   31  N1  UNL     1      45.293  20.278 -10.936  1.00  0.00    -0.226 N 
ATOM     32  H1  UNL     1      45.267  19.929  -9.977  1.00  0.00     0.177 HD
BRANCH  31  33
HETATM   33  C10 UNL     1      44.047  20.346 -11.657  1.00  0.00     0.138 C 
BRANCH  33  34
HETATM   34  C9  UNL     1      42.852  19.878 -10.927  1.00  0.00     0.020 C 
BRANCH  34  35
HETATM   35  C8  UNL     1      42.728  18.448 -10.599  1.00  0.00     0.002 C 
BRANCH  35  36
HETATM   36  C7  UNL     1      41.473  17.747 -10.951  1.00  0.00     0.000 C 
BRANCH  36  37
HETATM   37  C6  UNL     1      41.836  16.489 -11.725  1.00  0.00     0.000 C 
BRANCH  37  38
HETATM   38  C5  UNL     1      43.321  16.307 -11.897  1.00  0.00     0.000 C 
BRANCH  38  39
HETATM   39  C4  UNL     1      43.561  15.609 -13.213  1.00  0.00     0.000 C 
BRANCH  39  40
HETATM   40  C3  UNL     1      44.718  16.201 -13.975  1.00  0.00    -0.000 C 
BRANCH  40  41
HETATM   41  C2  UNL     1      45.308  17.406 -13.299  1.00  0.00    -0.005 C 
HETATM   42  C1  UNL     1      46.248  18.171 -14.187  1.00  0.00     0.005 C 
ENDBRANCH  40  41
ENDBRANCH  39  40
ENDBRANCH  38  39
ENDBRANCH  37  38
ENDBRANCH  36  37
ENDBRANCH  35  36
ENDBRANCH  34  35
ENDBRANCH  33  34
ENDBRANCH  31  33
ENDBRANCH   1  31
BRANCH   8  43
HETATM   43  N7  UNL     1      51.204  23.195 -14.470  1.00  0.00    -0.230 N 
HETATM   44  C21 UNL     1      51.889  22.439 -15.492  1.00  0.00     0.165 C 
ATOM     45  H7  UNL     1      51.634  24.051 -14.121  1.00  0.00     0.177 HD
ENDBRANCH   8  43
TORSDOF 17
ENDMDL
MODEL 3
REMARK VINA RESULT: -8.055688600      1.831      3.270
REMARK  17 active torsions:
REMARK  status: ('A' for Active; 'I' for Inactive)
REMARK    1  A    between atoms: C2_2  and  C3_3 
REMARK    2  A    between atoms: C3_3  and  C4_4 
REMARK    3  A    between atoms: C4_4  and  C5_5 
REMARK    4  A    between atoms: C5_5  and  C6_6 
REMARK    5  A    between atoms: C6_6  and  C7_7 
REMARK    6  A    between atoms: C7_7  and  C8_8 
REMARK    7  A    between atoms: C8_8  and  C9_9 
REMARK    8  A    between atoms: C9_9  and  C10_10 
REMARK    9  A    between atoms: C10_10  and  N1_11 
REMARK   10  A    between atoms: N1_11  and  C11_13 
REMARK   11  A    between atoms: C12_16  and  N3_17 
REMARK   12  A    between atoms: N3_17  and  C13_19 
REMARK   13  A    between atoms: C13_19  and  C14_20 
REMARK   14  A    between atoms: N5_24  and  C16_25 
REMARK   15  A    between atoms: C16_25  and  C17_26 
REMARK   16  A    between atoms: C17_26  and  O1_27 
REMARK   17  A    between atoms: C20_33  and  N7_34 
ROOT
HETATM    1  C11 UNL     1      45.953  20.701 -11.970  1.00  0.00     0.680 A 
HETATM    2  N2  UNL     1      46.979  19.983 -11.494  1.00  0.00    -0.175 N 
ATOM      3  H2  UNL     1      46.769  19.188 -10.890  1.00  0.00     0.186 HD
HETATM    4  C12 UNL     1      48.264  20.247 -11.764  1.00  0.00     0.147 A 
HETATM    5  C19 UNL     1      48.580  21.317 -12.581  1.00  0.00     0.124 A 
HETATM    6  N6  UNL     1      49.864  21.618 -12.877  1.00  0.00    -0.186 N 
ATOM      7  H6  UNL     1      50.607  21.038 -12.488  1.00  0.00     0.184 HD
HETATM    8  C20 UNL     1      50.192  22.649 -13.662  1.00  0.00     0.679 A 
HETATM    9  N8  UNL     1      49.192  23.388 -14.157  1.00  0.00    -0.175 N 
ATOM     10  H8  UNL     1      49.425  24.178 -14.759  1.00  0.00     0.186 HD
HETATM   11  C22 UNL     1      47.869  23.136 -13.894  1.00  0.00     0.144 A 
HETATM   12  N9  UNL     1      46.985  23.896 -14.407  1.00  0.00    -0.383 N 
ATOM     13  H91 UNL     1      46.002  23.710 -14.212  1.00  0.00     0.157 HD
ATOM     14  H92 UNL     1      47.229  24.684 -15.008  1.00  0.00     0.157 HD
HETATM   15  C23 UNL     1      47.540  22.071 -13.083  1.00  0.00     0.124 A 
HETATM   16  N10 UNL     1      46.270  21.757 -12.776  1.00  0.00    -0.186 N 
ATOM     17  H10 UNL     1      45.516  22.328 -13.157  1.00  0.00     0.184 HD
ENDROOT
BRANCH   4  18
HETATM   18  N3  UNL     1      49.254  19.572 -11.312  1.00  0.00    -0.370 N 
ATOM     19  H3  UNL     1      50.204  19.774 -11.627  1.00  0.00     0.161 HD
BRANCH  18  20
HETATM   20  C13 UNL     1      49.011  18.519 -10.351  1.00  0.00     0.162 C 
BRANCH  20  21
HETATM   21  C14 UNL     1      49.928  18.621  -9.186  1.00  0.00    -0.007 A 
HETATM   22  C15 UNL     1      50.761  19.693  -8.957  1.00  0.00     0.117 A 
HETATM   23  N4  UNL     1      51.414  19.394  -7.813  1.00  0.00    -0.309 N 
HETATM   24  N5  UNL     1      51.011  18.200  -7.349  1.00  0.00    -0.301 N 
ATOM     25  H4  UNL     1      52.112  19.989  -7.366  1.00  0.00     0.186 HD
HETATM   26  C18 UNL     1      50.088  17.696  -8.183  1.00  0.00     0.120 A 
BRANCH  24  27
HETATM   27  C16 UNL     1      51.521  17.590  -6.134  1.00  0.00     0.174 C 
BRANCH  27  28
HETATM   28  C17 UNL     1      52.431  18.596  -5.422  1.00  0.00     0.185 C 
BRANCH  28  29
HETATM   29  O1  UNL     1      53.744  18.452  -5.873  1.00  0.00    -0.399 OA
ATOM     30  H1  UNL     1      54.161  19.304  -5.937  1.00  0.00     0.209 HD
ENDBRANCH  28  29
ENDBRANCH  27  28
ENDBRANCH  24  27
ENDBRANCH  20  21
ENDBRANCH  18  20
ENDBRANCH   4  18
BRANCH   1  31
HETATM   31  N1  UNL     1      44.712  20.465 -11.713  1.00  0.00    -0.226 N 
ATOM     32  H1  UNL     1      44.014  21.046 -12.176  1.00  0.00     0.177 HD
BRANCH  31  33
HETATM   33  C10 UNL     1      44.242  19.437 -10.819  1.00  0.00     0.138 C 
BRANCH  33  34
HETATM   34  C9  UNL     1      43.492  18.331 -11.445  1.00  0.00     0.020 C 
BRANCH  34  35
HETATM   35  C8  UNL     1      44.214  17.111 -11.842  1.00  0.00     0.002 C 
BRANCH  35  36
HETATM   36  C7  UNL     1      44.348  16.805 -13.285  1.00  0.00     0.000 C 
BRANCH  36  37
HETATM   37  C6  UNL     1      45.720  17.275 -13.741  1.00  0.00     0.000 C 
BRANCH  37  38
HETATM   38  C5  UNL     1      46.839  16.779 -12.863  1.00  0.00     0.000 C 
BRANCH  38  39
HETATM   39  C4  UNL     1      48.125  16.859 -13.649  1.00  0.00     0.000 C 
BRANCH  39  40
HETATM   40  C3  UNL     1      48.082  17.923 -14.714  1.00  0.00    -0.000 C 
BRANCH  40  41
HETATM   41  C2  UNL     1      49.217  17.819 -15.691  1.00  0.00    -0.005 C 
HETATM   42  C1  UNL     1      49.773  16.427 -15.793  1.00  0.00     0.005 C 
ENDBRANCH  40  41
ENDBRANCH  39  40
ENDBRANCH  38  39
ENDBRANCH  37  38
ENDBRANCH  36  37
ENDBRANCH  35  36
ENDBRANCH  34  35
ENDBRANCH  33  34
ENDBRANCH  31  33
ENDBRANCH   1  31
BRANCH   8  43
HETATM   43  N7  UNL     1      51.427  22.908 -13.925  1.00  0.00    -0.230 N 
HETATM   44  C21 UNL     1      52.029  22.593 -15.199  1.00  0.00     0.165 C 
ATOM     45  H7  UNL     1      52.000  23.351 -13.207  1.00  0.00     0.177 HD
ENDBRANCH   8  43
TORSDOF 17
ENDMDL
MODEL 4
REMARK VINA RESULT: -8.035547324      0.714      1.643
REMARK  17 active torsions:
REMARK  status: ('A' for Active; 'I' for Inactive)
REMARK    1  A    between atoms: C2_2  and  C3_3 
REMARK    2  A    between atoms: C3_3  and  C4_4 
REMARK    3  A    between atoms: C4_4  and  C5_5 
REMARK    4  A    between atoms: C5_5  and  C6_6 
REMARK    5  A    between atoms: C6_6  and  C7_7 
REMARK    6  A    between atoms: C7_7  and  C8_8 
REMARK    7  A    between atoms: C8_8  and  C9_9 
REMARK    8  A    between atoms: C9_9  and  C10_10 
REMARK    9  A    between atoms: C10_10  and  N1_11 
REMARK   10  A    between atoms: N1_11  and  C11_13 
REMARK   11  A    between atoms: C12_16  and  N3_17 
REMARK   12  A    between atoms: N3_17  and  C13_19 
REMARK   13  A    between atoms: C13_19  and  C14_20 
REMARK   14  A    between atoms: N5_24  and  C16_25 
REMARK   15  A    between atoms: C16_25  and  C17_26 
REMARK   16  A    between atoms: C17_26  and  O1_27 
REMARK   17  A    between atoms: C20_33  and  N7_34 
ROOT
HETATM    1  C11 UNL     1      45.937  20.909 -12.607  1.00  0.00     0.680 A 
HETATM    2  N2  UNL     1      46.765  19.861 -12.490  1.00  0.00    -0.175 N 
ATOM      3  H2  UNL     1      46.380  18.984 -12.139  1.00  0.00     0.186 HD
HETATM    4  C12 UNL     1      48.065  19.898 -12.808  1.00  0.00     0.147 A 
HETATM    5  C19 UNL     1      48.614  21.073 -13.288  1.00  0.00     0.124 A 
HETATM    6  N6  UNL     1      49.922  21.152 -13.619  1.00  0.00    -0.186 N 
ATOM      7  H6  UNL     1      50.508  20.324 -13.511  1.00  0.00     0.184 HD
HETATM    8  C20 UNL     1      50.474  22.278 -14.082  1.00  0.00     0.679 A 
HETATM    9  N8  UNL     1      49.677  23.345 -14.213  1.00  0.00    -0.175 N 
ATOM     10  H8  UNL     1      50.082  24.213 -14.566  1.00  0.00     0.186 HD
HETATM   11  C22 UNL     1      48.342  23.331 -13.894  1.00  0.00     0.144 A 
HETATM   12  N9  UNL     1      47.662  24.397 -14.049  1.00  0.00    -0.383 N 
ATOM     13  H91 UNL     1      46.670  24.387 -13.812  1.00  0.00     0.157 HD
ATOM     14  H92 UNL     1      48.077  25.259 -14.403  1.00  0.00     0.157 HD
HETATM   15  C23 UNL     1      47.781  22.166 -13.417  1.00  0.00     0.124 A 
HETATM   16  N10 UNL     1      46.484  22.068 -13.081  1.00  0.00    -0.186 N 
ATOM     17  H10 UNL     1      45.886  22.887 -13.183  1.00  0.00     0.184 HD
ENDROOT
BRANCH   4  18
HETATM   18  N3  UNL     1      48.868  18.906 -12.697  1.00  0.00    -0.370 N 
ATOM     19  H3  UNL     1      49.715  18.862 -13.264  1.00  0.00     0.161 HD
BRANCH  18  20
HETATM   20  C13 UNL     1      48.557  17.848 -11.760  1.00  0.00     0.162 C 
BRANCH  20  21
HETATM   21  C14 UNL     1      49.158  18.108 -10.426  1.00  0.00    -0.007 A 
HETATM   22  C15 UNL     1      49.408  17.129  -9.493  1.00  0.00     0.117 A 
HETATM   23  N4  UNL     1      49.948  17.776  -8.437  1.00  0.00    -0.309 N 
HETATM   24  N5  UNL     1      50.033  19.091  -8.696  1.00  0.00    -0.301 N 
ATOM     25  H4  UNL     1      50.246  17.331  -7.569  1.00  0.00     0.186 HD
HETATM   26  C18 UNL     1      49.549  19.326  -9.925  1.00  0.00     0.120 A 
BRANCH  24  27
HETATM   27  C16 UNL     1      50.571  20.066  -7.764  1.00  0.00     0.174 C 
BRANCH  27  28
HETATM   28  C17 UNL     1      51.530  19.353  -6.805  1.00  0.00     0.185 C 
BRANCH  28  29
HETATM   29  O1  UNL     1      52.636  18.871  -7.507  1.00  0.00    -0.399 OA
ATOM     30  H1  UNL     1      52.349  18.315  -8.221  1.00  0.00     0.209 HD
ENDBRANCH  28  29
ENDBRANCH  27  28
ENDBRANCH  24  27
ENDBRANCH  20  21
ENDBRANCH  18  20
ENDBRANCH   4  18
BRANCH   1  31
HETATM   31  N1  UNL     1      44.686  20.893 -12.298  1.00  0.00    -0.226 N 
ATOM     32  H1  UNL     1      44.033  21.333 -12.946  1.00  0.00     0.177 HD
BRANCH  31  33
HETATM   33  C10 UNL     1      44.145  20.296 -11.103  1.00  0.00     0.138 C 
BRANCH  33  34
HETATM   34  C9  UNL     1      43.511  18.974 -11.273  1.00  0.00     0.020 C 
BRANCH  34  35
HETATM   35  C8  UNL     1      44.233  17.771 -10.829  1.00  0.00     0.002 C 
BRANCH  35  36
HETATM   36  C7  UNL     1      45.279  17.915  -9.790  1.00  0.00     0.000 C 
BRANCH  36  37
HETATM   37  C6  UNL     1      44.971  16.933  -8.671  1.00  0.00     0.000 C 
BRANCH  37  38
HETATM   38  C5  UNL     1      43.924  15.918  -9.044  1.00  0.00     0.000 C 
BRANCH  38  39
HETATM   39  C4  UNL     1      43.151  15.558  -7.799  1.00  0.00     0.000 C 
BRANCH  39  40
HETATM   40  C3  UNL     1      41.847  16.306  -7.697  1.00  0.00    -0.000 C 
BRANCH  40  41
HETATM   41  C2  UNL     1      41.248  16.622  -9.037  1.00  0.00    -0.005 C 
HETATM   42  C1  UNL     1      40.691  18.016  -9.112  1.00  0.00     0.005 C 
ENDBRANCH  40  41
ENDBRANCH  39  40
ENDBRANCH  38  39
ENDBRANCH  37  38
ENDBRANCH  36  37
ENDBRANCH  35  36
ENDBRANCH  34  35
ENDBRANCH  33  34
ENDBRANCH  31  33
ENDBRANCH   1  31
BRANCH   8  43
HETATM   43  N7  UNL     1      51.725  22.319 -14.389  1.00  0.00    -0.230 N 
HETATM   44  C21 UNL     1      52.183  22.494 -15.746  1.00  0.00     0.165 C 
ATOM     45  H7  UNL     1      52.417  22.224 -13.645  1.00  0.00     0.177 HD
ENDBRANCH   8  43
TORSDOF 17
ENDMDL
MODEL 5
REMARK VINA RESULT: -7.969895998      4.126      9.155
REMARK  17 active torsions:
REMARK  status: ('A' for Active; 'I' for Inactive)
REMARK    1  A    between atoms: C2_2  and  C3_3 
REMARK    2  A    between atoms: C3_3  and  C4_4 
REMARK    3  A    between atoms: C4_4  and  C5_5 
REMARK    4  A    between atoms: C5_5  and  C6_6 
REMARK    5  A    between atoms: C6_6  and  C7_7 
REMARK    6  A    between atoms: C7_7  and  C8_8 
REMARK    7  A    between atoms: C8_8  and  C9_9 
REMARK    8  A    between atoms: C9_9  and  C10_10 
REMARK    9  A    between atoms: C10_10  and  N1_11 
REMARK   10  A    between atoms: N1_11  and  C11_13 
REMARK   11  A    between atoms: C12_16  and  N3_17 
REMARK   12  A    between atoms: N3_17  and  C13_19 
REMARK   13  A    between atoms: C13_19  and  C14_20 
REMARK   14  A    between atoms: N5_24  and  C16_25 
REMARK   15  A    between atoms: C16_25  and  C17_26 
REMARK   16  A    between atoms: C17_26  and  O1_27 
REMARK   17  A    between atoms: C20_33  and  N7_34 
ROOT
HETATM    1  C11 UNL     1      51.005  19.367  -6.764  1.00  0.00     0.680 A 
HETATM    2  N2  UNL     1      50.521  20.328  -7.563  1.00  0.00    -0.175 N 
ATOM      3  H2  UNL     1      50.633  21.298  -7.268  1.00  0.00     0.186 HD
HETATM    4  C12 UNL     1      49.898  20.089  -8.725  1.00  0.00     0.147 A 
HETATM    5  C19 UNL     1      49.733  18.784  -9.151  1.00  0.00     0.124 A 
HETATM    6  N6  UNL     1      49.109  18.502 -10.316  1.00  0.00    -0.186 N 
ATOM      7  H6  UNL     1      48.759  19.271 -10.886  1.00  0.00     0.184 HD
HETATM    8  C20 UNL     1      48.936  17.248 -10.746  1.00  0.00     0.679 A 
HETATM    9  N8  UNL     1      49.408  16.262  -9.974  1.00  0.00    -0.175 N 
ATOM     10  H8  UNL     1      49.285  15.299 -10.288  1.00  0.00     0.186 HD
HETATM   11  C22 UNL     1      50.049  16.482  -8.781  1.00  0.00     0.144 A 
HETATM   12  N9  UNL     1      50.462  15.480  -8.112  1.00  0.00    -0.383 N 
ATOM     13  H91 UNL     1      50.939  15.643  -7.225  1.00  0.00     0.157 HD
ATOM     14  H92 UNL     1      50.334  14.521  -8.435  1.00  0.00     0.157 HD
HETATM   15  C23 UNL     1      50.224  17.778  -8.345  1.00  0.00     0.124 A 
HETATM   16  N10 UNL     1      50.839  18.080  -7.189  1.00  0.00    -0.186 N 
ATOM     17  H10 UNL     1      51.194  17.320  -6.608  1.00  0.00     0.184 HD
ENDROOT
BRANCH   4  18
HETATM   18  N3  UNL     1      49.427  20.998  -9.495  1.00  0.00    -0.370 N 
ATOM     19  H3  UNL     1      48.495  20.901  -9.898  1.00  0.00     0.161 HD
BRANCH  18  20
HETATM   20  C13 UNL     1      50.234  22.162  -9.788  1.00  0.00     0.162 C 
BRANCH  20  21
HETATM   21  C14 UNL     1      50.376  22.372 -11.253  1.00  0.00    -0.007 A 
HETATM   22  C15 UNL     1      50.657  23.589 -11.830  1.00  0.00     0.117 A 
HETATM   23  N4  UNL     1      50.701  23.348 -13.159  1.00  0.00    -0.309 N 
HETATM   24  N5  UNL     1      50.462  22.049 -13.401  1.00  0.00    -0.301 N 
ATOM     25  H4  UNL     1      50.888  24.051 -13.874  1.00  0.00     0.186 HD
HETATM   26  C18 UNL     1      50.256  21.418 -12.234  1.00  0.00     0.120 A 
BRANCH  24  27
HETATM   27  C16 UNL     1      50.440  21.464 -14.730  1.00  0.00     0.174 C 
BRANCH  27  28
HETATM   28  C17 UNL     1      51.380  22.266 -15.636  1.00  0.00     0.185 C 
BRANCH  28  29
HETATM   29  O1  UNL     1      52.670  22.266 -15.103  1.00  0.00    -0.399 OA
ATOM     30  H1  UNL     1      53.249  22.777 -15.657  1.00  0.00     0.209 HD
ENDBRANCH  28  29
ENDBRANCH  27  28
ENDBRANCH  24  27
ENDBRANCH  20  21
ENDBRANCH  18  20
ENDBRANCH   4  18
BRANCH   1  31
HETATM   31  N1  UNL     1      51.599  19.579  -5.640  1.00  0.00    -0.226 N 
ATOM     32  H1  UNL     1      51.382  20.444  -5.146  1.00  0.00     0.177 HD
BRANCH  31  33
HETATM   33  C10 UNL     1      52.549  18.680  -5.033  1.00  0.00     0.138 C 
BRANCH  33  34
HETATM   34  C9  UNL     1      52.654  18.751  -3.563  1.00  0.00     0.020 C 
BRANCH  34  35
HETATM   35  C8  UNL     1      53.985  18.683  -2.936  1.00  0.00     0.002 C 
BRANCH  35  36
HETATM   36  C7  UNL     1      54.282  19.590  -1.804  1.00  0.00     0.000 C 
BRANCH  36  37
HETATM   37  C6  UNL     1      54.282  18.765  -0.526  1.00  0.00     0.000 C 
BRANCH  37  38
HETATM   38  C5  UNL     1      52.912  18.609   0.079  1.00  0.00     0.000 C 
BRANCH  38  39
HETATM   39  C4  UNL     1      52.674  17.141   0.337  1.00  0.00     0.000 C 
BRANCH  39  40
HETATM   40  C3  UNL     1      51.794  16.510  -0.710  1.00  0.00    -0.000 C 
BRANCH  40  41
HETATM   41  C2  UNL     1      52.253  15.138  -1.111  1.00  0.00    -0.005 C 
HETATM   42  C1  UNL     1      52.960  15.125  -2.437  1.00  0.00     0.005 C 
ENDBRANCH  40  41
ENDBRANCH  39  40
ENDBRANCH  38  39
ENDBRANCH  37  38
ENDBRANCH  36  37
ENDBRANCH  35  36
ENDBRANCH  34  35
ENDBRANCH  33  34
ENDBRANCH  31  33
ENDBRANCH   1  31
BRANCH   8  43
HETATM   43  N7  UNL     1      48.337  17.013 -11.863  1.00  0.00    -0.230 N 
HETATM   44  C21 UNL     1      48.767  15.973 -12.767  1.00  0.00     0.165 C 
ATOM     45  H7  UNL     1      47.530  17.582 -12.118  1.00  0.00     0.177 HD
ENDBRANCH   8  43
TORSDOF 17
ENDMDL
