MODEL 1
REMARK VINA RESULT: -8.788357686      0.000      0.000
REMARK  16 active torsions:
REMARK  status: ('A' for Active; 'I' for Inactive)
REMARK    1  A    between atoms: C3_3  and  C4_4 
REMARK    2  A    between atoms: C4_4  and  C5_5 
REMARK    3  A    between atoms: C5_5  and  C6_6 
REMARK    4  A    between atoms: C6_6  and  N1_7 
REMARK    5  A    between atoms: N1_7  and  C7_10 
REMARK    6  A    between atoms: C7_10  and  C8_11 
REMARK    7  A    between atoms: C10_14  and  O2_15 
REMARK    8  A    between atoms: C11_17  and  C12_18 
REMARK    9  A    between atoms: C14_20  and  C15_21 
REMARK   10  A    between atoms: C16_22  and  C17_23 
REMARK   11  A    between atoms: C18_25  and  C19_26 
REMARK   12  A    between atoms: C19_26  and  C20_27 
REMARK   13  A    between atoms: C20_27  and  N2_28 
REMARK   14  A    between atoms: N2_28  and  C21_31 
REMARK   15  A    between atoms: C23_33  and  O4_34 
REMARK   16  A    between atoms: C24_36  and  O5_37 
ROOT
HETATM    1  C12 UNL     1      50.006  19.498  -8.680  1.00  0.00    -0.057 C 
HETATM    2  C13 UNL     1      49.351  18.150  -8.633  1.00  0.00     0.048 C 
HETATM    3  C14 UNL     1      50.975  19.753  -7.863  1.00  0.00     0.007 C 
ENDROOT
BRANCH   1   4
HETATM    4  C11 UNL     1      49.503  20.458  -9.676  1.00  0.00    -0.043 C 
HETATM    5  C10 UNL     1      50.431  21.476 -10.185  1.00  0.00     0.177 C 
HETATM    6  C9  UNL     1      50.944  21.363 -11.566  1.00  0.00     0.161 C 
HETATM    7  O1  UNL     1      50.528  22.489 -12.337  1.00  0.00    -0.375 OA
HETATM    8  C27 UNL     1      50.133  20.542 -12.518  1.00  0.00     0.048 C 
HETATM    9  C8  UNL     1      49.353  21.810 -12.647  1.00  0.00     0.154 C 
HETATM   10  C26 UNL     1      49.461  19.372 -11.865  1.00  0.00     0.014 C 
HETATM   11  C25 UNL     1      48.635  19.750 -10.691  1.00  0.00     0.038 C 
BRANCH   5  12
HETATM   12  O2  UNL     1      49.934  22.799  -9.945  1.00  0.00    -0.389 OA
ATOM     13  H2  UNL     1      49.171  22.967 -10.485  1.00  0.00     0.210 HD
ENDBRANCH   5  12
BRANCH   9  14
HETATM   14  C7  UNL     1      48.706  22.102 -13.958  1.00  0.00     0.264 C 
BRANCH  14  15
HETATM   15  N1  UNL     1      47.377  22.616 -13.905  1.00  0.00    -0.073 N 
ATOM     16  H12 UNL     1      46.862  22.447 -14.769  1.00  0.00     0.277 HD
ATOM     17  H11 UNL     1      47.356  23.636 -13.921  1.00  0.00     0.277 HD
BRANCH  15  18
HETATM   18  C6  UNL     1      46.702  22.075 -12.752  1.00  0.00     0.232 C 
BRANCH  18  19
HETATM   19  C5  UNL     1      45.486  21.313 -13.158  1.00  0.00     0.031 C 
BRANCH  19  20
HETATM   20  C4  UNL     1      45.635  19.858 -12.750  1.00  0.00     0.028 C 
BRANCH  20  21
HETATM   21  C3  UNL     1      46.367  19.123 -13.782  1.00  0.00    -0.031 C 
HETATM   22  C2  UNL     1      46.058  17.882 -14.095  1.00  0.00    -0.035 C 
HETATM   23  C1  UNL     1      44.961  17.184 -13.414  1.00  0.00     0.036 C 
ENDBRANCH  20  21
ENDBRANCH  19  20
ENDBRANCH  18  19
ENDBRANCH  15  18
ENDBRANCH  14  15
ENDBRANCH   9  14
ENDBRANCH   1   4
BRANCH   3  24
HETATM   24  C15 UNL     1      51.423  18.744  -6.896  1.00  0.00    -0.001 C 
HETATM   25  C16 UNL     1      51.794  19.110  -5.702  1.00  0.00     0.007 C 
BRANCH  25  26
HETATM   26  C17 UNL     1      52.261  18.156  -4.655  1.00  0.00     0.176 C 
HETATM   27  O3  UNL     1      53.529  17.779  -4.992  1.00  0.00    -0.371 OA
HETATM   28  C18 UNL     1      54.069  17.166  -3.882  1.00  0.00     0.155 C 
HETATM   29  C23 UNL     1      53.563  17.992  -2.730  1.00  0.00     0.178 C 
HETATM   30  C24 UNL     1      52.429  18.807  -3.315  1.00  0.00     0.182 C 
BRANCH  28  31
HETATM   31  C19 UNL     1      53.622  15.714  -3.807  1.00  0.00     0.062 C 
BRANCH  31  32
HETATM   32  C20 UNL     1      53.287  15.323  -2.385  1.00  0.00     0.235 C 
BRANCH  32  33
HETATM   33  N2  UNL     1      52.021  14.643  -2.373  1.00  0.00    -0.075 N 
ATOM     34  H22 UNL     1      51.255  15.316  -2.386  1.00  0.00     0.277 HD
ATOM     35  H21 UNL     1      51.859  14.177  -3.266  1.00  0.00     0.277 HD
BRANCH  33  36
HETATM   36  C21 UNL     1      51.860  13.724  -1.296  1.00  0.00     0.228 C 
HETATM   37  C22 UNL     1      52.978  12.701  -1.234  1.00  0.00     0.034 C 
ENDBRANCH  33  36
ENDBRANCH  32  33
ENDBRANCH  31  32
ENDBRANCH  28  31
BRANCH  29  38
HETATM   38  O4  UNL     1      54.570  18.879  -2.349  1.00  0.00    -0.390 OA
ATOM     39  H4  UNL     1      54.612  19.578  -2.992  1.00  0.00     0.210 HD
ENDBRANCH  29  38
BRANCH  30  40
HETATM   40  O5  UNL     1      51.311  18.613  -2.480  1.00  0.00    -0.390 OA
ATOM     41  H5  UNL     1      51.558  18.444  -1.578  1.00  0.00     0.210 HD
ENDBRANCH  30  40
ENDBRANCH  25  26
ENDBRANCH   3  24
TORSDOF 16
ENDMDL
MODEL 2
REMARK VINA RESULT: -8.663016946      0.872      1.095
REMARK  16 active torsions:
REMARK  status: ('A' for Active; 'I' for Inactive)
REMARK    1  A    between atoms: C3_3  and  C4_4 
REMARK    2  A    between atoms: C4_4  and  C5_5 
REMARK    3  A    between atoms: C5_5  and  C6_6 
REMARK    4  A    between atoms: C6_6  and  N1_7 
REMARK    5  A    between atoms: N1_7  and  C7_10 
REMARK    6  A    between atoms: C7_10  and  C8_11 
REMARK    7  A    between atoms: C10_14  and  O2_15 
REMARK    8  A    between atoms: C11_17  and  C12_18 
REMARK    9  A    between atoms: C14_20  and  C15_21 
REMARK   10  A    between atoms: C16_22  and  C17_23 
REMARK   11  A    between atoms: C18_25  and  C19_26 
REMARK   12  A    between atoms: C19_26  and  C20_27 
REMARK   13  A    between atoms: C20_27  and  N2_28 
REMARK   14  A    between atoms: N2_28  and  C21_31 
REMARK   15  A    between atoms: C23_33  and  O4_34 
REMARK   16  A    between atoms: C24_36  and  O5_37 
ROOT
HETATM    1  C12 UNL     1      49.984  19.491  -8.688  1.00  0.00    -0.057 C 
HETATM    2  C13 UNL     1      49.334  18.141  -8.652  1.00  0.00     0.048 C 
HETATM    3  C14 UNL     1      50.945  19.747  -7.861  1.00  0.00     0.007 C 
ENDROOT
BRANCH   1   4
HETATM    4  C11 UNL     1      49.487  20.453  -9.685  1.00  0.00    -0.043 C 
HETATM    5  C10 UNL     1      50.425  21.455 -10.206  1.00  0.00     0.177 C 
HETATM    6  C9  UNL     1      50.926  21.328 -11.591  1.00  0.00     0.161 C 
HETATM    7  O1  UNL     1      50.519  22.456 -12.364  1.00  0.00    -0.375 OA
HETATM    8  C27 UNL     1      50.097  20.514 -12.532  1.00  0.00     0.048 C 
HETATM    9  C8  UNL     1      49.333  21.791 -12.662  1.00  0.00     0.154 C 
HETATM   10  C26 UNL     1      49.414  19.356 -11.868  1.00  0.00     0.014 C 
HETATM   11  C25 UNL     1      48.601  19.751 -10.690  1.00  0.00     0.038 C 
BRANCH   5  12
HETATM   12  O2  UNL     1      49.947  22.786  -9.970  1.00  0.00    -0.389 OA
ATOM     13  H2  UNL     1      49.414  23.079 -10.699  1.00  0.00     0.210 HD
ENDBRANCH   5  12
BRANCH   9  14
HETATM   14  C7  UNL     1      48.680  22.085 -13.970  1.00  0.00     0.264 C 
BRANCH  14  15
HETATM   15  N1  UNL     1      47.352  22.602 -13.910  1.00  0.00    -0.073 N 
ATOM     16  H12 UNL     1      46.834  22.435 -14.773  1.00  0.00     0.277 HD
ATOM     17  H11 UNL     1      47.333  23.621 -13.926  1.00  0.00     0.277 HD
BRANCH  15  18
HETATM   18  C6  UNL     1      46.682  22.060 -12.755  1.00  0.00     0.232 C 
BRANCH  18  19
HETATM   19  C5  UNL     1      45.798  20.922 -13.139  1.00  0.00     0.031 C 
BRANCH  19  20
HETATM   20  C4  UNL     1      44.850  20.604 -11.997  1.00  0.00     0.028 C 
BRANCH  20  21
HETATM   21  C3  UNL     1      44.747  19.154 -11.823  1.00  0.00    -0.031 C 
HETATM   22  C2  UNL     1      43.683  18.597 -11.284  1.00  0.00    -0.035 C 
HETATM   23  C1  UNL     1      42.552  19.416 -10.834  1.00  0.00     0.036 C 
ENDBRANCH  20  21
ENDBRANCH  19  20
ENDBRANCH  18  19
ENDBRANCH  15  18
ENDBRANCH  14  15
ENDBRANCH   9  14
ENDBRANCH   1   4
BRANCH   3  24
HETATM   24  C15 UNL     1      51.388  18.737  -6.893  1.00  0.00    -0.001 C 
HETATM   25  C16 UNL     1      51.766  19.102  -5.702  1.00  0.00     0.007 C 
BRANCH  25  26
HETATM   26  C17 UNL     1      52.228  18.147  -4.654  1.00  0.00     0.176 C 
HETATM   27  O3  UNL     1      53.486  17.746  -5.004  1.00  0.00    -0.371 OA
HETATM   28  C18 UNL     1      54.028  17.130  -3.896  1.00  0.00     0.155 C 
HETATM   29  C23 UNL     1      53.551  17.972  -2.743  1.00  0.00     0.178 C 
HETATM   30  C24 UNL     1      52.424  18.804  -3.320  1.00  0.00     0.182 C 
BRANCH  28  31
HETATM   31  C19 UNL     1      53.556  15.686  -3.805  1.00  0.00     0.062 C 
BRANCH  31  32
HETATM   32  C20 UNL     1      53.331  15.279  -2.367  1.00  0.00     0.235 C 
BRANCH  32  33
HETATM   33  N2  UNL     1      51.970  14.844  -2.212  1.00  0.00    -0.075 N 
ATOM     34  H22 UNL     1      51.528  15.329  -1.432  1.00  0.00     0.277 HD
ATOM     35  H21 UNL     1      51.396  15.190  -2.981  1.00  0.00     0.277 HD
BRANCH  33  36
HETATM   36  C21 UNL     1      51.817  13.434  -2.072  1.00  0.00     0.228 C 
HETATM   37  C22 UNL     1      52.885  12.820  -1.188  1.00  0.00     0.034 C 
ENDBRANCH  33  36
ENDBRANCH  32  33
ENDBRANCH  31  32
ENDBRANCH  28  31
BRANCH  29  38
HETATM   38  O4  UNL     1      54.577  18.843  -2.380  1.00  0.00    -0.390 OA
ATOM     39  H4  UNL     1      55.402  18.376  -2.439  1.00  0.00     0.210 HD
ENDBRANCH  29  38
BRANCH  30  40
HETATM   40  O5  UNL     1      51.313  18.634  -2.471  1.00  0.00    -0.390 OA
ATOM     41  H5  UNL     1      51.225  17.739  -2.165  1.00  0.00     0.210 HD
ENDBRANCH  30  40
ENDBRANCH  25  26
ENDBRANCH   3  24
TORSDOF 16
ENDMDL
MODEL 3
REMARK VINA RESULT: -8.301531955      6.089      9.952
REMARK  16 active torsions:
REMARK  status: ('A' for Active; 'I' for Inactive)
REMARK    1  A    between atoms: C3_3  and  C4_4 
REMARK    2  A    between atoms: C4_4  and  C5_5 
REMARK    3  A    between atoms: C5_5  and  C6_6 
REMARK    4  A    between atoms: C6_6  and  N1_7 
REMARK    5  A    between atoms: N1_7  and  C7_10 
REMARK    6  A    between atoms: C7_10  and  C8_11 
REMARK    7  A    between atoms: C10_14  and  O2_15 
REMARK    8  A    between atoms: C11_17  and  C12_18 
REMARK    9  A    between atoms: C14_20  and  C15_21 
REMARK   10  A    between atoms: C16_22  and  C17_23 
REMARK   11  A    between atoms: C18_25  and  C19_26 
REMARK   12  A    between atoms: C19_26  and  C20_27 
REMARK   13  A    between atoms: C20_27  and  N2_28 
REMARK   14  A    between atoms: N2_28  and  C21_31 
REMARK   15  A    between atoms: C23_33  and  O4_34 
REMARK   16  A    between atoms: C24_36  and  O5_37 
ROOT
HETATM    1  C12 UNL     1      45.364  17.694 -13.324  1.00  0.00    -0.057 C 
HETATM    2  C13 UNL     1      45.535  16.351 -13.966  1.00  0.00     0.048 C 
HETATM    3  C14 UNL     1      44.584  17.805 -12.298  1.00  0.00     0.007 C 
ENDROOT
BRANCH   1   4
HETATM    4  C11 UNL     1      46.115  18.820 -13.904  1.00  0.00    -0.043 C 
HETATM    5  C10 UNL     1      46.313  20.017 -13.076  1.00  0.00     0.177 C 
HETATM    6  C9  UNL     1      47.655  20.303 -12.525  1.00  0.00     0.161 C 
HETATM    7  O1  UNL     1      48.142  21.541 -13.041  1.00  0.00    -0.375 OA
HETATM    8  C27 UNL     1      48.816  19.672 -13.226  1.00  0.00     0.048 C 
HETATM    9  C8  UNL     1      48.665  20.850 -14.132  1.00  0.00     0.154 C 
HETATM   10  C26 UNL     1      48.503  18.316 -13.785  1.00  0.00     0.014 C 
HETATM   11  C25 UNL     1      47.313  18.308 -14.671  1.00  0.00     0.038 C 
BRANCH   5  12
HETATM   12  O2  UNL     1      45.779  21.184 -13.715  1.00  0.00    -0.389 OA
ATOM     13  H2  UNL     1      46.340  21.454 -14.432  1.00  0.00     0.210 HD
ENDBRANCH   5  12
BRANCH   9  14
HETATM   14  C7  UNL     1      49.892  21.397 -14.778  1.00  0.00     0.264 C 
BRANCH  14  15
HETATM   15  N1  UNL     1      50.320  22.683 -14.333  1.00  0.00    -0.073 N 
ATOM     16  H12 UNL     1      49.570  23.204 -13.879  1.00  0.00     0.277 HD
ATOM     17  H11 UNL     1      50.491  23.323 -15.108  1.00  0.00     0.277 HD
BRANCH  15  18
HETATM   18  C6  UNL     1      51.474  22.533 -13.482  1.00  0.00     0.232 C 
BRANCH  18  19
HETATM   19  C5  UNL     1      51.332  23.354 -12.245  1.00  0.00     0.031 C 
BRANCH  19  20
HETATM   20  C4  UNL     1      50.543  22.580 -11.206  1.00  0.00     0.028 C 
BRANCH  20  21
HETATM   21  C3  UNL     1      51.129  21.251 -11.022  1.00  0.00    -0.031 C 
HETATM   22  C2  UNL     1      50.857  20.517  -9.964  1.00  0.00    -0.035 C 
HETATM   23  C1  UNL     1      49.950  21.008  -8.920  1.00  0.00     0.036 C 
ENDBRANCH  20  21
ENDBRANCH  19  20
ENDBRANCH  18  19
ENDBRANCH  15  18
ENDBRANCH  14  15
ENDBRANCH   9  14
ENDBRANCH   1   4
BRANCH   3  24
HETATM   24  C15 UNL     1      43.867  16.636 -11.775  1.00  0.00    -0.001 C 
HETATM   25  C16 UNL     1      42.565  16.636 -11.739  1.00  0.00     0.007 C 
BRANCH  25  26
HETATM   26  C17 UNL     1      41.753  15.494 -11.228  1.00  0.00     0.176 C 
HETATM   27  O3  UNL     1      40.568  16.010 -10.789  1.00  0.00    -0.371 OA
HETATM   28  C18 UNL     1      39.710  14.944 -10.621  1.00  0.00     0.155 C 
HETATM   29  C23 UNL     1      40.017  14.044 -11.787  1.00  0.00     0.178 C 
HETATM   30  C24 UNL     1      41.345  14.544 -12.315  1.00  0.00     0.182 C 
BRANCH  28  31
HETATM   31  C19 UNL     1      39.954  14.272  -9.278  1.00  0.00     0.062 C 
BRANCH  31  32
HETATM   32  C20 UNL     1      39.531  15.169  -8.137  1.00  0.00     0.235 C 
BRANCH  32  33
HETATM   33  N2  UNL     1      40.608  16.068  -7.825  1.00  0.00    -0.075 N 
ATOM     34  H22 UNL     1      40.812  16.669  -8.623  1.00  0.00     0.277 HD
ATOM     35  H21 UNL     1      40.303  16.769  -7.150  1.00  0.00     0.277 HD
BRANCH  33  36
HETATM   36  C21 UNL     1      41.795  15.424  -7.371  1.00  0.00     0.228 C 
HETATM   37  C22 UNL     1      43.053  16.133  -7.835  1.00  0.00     0.034 C 
ENDBRANCH  33  36
ENDBRANCH  32  33
ENDBRANCH  31  32
ENDBRANCH  28  31
BRANCH  29  38
HETATM   38  O4  UNL     1      39.059  14.263 -12.777  1.00  0.00    -0.390 OA
ATOM     39  H4  UNL     1      39.349  14.987 -13.320  1.00  0.00     0.210 HD
ENDBRANCH  29  38
BRANCH  30  40
HETATM   40  O5  UNL     1      42.200  13.428 -12.400  1.00  0.00    -0.390 OA
ATOM     41  H5  UNL     1      41.753  12.614 -12.198  1.00  0.00     0.210 HD
ENDBRANCH  30  40
ENDBRANCH  25  26
ENDBRANCH   3  24
TORSDOF 16
ENDMDL
MODEL 4
REMARK VINA RESULT: -8.220675198      6.188     10.095
REMARK  16 active torsions:
REMARK  status: ('A' for Active; 'I' for Inactive)
REMARK    1  A    between atoms: C3_3  and  C4_4 
REMARK    2  A    between atoms: C4_4  and  C5_5 
REMARK    3  A    between atoms: C5_5  and  C6_6 
REMARK    4  A    between atoms: C6_6  and  N1_7 
REMARK    5  A    between atoms: N1_7  and  C7_10 
REMARK    6  A    between atoms: C7_10  and  C8_11 
REMARK    7  A    between atoms: C10_14  and  O2_15 
REMARK    8  A    between atoms: C11_17  and  C12_18 
REMARK    9  A    between atoms: C14_20  and  C15_21 
REMARK   10  A    between atoms: C16_22  and  C17_23 
REMARK   11  A    between atoms: C18_25  and  C19_26 
REMARK   12  A    between atoms: C19_26  and  C20_27 
REMARK   13  A    between atoms: C20_27  and  N2_28 
REMARK   14  A    between atoms: N2_28  and  C21_31 
REMARK   15  A    between atoms: C23_33  and  O4_34 
REMARK   16  A    between atoms: C24_36  and  O5_37 
ROOT
HETATM    1  C12 UNL     1      44.805  18.273 -12.725  1.00  0.00    -0.057 C 
HETATM    2  C13 UNL     1      44.663  16.851 -13.175  1.00  0.00     0.048 C 
HETATM    3  C14 UNL     1      44.094  18.689 -11.728  1.00  0.00     0.007 C 
ENDROOT
BRANCH   1   4
HETATM    4  C11 UNL     1      45.766  19.119 -13.453  1.00  0.00    -0.043 C 
HETATM    5  C10 UNL     1      46.077  20.443 -12.900  1.00  0.00     0.177 C 
HETATM    6  C9  UNL     1      47.396  20.676 -12.274  1.00  0.00     0.161 C 
HETATM    7  O1  UNL     1      48.110  21.679 -12.996  1.00  0.00    -0.375 OA
HETATM    8  C27 UNL     1      48.500  19.749 -12.673  1.00  0.00     0.048 C 
HETATM    9  C8  UNL     1      48.609  20.684 -13.833  1.00  0.00     0.154 C 
HETATM   10  C26 UNL     1      48.030  18.351 -12.944  1.00  0.00     0.014 C 
HETATM   11  C25 UNL     1      46.930  18.285 -13.938  1.00  0.00     0.038 C 
BRANCH   5  12
HETATM   12  O2  UNL     1      45.784  21.481 -13.844  1.00  0.00    -0.389 OA
ATOM     13  H2  UNL     1      44.934  21.864 -13.660  1.00  0.00     0.210 HD
ENDBRANCH   5  12
BRANCH   9  14
HETATM   14  C7  UNL     1      49.955  20.894 -14.437  1.00  0.00     0.264 C 
BRANCH  14  15
HETATM   15  N1  UNL     1      50.490  22.213 -14.344  1.00  0.00    -0.073 N 
ATOM     16  H12 UNL     1      49.776  22.903 -14.109  1.00  0.00     0.277 HD
ATOM     17  H11 UNL     1      50.758  22.587 -15.254  1.00  0.00     0.277 HD
BRANCH  15  18
HETATM   18  C6  UNL     1      51.585  22.218 -13.407  1.00  0.00     0.232 C 
BRANCH  18  19
HETATM   19  C5  UNL     1      51.365  23.235 -12.338  1.00  0.00     0.031 C 
BRANCH  19  20
HETATM   20  C4  UNL     1      50.659  22.592 -11.159  1.00  0.00     0.028 C 
BRANCH  20  21
HETATM   21  C3  UNL     1      51.165  21.233 -10.955  1.00  0.00    -0.031 C 
HETATM   22  C2  UNL     1      50.832  20.525  -9.896  1.00  0.00    -0.035 C 
HETATM   23  C1  UNL     1      49.937  21.077  -8.872  1.00  0.00     0.036 C 
ENDBRANCH  20  21
ENDBRANCH  19  20
ENDBRANCH  18  19
ENDBRANCH  15  18
ENDBRANCH  14  15
ENDBRANCH   9  14
ENDBRANCH   1   4
BRANCH   3  24
HETATM   24  C15 UNL     1      43.156  17.787 -11.051  1.00  0.00    -0.001 C 
HETATM   25  C16 UNL     1      41.915  18.148 -10.886  1.00  0.00     0.007 C 
BRANCH  25  26
HETATM   26  C17 UNL     1      40.891  17.297 -10.213  1.00  0.00     0.176 C 
HETATM   27  O3  UNL     1      41.284  15.999 -10.370  1.00  0.00    -0.371 OA
HETATM   28  C18 UNL     1      40.531  15.248  -9.493  1.00  0.00     0.155 C 
HETATM   29  C23 UNL     1      40.448  16.107  -8.260  1.00  0.00     0.178 C 
HETATM   30  C24 UNL     1      40.872  17.484  -8.725  1.00  0.00     0.182 C 
BRANCH  28  31
HETATM   31  C19 UNL     1      39.165  14.943 -10.091  1.00  0.00     0.062 C 
BRANCH  31  32
HETATM   32  C20 UNL     1      39.238  13.768 -11.040  1.00  0.00     0.235 C 
BRANCH  32  33
HETATM   33  N2  UNL     1      39.900  14.182 -12.246  1.00  0.00    -0.075 N 
ATOM     34  H22 UNL     1      39.340  14.879 -12.738  1.00  0.00     0.277 HD
ATOM     35  H21 UNL     1      40.723  14.743 -12.027  1.00  0.00     0.277 HD
BRANCH  33  36
HETATM   36  C21 UNL     1      40.246  13.113 -13.122  1.00  0.00     0.228 C 
HETATM   37  C22 UNL     1      39.129  12.773 -14.090  1.00  0.00     0.034 C 
ENDBRANCH  33  36
ENDBRANCH  32  33
ENDBRANCH  31  32
ENDBRANCH  28  31
BRANCH  29  38
HETATM   38  O4  UNL     1      41.401  15.657  -7.346  1.00  0.00    -0.390 OA
ATOM     39  H4  UNL     1      42.245  16.017  -7.592  1.00  0.00     0.210 HD
ENDBRANCH  29  38
BRANCH  30  40
HETATM   40  O5  UNL     1      39.871  18.384  -8.311  1.00  0.00    -0.390 OA
ATOM     41  H5  UNL     1      39.045  17.949  -8.134  1.00  0.00     0.210 HD
ENDBRANCH  30  40
ENDBRANCH  25  26
ENDBRANCH   3  24
TORSDOF 16
ENDMDL
MODEL 5
REMARK VINA RESULT: -8.124755772      5.933      9.155
REMARK  16 active torsions:
REMARK  status: ('A' for Active; 'I' for Inactive)
REMARK    1  A    between atoms: C3_3  and  C4_4 
REMARK    2  A    between atoms: C4_4  and  C5_5 
REMARK    3  A    between atoms: C5_5  and  C6_6 
REMARK    4  A    between atoms: C6_6  and  N1_7 
REMARK    5  A    between atoms: N1_7  and  C7_10 
REMARK    6  A    between atoms: C7_10  and  C8_11 
REMARK    7  A    between atoms: C10_14  and  O2_15 
REMARK    8  A    between atoms: C11_17  and  C12_18 
REMARK    9  A    between atoms: C14_20  and  C15_21 
REMARK   10  A    between atoms: C16_22  and  C17_23 
REMARK   11  A    between atoms: C18_25  and  C19_26 
REMARK   12  A    between atoms: C19_26  and  C20_27 
REMARK   13  A    between atoms: C20_27  and  N2_28 
REMARK   14  A    between atoms: N2_28  and  C21_31 
REMARK   15  A    between atoms: C23_33  and  O4_34 
REMARK   16  A    between atoms: C24_36  and  O5_37 
ROOT
HETATM    1  C12 UNL     1      45.008  17.865 -12.755  1.00  0.00    -0.057 C 
HETATM    2  C13 UNL     1      44.732  16.571 -13.458  1.00  0.00     0.048 C 
HETATM    3  C14 UNL     1      44.521  18.052 -11.571  1.00  0.00     0.007 C 
ENDROOT
BRANCH   1   4
HETATM    4  C11 UNL     1      45.838  18.854 -13.462  1.00  0.00    -0.043 C 
HETATM    5  C10 UNL     1      46.099  20.138 -12.798  1.00  0.00     0.177 C 
HETATM    6  C9  UNL     1      47.447  20.414 -12.258  1.00  0.00     0.161 C 
HETATM    7  O1  UNL     1      48.020  21.538 -12.923  1.00  0.00    -0.375 OA
HETATM    8  C27 UNL     1      48.577  19.624 -12.839  1.00  0.00     0.048 C 
HETATM    9  C8  UNL     1      48.516  20.676 -13.898  1.00  0.00     0.154 C 
HETATM   10  C26 UNL     1      48.188  18.227 -13.218  1.00  0.00     0.014 C 
HETATM   11  C25 UNL     1      47.013  18.170 -14.124  1.00  0.00     0.038 C 
BRANCH   5  12
HETATM   12  O2  UNL     1      45.650  21.238 -13.601  1.00  0.00    -0.389 OA
ATOM     13  H2  UNL     1      44.866  20.997 -14.080  1.00  0.00     0.210 HD
ENDBRANCH   5  12
BRANCH   9  14
HETATM   14  C7  UNL     1      49.785  21.054 -14.582  1.00  0.00     0.264 C 
BRANCH  14  15
HETATM   15  N1  UNL     1      50.269  22.372 -14.329  1.00  0.00    -0.073 N 
ATOM     16  H12 UNL     1      49.521  23.015 -14.071  1.00  0.00     0.277 HD
ATOM     17  H11 UNL     1      50.575  22.841 -15.181  1.00  0.00     0.277 HD
BRANCH  15  18
HETATM   18  C6  UNL     1      51.309  22.315 -13.333  1.00  0.00     0.232 C 
BRANCH  18  19
HETATM   19  C5  UNL     1      51.048  23.291 -12.236  1.00  0.00     0.031 C 
BRANCH  19  20
HETATM   20  C4  UNL     1      50.502  22.560 -11.022  1.00  0.00     0.028 C 
BRANCH  20  21
HETATM   21  C3  UNL     1      51.112  21.233 -10.922  1.00  0.00    -0.031 C 
HETATM   22  C2  UNL     1      50.863  20.435  -9.905  1.00  0.00    -0.035 C 
HETATM   23  C1  UNL     1      49.958  20.849  -8.827  1.00  0.00     0.036 C 
ENDBRANCH  20  21
ENDBRANCH  19  20
ENDBRANCH  18  19
ENDBRANCH  15  18
ENDBRANCH  14  15
ENDBRANCH   9  14
ENDBRANCH   1   4
BRANCH   3  24
HETATM   24  C15 UNL     1      43.702  17.019 -10.928  1.00  0.00    -0.001 C 
HETATM   25  C16 UNL     1      43.947  16.670  -9.697  1.00  0.00     0.007 C 
BRANCH  25  26
HETATM   26  C17 UNL     1      43.166  15.633  -8.962  1.00  0.00     0.176 C 
HETATM   27  O3  UNL     1      42.159  15.229  -9.790  1.00  0.00    -0.371 OA
HETATM   28  C18 UNL     1      41.645  14.068  -9.252  1.00  0.00     0.155 C 
HETATM   29  C23 UNL     1      42.859  13.333  -8.750  1.00  0.00     0.178 C 
HETATM   30  C24 UNL     1      43.954  14.380  -8.723  1.00  0.00     0.182 C 
BRANCH  28  31
HETATM   31  C19 UNL     1      40.652  14.389  -8.145  1.00  0.00     0.062 C 
BRANCH  31  32
HETATM   32  C20 UNL     1      39.505  15.222  -8.671  1.00  0.00     0.235 C 
BRANCH  32  33
HETATM   33  N2  UNL     1      39.638  16.565  -8.177  1.00  0.00    -0.075 N 
ATOM     34  H22 UNL     1      38.972  16.735  -7.424  1.00  0.00     0.277 HD
ATOM     35  H21 UNL     1      40.513  16.672  -7.664  1.00  0.00     0.277 HD
BRANCH  33  36
HETATM   36  C21 UNL     1      39.523  17.572  -9.179  1.00  0.00     0.228 C 
HETATM   37  C22 UNL     1      40.741  18.474  -9.236  1.00  0.00     0.034 C 
ENDBRANCH  33  36
ENDBRANCH  32  33
ENDBRANCH  31  32
ENDBRANCH  28  31
BRANCH  29  38
HETATM   38  O4  UNL     1      43.215  12.373  -9.697  1.00  0.00    -0.390 OA
ATOM     39  H4  UNL     1      44.090  12.571 -10.009  1.00  0.00     0.210 HD
ENDBRANCH  29  38
BRANCH  30  40
HETATM   40  O5  UNL     1      44.525  14.342  -7.436  1.00  0.00    -0.390 OA
ATOM     41  H5  UNL     1      45.065  15.103  -7.258  1.00  0.00     0.210 HD
ENDBRANCH  30  40
ENDBRANCH  25  26
ENDBRANCH   3  24
TORSDOF 16
ENDMDL
