MODEL 1
REMARK VINA RESULT: -6.828133084      0.000      0.000
REMARK  5 active torsions:
REMARK  status: ('A' for Active; 'I' for Inactive)
REMARK    1  A    between atoms: C2_2  and  C3_3 
REMARK    2  A    between atoms: C3_3  and  C4_4 
REMARK    3  A    between atoms: C11_11  and  C12_12 
REMARK    4  A    between atoms: C12_12  and  C14_14 
REMARK    5  A    between atoms: C14_14  and  S1_16 
ROOT
HETATM    1  C4  UNL     1      28.583  74.406  47.855  1.00  0.00     0.021 C 
HETATM    2  C5  UNL     1      28.981  73.759  49.169  1.00  0.00     0.009 C 
HETATM    3  C6  UNL     1      28.028  74.287  50.220  1.00  0.00     0.033 C 
HETATM    4  C7  UNL     1      27.784  75.764  49.949  1.00  0.00     0.187 C 
HETATM    5  C8  UNL     1      26.629  75.974  48.987  1.00  0.00     0.055 C 
HETATM    6  C9  UNL     1      27.300  76.528  47.783  1.00  0.00     0.081 C 
HETATM    7  C10 UNL     1      27.487  78.045  47.866  1.00  0.00     0.055 C 
HETATM    8  C11 UNL     1      26.361  78.508  47.034  1.00  0.00     0.138 C 
HETATM    9  O4  UNL     1      26.410  77.594  45.948  1.00  0.00    -0.315 OA
HETATM   10  C16 UNL     1      26.641  76.323  46.513  1.00  0.00     0.270 C 
HETATM   11  O5  UNL     1      26.292  75.263  45.924  1.00  0.00    -0.264 OA
HETATM   12  C17 UNL     1      28.684  75.896  47.893  1.00  0.00     0.209 C 
HETATM   13  N1  UNL     1      28.973  76.292  49.282  1.00  0.00    -0.065 N 
ATOM     14  H11 UNL     1      29.869  75.979  49.656  1.00  0.00     0.278 HD
ATOM     15  H12 UNL     1      29.164  77.283  49.431  1.00  0.00     0.278 HD
ENDROOT
BRANCH   8  16
HETATM   16  C12 UNL     1      26.248  79.915  46.657  1.00  0.00     0.032 C 
HETATM   17  C13 UNL     1      26.813  80.101  45.249  1.00  0.00     0.014 C 
BRANCH  16  18
HETATM   18  C14 UNL     1      24.968  80.628  46.862  1.00  0.00     0.132 C 
HETATM   19  C15 UNL     1      24.756  81.841  46.004  1.00  0.00     0.030 C 
BRANCH  18  20
HETATM   20  S1  UNL     1      24.883  81.195  48.569  1.00  0.00     0.106 S 
HETATM   21  O1  UNL     1      24.851  82.720  48.562  1.00  0.00    -0.595 OA
HETATM   22  O2  UNL     1      26.095  80.825  49.349  1.00  0.00    -0.595 OA
HETATM   23  O3  UNL     1      23.534  80.624  49.347  1.00  0.00    -0.595 OA
ENDBRANCH  18  20
ENDBRANCH  16  18
ENDBRANCH   8  16
BRANCH   1  24
HETATM   24  C3  UNL     1      29.415  73.786  46.738  1.00  0.00     0.033 C 
BRANCH  24  25
HETATM   25  C2  UNL     1      30.770  74.329  46.697  1.00  0.00    -0.036 C 
HETATM   26  C1  UNL     1      31.473  74.272  45.579  1.00  0.00     0.007 C 
ENDBRANCH  24  25
ENDBRANCH   1  24
TORSDOF 5
ENDMDL
MODEL 2
REMARK VINA RESULT: -6.438933601      2.346      4.062
REMARK  5 active torsions:
REMARK  status: ('A' for Active; 'I' for Inactive)
REMARK    1  A    between atoms: C2_2  and  C3_3 
REMARK    2  A    between atoms: C3_3  and  C4_4 
REMARK    3  A    between atoms: C11_11  and  C12_12 
REMARK    4  A    between atoms: C12_12  and  C14_14 
REMARK    5  A    between atoms: C14_14  and  S1_16 
ROOT
HETATM    1  C4  UNL     1      28.075  75.235  49.719  1.00  0.00     0.021 C 
HETATM    2  C5  UNL     1      28.332  73.770  49.416  1.00  0.00     0.009 C 
HETATM    3  C6  UNL     1      28.758  73.694  47.966  1.00  0.00     0.033 C 
HETATM    4  C7  UNL     1      27.913  74.673  47.164  1.00  0.00     0.187 C 
HETATM    5  C8  UNL     1      28.535  76.058  47.137  1.00  0.00     0.055 C 
HETATM    6  C9  UNL     1      27.569  76.868  47.922  1.00  0.00     0.081 C 
HETATM    7  C10 UNL     1      26.411  77.387  47.065  1.00  0.00     0.055 C 
HETATM    8  C11 UNL     1      26.851  78.772  46.817  1.00  0.00     0.138 C 
HETATM    9  O4  UNL     1      27.344  79.152  48.093  1.00  0.00    -0.315 OA
HETATM   10  C16 UNL     1      28.083  78.051  48.573  1.00  0.00     0.270 C 
HETATM   11  O5  UNL     1      29.008  78.194  49.421  1.00  0.00    -0.264 OA
HETATM   12  C17 UNL     1      26.995  75.818  48.869  1.00  0.00     0.209 C 
HETATM   13  N1  UNL     1      26.631  74.814  47.853  1.00  0.00    -0.065 N 
ATOM     14  H11 UNL     1      26.220  73.951  48.209  1.00  0.00     0.278 HD
ATOM     15  H12 UNL     1      25.833  75.048  47.263  1.00  0.00     0.278 HD
ENDROOT
BRANCH   8  16
HETATM   16  C12 UNL     1      25.949  79.734  46.189  1.00  0.00     0.032 C 
HETATM   17  C13 UNL     1      25.155  80.458  47.276  1.00  0.00     0.014 C 
BRANCH  16  18
HETATM   18  C14 UNL     1      26.464  80.649  45.146  1.00  0.00     0.132 C 
HETATM   19  C15 UNL     1      25.758  81.969  45.035  1.00  0.00     0.030 C 
BRANCH  18  20
HETATM   20  S1  UNL     1      26.305  79.853  43.540  1.00  0.00     0.106 S 
HETATM   21  O1  UNL     1      27.441  80.347  42.649  1.00  0.00    -0.595 OA
HETATM   22  O2  UNL     1      25.051  80.242  42.838  1.00  0.00    -0.595 OA
HETATM   23  O3  UNL     1      26.380  78.201  43.655  1.00  0.00    -0.595 OA
ENDBRANCH  18  20
ENDBRANCH  16  18
ENDBRANCH   8  16
BRANCH   1  24
HETATM   24  C3  UNL     1      27.794  75.379  51.211  1.00  0.00     0.033 C 
BRANCH  24  25
HETATM   25  C2  UNL     1      28.168  74.180  51.957  1.00  0.00    -0.036 C 
HETATM   26  C1  UNL     1      28.586  74.283  53.208  1.00  0.00     0.007 C 
ENDBRANCH  24  25
ENDBRANCH   1  24
TORSDOF 5
ENDMDL
MODEL 3
REMARK VINA RESULT: -6.436167983      2.339      3.424
REMARK  5 active torsions:
REMARK  status: ('A' for Active; 'I' for Inactive)
REMARK    1  A    between atoms: C2_2  and  C3_3 
REMARK    2  A    between atoms: C3_3  and  C4_4 
REMARK    3  A    between atoms: C11_11  and  C12_12 
REMARK    4  A    between atoms: C12_12  and  C14_14 
REMARK    5  A    between atoms: C14_14  and  S1_16 
ROOT
HETATM    1  C4  UNL     1      27.745  75.351  48.944  1.00  0.00     0.021 C 
HETATM    2  C5  UNL     1      27.498  74.058  48.187  1.00  0.00     0.009 C 
HETATM    3  C6  UNL     1      27.339  74.432  46.730  1.00  0.00     0.033 C 
HETATM    4  C7  UNL     1      26.538  75.723  46.648  1.00  0.00     0.187 C 
HETATM    5  C8  UNL     1      27.435  76.945  46.726  1.00  0.00     0.055 C 
HETATM    6  C9  UNL     1      27.054  77.550  48.028  1.00  0.00     0.081 C 
HETATM    7  C10 UNL     1      25.836  78.470  47.910  1.00  0.00     0.055 C 
HETATM    8  C11 UNL     1      26.491  79.791  47.874  1.00  0.00     0.138 C 
HETATM    9  O4  UNL     1      27.488  79.646  48.873  1.00  0.00    -0.315 OA
HETATM   10  C16 UNL     1      28.048  78.365  48.688  1.00  0.00     0.270 C 
HETATM   11  O5  UNL     1      29.220  78.093  49.072  1.00  0.00    -0.264 OA
HETATM   12  C17 UNL     1      26.615  76.319  48.815  1.00  0.00     0.209 C 
HETATM   13  N1  UNL     1      25.670  75.777  47.823  1.00  0.00    -0.065 N 
ATOM     14  H11 UNL     1      25.211  74.902  48.078  1.00  0.00     0.278 HD
ATOM     15  H12 UNL     1      24.799  76.296  47.709  1.00  0.00     0.278 HD
ENDROOT
BRANCH   8  16
HETATM   16  C12 UNL     1      25.696  81.014  47.962  1.00  0.00     0.032 C 
HETATM   17  C13 UNL     1      24.762  81.090  46.754  1.00  0.00     0.014 C 
BRANCH  16  18
HETATM   18  C14 UNL     1      25.023  81.360  49.234  1.00  0.00     0.132 C 
HETATM   19  C15 UNL     1      23.555  81.052  49.296  1.00  0.00     0.030 C 
BRANCH  18  20
HETATM   20  S1  UNL     1      25.181  83.131  49.515  1.00  0.00     0.106 S 
HETATM   21  O1  UNL     1      26.567  83.399  50.094  1.00  0.00    -0.595 OA
HETATM   22  O2  UNL     1      24.219  83.630  50.535  1.00  0.00    -0.595 OA
HETATM   23  O3  UNL     1      24.997  84.001  48.115  1.00  0.00    -0.595 OA
ENDBRANCH  18  20
ENDBRANCH  16  18
ENDBRANCH   8  16
BRANCH   1  24
HETATM   24  C3  UNL     1      28.066  75.009  50.395  1.00  0.00     0.033 C 
BRANCH  24  25
HETATM   25  C2  UNL     1      27.719  73.628  50.723  1.00  0.00    -0.036 C 
HETATM   26  C1  UNL     1      27.694  73.234  51.984  1.00  0.00     0.007 C 
ENDBRANCH  24  25
ENDBRANCH   1  24
TORSDOF 5
ENDMDL
MODEL 4
REMARK VINA RESULT: -6.415290309      1.285      1.668
REMARK  5 active torsions:
REMARK  status: ('A' for Active; 'I' for Inactive)
REMARK    1  A    between atoms: C2_2  and  C3_3 
REMARK    2  A    between atoms: C3_3  and  C4_4 
REMARK    3  A    between atoms: C11_11  and  C12_12 
REMARK    4  A    between atoms: C12_12  and  C14_14 
REMARK    5  A    between atoms: C14_14  and  S1_16 
ROOT
HETATM    1  C4  UNL     1      28.829  74.981  47.697  1.00  0.00     0.021 C 
HETATM    2  C5  UNL     1      29.194  73.979  48.777  1.00  0.00     0.009 C 
HETATM    3  C6  UNL     1      28.059  73.985  49.777  1.00  0.00     0.033 C 
HETATM    4  C7  UNL     1      27.589  75.420  49.963  1.00  0.00     0.187 C 
HETATM    5  C8  UNL     1      26.522  75.795  48.951  1.00  0.00     0.055 C 
HETATM    6  C9  UNL     1      27.208  76.811  48.112  1.00  0.00     0.081 C 
HETATM    7  C10 UNL     1      27.115  78.218  48.709  1.00  0.00     0.055 C 
HETATM    8  C11 UNL     1      26.019  78.788  47.904  1.00  0.00     0.138 C 
HETATM    9  O4  UNL     1      26.342  78.319  46.604  1.00  0.00    -0.315 OA
HETATM   10  C16 UNL     1      26.732  76.972  46.757  1.00  0.00     0.270 C 
HETATM   11  O5  UNL     1      26.638  76.143  45.809  1.00  0.00    -0.264 OA
HETATM   12  C17 UNL     1      28.663  76.366  48.229  1.00  0.00     0.209 C 
HETATM   13  N1  UNL     1      28.730  76.294  49.699  1.00  0.00    -0.065 N 
ATOM     14  H11 UNL     1      29.623  75.991  50.089  1.00  0.00     0.278 HD
ATOM     15  H12 UNL     1      28.727  77.189  50.188  1.00  0.00     0.278 HD
ENDROOT
BRANCH   8  16
HETATM   16  C12 UNL     1      25.701  80.212  47.989  1.00  0.00     0.032 C 
HETATM   17  C13 UNL     1      25.218  80.698  46.622  1.00  0.00     0.014 C 
BRANCH  16  18
HETATM   18  C14 UNL     1      24.869  80.711  49.105  1.00  0.00     0.132 C 
HETATM   19  C15 UNL     1      23.610  81.426  48.706  1.00  0.00     0.030 C 
BRANCH  18  20
HETATM   20  S1  UNL     1      25.832  81.885  50.072  1.00  0.00     0.106 S 
HETATM   21  O1  UNL     1      27.266  81.371  50.153  1.00  0.00    -0.595 OA
HETATM   22  O2  UNL     1      25.361  81.977  51.482  1.00  0.00    -0.595 OA
HETATM   23  O3  UNL     1      25.831  83.398  49.394  1.00  0.00    -0.595 OA
ENDBRANCH  18  20
ENDBRANCH  16  18
ENDBRANCH   8  16
BRANCH   1  24
HETATM   24  C3  UNL     1      29.869  74.896  46.585  1.00  0.00     0.033 C 
BRANCH  24  25
HETATM   25  C2  UNL     1      31.233  74.911  47.109  1.00  0.00    -0.036 C 
HETATM   26  C1  UNL     1      32.052  75.899  46.793  1.00  0.00     0.007 C 
ENDBRANCH  24  25
ENDBRANCH   1  24
TORSDOF 5
ENDMDL
MODEL 5
REMARK VINA RESULT: -5.934486384      5.518      8.350
REMARK  5 active torsions:
REMARK  status: ('A' for Active; 'I' for Inactive)
REMARK    1  A    between atoms: C2_2  and  C3_3 
REMARK    2  A    between atoms: C3_3  and  C4_4 
REMARK    3  A    between atoms: C11_11  and  C12_12 
REMARK    4  A    between atoms: C12_12  and  C14_14 
REMARK    5  A    between atoms: C14_14  and  S1_16 
ROOT
HETATM    1  C4  UNL     1      23.845  79.455  39.442  1.00  0.00     0.021 C 
HETATM    2  C5  UNL     1      23.631  80.280  38.186  1.00  0.00     0.009 C 
HETATM    3  C6  UNL     1      24.773  81.271  38.116  1.00  0.00     0.033 C 
HETATM    4  C7  UNL     1      25.056  81.778  39.522  1.00  0.00     0.187 C 
HETATM    5  C8  UNL     1      26.048  80.888  40.250  1.00  0.00     0.055 C 
HETATM    6  C9  UNL     1      25.222  80.289  41.329  1.00  0.00     0.081 C 
HETATM    7  C10 UNL     1      25.141  81.185  42.567  1.00  0.00     0.055 C 
HETATM    8  C11 UNL     1      26.140  80.541  43.440  1.00  0.00     0.138 C 
HETATM    9  O4  UNL     1      25.859  79.165  43.234  1.00  0.00    -0.315 OA
HETATM   10  C16 UNL     1      25.649  79.009  41.848  1.00  0.00     0.270 C 
HETATM   11  O5  UNL     1      25.834  77.902  41.270  1.00  0.00    -0.264 OA
HETATM   12  C17 UNL     1      23.839  80.285  40.683  1.00  0.00     0.209 C 
HETATM   13  N1  UNL     1      23.807  81.701  40.278  1.00  0.00    -0.065 N 
ATOM     14  H11 UNL     1      22.968  82.002  39.782  1.00  0.00     0.278 HD
ATOM     15  H12 UNL     1      23.702  82.378  41.034  1.00  0.00     0.278 HD
ENDROOT
BRANCH   8  16
HETATM   16  C12 UNL     1      26.273  80.945  44.838  1.00  0.00     0.032 C 
HETATM   17  C13 UNL     1      26.336  82.470  44.913  1.00  0.00     0.014 C 
BRANCH  16  18
HETATM   18  C14 UNL     1      25.379  80.354  45.859  1.00  0.00     0.132 C 
HETATM   19  C15 UNL     1      24.794  81.322  46.846  1.00  0.00     0.030 C 
BRANCH  18  20
HETATM   20  S1  UNL     1      26.308  79.149  46.821  1.00  0.00     0.106 S 
HETATM   21  O1  UNL     1      25.574  78.927  48.140  1.00  0.00    -0.595 OA
HETATM   22  O2  UNL     1      27.660  79.645  47.196  1.00  0.00    -0.595 OA
HETATM   23  O3  UNL     1      26.455  77.701  46.028  1.00  0.00    -0.595 OA
ENDBRANCH  18  20
ENDBRANCH  16  18
ENDBRANCH   8  16
BRANCH   1  24
HETATM   24  C3  UNL     1      22.805  78.340  39.472  1.00  0.00     0.033 C 
BRANCH  24  25
HETATM   25  C2  UNL     1      21.672  78.671  40.333  1.00  0.00    -0.036 C 
HETATM   26  C1  UNL     1      20.808  77.732  40.679  1.00  0.00     0.007 C 
ENDBRANCH  24  25
ENDBRANCH   1  24
TORSDOF 5
ENDMDL
