MODEL 1
REMARK VINA RESULT: -6.495272619      0.000      0.000
REMARK  7 active torsions:
REMARK  status: ('A' for Active; 'I' for Inactive)
REMARK    1  A    between atoms: N1_1  and  S1_4 
REMARK    2  A    between atoms: S1_4  and  C1_7 
REMARK    3  A    between atoms: C4_10  and  S2_11 
REMARK    4  A    between atoms: S2_11  and  S3_14 
REMARK    5  A    between atoms: S3_14  and  C5_15 
REMARK    6  A    between atoms: C5_15  and  C6_16 
REMARK       I    between atoms: C6_16  and  N2_18 
REMARK    7  A    between atoms: N2_18  and  C7_20 
ROOT
HETATM    1  S2  UNL     1     -22.650 -11.680   4.113  1.00  0.00     0.231 S 
HETATM    2  O3  UNL     1     -22.090 -10.369   3.663  1.00  0.00    -0.211 OA
HETATM    3  O4  UNL     1     -22.503 -11.660   5.601  1.00  0.00    -0.211 OA
ENDROOT
BRANCH   1   4
HETATM    4  C4  UNL     1     -21.766 -12.944   3.349  1.00  0.00     0.070 A 
HETATM    5  C3  UNL     1     -21.423 -12.836   2.019  1.00  0.00     0.026 A 
HETATM    6  C2  UNL     1     -20.713 -13.831   1.366  1.00  0.00     0.027 A 
HETATM    7  C1  UNL     1     -20.336 -14.962   2.061  1.00  0.00     0.079 A 
HETATM    8  C11 UNL     1     -20.685 -15.061   3.395  1.00  0.00     0.027 A 
HETATM    9  C10 UNL     1     -21.392 -14.070   4.042  1.00  0.00     0.026 A 
BRANCH   7  10
HETATM   10  S1  UNL     1     -19.431 -16.244   1.259  1.00  0.00     0.256 S 
HETATM   11  O1  UNL     1     -20.374 -17.050   0.449  1.00  0.00    -0.201 OA
HETATM   12  O2  UNL     1     -18.347 -15.591   0.428  1.00  0.00    -0.201 OA
BRANCH  10  13
HETATM   13  N1  UNL     1     -18.742 -17.240   2.492  1.00  0.00    -0.324 N 
ATOM     14  H12 UNL     1     -19.061 -18.181   2.721  1.00  0.00     0.169 HD
ATOM     15  H11 UNL     1     -17.979 -16.737   2.943  1.00  0.00     0.169 HD
ENDBRANCH  10  13
ENDBRANCH   7  10
ENDBRANCH   1   4
BRANCH   1  16
HETATM   16  S3  UNL     1     -24.533 -11.294   3.361  1.00  0.00    -0.022 SA
BRANCH  16  17
HETATM   17  C5  UNL     1     -25.330 -12.718   2.881  1.00  0.00     0.194 C 
BRANCH  17  18
HETATM   18  C6  UNL     1     -25.979 -13.534   3.948  1.00  0.00     0.233 C 
HETATM   19  O5  UNL     1     -26.717 -14.513   3.687  1.00  0.00    -0.272 OA
HETATM   20  N2  UNL     1     -25.767 -13.207   5.312  1.00  0.00    -0.306 N 
ATOM     21  H2  UNL     1     -26.199 -12.379   5.722  1.00  0.00     0.171 HD
BRANCH  20  22
HETATM   22  C7  UNL     1     -25.001 -13.993   6.035  1.00  0.00     0.150 A 
HETATM   23  N3  UNL     1     -24.305 -15.054   5.635  1.00  0.00    -0.346 N 
HETATM   24  C8  UNL     1     -23.601 -15.709   6.508  1.00  0.00     0.097 A 
ATOM     25  H3  UNL     1     -24.324 -15.349   4.658  1.00  0.00     0.167 HD
HETATM   26  C9  UNL     1     -23.616 -15.266   7.807  1.00  0.00     0.070 A 
HETATM   27  S4  UNL     1     -24.654 -13.913   7.702  1.00  0.00    -0.064 SA
ENDBRANCH  20  22
ENDBRANCH  17  18
ENDBRANCH  16  17
ENDBRANCH   1  16
TORSDOF 7
ENDMDL
MODEL 2
REMARK VINA RESULT: -6.388698895      3.499      7.322
REMARK  7 active torsions:
REMARK  status: ('A' for Active; 'I' for Inactive)
REMARK    1  A    between atoms: N1_1  and  S1_4 
REMARK    2  A    between atoms: S1_4  and  C1_7 
REMARK    3  A    between atoms: C4_10  and  S2_11 
REMARK    4  A    between atoms: S2_11  and  S3_14 
REMARK    5  A    between atoms: S3_14  and  C5_15 
REMARK    6  A    between atoms: C5_15  and  C6_16 
REMARK       I    between atoms: C6_16  and  N2_18 
REMARK    7  A    between atoms: N2_18  and  C7_20 
ROOT
HETATM    1  S2  UNL     1     -19.688 -15.236   0.897  1.00  0.00     0.231 S 
HETATM    2  O3  UNL     1     -18.290 -15.324   1.420  1.00  0.00    -0.211 OA
HETATM    3  O4  UNL     1     -19.552 -14.552  -0.425  1.00  0.00    -0.211 OA
ENDROOT
BRANCH   1   4
HETATM    4  C4  UNL     1     -20.642 -14.361   2.032  1.00  0.00     0.070 A 
HETATM    5  C3  UNL     1     -21.102 -13.101   1.718  1.00  0.00     0.026 A 
HETATM    6  C2  UNL     1     -21.872 -12.363   2.603  1.00  0.00     0.027 A 
HETATM    7  C1  UNL     1     -22.189 -12.900   3.834  1.00  0.00     0.079 A 
HETATM    8  C11 UNL     1     -21.723 -14.164   4.142  1.00  0.00     0.027 A 
HETATM    9  C10 UNL     1     -20.957 -14.896   3.259  1.00  0.00     0.026 A 
BRANCH   7  10
HETATM   10  S1  UNL     1     -23.168 -11.987   4.982  1.00  0.00     0.256 S 
HETATM   11  O1  UNL     1     -22.815 -12.424   6.353  1.00  0.00    -0.201 OA
HETATM   12  O2  UNL     1     -22.902 -10.516   4.744  1.00  0.00    -0.201 OA
BRANCH  10  13
HETATM   13  N1  UNL     1     -24.823 -12.370   4.668  1.00  0.00    -0.324 N 
ATOM     14  H12 UNL     1     -25.172 -12.755   3.790  1.00  0.00     0.169 HD
ATOM     15  H11 UNL     1     -25.381 -12.150   5.493  1.00  0.00     0.169 HD
ENDBRANCH  10  13
ENDBRANCH   7  10
ENDBRANCH   1   4
BRANCH   1  16
HETATM   16  S3  UNL     1     -19.955 -17.282   0.862  1.00  0.00    -0.022 SA
BRANCH  16  17
HETATM   17  C5  UNL     1     -18.860 -18.083   1.888  1.00  0.00     0.194 C 
BRANCH  17  18
HETATM   18  C6  UNL     1     -18.856 -19.574   1.858  1.00  0.00     0.233 C 
HETATM   19  O5  UNL     1     -18.161 -20.260   2.644  1.00  0.00    -0.272 OA
HETATM   20  N2  UNL     1     -19.662 -20.262   0.914  1.00  0.00    -0.306 N 
ATOM     21  H2  UNL     1     -19.413 -20.271  -0.075  1.00  0.00     0.171 HD
BRANCH  20  22
HETATM   22  C7  UNL     1     -20.736 -20.886   1.341  1.00  0.00     0.150 A 
HETATM   23  N3  UNL     1     -21.148 -21.045   2.597  1.00  0.00    -0.346 N 
HETATM   24  C8  UNL     1     -22.247 -21.700   2.820  1.00  0.00     0.097 A 
ATOM     25  H3  UNL     1     -20.610 -20.658   3.372  1.00  0.00     0.167 HD
HETATM   26  C9  UNL     1     -22.927 -22.198   1.737  1.00  0.00     0.070 A 
HETATM   27  S4  UNL     1     -21.939 -21.691   0.440  1.00  0.00    -0.064 SA
ENDBRANCH  20  22
ENDBRANCH  17  18
ENDBRANCH  16  17
ENDBRANCH   1  16
TORSDOF 7
ENDMDL
MODEL 3
REMARK VINA RESULT: -6.378293574      3.679      5.250
REMARK  7 active torsions:
REMARK  status: ('A' for Active; 'I' for Inactive)
REMARK    1  A    between atoms: N1_1  and  S1_4 
REMARK    2  A    between atoms: S1_4  and  C1_7 
REMARK    3  A    between atoms: C4_10  and  S2_11 
REMARK    4  A    between atoms: S2_11  and  S3_14 
REMARK    5  A    between atoms: S3_14  and  C5_15 
REMARK    6  A    between atoms: C5_15  and  C6_16 
REMARK       I    between atoms: C6_16  and  N2_18 
REMARK    7  A    between atoms: N2_18  and  C7_20 
ROOT
HETATM    1  S2  UNL     1     -19.517 -16.123   1.172  1.00  0.00     0.231 S 
HETATM    2  O3  UNL     1     -20.729 -15.780   0.368  1.00  0.00    -0.211 OA
HETATM    3  O4  UNL     1     -18.378 -15.535   0.404  1.00  0.00    -0.211 OA
ENDROOT
BRANCH   1   4
HETATM    4  C4  UNL     1     -19.432 -17.836   1.330  1.00  0.00     0.070 A 
HETATM    5  C3  UNL     1     -20.468 -18.620   0.874  1.00  0.00     0.026 A 
HETATM    6  C2  UNL     1     -20.439 -20.001   0.983  1.00  0.00     0.027 A 
HETATM    7  C1  UNL     1     -19.346 -20.613   1.562  1.00  0.00     0.079 A 
HETATM    8  C11 UNL     1     -18.311 -19.818   2.017  1.00  0.00     0.027 A 
HETATM    9  C10 UNL     1     -18.342 -18.443   1.907  1.00  0.00     0.026 A 
BRANCH   7  10
HETATM   10  S1  UNL     1     -19.279 -22.368   1.713  1.00  0.00     0.256 S 
HETATM   11  O1  UNL     1     -18.672 -22.705   3.022  1.00  0.00    -0.201 OA
HETATM   12  O2  UNL     1     -20.690 -22.897   1.563  1.00  0.00    -0.201 OA
BRANCH  10  13
HETATM   13  N1  UNL     1     -18.265 -22.958   0.445  1.00  0.00    -0.324 N 
ATOM     14  H12 UNL     1     -17.247 -22.899   0.443  1.00  0.00     0.169 HD
ATOM     15  H11 UNL     1     -18.845 -23.366  -0.288  1.00  0.00     0.169 HD
ENDBRANCH  10  13
ENDBRANCH   7  10
ENDBRANCH   1   4
BRANCH   1  16
HETATM   16  S3  UNL     1     -20.152 -15.081   2.836  1.00  0.00    -0.022 SA
BRANCH  16  17
HETATM   17  C5  UNL     1     -21.447 -14.039   2.478  1.00  0.00     0.194 C 
BRANCH  17  18
HETATM   18  C6  UNL     1     -22.042 -13.268   3.607  1.00  0.00     0.233 C 
HETATM   19  O5  UNL     1     -22.889 -12.362   3.429  1.00  0.00    -0.272 OA
HETATM   20  N2  UNL     1     -21.647 -13.554   4.940  1.00  0.00    -0.306 N 
ATOM     21  H2  UNL     1     -20.724 -13.284   5.279  1.00  0.00     0.171 HD
BRANCH  20  22
HETATM   22  C7  UNL     1     -22.497 -14.176   5.727  1.00  0.00     0.150 A 
HETATM   23  N3  UNL     1     -22.856 -15.457   5.697  1.00  0.00    -0.346 N 
HETATM   24  C8  UNL     1     -23.719 -15.887   6.567  1.00  0.00     0.097 A 
ATOM     25  H3  UNL     1     -22.461 -16.090   5.002  1.00  0.00     0.167 HD
HETATM   26  C9  UNL     1     -24.216 -14.988   7.476  1.00  0.00     0.070 A 
HETATM   27  S4  UNL     1     -23.407 -13.553   7.027  1.00  0.00    -0.064 SA
ENDBRANCH  20  22
ENDBRANCH  17  18
ENDBRANCH  16  17
ENDBRANCH   1  16
TORSDOF 7
ENDMDL
MODEL 4
REMARK VINA RESULT: -6.372029313      3.616      5.159
REMARK  7 active torsions:
REMARK  status: ('A' for Active; 'I' for Inactive)
REMARK    1  A    between atoms: N1_1  and  S1_4 
REMARK    2  A    between atoms: S1_4  and  C1_7 
REMARK    3  A    between atoms: C4_10  and  S2_11 
REMARK    4  A    between atoms: S2_11  and  S3_14 
REMARK    5  A    between atoms: S3_14  and  C5_15 
REMARK    6  A    between atoms: C5_15  and  C6_16 
REMARK       I    between atoms: C6_16  and  N2_18 
REMARK    7  A    between atoms: N2_18  and  C7_20 
ROOT
HETATM    1  S2  UNL     1     -19.521 -16.079   1.201  1.00  0.00     0.231 S 
HETATM    2  O3  UNL     1     -20.718 -15.774   0.358  1.00  0.00    -0.211 OA
HETATM    3  O4  UNL     1     -18.377 -15.454   0.469  1.00  0.00    -0.211 OA
ENDROOT
BRANCH   1   4
HETATM    4  C4  UNL     1     -19.387 -17.788   1.362  1.00  0.00     0.070 A 
HETATM    5  C3  UNL     1     -18.237 -18.342   1.877  1.00  0.00     0.026 A 
HETATM    6  C2  UNL     1     -18.089 -19.712   2.023  1.00  0.00     0.027 A 
HETATM    7  C1  UNL     1     -19.118 -20.549   1.643  1.00  0.00     0.079 A 
HETATM    8  C11 UNL     1     -20.269 -19.984   1.126  1.00  0.00     0.027 A 
HETATM    9  C10 UNL     1     -20.414 -18.620   0.982  1.00  0.00     0.026 A 
BRANCH   7  10
HETATM   10  S1  UNL     1     -18.960 -22.296   1.817  1.00  0.00     0.256 S 
HETATM   11  O1  UNL     1     -20.155 -22.938   1.219  1.00  0.00    -0.201 OA
HETATM   12  O2  UNL     1     -17.668 -22.710   1.145  1.00  0.00    -0.201 OA
BRANCH  10  13
HETATM   13  N1  UNL     1     -18.911 -22.644   3.509  1.00  0.00    -0.324 N 
ATOM     14  H12 UNL     1     -18.360 -22.124   4.191  1.00  0.00     0.169 HD
ATOM     15  H11 UNL     1     -19.516 -23.442   3.706  1.00  0.00     0.169 HD
ENDBRANCH  10  13
ENDBRANCH   7  10
ENDBRANCH   1   4
BRANCH   1  16
HETATM   16  S3  UNL     1     -20.242 -15.058   2.844  1.00  0.00    -0.022 SA
BRANCH  16  17
HETATM   17  C5  UNL     1     -21.448 -13.938   2.417  1.00  0.00     0.194 C 
BRANCH  17  18
HETATM   18  C6  UNL     1     -22.106 -13.182   3.522  1.00  0.00     0.233 C 
HETATM   19  O5  UNL     1     -23.004 -12.333   3.313  1.00  0.00    -0.272 OA
HETATM   20  N2  UNL     1     -21.715 -13.417   4.865  1.00  0.00    -0.306 N 
ATOM     21  H2  UNL     1     -20.815 -13.085   5.212  1.00  0.00     0.171 HD
BRANCH  20  22
HETATM   22  C7  UNL     1     -22.536 -14.073   5.653  1.00  0.00     0.150 A 
HETATM   23  N3  UNL     1     -22.837 -15.370   5.630  1.00  0.00    -0.346 N 
HETATM   24  C8  UNL     1     -23.681 -15.835   6.500  1.00  0.00     0.097 A 
ATOM     25  H3  UNL     1     -22.410 -15.988   4.939  1.00  0.00     0.167 HD
HETATM   26  C9  UNL     1     -24.222 -14.955   7.403  1.00  0.00     0.070 A 
HETATM   27  S4  UNL     1     -23.478 -13.486   6.948  1.00  0.00    -0.064 SA
ENDBRANCH  20  22
ENDBRANCH  17  18
ENDBRANCH  16  17
ENDBRANCH   1  16
TORSDOF 7
ENDMDL
MODEL 5
REMARK VINA RESULT: -6.295881141      3.802      7.653
REMARK  7 active torsions:
REMARK  status: ('A' for Active; 'I' for Inactive)
REMARK    1  A    between atoms: N1_1  and  S1_4 
REMARK    2  A    between atoms: S1_4  and  C1_7 
REMARK    3  A    between atoms: C4_10  and  S2_11 
REMARK    4  A    between atoms: S2_11  and  S3_14 
REMARK    5  A    between atoms: S3_14  and  C5_15 
REMARK    6  A    between atoms: C5_15  and  C6_16 
REMARK       I    between atoms: C6_16  and  N2_18 
REMARK    7  A    between atoms: N2_18  and  C7_20 
ROOT
HETATM    1  S2  UNL     1     -19.744 -15.175   1.157  1.00  0.00     0.231 S 
HETATM    2  O3  UNL     1     -18.346 -14.650   1.211  1.00  0.00    -0.211 OA
HETATM    3  O4  UNL     1     -20.140 -15.041  -0.278  1.00  0.00    -0.211 OA
ENDROOT
BRANCH   1   4
HETATM    4  C4  UNL     1     -20.718 -14.247   2.232  1.00  0.00     0.070 A 
HETATM    5  C3  UNL     1     -21.152 -12.994   1.858  1.00  0.00     0.026 A 
HETATM    6  C2  UNL     1     -21.937 -12.215   2.693  1.00  0.00     0.027 A 
HETATM    7  C1  UNL     1     -22.296 -12.702   3.934  1.00  0.00     0.079 A 
HETATM    8  C11 UNL     1     -21.856 -13.959   4.300  1.00  0.00     0.027 A 
HETATM    9  C10 UNL     1     -21.075 -14.733   3.467  1.00  0.00     0.026 A 
BRANCH   7  10
HETATM   10  S1  UNL     1     -23.295 -11.735   5.018  1.00  0.00     0.256 S 
HETATM   11  O1  UNL     1     -22.936 -12.074   6.416  1.00  0.00    -0.201 OA
HETATM   12  O2  UNL     1     -23.058 -10.277   4.685  1.00  0.00    -0.201 OA
BRANCH  10  13
HETATM   13  N1  UNL     1     -24.942 -12.171   4.730  1.00  0.00    -0.324 N 
ATOM     14  H12 UNL     1     -25.301 -13.125   4.759  1.00  0.00     0.169 HD
ATOM     15  H11 UNL     1     -25.483 -11.329   4.532  1.00  0.00     0.169 HD
ENDBRANCH  10  13
ENDBRANCH   7  10
ENDBRANCH   1   4
BRANCH   1  16
HETATM   16  S3  UNL     1     -19.212 -17.062   1.802  1.00  0.00    -0.022 SA
BRANCH  16  17
HETATM   17  C5  UNL     1     -19.229 -18.195   0.534  1.00  0.00     0.194 C 
BRANCH  17  18
HETATM   18  C6  UNL     1     -20.150 -19.360   0.667  1.00  0.00     0.233 C 
HETATM   19  O5  UNL     1     -20.961 -19.680  -0.234  1.00  0.00    -0.272 OA
HETATM   20  N2  UNL     1     -20.124 -20.148   1.846  1.00  0.00    -0.306 N 
ATOM     21  H2  UNL     1     -20.502 -19.787   2.722  1.00  0.00     0.171 HD
BRANCH  20  22
HETATM   22  C7  UNL     1     -19.602 -21.352   1.786  1.00  0.00     0.150 A 
HETATM   23  N3  UNL     1     -19.537 -22.167   0.736  1.00  0.00    -0.346 N 
HETATM   24  C8  UNL     1     -18.977 -23.331   0.876  1.00  0.00     0.097 A 
ATOM     25  H3  UNL     1     -19.922 -21.882  -0.165  1.00  0.00     0.167 HD
HETATM   26  C9  UNL     1     -18.480 -23.657   2.113  1.00  0.00     0.070 A 
HETATM   27  S4  UNL     1     -18.848 -22.257   3.019  1.00  0.00    -0.064 SA
ENDBRANCH  20  22
ENDBRANCH  17  18
ENDBRANCH  16  17
ENDBRANCH   1  16
TORSDOF 7
ENDMDL
