MODEL 1
REMARK VINA RESULT: -7.506028000      0.000      0.000
REMARK  6 active torsions:
REMARK  status: ('A' for Active; 'I' for Inactive)
REMARK    1  A    between atoms: C1_2  and  C2_3 
REMARK       I    between atoms: C1_2  and  N3_10 
REMARK    2  A    between atoms: C2_3  and  N1_4 
REMARK    3  A    between atoms: N3_10  and  C6_12 
REMARK    4  A    between atoms: C8_16  and  S1_17 
REMARK    5  A    between atoms: S1_17  and  N5_20 
REMARK       I    between atoms: N5_20  and  C9_22 
REMARK    6  A    between atoms: C9_22  and  C10_24 
ROOT
HETATM    1  C6  UNL     1     -22.370 -13.334   4.745  1.00  0.00     0.152 A 
HETATM    2  N4  UNL     1     -21.379 -14.105   5.187  1.00  0.00    -0.344 N 
ATOM      3  H4  UNL     1     -21.189 -14.194   6.185  1.00  0.00     0.167 HD
HETATM    4  C7  UNL     1     -20.655 -14.746   4.305  1.00  0.00     0.123 A 
HETATM    5  C8  UNL     1     -20.961 -14.582   2.985  1.00  0.00     0.139 A 
HETATM    6  S2  UNL     1     -22.287 -13.507   3.054  1.00  0.00    -0.039 SA
ENDROOT
BRANCH   5   7
HETATM    7  S1  UNL     1     -20.161 -15.301   1.576  1.00  0.00     0.273 S 
HETATM    8  O2  UNL     1     -20.981 -15.157   0.344  1.00  0.00    -0.200 OA
HETATM    9  O3  UNL     1     -18.835 -14.579   1.445  1.00  0.00    -0.200 OA
BRANCH   7  10
HETATM   10  N5  UNL     1     -19.931 -16.974   1.886  1.00  0.00    -0.245 N 
HETATM   11  C9  UNL     1     -19.084 -17.806   1.131  1.00  0.00     0.265 C 
HETATM   12  O4  UNL     1     -18.441 -17.335   0.178  1.00  0.00    -0.267 OA
ATOM     13  H5  UNL     1     -20.439 -17.390   2.667  1.00  0.00     0.182 HD
BRANCH  11  14
HETATM   14  C10 UNL     1     -18.959 -19.221   1.454  1.00  0.00     0.033 A 
HETATM   15  C11 UNL     1     -17.773 -19.773   1.848  1.00  0.00     0.017 A 
HETATM   16  C12 UNL     1     -17.708 -21.108   2.171  1.00  0.00     0.001 A 
HETATM   17  C13 UNL     1     -18.796 -21.952   2.122  1.00  0.00     0.000 A 
HETATM   18  C14 UNL     1     -19.992 -21.372   1.719  1.00  0.00     0.001 A 
HETATM   19  C15 UNL     1     -20.086 -20.050   1.393  1.00  0.00     0.017 A 
ENDBRANCH  11  14
ENDBRANCH   7  10
ENDBRANCH   5   7
BRANCH   1  20
HETATM   20  N3  UNL     1     -23.214 -12.640   5.477  1.00  0.00    -0.306 N 
HETATM   21  C1  UNL     1     -24.394 -13.212   5.987  1.00  0.00     0.241 C 
HETATM   22  O1  UNL     1     -25.413 -13.372   5.303  1.00  0.00    -0.271 OA
ATOM     23  H3  UNL     1     -23.007 -11.662   5.680  1.00  0.00     0.171 HD
BRANCH  21  24
HETATM   24  C2  UNL     1     -24.393 -13.631   7.408  1.00  0.00     0.232 C 
BRANCH  24  25
HETATM   25  N1  UNL     1     -24.545 -15.088   7.512  1.00  0.00    -0.343 N 
HETATM   26  C3  UNL     1     -25.679 -15.668   8.010  1.00  0.00     0.109 A 
HETATM   27  C4  UNL     1     -25.512 -17.037   7.966  1.00  0.00     0.106 A 
HETATM   28  N2  UNL     1     -24.289 -17.233   7.447  1.00  0.00    -0.361 N 
HETATM   29  C5  UNL     1     -23.690 -16.060   7.168  1.00  0.00     0.182 A 
ATOM     30  H2  UNL     1     -23.870 -18.149   7.286  1.00  0.00     0.166 HD
ENDBRANCH  24  25
ENDBRANCH  21  24
ENDBRANCH   1  20
TORSDOF 6
ENDMDL
MODEL 2
REMARK VINA RESULT: -7.479785120      1.432      1.891
REMARK  6 active torsions:
REMARK  status: ('A' for Active; 'I' for Inactive)
REMARK    1  A    between atoms: C1_2  and  C2_3 
REMARK       I    between atoms: C1_2  and  N3_10 
REMARK    2  A    between atoms: C2_3  and  N1_4 
REMARK    3  A    between atoms: N3_10  and  C6_12 
REMARK    4  A    between atoms: C8_16  and  S1_17 
REMARK    5  A    between atoms: S1_17  and  N5_20 
REMARK       I    between atoms: N5_20  and  C9_22 
REMARK    6  A    between atoms: C9_22  and  C10_24 
ROOT
HETATM    1  C6  UNL     1     -21.855 -13.421   4.586  1.00  0.00     0.152 A 
HETATM    2  N4  UNL     1     -21.167 -14.560   4.545  1.00  0.00    -0.344 N 
ATOM      3  H4  UNL     1     -21.034 -15.122   5.386  1.00  0.00     0.167 HD
HETATM    4  C7  UNL     1     -20.667 -14.938   3.396  1.00  0.00     0.123 A 
HETATM    5  C8  UNL     1     -20.882 -14.139   2.311  1.00  0.00     0.139 A 
HETATM    6  S2  UNL     1     -21.799 -12.863   2.979  1.00  0.00    -0.039 SA
ENDROOT
BRANCH   5   7
HETATM    7  S1  UNL     1     -20.324 -14.379   0.645  1.00  0.00     0.273 S 
HETATM    8  O2  UNL     1     -21.416 -14.877  -0.234  1.00  0.00    -0.200 OA
HETATM    9  O3  UNL     1     -19.817 -13.027   0.183  1.00  0.00    -0.200 OA
BRANCH   7  10
HETATM   10  N5  UNL     1     -19.064 -15.544   0.664  1.00  0.00    -0.245 N 
HETATM   11  C9  UNL     1     -19.277 -16.935   0.633  1.00  0.00     0.265 C 
HETATM   12  O4  UNL     1     -20.433 -17.385   0.580  1.00  0.00    -0.267 OA
ATOM     13  H5  UNL     1     -18.102 -15.208   0.700  1.00  0.00     0.182 HD
BRANCH  11  14
HETATM   14  C10 UNL     1     -18.147 -17.855   0.668  1.00  0.00     0.033 A 
HETATM   15  C11 UNL     1     -18.094 -18.904   1.540  1.00  0.00     0.017 A 
HETATM   16  C12 UNL     1     -17.020 -19.765   1.518  1.00  0.00     0.001 A 
HETATM   17  C13 UNL     1     -15.964 -19.632   0.645  1.00  0.00     0.000 A 
HETATM   18  C14 UNL     1     -16.036 -18.559  -0.233  1.00  0.00     0.001 A 
HETATM   19  C15 UNL     1     -17.089 -17.690  -0.234  1.00  0.00     0.017 A 
ENDBRANCH  11  14
ENDBRANCH   7  10
ENDBRANCH   5   7
BRANCH   1  20
HETATM   20  N3  UNL     1     -22.448 -12.897   5.636  1.00  0.00    -0.306 N 
HETATM   21  C1  UNL     1     -23.515 -13.548   6.283  1.00  0.00     0.241 C 
HETATM   22  O1  UNL     1     -24.676 -13.527   5.853  1.00  0.00    -0.271 OA
ATOM     23  H3  UNL     1     -22.127 -11.997   5.990  1.00  0.00     0.171 HD
BRANCH  21  24
HETATM   24  C2  UNL     1     -23.212 -14.283   7.534  1.00  0.00     0.232 C 
BRANCH  24  25
HETATM   25  N1  UNL     1     -24.049 -15.486   7.636  1.00  0.00    -0.343 N 
HETATM   26  C3  UNL     1     -25.290 -15.462   8.212  1.00  0.00     0.109 A 
HETATM   27  C4  UNL     1     -25.816 -16.736   8.143  1.00  0.00     0.106 A 
HETATM   28  N2  UNL     1     -24.878 -17.479   7.534  1.00  0.00    -0.361 N 
HETATM   29  C5  UNL     1     -23.801 -16.734   7.221  1.00  0.00     0.182 A 
ATOM     30  H2  UNL     1     -24.970 -18.476   7.334  1.00  0.00     0.166 HD
ENDBRANCH  24  25
ENDBRANCH  21  24
ENDBRANCH   1  20
TORSDOF 6
ENDMDL
MODEL 3
REMARK VINA RESULT: -7.290804065      1.999      2.658
REMARK  6 active torsions:
REMARK  status: ('A' for Active; 'I' for Inactive)
REMARK    1  A    between atoms: C1_2  and  C2_3 
REMARK       I    between atoms: C1_2  and  N3_10 
REMARK    2  A    between atoms: C2_3  and  N1_4 
REMARK    3  A    between atoms: N3_10  and  C6_12 
REMARK    4  A    between atoms: C8_16  and  S1_17 
REMARK    5  A    between atoms: S1_17  and  N5_20 
REMARK       I    between atoms: N5_20  and  C9_22 
REMARK    6  A    between atoms: C9_22  and  C10_24 
ROOT
HETATM    1  C6  UNL     1     -21.431 -14.082   4.413  1.00  0.00     0.152 A 
HETATM    2  N4  UNL     1     -21.794 -13.018   3.701  1.00  0.00    -0.344 N 
ATOM      3  H4  UNL     1     -22.331 -12.261   4.125  1.00  0.00     0.167 HD
HETATM    4  C7  UNL     1     -21.443 -12.969   2.440  1.00  0.00     0.123 A 
HETATM    5  C8  UNL     1     -20.727 -14.016   1.935  1.00  0.00     0.139 A 
HETATM    6  S2  UNL     1     -20.580 -15.040   3.293  1.00  0.00    -0.039 SA
ENDROOT
BRANCH   5   7
HETATM    7  S1  UNL     1     -20.128 -14.237   0.281  1.00  0.00     0.273 S 
HETATM    8  O2  UNL     1     -21.207 -14.681  -0.641  1.00  0.00    -0.200 OA
HETATM    9  O3  UNL     1     -19.566 -12.892  -0.134  1.00  0.00    -0.200 OA
BRANCH   7  10
HETATM   10  N5  UNL     1     -18.905 -15.441   0.311  1.00  0.00    -0.245 N 
HETATM   11  C9  UNL     1     -19.159 -16.818   0.446  1.00  0.00     0.265 C 
HETATM   12  O4  UNL     1     -20.328 -17.227   0.544  1.00  0.00    -0.267 OA
ATOM     13  H5  UNL     1     -17.934 -15.140   0.225  1.00  0.00     0.182 HD
BRANCH  11  14
HETATM   14  C10 UNL     1     -18.059 -17.773   0.476  1.00  0.00     0.033 A 
HETATM   15  C11 UNL     1     -16.983 -17.666  -0.358  1.00  0.00     0.017 A 
HETATM   16  C12 UNL     1     -15.953 -18.574  -0.274  1.00  0.00     0.001 A 
HETATM   17  C13 UNL     1     -15.936 -19.617   0.624  1.00  0.00     0.000 A 
HETATM   18  C14 UNL     1     -17.039 -19.710   1.463  1.00  0.00     0.001 A 
HETATM   19  C15 UNL     1     -18.075 -18.822   1.403  1.00  0.00     0.017 A 
ENDBRANCH  11  14
ENDBRANCH   7  10
ENDBRANCH   5   7
BRANCH   1  20
HETATM   20  N3  UNL     1     -21.668 -14.293   5.689  1.00  0.00    -0.306 N 
HETATM   21  C1  UNL     1     -22.877 -13.896   6.291  1.00  0.00     0.241 C 
HETATM   22  O1  UNL     1     -23.104 -12.730   6.636  1.00  0.00    -0.271 OA
ATOM     23  H3  UNL     1     -20.959 -14.757   6.256  1.00  0.00     0.171 HD
BRANCH  21  24
HETATM   24  C2  UNL     1     -23.906 -14.939   6.513  1.00  0.00     0.232 C 
BRANCH  24  25
HETATM   25  N1  UNL     1     -25.243 -14.334   6.566  1.00  0.00    -0.343 N 
HETATM   26  C3  UNL     1     -25.990 -14.119   5.439  1.00  0.00     0.109 A 
HETATM   27  C4  UNL     1     -27.188 -13.552   5.824  1.00  0.00     0.106 A 
HETATM   28  N2  UNL     1     -27.122 -13.444   7.160  1.00  0.00    -0.361 N 
HETATM   29  C5  UNL     1     -25.948 -13.913   7.624  1.00  0.00     0.182 A 
ATOM     30  H2  UNL     1     -27.862 -13.057   7.746  1.00  0.00     0.166 HD
ENDBRANCH  24  25
ENDBRANCH  21  24
ENDBRANCH   1  20
TORSDOF 6
ENDMDL
MODEL 4
REMARK VINA RESULT: -7.142632368      2.369      3.550
REMARK  6 active torsions:
REMARK  status: ('A' for Active; 'I' for Inactive)
REMARK    1  A    between atoms: C1_2  and  C2_3 
REMARK       I    between atoms: C1_2  and  N3_10 
REMARK    2  A    between atoms: C2_3  and  N1_4 
REMARK    3  A    between atoms: N3_10  and  C6_12 
REMARK    4  A    between atoms: C8_16  and  S1_17 
REMARK    5  A    between atoms: S1_17  and  N5_20 
REMARK       I    between atoms: N5_20  and  C9_22 
REMARK    6  A    between atoms: C9_22  and  C10_24 
ROOT
HETATM    1  C6  UNL     1     -20.936 -13.699   1.905  1.00  0.00     0.152 A 
HETATM    2  N4  UNL     1     -20.807 -14.068   0.632  1.00  0.00    -0.344 N 
ATOM      3  H4  UNL     1     -21.100 -13.450  -0.125  1.00  0.00     0.167 HD
HETATM    4  C7  UNL     1     -20.295 -15.245   0.379  1.00  0.00     0.123 A 
HETATM    5  C8  UNL     1     -19.925 -16.024   1.437  1.00  0.00     0.139 A 
HETATM    6  S2  UNL     1     -20.328 -15.034   2.769  1.00  0.00    -0.039 SA
ENDROOT
BRANCH   5   7
HETATM    7  S1  UNL     1     -19.223 -17.651   1.409  1.00  0.00     0.273 S 
HETATM    8  O2  UNL     1     -18.293 -17.830   0.262  1.00  0.00    -0.200 OA
HETATM    9  O3  UNL     1     -18.503 -17.810   2.733  1.00  0.00    -0.200 OA
BRANCH   7  10
HETATM   10  N5  UNL     1     -20.502 -18.784   1.256  1.00  0.00    -0.245 N 
HETATM   11  C9  UNL     1     -20.360 -20.168   1.475  1.00  0.00     0.265 C 
HETATM   12  O4  UNL     1     -19.258 -20.632   1.809  1.00  0.00    -0.267 OA
ATOM     13  H5  UNL     1     -21.423 -18.435   0.990  1.00  0.00     0.182 HD
BRANCH  11  14
HETATM   14  C10 UNL     1     -21.498 -21.063   1.308  1.00  0.00     0.033 A 
HETATM   15  C11 UNL     1     -21.601 -21.912   0.244  1.00  0.00     0.017 A 
HETATM   16  C12 UNL     1     -22.680 -22.760   0.142  1.00  0.00     0.001 A 
HETATM   17  C13 UNL     1     -23.694 -22.809   1.073  1.00  0.00     0.000 A 
HETATM   18  C14 UNL     1     -23.571 -21.937   2.147  1.00  0.00     0.001 A 
HETATM   19  C15 UNL     1     -22.511 -21.085   2.274  1.00  0.00     0.017 A 
ENDBRANCH  11  14
ENDBRANCH   7  10
ENDBRANCH   5   7
BRANCH   1  20
HETATM   20  N3  UNL     1     -21.402 -12.553   2.349  1.00  0.00    -0.306 N 
HETATM   21  C1  UNL     1     -22.407 -12.497   3.333  1.00  0.00     0.241 C 
HETATM   22  O1  UNL     1     -23.606 -12.670   3.081  1.00  0.00    -0.271 OA
ATOM     23  H3  UNL     1     -21.026 -11.684   1.972  1.00  0.00     0.171 HD
BRANCH  21  24
HETATM   24  C2  UNL     1     -21.987 -12.213   4.726  1.00  0.00     0.232 C 
BRANCH  24  25
HETATM   25  N1  UNL     1     -22.466 -13.266   5.629  1.00  0.00    -0.343 N 
HETATM   26  C3  UNL     1     -23.284 -12.997   6.692  1.00  0.00     0.109 A 
HETATM   27  C4  UNL     1     -23.560 -14.189   7.331  1.00  0.00     0.106 A 
HETATM   28  N2  UNL     1     -22.900 -15.130   6.636  1.00  0.00    -0.361 N 
HETATM   29  C5  UNL     1     -22.232 -14.585   5.601  1.00  0.00     0.182 A 
ATOM     30  H2  UNL     1     -22.904 -16.125   6.861  1.00  0.00     0.166 HD
ENDBRANCH  24  25
ENDBRANCH  21  24
ENDBRANCH   1  20
TORSDOF 6
ENDMDL
MODEL 5
REMARK VINA RESULT: -7.133830514      0.943      1.389
REMARK  6 active torsions:
REMARK  status: ('A' for Active; 'I' for Inactive)
REMARK    1  A    between atoms: C1_2  and  C2_3 
REMARK       I    between atoms: C1_2  and  N3_10 
REMARK    2  A    between atoms: C2_3  and  N1_4 
REMARK    3  A    between atoms: N3_10  and  C6_12 
REMARK    4  A    between atoms: C8_16  and  S1_17 
REMARK    5  A    between atoms: S1_17  and  N5_20 
REMARK       I    between atoms: N5_20  and  C9_22 
REMARK    6  A    between atoms: C9_22  and  C10_24 
ROOT
HETATM    1  C6  UNL     1     -21.987 -13.182   4.420  1.00  0.00     0.152 A 
HETATM    2  N4  UNL     1     -21.971 -12.475   3.292  1.00  0.00    -0.344 N 
ATOM      3  H4  UNL     1     -22.405 -11.553   3.245  1.00  0.00     0.167 HD
HETATM    4  C7  UNL     1     -21.382 -12.995   2.245  1.00  0.00     0.123 A 
HETATM    5  C8  UNL     1     -20.823 -14.233   2.375  1.00  0.00     0.139 A 
HETATM    6  S2  UNL     1     -21.161 -14.611   4.005  1.00  0.00    -0.039 SA
ENDROOT
BRANCH   5   7
HETATM    7  S1  UNL     1     -19.978 -15.189   1.144  1.00  0.00     0.273 S 
HETATM    8  O2  UNL     1     -20.683 -15.147  -0.165  1.00  0.00    -0.200 OA
HETATM    9  O3  UNL     1     -18.589 -14.592   1.043  1.00  0.00    -0.200 OA
BRANCH   7  10
HETATM   10  N5  UNL     1     -19.919 -16.819   1.679  1.00  0.00    -0.245 N 
HETATM   11  C9  UNL     1     -19.129 -17.817   1.077  1.00  0.00     0.265 C 
HETATM   12  O4  UNL     1     -18.412 -17.537   0.102  1.00  0.00    -0.267 OA
ATOM     13  H5  UNL     1     -20.490 -17.080   2.482  1.00  0.00     0.182 HD
BRANCH  11  14
HETATM   14  C10 UNL     1     -19.150 -19.182   1.587  1.00  0.00     0.033 A 
HETATM   15  C11 UNL     1     -20.295 -19.924   1.625  1.00  0.00     0.017 A 
HETATM   16  C12 UNL     1     -20.262 -21.219   2.089  1.00  0.00     0.001 A 
HETATM   17  C13 UNL     1     -19.112 -21.834   2.531  1.00  0.00     0.000 A 
HETATM   18  C14 UNL     1     -17.958 -21.063   2.486  1.00  0.00     0.001 A 
HETATM   19  C15 UNL     1     -17.962 -19.776   2.030  1.00  0.00     0.017 A 
ENDBRANCH  11  14
ENDBRANCH   7  10
ENDBRANCH   5   7
BRANCH   1  20
HETATM   20  N3  UNL     1     -22.505 -12.816   5.571  1.00  0.00    -0.306 N 
HETATM   21  C1  UNL     1     -23.469 -13.601   6.230  1.00  0.00     0.241 C 
HETATM   22  O1  UNL     1     -24.665 -13.607   5.910  1.00  0.00    -0.271 OA
ATOM     23  H3  UNL     1     -22.200 -11.941   5.997  1.00  0.00     0.171 HD
BRANCH  21  24
HETATM   24  C2  UNL     1     -23.010 -14.447   7.357  1.00  0.00     0.232 C 
BRANCH  24  25
HETATM   25  N1  UNL     1     -23.916 -15.588   7.542  1.00  0.00    -0.343 N 
HETATM   26  C3  UNL     1     -25.124 -15.462   8.172  1.00  0.00     0.109 A 
HETATM   27  C4  UNL     1     -25.734 -16.700   8.175  1.00  0.00     0.106 A 
HETATM   28  N2  UNL     1     -24.876 -17.525   7.553  1.00  0.00    -0.361 N 
HETATM   29  C5  UNL     1     -23.769 -16.864   7.164  1.00  0.00     0.182 A 
ATOM     30  H2  UNL     1     -25.041 -18.519   7.396  1.00  0.00     0.166 HD
ENDBRANCH  24  25
ENDBRANCH  21  24
ENDBRANCH   1  20
TORSDOF 6
ENDMDL
