MODEL 1
REMARK VINA RESULT: -6.220283655      0.000      0.000
REMARK  3 active torsions:
REMARK  status: ('A' for Active; 'I' for Inactive)
REMARK    1  A    between atoms: C2_2  and  O1_3 
REMARK    2  A    between atoms: C5_7  and  C6_8 
REMARK    3  A    between atoms: N1_9  and  O2_10 
ROOT
HETATM    1  C6  UNL     1      16.921   2.874  13.127  1.00  0.00     0.113 C 
HETATM    2  N1  UNL     1      18.000   3.375  12.655  1.00  0.00    -0.173 N 
HETATM    3  C7  UNL     1      18.345   3.287  11.291  1.00  0.00     0.209 C 
HETATM    4  N2  UNL     1      18.629   3.197  10.186  1.00  0.00    -0.170 NA
ENDROOT
BRANCH   2   5
HETATM    5  O2  UNL     1      18.860   4.024  13.497  1.00  0.00    -0.274 OA
ATOM      6  H2  UNL     1      19.420   4.709  13.151  1.00  0.00     0.246 HD
ENDBRANCH   2   5
BRANCH   1   7
HETATM    7  C5  UNL     1      16.620   3.000  14.555  1.00  0.00     0.028 C 
HETATM    8  C4  UNL     1      15.241   3.536  14.763  1.00  0.00     0.013 C 
HETATM    9  C3  UNL     1      14.720   3.401  16.150  1.00  0.00     0.038 C 
HETATM   10  C2  UNL     1      15.115   2.141  16.852  1.00  0.00     0.054 C 
HETATM   11  C1  UNL     1      14.885   2.295  18.337  1.00  0.00     0.045 C 
HETATM   12  C9  UNL     1      16.601   1.831  16.671  1.00  0.00     0.038 C 
HETATM   13  C8  UNL     1      16.794   1.620  15.181  1.00  0.00     0.013 C 
BRANCH  10  14
HETATM   14  O1  UNL     1      14.403   1.037  16.342  1.00  0.00    -0.390 OA
ATOM     15  H1  UNL     1      14.438   1.019  15.393  1.00  0.00     0.210 HD
ENDBRANCH  10  14
ENDBRANCH   1   7
TORSDOF 3
ENDMDL
MODEL 2
REMARK VINA RESULT: -5.841133472      2.776      5.696
REMARK  3 active torsions:
REMARK  status: ('A' for Active; 'I' for Inactive)
REMARK    1  A    between atoms: C2_2  and  O1_3 
REMARK    2  A    between atoms: C5_7  and  C6_8 
REMARK    3  A    between atoms: N1_9  and  O2_10 
ROOT
HETATM    1  C6  UNL     1      16.219   1.739  14.564  1.00  0.00     0.113 C 
HETATM    2  N1  UNL     1      16.449   1.428  15.785  1.00  0.00    -0.173 N 
HETATM    3  C7  UNL     1      15.419   1.151  16.705  1.00  0.00     0.209 C 
HETATM    4  N2  UNL     1      14.578   0.945  17.454  1.00  0.00    -0.170 NA
ENDROOT
BRANCH   2   5
HETATM    5  O2  UNL     1      17.743   1.357  16.223  1.00  0.00    -0.274 OA
ATOM      6  H2  UNL     1      18.135   2.117  16.637  1.00  0.00     0.246 HD
ENDBRANCH   2   5
BRANCH   1   7
HETATM    7  C5  UNL     1      17.335   2.015  13.657  1.00  0.00     0.028 C 
HETATM    8  C4  UNL     1      17.376   1.017  12.546  1.00  0.00     0.013 C 
HETATM    9  C3  UNL     1      18.257   1.388  11.405  1.00  0.00     0.038 C 
HETATM   10  C2  UNL     1      18.270   2.844  11.065  1.00  0.00     0.054 C 
HETATM   11  C1  UNL     1      19.468   3.150  10.196  1.00  0.00     0.045 C 
HETATM   12  C9  UNL     1      18.402   3.718  12.312  1.00  0.00     0.038 C 
HETATM   13  C8  UNL     1      17.159   3.439  13.138  1.00  0.00     0.013 C 
BRANCH  10  14
HETATM   14  O1  UNL     1      17.073   3.222  10.427  1.00  0.00    -0.390 OA
ATOM     15  H1  UNL     1      17.053   2.913   9.528  1.00  0.00     0.210 HD
ENDBRANCH  10  14
ENDBRANCH   1   7
TORSDOF 3
ENDMDL
MODEL 3
REMARK VINA RESULT: -5.834519023      3.277      5.328
REMARK  3 active torsions:
REMARK  status: ('A' for Active; 'I' for Inactive)
REMARK    1  A    between atoms: C2_2  and  O1_3 
REMARK    2  A    between atoms: C5_7  and  C6_8 
REMARK    3  A    between atoms: N1_9  and  O2_10 
ROOT
HETATM    1  C6  UNL     1      15.902   3.037  15.459  1.00  0.00     0.113 C 
HETATM    2  N1  UNL     1      16.449   2.095  16.132  1.00  0.00    -0.173 N 
HETATM    3  C7  UNL     1      15.701   1.118  16.818  1.00  0.00     0.209 C 
HETATM    4  N2  UNL     1      15.088   0.337  17.390  1.00  0.00    -0.170 NA
ENDROOT
BRANCH   2   5
HETATM    5  O2  UNL     1      17.814   2.024  16.194  1.00  0.00    -0.274 OA
ATOM      6  H2  UNL     1      18.325   2.251  15.426  1.00  0.00     0.246 HD
ENDBRANCH   2   5
BRANCH   1   7
HETATM    7  C5  UNL     1      16.736   4.022  14.767  1.00  0.00     0.028 C 
HETATM    8  C4  UNL     1      16.771   3.751  13.299  1.00  0.00     0.013 C 
HETATM    9  C3  UNL     1      17.315   4.862  12.471  1.00  0.00     0.038 C 
HETATM   10  C2  UNL     1      16.952   6.235  12.941  1.00  0.00     0.054 C 
HETATM   11  C1  UNL     1      17.866   7.249  12.294  1.00  0.00     0.045 C 
HETATM   12  C9  UNL     1      17.135   6.385  14.452  1.00  0.00     0.038 C 
HETATM   13  C8  UNL     1      16.165   5.402  15.079  1.00  0.00     0.013 C 
BRANCH  10  14
HETATM   14  O1  UNL     1      15.602   6.521  12.663  1.00  0.00    -0.390 OA
ATOM     15  H1  UNL     1      15.280   7.221  13.220  1.00  0.00     0.210 HD
ENDBRANCH  10  14
ENDBRANCH   1   7
TORSDOF 3
ENDMDL
MODEL 4
REMARK VINA RESULT: -5.807524294      1.897      2.462
REMARK  3 active torsions:
REMARK  status: ('A' for Active; 'I' for Inactive)
REMARK    1  A    between atoms: C2_2  and  O1_3 
REMARK    2  A    between atoms: C5_7  and  C6_8 
REMARK    3  A    between atoms: N1_9  and  O2_10 
ROOT
HETATM    1  C6  UNL     1      18.005   3.545  12.224  1.00  0.00     0.113 C 
HETATM    2  N1  UNL     1      17.526   3.886  11.086  1.00  0.00    -0.173 N 
HETATM    3  C7  UNL     1      18.334   4.351  10.030  1.00  0.00     0.209 C 
HETATM    4  N2  UNL     1      18.993   4.747   9.181  1.00  0.00    -0.170 NA
ENDROOT
BRANCH   2   5
HETATM    5  O2  UNL     1      16.177   3.800  10.877  1.00  0.00    -0.274 OA
ATOM      6  H2  UNL     1      15.750   2.954  10.948  1.00  0.00     0.246 HD
ENDBRANCH   2   5
BRANCH   1   7
HETATM    7  C5  UNL     1      17.111   3.069  13.281  1.00  0.00     0.028 C 
HETATM    8  C4  UNL     1      17.204   1.585  13.428  1.00  0.00     0.013 C 
HETATM    9  C3  UNL     1      16.592   1.040  14.670  1.00  0.00     0.038 C 
HETATM   10  C2  UNL     1      16.763   1.895  15.885  1.00  0.00     0.054 C 
HETATM   11  C1  UNL     1      15.784   1.462  16.951  1.00  0.00     0.045 C 
HETATM   12  C9  UNL     1      16.465   3.366  15.592  1.00  0.00     0.038 C 
HETATM   13  C8  UNL     1      17.499   3.794  14.566  1.00  0.00     0.013 C 
BRANCH  10  14
HETATM   14  O1  UNL     1      18.088   1.834  16.360  1.00  0.00    -0.390 OA
ATOM     15  H1  UNL     1      18.624   2.511  15.963  1.00  0.00     0.210 HD
ENDBRANCH  10  14
ENDBRANCH   1   7
TORSDOF 3
ENDMDL
MODEL 5
REMARK VINA RESULT: -5.677480086      3.525      5.299
REMARK  3 active torsions:
REMARK  status: ('A' for Active; 'I' for Inactive)
REMARK    1  A    between atoms: C2_2  and  O1_3 
REMARK    2  A    between atoms: C5_7  and  C6_8 
REMARK    3  A    between atoms: N1_9  and  O2_10 
ROOT
HETATM    1  C6  UNL     1      17.006   3.312  14.673  1.00  0.00     0.113 C 
HETATM    2  N1  UNL     1      17.344   2.312  15.398  1.00  0.00    -0.173 N 
HETATM    3  C7  UNL     1      16.731   1.049  15.283  1.00  0.00     0.209 C 
HETATM    4  N2  UNL     1      16.218   0.028  15.199  1.00  0.00    -0.170 NA
ENDROOT
BRANCH   2   5
HETATM    5  O2  UNL     1      18.338   2.465  16.324  1.00  0.00    -0.274 OA
ATOM      6  H2  UNL     1      19.080   1.871  16.311  1.00  0.00     0.246 HD
ENDBRANCH   2   5
BRANCH   1   7
HETATM    7  C5  UNL     1      17.682   4.600  14.840  1.00  0.00     0.028 C 
HETATM    8  C4  UNL     1      18.719   4.798  13.784  1.00  0.00     0.013 C 
HETATM    9  C3  UNL     1      19.234   6.189  13.665  1.00  0.00     0.038 C 
HETATM   10  C2  UNL     1      18.212   7.260  13.881  1.00  0.00     0.054 C 
HETATM   11  C1  UNL     1      18.906   8.577  14.138  1.00  0.00     0.045 C 
HETATM   12  C9  UNL     1      17.343   6.979  15.107  1.00  0.00     0.038 C 
HETATM   13  C8  UNL     1      16.611   5.686  14.799  1.00  0.00     0.013 C 
BRANCH  10  14
HETATM   14  O1  UNL     1      17.342   7.354  12.777  1.00  0.00    -0.390 OA
ATOM     15  H1  UNL     1      16.770   6.597  12.728  1.00  0.00     0.210 HD
ENDBRANCH  10  14
ENDBRANCH   1   7
TORSDOF 3
ENDMDL
