MODEL 1
REMARK VINA RESULT: -4.596102479      0.000      0.000
REMARK  2 active torsions:
REMARK  status: ('A' for Active; 'I' for Inactive)
REMARK    1  A    between atoms: C4_5  and  S1_6 
REMARK    2  A    between atoms: S1_6  and  C5_7 
ROOT
HETATM    1  C1  UNL     1      17.085   4.584  10.627  1.00  0.00     0.309 C 
HETATM    2  N1  UNL     1      17.371   3.241  11.064  1.00  0.00     0.085 N 
HETATM    3  C2  UNL     1      16.221   2.381  11.047  1.00  0.00     0.273 C 
HETATM    4  C3  UNL     1      16.567   1.320  12.031  1.00  0.00     0.047 C 
HETATM    5  C4  UNL     1      17.278   2.052  13.121  1.00  0.00     0.084 C 
HETATM    6  C6  UNL     1      17.959   3.175  12.366  1.00  0.00     0.287 C 
ENDROOT
BRANCH   5   7
HETATM    7  S1  UNL     1      16.188   2.690  14.389  1.00  0.00    -0.097 SA
BRANCH   7   8
HETATM    8  C5  UNL     1      16.497   1.830  15.920  1.00  0.00     0.150 C 
HETATM    9  N2  UNL     1      17.808   1.487  16.341  1.00  0.00    -0.082 NA
HETATM   10  S2  UNL     1      15.244   1.420  16.879  1.00  0.00    -0.056 SA
ENDBRANCH   7   8
ENDBRANCH   5   7
TORSDOF 2
ENDMDL
MODEL 2
REMARK VINA RESULT: -4.560549018      2.034      5.004
REMARK  2 active torsions:
REMARK  status: ('A' for Active; 'I' for Inactive)
REMARK    1  A    between atoms: C4_5  and  S1_6 
REMARK    2  A    between atoms: S1_6  and  C5_7 
ROOT
HETATM    1  C1  UNL     1      15.163   1.220  17.361  1.00  0.00     0.309 C 
HETATM    2  N1  UNL     1      15.769   2.397  16.792  1.00  0.00     0.085 N 
HETATM    3  C2  UNL     1      14.923   3.069  15.845  1.00  0.00     0.273 C 
HETATM    4  C3  UNL     1      15.885   3.825  14.997  1.00  0.00     0.047 C 
HETATM    5  C4  UNL     1      17.048   2.899  14.852  1.00  0.00     0.084 C 
HETATM    6  C6  UNL     1      17.031   2.149  16.167  1.00  0.00     0.287 C 
ENDROOT
BRANCH   5   7
HETATM    7  S1  UNL     1      16.907   1.778  13.464  1.00  0.00    -0.097 SA
BRANCH   7   8
HETATM    8  C5  UNL     1      16.656   2.719  11.970  1.00  0.00     0.150 C 
HETATM    9  N2  UNL     1      15.475   2.599  11.193  1.00  0.00    -0.082 NA
HETATM   10  S2  UNL     1      17.811   3.754  11.468  1.00  0.00    -0.056 SA
ENDBRANCH   7   8
ENDBRANCH   5   7
TORSDOF 2
ENDMDL
MODEL 3
REMARK VINA RESULT: -4.516786868      1.258      1.704
REMARK  2 active torsions:
REMARK  status: ('A' for Active; 'I' for Inactive)
REMARK    1  A    between atoms: C4_5  and  S1_6 
REMARK    2  A    between atoms: S1_6  and  C5_7 
ROOT
HETATM    1  C1  UNL     1      19.587   1.735  11.065  1.00  0.00     0.309 C 
HETATM    2  N1  UNL     1      18.148   1.700  11.122  1.00  0.00     0.085 N 
HETATM    3  C2  UNL     1      17.538   2.977  10.880  1.00  0.00     0.273 C 
HETATM    4  C3  UNL     1      16.209   2.858  11.540  1.00  0.00     0.047 C 
HETATM    5  C4  UNL     1      16.489   2.079  12.783  1.00  0.00     0.084 C 
HETATM    6  C6  UNL     1      17.635   1.187  12.355  1.00  0.00     0.287 C 
ENDROOT
BRANCH   5   7
HETATM    7  S1  UNL     1      16.947   3.097  14.182  1.00  0.00    -0.097 SA
BRANCH   7   8
HETATM    8  C5  UNL     1      16.698   2.176  15.688  1.00  0.00     0.150 C 
HETATM    9  N2  UNL     1      17.739   1.425  16.293  1.00  0.00    -0.082 NA
HETATM   10  S2  UNL     1      15.234   2.189  16.406  1.00  0.00    -0.056 SA
ENDBRANCH   7   8
ENDBRANCH   5   7
TORSDOF 2
ENDMDL
MODEL 4
REMARK VINA RESULT: -4.513377316      2.080      4.809
REMARK  2 active torsions:
REMARK  status: ('A' for Active; 'I' for Inactive)
REMARK    1  A    between atoms: C4_5  and  S1_6 
REMARK    2  A    between atoms: S1_6  and  C5_7 
ROOT
HETATM    1  C1  UNL     1      13.867   1.751  17.036  1.00  0.00     0.309 C 
HETATM    2  N1  UNL     1      15.050   2.533  16.780  1.00  0.00     0.085 N 
HETATM    3  C2  UNL     1      14.922   3.398  15.640  1.00  0.00     0.273 C 
HETATM    4  C3  UNL     1      16.332   3.629  15.221  1.00  0.00     0.047 C 
HETATM    5  C4  UNL     1      16.995   2.308  15.431  1.00  0.00     0.084 C 
HETATM    6  C6  UNL     1      16.233   1.748  16.614  1.00  0.00     0.287 C 
ENDROOT
BRANCH   5   7
HETATM    7  S1  UNL     1      16.891   1.217  14.016  1.00  0.00    -0.097 SA
BRANCH   7   8
HETATM    8  C5  UNL     1      17.317   2.123  12.541  1.00  0.00     0.150 C 
HETATM    9  N2  UNL     1      18.577   2.756  12.382  1.00  0.00    -0.082 NA
HETATM   10  S2  UNL     1      16.236   2.234  11.325  1.00  0.00    -0.056 SA
ENDBRANCH   7   8
ENDBRANCH   5   7
TORSDOF 2
ENDMDL
MODEL 5
REMARK VINA RESULT: -4.495473833      2.110      2.954
REMARK  2 active torsions:
REMARK  status: ('A' for Active; 'I' for Inactive)
REMARK    1  A    between atoms: C4_5  and  S1_6 
REMARK    2  A    between atoms: S1_6  and  C5_7 
ROOT
HETATM    1  C1  UNL     1      16.571   1.396  12.189  1.00  0.00     0.309 C 
HETATM    2  N1  UNL     1      17.271   1.704  13.410  1.00  0.00     0.085 N 
HETATM    3  C2  UNL     1      16.913   0.842  14.502  1.00  0.00     0.273 C 
HETATM    4  C3  UNL     1      17.251   1.650  15.706  1.00  0.00     0.047 C 
HETATM    5  C4  UNL     1      16.858   3.041  15.333  1.00  0.00     0.084 C 
HETATM    6  C6  UNL     1      17.109   3.058  13.839  1.00  0.00     0.287 C 
ENDROOT
BRANCH   5   7
HETATM    7  S1  UNL     1      15.152   3.433  15.708  1.00  0.00    -0.097 SA
BRANCH   7   8
HETATM    8  C5  UNL     1      14.538   2.286  16.927  1.00  0.00     0.150 C 
HETATM    9  N2  UNL     1      13.819   1.117  16.567  1.00  0.00    -0.082 NA
HETATM   10  S2  UNL     1      14.805   2.574  18.509  1.00  0.00    -0.056 SA
ENDBRANCH   7   8
ENDBRANCH   5   7
TORSDOF 2
ENDMDL
