MODEL 1
REMARK VINA RESULT: -6.098567787      0.000      0.000
REMARK  4 active torsions:
REMARK  status: ('A' for Active; 'I' for Inactive)
REMARK    1  A    between atoms: C2_2  and  C3_3 
REMARK    2  A    between atoms: C3_3  and  C4_4 
REMARK    3  A    between atoms: C3_3  and  N1_7 
REMARK    4  A    between atoms: C4_4  and  O1_5 
ROOT
HETATM    1  N1  UNL     1      -4.253   2.798  13.680  1.00  0.00    -0.375 N 
HETATM    2  C5  UNL     1      -3.333   3.908  13.878  1.00  0.00     0.143 C 
HETATM    3  C6  UNL     1      -3.497   5.005  12.877  1.00  0.00     0.151 C 
HETATM    4  N2  UNL     1      -2.845   4.631  11.649  1.00  0.00    -0.329 N 
HETATM    5  C7  UNL     1      -2.519   5.525  10.679  1.00  0.00     0.201 A 
HETATM    6  N3  UNL     1      -1.937   4.786   9.711  1.00  0.00    -0.295 N 
ATOM      7  H3  UNL     1      -1.572   5.156   8.833  1.00  0.00     0.187 HD
HETATM    8  N4  UNL     1      -1.910   3.525  10.066  1.00  0.00    -0.288 N 
ATOM      9  H4  UNL     1      -1.522   2.764   9.508  1.00  0.00     0.188 HD
HETATM   10  C8  UNL     1      -2.473   3.388  11.280  1.00  0.00     0.101 A 
HETATM   11  C9  UNL     1      -2.616   2.120  11.995  1.00  0.00     0.108 C 
HETATM   12  C10 UNL     1      -4.010   1.944  12.637  1.00  0.00     0.031 C 
HETATM   13  C11 UNL     1      -4.964   2.343  11.483  1.00  0.00     0.038 C 
HETATM   14  C12 UNL     1      -4.200   0.473  12.763  1.00  0.00     0.038 C 
ENDROOT
BRANCH   1  15
HETATM   15  C3  UNL     1      -4.860   2.523  14.895  1.00  0.00     0.008 C 
BRANCH  15  16
HETATM   16  C2  UNL     1      -6.123   3.353  15.072  1.00  0.00     0.050 C 
HETATM   17  C1  UNL     1      -6.625   3.416  16.469  1.00  0.00     0.011 C 
ENDBRANCH  15  16
BRANCH  15  18
HETATM   18  C4  UNL     1      -4.061   2.376  16.129  1.00  0.00     0.216 C 
BRANCH  18  19
HETATM   19  O1  UNL     1      -3.274   1.197  16.091  1.00  0.00    -0.395 OA
ATOM     20  H1  UNL     1      -3.712   0.478  16.531  1.00  0.00     0.209 HD
ENDBRANCH  18  19
ENDBRANCH  15  18
ENDBRANCH   1  15
TORSDOF 4
ENDMDL
MODEL 2
REMARK VINA RESULT: -5.780327410      0.979      2.401
REMARK  4 active torsions:
REMARK  status: ('A' for Active; 'I' for Inactive)
REMARK    1  A    between atoms: C2_2  and  C3_3 
REMARK    2  A    between atoms: C3_3  and  C4_4 
REMARK    3  A    between atoms: C3_3  and  N1_7 
REMARK    4  A    between atoms: C4_4  and  O1_5 
ROOT
HETATM    1  N1  UNL     1      -4.317   3.133  14.154  1.00  0.00    -0.375 N 
HETATM    2  C5  UNL     1      -4.530   2.330  12.960  1.00  0.00     0.143 C 
HETATM    3  C6  UNL     1      -3.263   1.907  12.291  1.00  0.00     0.151 C 
HETATM    4  N2  UNL     1      -2.748   3.002  11.511  1.00  0.00    -0.329 N 
HETATM    5  C7  UNL     1      -1.820   2.844  10.530  1.00  0.00     0.201 A 
HETATM    6  N3  UNL     1      -1.607   4.088  10.053  1.00  0.00    -0.295 N 
ATOM      7  H3  UNL     1      -0.960   4.323   9.300  1.00  0.00     0.187 HD
HETATM    8  N4  UNL     1      -2.354   4.949  10.700  1.00  0.00    -0.288 N 
ATOM      9  H4  UNL     1      -2.377   5.955  10.529  1.00  0.00     0.188 HD
HETATM   10  C8  UNL     1      -3.086   4.303  11.626  1.00  0.00     0.101 A 
HETATM   11  C9  UNL     1      -4.036   4.944  12.534  1.00  0.00     0.108 C 
HETATM   12  C10 UNL     1      -3.917   4.433  13.988  1.00  0.00     0.031 C 
HETATM   13  C11 UNL     1      -2.388   4.481  14.237  1.00  0.00     0.038 C 
HETATM   14  C12 UNL     1      -4.451   5.535  14.835  1.00  0.00     0.038 C 
ENDROOT
BRANCH   1  15
HETATM   15  C3  UNL     1      -5.076   2.589  15.177  1.00  0.00     0.008 C 
BRANCH  15  16
HETATM   16  C2  UNL     1      -6.363   3.376  15.379  1.00  0.00     0.050 C 
HETATM   17  C1  UNL     1      -6.842   3.419  16.784  1.00  0.00     0.011 C 
ENDBRANCH  15  16
BRANCH  15  18
HETATM   18  C4  UNL     1      -4.445   2.139  16.436  1.00  0.00     0.216 C 
BRANCH  18  19
HETATM   19  O1  UNL     1      -3.243   1.429  16.180  1.00  0.00    -0.395 OA
ATOM     20  H1  UNL     1      -2.990   0.904  16.930  1.00  0.00     0.209 HD
ENDBRANCH  18  19
ENDBRANCH  15  18
ENDBRANCH   1  15
TORSDOF 4
ENDMDL
MODEL 3
REMARK VINA RESULT: -5.761039520      2.453      4.162
REMARK  4 active torsions:
REMARK  status: ('A' for Active; 'I' for Inactive)
REMARK    1  A    between atoms: C2_2  and  C3_3 
REMARK    2  A    between atoms: C3_3  and  C4_4 
REMARK    3  A    between atoms: C3_3  and  N1_7 
REMARK    4  A    between atoms: C4_4  and  O1_5 
ROOT
HETATM    1  N1  UNL     1      -4.239   3.377  13.133  1.00  0.00    -0.375 N 
HETATM    2  C5  UNL     1      -3.678   4.235  12.100  1.00  0.00     0.143 C 
HETATM    3  C6  UNL     1      -2.336   4.792  12.450  1.00  0.00     0.151 C 
HETATM    4  N2  UNL     1      -2.503   5.909  13.343  1.00  0.00    -0.329 N 
HETATM    5  C7  UNL     1      -1.530   6.830  13.570  1.00  0.00     0.201 A 
HETATM    6  N3  UNL     1      -2.073   7.694  14.453  1.00  0.00    -0.295 N 
ATOM      7  H3  UNL     1      -1.600   8.514  14.836  1.00  0.00     0.187 HD
HETATM    8  N4  UNL     1      -3.296   7.326  14.746  1.00  0.00    -0.288 N 
ATOM      9  H4  UNL     1      -3.920   7.813  15.390  1.00  0.00     0.188 HD
HETATM   10  C8  UNL     1      -3.602   6.206  14.066  1.00  0.00     0.101 A 
HETATM   11  C9  UNL     1      -4.886   5.509  14.143  1.00  0.00     0.108 C 
HETATM   12  C10 UNL     1      -4.732   3.976  14.262  1.00  0.00     0.031 C 
HETATM   13  C11 UNL     1      -3.656   3.831  15.368  1.00  0.00     0.038 C 
HETATM   14  C12 UNL     1      -5.983   3.507  14.919  1.00  0.00     0.038 C 
ENDROOT
BRANCH   1  15
HETATM   15  C3  UNL     1      -4.648   2.197  12.534  1.00  0.00     0.008 C 
BRANCH  15  16
HETATM   16  C2  UNL     1      -3.879   1.008  13.090  1.00  0.00     0.050 C 
HETATM   17  C1  UNL     1      -4.040  -0.246  12.311  1.00  0.00     0.011 C 
ENDBRANCH  15  16
BRANCH  15  18
HETATM   18  C4  UNL     1      -4.891   2.127  11.078  1.00  0.00     0.216 C 
BRANCH  18  19
HETATM   19  O1  UNL     1      -6.256   2.365  10.775  1.00  0.00    -0.395 OA
ATOM     20  H1  UNL     1      -6.544   3.199  11.126  1.00  0.00     0.209 HD
ENDBRANCH  18  19
ENDBRANCH  15  18
ENDBRANCH   1  15
TORSDOF 4
ENDMDL
MODEL 4
REMARK VINA RESULT: -5.724927033      2.601      4.160
REMARK  4 active torsions:
REMARK  status: ('A' for Active; 'I' for Inactive)
REMARK    1  A    between atoms: C2_2  and  C3_3 
REMARK    2  A    between atoms: C3_3  and  C4_4 
REMARK    3  A    between atoms: C3_3  and  N1_7 
REMARK    4  A    between atoms: C4_4  and  O1_5 
ROOT
HETATM    1  N1  UNL     1      -4.429   4.032  13.092  1.00  0.00    -0.375 N 
HETATM    2  C5  UNL     1      -5.144   2.975  13.792  1.00  0.00     0.143 C 
HETATM    3  C6  UNL     1      -4.343   1.726  13.966  1.00  0.00     0.151 C 
HETATM    4  N2  UNL     1      -4.356   0.976  12.738  1.00  0.00    -0.329 N 
HETATM    5  C7  UNL     1      -4.022  -0.339  12.667  1.00  0.00     0.201 A 
HETATM    6  N3  UNL     1      -4.159  -0.660  11.363  1.00  0.00    -0.295 N 
ATOM      7  H3  UNL     1      -3.983  -1.583  10.966  1.00  0.00     0.187 HD
HETATM    8  N4  UNL     1      -4.550   0.390  10.683  1.00  0.00    -0.288 N 
ATOM      9  H4  UNL     1      -4.725   0.409   9.678  1.00  0.00     0.188 HD
HETATM   10  C8  UNL     1      -4.685   1.439  11.514  1.00  0.00     0.101 A 
HETATM   11  C9  UNL     1      -5.109   2.778  11.105  1.00  0.00     0.108 C 
HETATM   12  C10 UNL     1      -4.256   3.899  11.739  1.00  0.00     0.031 C 
HETATM   13  C11 UNL     1      -2.809   3.393  11.506  1.00  0.00     0.038 C 
HETATM   14  C12 UNL     1      -4.381   5.058  10.812  1.00  0.00     0.038 C 
ENDROOT
BRANCH   1  15
HETATM   15  C3  UNL     1      -4.547   5.194  13.835  1.00  0.00     0.008 C 
BRANCH  15  16
HETATM   16  C2  UNL     1      -3.290   5.448  14.654  1.00  0.00     0.050 C 
HETATM   17  C1  UNL     1      -2.258   6.260  13.960  1.00  0.00     0.011 C 
ENDBRANCH  15  16
BRANCH  15  18
HETATM   18  C4  UNL     1      -5.802   5.519  14.547  1.00  0.00     0.216 C 
BRANCH  18  19
HETATM   19  O1  UNL     1      -6.736   6.139  13.678  1.00  0.00    -0.395 OA
ATOM     20  H1  UNL     1      -7.038   5.534  13.011  1.00  0.00     0.209 HD
ENDBRANCH  18  19
ENDBRANCH  15  18
ENDBRANCH   1  15
TORSDOF 4
ENDMDL
MODEL 5
REMARK VINA RESULT: -5.709370307      3.251      5.564
REMARK  4 active torsions:
REMARK  status: ('A' for Active; 'I' for Inactive)
REMARK    1  A    between atoms: C2_2  and  C3_3 
REMARK    2  A    between atoms: C3_3  and  C4_4 
REMARK    3  A    between atoms: C3_3  and  N1_7 
REMARK    4  A    between atoms: C4_4  and  O1_5 
ROOT
HETATM    1  N1  UNL     1      -4.958   4.507  14.671  1.00  0.00    -0.375 N 
HETATM    2  C5  UNL     1      -6.305   4.210  15.134  1.00  0.00     0.143 C 
HETATM    3  C6  UNL     1      -6.361   3.751  16.555  1.00  0.00     0.151 C 
HETATM    4  N2  UNL     1      -5.988   2.362  16.622  1.00  0.00    -0.329 N 
HETATM    5  C7  UNL     1      -6.263   1.570  17.692  1.00  0.00     0.201 A 
HETATM    6  N3  UNL     1      -5.755   0.363  17.366  1.00  0.00    -0.295 N 
ATOM      7  H3  UNL     1      -5.794  -0.467  17.959  1.00  0.00     0.187 HD
HETATM    8  N4  UNL     1      -5.206   0.414  16.178  1.00  0.00    -0.288 N 
ATOM      9  H4  UNL     1      -4.753  -0.368  15.704  1.00  0.00     0.188 HD
HETATM   10  C8  UNL     1      -5.333   1.657  15.677  1.00  0.00     0.101 A 
HETATM   11  C9  UNL     1      -4.839   2.083  14.368  1.00  0.00     0.108 C 
HETATM   12  C10 UNL     1      -4.124   3.452  14.411  1.00  0.00     0.031 C 
HETATM   13  C11 UNL     1      -3.179   3.299  15.630  1.00  0.00     0.038 C 
HETATM   14  C12 UNL     1      -3.201   3.447  13.243  1.00  0.00     0.038 C 
ENDROOT
BRANCH   1  15
HETATM   15  C3  UNL     1      -4.975   5.758  14.077  1.00  0.00     0.008 C 
BRANCH  15  16
HETATM   16  C2  UNL     1      -4.111   6.742  14.853  1.00  0.00     0.050 C 
HETATM   17  C1  UNL     1      -2.818   7.070  14.199  1.00  0.00     0.011 C 
ENDBRANCH  15  16
BRANCH  15  18
HETATM   18  C4  UNL     1      -6.234   6.340  13.565  1.00  0.00     0.216 C 
BRANCH  18  19
HETATM   19  O1  UNL     1      -6.080   6.797  12.231  1.00  0.00    -0.395 OA
ATOM     20  H1  UNL     1      -5.371   6.341  11.793  1.00  0.00     0.209 HD
ENDBRANCH  18  19
ENDBRANCH  15  18
ENDBRANCH   1  15
TORSDOF 4
ENDMDL
