MODEL 1
REMARK VINA RESULT: -6.927242660      0.000      0.000
REMARK  3 active torsions:
REMARK  status: ('A' for Active; 'I' for Inactive)
REMARK    1  A    between atoms: N3_7  and  N4_8 
REMARK    2  A    between atoms: N4_8  and  C3_10 
REMARK    3  A    between atoms: N5_13  and  C6_14 
ROOT
HETATM    1  C3  UNL     1      -2.747   4.006  12.968  1.00  0.00     0.139 C 
HETATM    2  C4  UNL     1      -2.948   5.394  13.539  1.00  0.00     0.052 C 
HETATM    3  C5  UNL     1      -4.164   5.208  14.463  1.00  0.00     0.125 C 
HETATM    4  N5  UNL     1      -4.112   3.869  14.806  1.00  0.00    -0.387 N 
HETATM    5  C13 UNL     1      -3.324   3.056  14.012  1.00  0.00     0.085 C 
ENDROOT
BRANCH   1   6
HETATM    6  N4  UNL     1      -3.408   3.807  11.709  1.00  0.00    -0.318 N 
ATOM      7  H4  UNL     1      -3.608   4.631  11.142  1.00  0.00     0.181 HD
BRANCH   6   8
HETATM    8  N3  UNL     1      -3.794   2.569  11.209  1.00  0.00    -0.248 N 
HETATM    9  C1  UNL     1      -2.964   1.587  10.842  1.00  0.00     0.223 A 
HETATM   10  N1  UNL     1      -3.733   0.574  10.415  1.00  0.00    -0.293 N 
HETATM   11  N2  UNL     1      -4.992   0.925  10.518  1.00  0.00    -0.293 N 
ATOM     12  H1  UNL     1      -3.395  -0.323  10.067  1.00  0.00     0.187 HD
HETATM   13  C2  UNL     1      -5.054   2.180  11.018  1.00  0.00     0.223 A 
ATOM     14  H2  UNL     1      -5.792   0.348  10.263  1.00  0.00     0.187 HD
ENDBRANCH   6   8
ENDBRANCH   1   6
BRANCH   4  15
HETATM   15  C6  UNL     1      -5.036   3.330  15.709  1.00  0.00     0.083 C 
HETATM   16  C7  UNL     1      -6.394   3.954  15.712  1.00  0.00     0.025 C 
HETATM   17  C8  UNL     1      -7.167   3.847  16.967  1.00  0.00     0.002 C 
HETATM   18  C9  UNL     1      -6.662   2.867  17.974  1.00  0.00     0.000 C 
HETATM   19  C10 UNL     1      -6.585   1.453  17.466  1.00  0.00     0.000 C 
HETATM   20  C11 UNL     1      -5.243   1.155  16.822  1.00  0.00     0.002 C 
HETATM   21  C12 UNL     1      -5.251   1.832  15.472  1.00  0.00     0.025 C 
ENDBRANCH   4  15
TORSDOF 3
ENDMDL
MODEL 2
REMARK VINA RESULT: -6.693274896      1.181      1.583
REMARK  3 active torsions:
REMARK  status: ('A' for Active; 'I' for Inactive)
REMARK    1  A    between atoms: N3_7  and  N4_8 
REMARK    2  A    between atoms: N4_8  and  C3_10 
REMARK    3  A    between atoms: N5_13  and  C6_14 
ROOT
HETATM    1  C3  UNL     1      -2.961   5.324  12.992  1.00  0.00     0.139 C 
HETATM    2  C4  UNL     1      -4.082   6.327  13.170  1.00  0.00     0.052 C 
HETATM    3  C5  UNL     1      -5.142   5.517  13.935  1.00  0.00     0.125 C 
HETATM    4  N5  UNL     1      -4.403   4.557  14.602  1.00  0.00    -0.387 N 
HETATM    5  C13 UNL     1      -3.114   4.343  14.148  1.00  0.00     0.085 C 
ENDROOT
BRANCH   1   6
HETATM    6  N4  UNL     1      -3.021   4.618  11.742  1.00  0.00    -0.318 N 
ATOM      7  H4  UNL     1      -3.373   5.122  10.928  1.00  0.00     0.181 HD
BRANCH   6   8
HETATM    8  N3  UNL     1      -2.631   3.297  11.565  1.00  0.00    -0.248 N 
HETATM    9  C1  UNL     1      -3.449   2.238  11.575  1.00  0.00     0.223 A 
HETATM   10  N1  UNL     1      -2.678   1.157  11.376  1.00  0.00    -0.293 N 
HETATM   11  N2  UNL     1      -1.432   1.542  11.249  1.00  0.00    -0.293 N 
ATOM     12  H1  UNL     1      -3.009   0.193  11.331  1.00  0.00     0.187 HD
HETATM   13  C2  UNL     1      -1.378   2.888  11.364  1.00  0.00     0.223 A 
ATOM     14  H2  UNL     1      -0.634   0.928  11.090  1.00  0.00     0.187 HD
ENDBRANCH   6   8
ENDBRANCH   1   6
BRANCH   4  15
HETATM   15  C6  UNL     1      -5.027   3.658  15.475  1.00  0.00     0.083 C 
HETATM   16  C7  UNL     1      -6.494   3.852  15.682  1.00  0.00     0.025 C 
HETATM   17  C8  UNL     1      -7.051   3.360  16.959  1.00  0.00     0.002 C 
HETATM   18  C9  UNL     1      -6.178   2.446  17.754  1.00  0.00     0.000 C 
HETATM   19  C10 UNL     1      -5.773   1.197  17.022  1.00  0.00     0.000 C 
HETATM   20  C11 UNL     1      -4.488   1.391  16.237  1.00  0.00     0.002 C 
HETATM   21  C12 UNL     1      -4.844   2.207  15.018  1.00  0.00     0.025 C 
ENDBRANCH   4  15
TORSDOF 3
ENDMDL
MODEL 3
REMARK VINA RESULT: -6.655043516      2.091      3.676
REMARK  3 active torsions:
REMARK  status: ('A' for Active; 'I' for Inactive)
REMARK    1  A    between atoms: N3_7  and  N4_8 
REMARK    2  A    between atoms: N4_8  and  C3_10 
REMARK    3  A    between atoms: N5_13  and  C6_14 
ROOT
HETATM    1  C3  UNL     1      -3.064   2.509  11.765  1.00  0.00     0.139 C 
HETATM    2  C4  UNL     1      -3.408   1.035  11.783  1.00  0.00     0.052 C 
HETATM    3  C5  UNL     1      -3.999   0.842  13.190  1.00  0.00     0.125 C 
HETATM    4  N5  UNL     1      -4.489   2.095  13.514  1.00  0.00    -0.387 N 
HETATM    5  C13 UNL     1      -4.019   3.156  12.761  1.00  0.00     0.085 C 
ENDROOT
BRANCH   1   6
HETATM    6  N4  UNL     1      -1.705   2.782  12.144  1.00  0.00    -0.318 N 
ATOM      7  H4  UNL     1      -1.251   2.131  12.784  1.00  0.00     0.181 HD
BRANCH   6   8
HETATM    8  N3  UNL     1      -0.968   3.871  11.699  1.00  0.00    -0.248 N 
HETATM    9  C1  UNL     1      -0.895   5.062  12.306  1.00  0.00     0.223 A 
HETATM   10  N1  UNL     1      -0.091   5.828  11.554  1.00  0.00    -0.293 N 
HETATM   11  N2  UNL     1       0.315   5.130  10.522  1.00  0.00    -0.293 N 
ATOM     12  H1  UNL     1       0.164   6.796  11.753  1.00  0.00     0.187 HD
HETATM   13  C2  UNL     1      -0.224   3.893  10.593  1.00  0.00     0.223 A 
ATOM     14  H2  UNL     1       0.936   5.465   9.786  1.00  0.00     0.187 HD
ENDBRANCH   6   8
ENDBRANCH   1   6
BRANCH   4  15
HETATM   15  C6  UNL     1      -5.174   2.302  14.716  1.00  0.00     0.083 C 
HETATM   16  C7  UNL     1      -4.687   1.522  15.894  1.00  0.00     0.025 C 
HETATM   17  C8  UNL     1      -5.673   1.254  16.962  1.00  0.00     0.002 C 
HETATM   18  C9  UNL     1      -6.935   2.050  16.913  1.00  0.00     0.000 C 
HETATM   19  C10 UNL     1      -6.724   3.538  16.970  1.00  0.00     0.000 C 
HETATM   20  C11 UNL     1      -6.545   4.138  15.588  1.00  0.00     0.002 C 
HETATM   21  C12 UNL     1      -5.151   3.775  15.135  1.00  0.00     0.025 C 
ENDBRANCH   4  15
TORSDOF 3
ENDMDL
MODEL 4
REMARK VINA RESULT: -6.587964189      1.939      2.882
REMARK  3 active torsions:
REMARK  status: ('A' for Active; 'I' for Inactive)
REMARK    1  A    between atoms: N3_7  and  N4_8 
REMARK    2  A    between atoms: N4_8  and  C3_10 
REMARK    3  A    between atoms: N5_13  and  C6_14 
ROOT
HETATM    1  C3  UNL     1      -3.316   1.653  12.066  1.00  0.00     0.139 C 
HETATM    2  C4  UNL     1      -3.893   2.986  11.637  1.00  0.00     0.052 C 
HETATM    3  C5  UNL     1      -4.987   3.236  12.689  1.00  0.00     0.125 C 
HETATM    4  N5  UNL     1      -4.549   2.525  13.792  1.00  0.00    -0.387 N 
HETATM    5  C13 UNL     1      -3.578   1.567  13.565  1.00  0.00     0.085 C 
ENDROOT
BRANCH   1   6
HETATM    6  N4  UNL     1      -3.917   0.532  11.399  1.00  0.00    -0.318 N 
ATOM      7  H4  UNL     1      -4.807   0.682  10.925  1.00  0.00     0.181 HD
BRANCH   6   8
HETATM    8  N3  UNL     1      -3.369  -0.744  11.356  1.00  0.00    -0.248 N 
HETATM    9  C1  UNL     1      -2.062  -1.027  11.321  1.00  0.00     0.223 A 
HETATM   10  N1  UNL     1      -1.961  -2.365  11.280  1.00  0.00    -0.293 N 
HETATM   11  N2  UNL     1      -3.165  -2.882  11.290  1.00  0.00    -0.293 N 
ATOM     12  H1  UNL     1      -1.089  -2.893  11.246  1.00  0.00     0.187 HD
HETATM   13  C2  UNL     1      -4.069  -1.878  11.339  1.00  0.00     0.223 A 
ATOM     14  H2  UNL     1      -3.384  -3.877  11.265  1.00  0.00     0.187 HD
ENDBRANCH   6   8
ENDBRANCH   1   6
BRANCH   4  15
HETATM   15  C6  UNL     1      -5.263   2.567  14.995  1.00  0.00     0.083 C 
HETATM   16  C7  UNL     1      -4.729   1.723  16.107  1.00  0.00     0.025 C 
HETATM   17  C8  UNL     1      -5.704   1.283  17.127  1.00  0.00     0.002 C 
HETATM   18  C9  UNL     1      -7.024   1.978  17.126  1.00  0.00     0.000 C 
HETATM   19  C10 UNL     1      -6.932   3.467  17.321  1.00  0.00     0.000 C 
HETATM   20  C11 UNL     1      -6.785   4.203  16.002  1.00  0.00     0.002 C 
HETATM   21  C12 UNL     1      -5.362   3.993  15.545  1.00  0.00     0.025 C 
ENDBRANCH   4  15
TORSDOF 3
ENDMDL
MODEL 5
REMARK VINA RESULT: -6.410652547      1.291      2.264
REMARK  3 active torsions:
REMARK  status: ('A' for Active; 'I' for Inactive)
REMARK    1  A    between atoms: N3_7  and  N4_8 
REMARK    2  A    between atoms: N4_8  and  C3_10 
REMARK    3  A    between atoms: N5_13  and  C6_14 
ROOT
HETATM    1  C3  UNL     1      -2.260   4.145  11.534  1.00  0.00     0.139 C 
HETATM    2  C4  UNL     1      -3.139   5.364  11.348  1.00  0.00     0.052 C 
HETATM    3  C5  UNL     1      -4.311   5.086  12.306  1.00  0.00     0.125 C 
HETATM    4  N5  UNL     1      -3.759   4.259  13.267  1.00  0.00    -0.387 N 
HETATM    5  C13 UNL     1      -2.564   3.644  12.942  1.00  0.00     0.085 C 
ENDROOT
BRANCH   1   6
HETATM    6  N4  UNL     1      -2.519   3.104  10.579  1.00  0.00    -0.318 N 
ATOM      7  H4  UNL     1      -2.232   3.263   9.614  1.00  0.00     0.181 HD
BRANCH   6   8
HETATM    8  N3  UNL     1      -3.135   1.895  10.880  1.00  0.00    -0.248 N 
HETATM    9  C1  UNL     1      -4.452   1.663  10.838  1.00  0.00     0.223 A 
HETATM   10  N1  UNL     1      -4.627   0.383  11.203  1.00  0.00    -0.293 N 
HETATM   11  N2  UNL     1      -3.457  -0.148  11.459  1.00  0.00    -0.293 N 
ATOM     12  H1  UNL     1      -5.524  -0.098  11.270  1.00  0.00     0.187 HD
HETATM   13  C2  UNL     1      -2.501   0.786  11.261  1.00  0.00     0.223 A 
ATOM     14  H2  UNL     1      -3.294  -1.109  11.758  1.00  0.00     0.187 HD
ENDBRANCH   6   8
ENDBRANCH   1   6
BRANCH   4  15
HETATM   15  C6  UNL     1      -4.517   3.841  14.367  1.00  0.00     0.083 C 
HETATM   16  C7  UNL     1      -3.762   3.181  15.474  1.00  0.00     0.025 C 
HETATM   17  C8  UNL     1      -4.524   2.242  16.324  1.00  0.00     0.002 C 
HETATM   18  C9  UNL     1      -6.010   2.294  16.201  1.00  0.00     0.000 C 
HETATM   19  C10 UNL     1      -6.603   3.640  16.515  1.00  0.00     0.000 C 
HETATM   20  C11 UNL     1      -6.686   4.524  15.283  1.00  0.00     0.002 C 
HETATM   21  C12 UNL     1      -5.283   5.005  15.001  1.00  0.00     0.025 C 
ENDBRANCH   4  15
TORSDOF 3
ENDMDL
