MODEL 1
REMARK VINA RESULT: -6.916837858      0.000      0.000
REMARK  4 active torsions:
REMARK  status: ('A' for Active; 'I' for Inactive)
REMARK    1  A    between atoms: O1_2  and  C2_3 
REMARK    2  A    between atoms: C2_3  and  C3_5 
REMARK    3  A    between atoms: C3_5  and  N1_6 
REMARK    4  A    between atoms: C3_5  and  C4_10 
ROOT
HETATM    1  C4  UNL     1      -4.833   3.546  15.453  1.00  0.00    -0.002 C 
HETATM    2  C5  UNL     1      -5.815   4.466  16.093  1.00  0.00     0.016 C 
HETATM    3  C6  UNL     1      -5.896   5.736  15.283  1.00  0.00    -0.013 C 
HETATM    4  C7  UNL     1      -4.562   6.438  15.202  1.00  0.00     0.009 C 
HETATM    5  C8  UNL     1      -3.614   5.512  14.474  1.00  0.00    -0.013 C 
HETATM    6  C9  UNL     1      -4.131   5.134  13.098  1.00  0.00     0.009 C 
HETATM    7  C10 UNL     1      -5.473   4.443  13.254  1.00  0.00    -0.013 C 
HETATM    8  C11 UNL     1      -6.409   5.444  13.891  1.00  0.00     0.009 C 
HETATM    9  C12 UNL     1      -5.338   3.187  14.073  1.00  0.00     0.016 C 
HETATM   10  C13 UNL     1      -3.485   4.254  15.277  1.00  0.00     0.016 C 
ENDROOT
BRANCH   1  11
HETATM   11  C3  UNL     1      -4.538   2.304  16.262  1.00  0.00     0.290 C 
BRANCH  11  12
HETATM   12  C2  UNL     1      -5.383   1.151  15.917  1.00  0.00     0.290 C 
HETATM   13  O2  UNL     1      -4.939   0.170  15.226  1.00  0.00    -0.263 OA
BRANCH  12  14
HETATM   14  O1  UNL     1      -6.713   1.028  16.303  1.00  0.00    -0.325 OA
HETATM   15  C1  UNL     1      -7.185   1.471  17.566  1.00  0.00     0.213 C 
ENDBRANCH  12  14
ENDBRANCH  11  12
BRANCH  11  16
HETATM   16  N1  UNL     1      -3.147   1.946  15.937  1.00  0.00    -0.065 N 
ATOM     17  H13 UNL     1      -2.472   2.347  16.588  1.00  0.00     0.275 HD
ATOM     18  H12 UNL     1      -2.937   0.964  16.115  1.00  0.00     0.275 HD
ATOM     19  H11 UNL     1      -2.977   2.221  14.969  1.00  0.00     0.275 HD
ENDBRANCH  11  16
ENDBRANCH   1  11
TORSDOF 4
ENDMDL
MODEL 2
REMARK VINA RESULT: -6.900303886      1.277      2.567
REMARK  4 active torsions:
REMARK  status: ('A' for Active; 'I' for Inactive)
REMARK    1  A    between atoms: O1_2  and  C2_3 
REMARK    2  A    between atoms: C2_3  and  C3_5 
REMARK    3  A    between atoms: C3_5  and  N1_6 
REMARK    4  A    between atoms: C3_5  and  C4_10 
ROOT
HETATM    1  C4  UNL     1      -5.214   3.524  15.255  1.00  0.00    -0.002 C 
HETATM    2  C5  UNL     1      -3.790   3.931  15.415  1.00  0.00     0.016 C 
HETATM    3  C6  UNL     1      -3.571   5.240  14.698  1.00  0.00    -0.013 C 
HETATM    4  C7  UNL     1      -3.877   5.132  13.223  1.00  0.00     0.009 C 
HETATM    5  C8  UNL     1      -5.347   4.801  13.096  1.00  0.00    -0.013 C 
HETATM    6  C9  UNL     1      -6.225   5.837  13.775  1.00  0.00     0.009 C 
HETATM    7  C10 UNL     1      -5.858   5.899  15.246  1.00  0.00    -0.013 C 
HETATM    8  C11 UNL     1      -4.413   6.331  15.319  1.00  0.00     0.009 C 
HETATM    9  C12 UNL     1      -6.089   4.568  15.912  1.00  0.00     0.016 C 
HETATM   10  C13 UNL     1      -5.587   3.484  13.769  1.00  0.00     0.016 C 
ENDROOT
BRANCH   1  11
HETATM   11  C3  UNL     1      -5.522   2.145  15.790  1.00  0.00     0.290 C 
BRANCH  11  12
HETATM   12  C2  UNL     1      -4.523   1.127  15.431  1.00  0.00     0.290 C 
HETATM   13  O2  UNL     1      -3.376   1.077  15.996  1.00  0.00    -0.263 OA
BRANCH  12  14
HETATM   14  O1  UNL     1      -4.732   0.150  14.465  1.00  0.00    -0.325 OA
HETATM   15  C1  UNL     1      -4.210   0.253  13.149  1.00  0.00     0.213 C 
ENDBRANCH  12  14
ENDBRANCH  11  12
BRANCH  11  16
HETATM   16  N1  UNL     1      -5.509   2.280  17.255  1.00  0.00    -0.065 N 
ATOM     17  H13 UNL     1      -4.570   2.229  17.651  1.00  0.00     0.275 HD
ATOM     18  H12 UNL     1      -5.734   3.225  17.569  1.00  0.00     0.275 HD
ATOM     19  H11 UNL     1      -6.140   1.574  17.635  1.00  0.00     0.275 HD
ENDBRANCH  11  16
ENDBRANCH   1  11
TORSDOF 4
ENDMDL
MODEL 3
REMARK VINA RESULT: -6.892415700      1.284      2.601
REMARK  4 active torsions:
REMARK  status: ('A' for Active; 'I' for Inactive)
REMARK    1  A    between atoms: O1_2  and  C2_3 
REMARK    2  A    between atoms: C2_3  and  C3_5 
REMARK    3  A    between atoms: C3_5  and  N1_6 
REMARK    4  A    between atoms: C3_5  and  C4_10 
ROOT
HETATM    1  C4  UNL     1      -5.196   3.522  15.060  1.00  0.00    -0.002 C 
HETATM    2  C5  UNL     1      -5.440   3.515  13.590  1.00  0.00     0.016 C 
HETATM    3  C6  UNL     1      -5.287   4.920  13.062  1.00  0.00    -0.013 C 
HETATM    4  C7  UNL     1      -6.265   5.873  13.706  1.00  0.00     0.009 C 
HETATM    5  C8  UNL     1      -5.935   5.920  15.182  1.00  0.00    -0.013 C 
HETATM    6  C9  UNL     1      -4.498   6.338  15.432  1.00  0.00     0.009 C 
HETATM    7  C10 UNL     1      -3.574   5.346  14.750  1.00  0.00    -0.013 C 
HETATM    8  C11 UNL     1      -3.874   5.413  13.271  1.00  0.00     0.009 C 
HETATM    9  C12 UNL     1      -3.770   3.961  15.309  1.00  0.00     0.016 C 
HETATM   10  C13 UNL     1      -6.115   4.541  15.742  1.00  0.00     0.016 C 
ENDROOT
BRANCH   1  11
HETATM   11  C3  UNL     1      -5.482   2.200  15.735  1.00  0.00     0.290 C 
BRANCH  11  12
HETATM   12  C2  UNL     1      -4.518   1.139  15.406  1.00  0.00     0.290 C 
HETATM   13  O2  UNL     1      -3.387   1.048  15.996  1.00  0.00    -0.263 OA
BRANCH  12  14
HETATM   14  O1  UNL     1      -4.748   0.163  14.444  1.00  0.00    -0.325 OA
HETATM   15  C1  UNL     1      -4.195   0.232  13.139  1.00  0.00     0.213 C 
ENDBRANCH  12  14
ENDBRANCH  11  12
BRANCH  11  16
HETATM   16  N1  UNL     1      -5.371   2.467  17.179  1.00  0.00    -0.065 N 
ATOM     17  H13 UNL     1      -6.087   3.108  17.521  1.00  0.00     0.275 HD
ATOM     18  H12 UNL     1      -5.626   1.663  17.753  1.00  0.00     0.275 HD
ATOM     19  H11 UNL     1      -4.423   2.798  17.358  1.00  0.00     0.275 HD
ENDBRANCH  11  16
ENDBRANCH   1  11
TORSDOF 4
ENDMDL
MODEL 4
REMARK VINA RESULT: -6.697102367      0.114      1.837
REMARK  4 active torsions:
REMARK  status: ('A' for Active; 'I' for Inactive)
REMARK    1  A    between atoms: O1_2  and  C2_3 
REMARK    2  A    between atoms: C2_3  and  C3_5 
REMARK    3  A    between atoms: C3_5  and  N1_6 
REMARK    4  A    between atoms: C3_5  and  C4_10 
ROOT
HETATM    1  C4  UNL     1      -4.684   3.501  15.346  1.00  0.00    -0.002 C 
HETATM    2  C5  UNL     1      -5.218   3.177  13.994  1.00  0.00     0.016 C 
HETATM    3  C6  UNL     1      -5.500   4.463  13.257  1.00  0.00    -0.013 C 
HETATM    4  C7  UNL     1      -6.513   5.316  13.982  1.00  0.00     0.009 C 
HETATM    5  C8  UNL     1      -5.906   5.696  15.314  1.00  0.00    -0.013 C 
HETATM    6  C9  UNL     1      -4.581   6.419  15.150  1.00  0.00     0.009 C 
HETATM    7  C10 UNL     1      -3.617   5.510  14.408  1.00  0.00    -0.013 C 
HETATM    8  C11 UNL     1      -4.223   5.246  13.050  1.00  0.00     0.009 C 
HETATM    9  C12 UNL     1      -3.375   4.241  15.182  1.00  0.00     0.016 C 
HETATM   10  C13 UNL     1      -5.649   4.437  16.084  1.00  0.00     0.016 C 
ENDROOT
BRANCH   1  11
HETATM   11  C3  UNL     1      -4.517   2.298  16.245  1.00  0.00     0.290 C 
BRANCH  11  12
HETATM   12  C2  UNL     1      -5.379   1.161  15.889  1.00  0.00     0.290 C 
HETATM   13  O2  UNL     1      -4.947   0.176  15.197  1.00  0.00    -0.263 OA
BRANCH  12  14
HETATM   14  O1  UNL     1      -6.714   1.060  16.265  1.00  0.00    -0.325 OA
HETATM   15  C1  UNL     1      -7.184   1.491  17.533  1.00  0.00     0.213 C 
ENDBRANCH  12  14
ENDBRANCH  11  12
BRANCH  11  16
HETATM   16  N1  UNL     1      -3.120   1.867  16.067  1.00  0.00    -0.065 N 
ATOM     17  H13 UNL     1      -2.962   0.902  16.356  1.00  0.00     0.275 HD
ATOM     18  H12 UNL     1      -2.861   1.756  15.086  1.00  0.00     0.275 HD
ATOM     19  H11 UNL     1      -2.527   2.533  16.562  1.00  0.00     0.275 HD
ENDBRANCH  11  16
ENDBRANCH   1  11
TORSDOF 4
ENDMDL
MODEL 5
REMARK VINA RESULT: -6.670878467      1.325      1.845
REMARK  4 active torsions:
REMARK  status: ('A' for Active; 'I' for Inactive)
REMARK    1  A    between atoms: O1_2  and  C2_3 
REMARK    2  A    between atoms: C2_3  and  C3_5 
REMARK    3  A    between atoms: C3_5  and  N1_6 
REMARK    4  A    between atoms: C3_5  and  C4_10 
ROOT
HETATM    1  C4  UNL     1      -5.212   3.563  15.056  1.00  0.00    -0.002 C 
HETATM    2  C5  UNL     1      -6.087   4.681  15.507  1.00  0.00     0.016 C 
HETATM    3  C6  UNL     1      -5.608   5.963  14.874  1.00  0.00    -0.013 C 
HETATM    4  C7  UNL     1      -4.184   6.284  15.259  1.00  0.00     0.009 C 
HETATM    5  C8  UNL     1      -3.314   5.173  14.715  1.00  0.00    -0.013 C 
HETATM    6  C9  UNL     1      -3.465   5.015  13.213  1.00  0.00     0.009 C 
HETATM    7  C10 UNL     1      -4.917   4.705  12.897  1.00  0.00    -0.013 C 
HETATM    8  C11 UNL     1      -5.729   5.889  13.369  1.00  0.00     0.009 C 
HETATM    9  C12 UNL     1      -5.345   3.421  13.557  1.00  0.00     0.016 C 
HETATM   10  C13 UNL     1      -3.744   3.889  15.356  1.00  0.00     0.016 C 
ENDROOT
BRANCH   1  11
HETATM   11  C3  UNL     1      -5.487   2.249  15.751  1.00  0.00     0.290 C 
BRANCH  11  12
HETATM   12  C2  UNL     1      -4.526   1.186  15.422  1.00  0.00     0.290 C 
HETATM   13  O2  UNL     1      -3.387   1.101  15.998  1.00  0.00    -0.263 OA
BRANCH  12  14
HETATM   14  O1  UNL     1      -4.766   0.199  14.473  1.00  0.00    -0.325 OA
HETATM   15  C1  UNL     1      -4.155   0.206  13.192  1.00  0.00     0.213 C 
ENDBRANCH  12  14
ENDBRANCH  11  12
BRANCH  11  16
HETATM   16  N1  UNL     1      -5.357   2.533  17.190  1.00  0.00    -0.065 N 
ATOM     17  H13 UNL     1      -5.906   1.900  17.771  1.00  0.00     0.275 HD
ATOM     18  H12 UNL     1      -4.438   2.291  17.562  1.00  0.00     0.275 HD
ATOM     19  H11 UNL     1      -5.599   3.514  17.333  1.00  0.00     0.275 HD
ENDBRANCH  11  16
ENDBRANCH   1  11
TORSDOF 4
ENDMDL
