MODEL 1
REMARK VINA RESULT: -7.068618858      0.000      0.000
REMARK  5 active torsions:
REMARK  status: ('A' for Active; 'I' for Inactive)
REMARK    1  A    between atoms: O1_1  and  C1_3 
REMARK    2  A    between atoms: C1_3  and  C2_4 
REMARK    3  A    between atoms: C2_4  and  C3_5 
REMARK    4  A    between atoms: C3_5  and  C4_6 
REMARK    5  A    between atoms: C4_6  and  C5_7 
ROOT
HETATM    1  C5  UNL     1      16.885   3.152  12.756  1.00  0.00     0.028 A 
HETATM    2  C6  UNL     1      17.737   4.184  12.446  1.00  0.00     0.114 A 
HETATM    3  N1  UNL     1      18.764   3.644  11.744  1.00  0.00    -0.354 N 
ATOM      4  H1  UNL     1      19.561   4.160  11.370  1.00  0.00     0.166 HD
HETATM    5  C7  UNL     1      18.564   2.308  11.617  1.00  0.00     0.085 A 
HETATM    6  N2  UNL     1      17.387   2.037  12.257  1.00  0.00    -0.337 N 
HETATM    7  C8  UNL     1      16.800   0.713  12.360  1.00  0.00     0.156 C 
HETATM    8  C9  UNL     1      16.414   0.295  10.942  1.00  0.00     0.187 C 
HETATM    9  O2  UNL     1      17.374   0.652  10.026  1.00  0.00    -0.389 OA
HETATM   10  C10 UNL     1      18.651   0.244  10.344  1.00  0.00     0.175 C 
HETATM   11  C11 UNL     1      19.482   1.394  10.911  1.00  0.00     0.103 C 
ENDROOT
BRANCH   1  12
HETATM   12  C4  UNL     1      15.614   3.266  13.523  1.00  0.00     0.059 C 
BRANCH  12  13
HETATM   13  C3  UNL     1      15.840   3.770  14.901  1.00  0.00     0.017 C 
BRANCH  13  14
HETATM   14  C2  UNL     1      16.178   2.757  15.947  1.00  0.00    -0.019 C 
HETATM   15  C12 UNL     1      15.447   1.481  15.587  1.00  0.00     0.011 C 
HETATM   16  C13 UNL     1      14.859   0.779  16.785  1.00  0.00     0.001 C 
HETATM   17  C14 UNL     1      13.830   1.624  17.498  1.00  0.00     0.000 C 
HETATM   18  C15 UNL     1      14.133   3.100  17.382  1.00  0.00     0.001 C 
HETATM   19  C16 UNL     1      15.625   3.331  17.265  1.00  0.00     0.011 C 
BRANCH  14  20
HETATM   20  C1  UNL     1      17.628   2.525  16.202  1.00  0.00     0.173 C 
BRANCH  20  21
HETATM   21  O1  UNL     1      18.058   1.228  16.208  1.00  0.00    -0.400 OA
ATOM     22  H1  UNL     1      18.977   1.078  16.398  1.00  0.00     0.209 HD
ENDBRANCH  20  21
ENDBRANCH  14  20
ENDBRANCH  13  14
ENDBRANCH  12  13
ENDBRANCH   1  12
TORSDOF 5
ENDMDL
MODEL 2
REMARK VINA RESULT: -7.018342684      1.431      2.387
REMARK  5 active torsions:
REMARK  status: ('A' for Active; 'I' for Inactive)
REMARK    1  A    between atoms: O1_1  and  C1_3 
REMARK    2  A    between atoms: C1_3  and  C2_4 
REMARK    3  A    between atoms: C2_4  and  C3_5 
REMARK    4  A    between atoms: C3_5  and  C4_6 
REMARK    5  A    between atoms: C4_6  and  C5_7 
ROOT
HETATM    1  C5  UNL     1      16.832   2.126  12.719  1.00  0.00     0.028 A 
HETATM    2  C6  UNL     1      16.852   0.756  12.613  1.00  0.00     0.114 A 
HETATM    3  N1  UNL     1      17.880   0.444  11.785  1.00  0.00    -0.354 N 
ATOM      4  H1  UNL     1      18.152  -0.499  11.509  1.00  0.00     0.166 HD
HETATM    5  C7  UNL     1      18.489   1.587  11.381  1.00  0.00     0.085 A 
HETATM    6  N2  UNL     1      17.813   2.612  11.981  1.00  0.00    -0.337 N 
HETATM    7  C8  UNL     1      18.142   4.016  11.814  1.00  0.00     0.156 C 
HETATM    8  C9  UNL     1      19.518   4.221  12.447  1.00  0.00     0.187 C 
HETATM    9  O2  UNL     1      20.370   3.181  12.162  1.00  0.00    -0.389 OA
HETATM   10  C10 UNL     1      20.471   2.872  10.823  1.00  0.00     0.175 C 
HETATM   11  C11 UNL     1      19.651   1.632  10.471  1.00  0.00     0.103 C 
ENDROOT
BRANCH   1  12
HETATM   12  C4  UNL     1      15.872   2.927  13.527  1.00  0.00     0.059 C 
BRANCH  12  13
HETATM   13  C3  UNL     1      15.351   2.164  14.689  1.00  0.00     0.017 C 
BRANCH  13  14
HETATM   14  C2  UNL     1      15.983   2.433  16.016  1.00  0.00    -0.019 C 
HETATM   15  C12 UNL     1      15.263   1.578  17.036  1.00  0.00     0.011 C 
HETATM   16  C13 UNL     1      15.015   2.295  18.339  1.00  0.00     0.001 C 
HETATM   17  C14 UNL     1      14.135   3.510  18.168  1.00  0.00     0.000 C 
HETATM   18  C15 UNL     1      14.317   4.151  16.810  1.00  0.00     0.001 C 
HETATM   19  C16 UNL     1      15.723   3.925  16.297  1.00  0.00     0.011 C 
BRANCH  14  20
HETATM   20  C1  UNL     1      17.463   2.277  16.090  1.00  0.00     0.173 C 
BRANCH  20  21
HETATM   21  O1  UNL     1      17.952   1.001  16.137  1.00  0.00    -0.400 OA
ATOM     22  H1  UNL     1      18.780   0.871  16.585  1.00  0.00     0.209 HD
ENDBRANCH  20  21
ENDBRANCH  14  20
ENDBRANCH  13  14
ENDBRANCH  12  13
ENDBRANCH   1  12
TORSDOF 5
ENDMDL
MODEL 3
REMARK VINA RESULT: -6.997969981      2.116      6.015
REMARK  5 active torsions:
REMARK  status: ('A' for Active; 'I' for Inactive)
REMARK    1  A    between atoms: O1_1  and  C1_3 
REMARK    2  A    between atoms: C1_3  and  C2_4 
REMARK    3  A    between atoms: C2_4  and  C3_5 
REMARK    4  A    between atoms: C3_5  and  C4_6 
REMARK    5  A    between atoms: C4_6  and  C5_7 
ROOT
HETATM    1  C5  UNL     1      16.274   4.073  14.598  1.00  0.00     0.028 A 
HETATM    2  C6  UNL     1      15.505   5.027  15.221  1.00  0.00     0.114 A 
HETATM    3  N1  UNL     1      14.679   4.367  16.071  1.00  0.00    -0.354 N 
ATOM      4  H1  UNL     1      13.985   4.802  16.678  1.00  0.00     0.166 HD
HETATM    5  C7  UNL     1      14.923   3.034  15.985  1.00  0.00     0.085 A 
HETATM    6  N2  UNL     1      15.919   2.889  15.061  1.00  0.00    -0.337 N 
HETATM    7  C8  UNL     1      16.485   1.611  14.665  1.00  0.00     0.156 C 
HETATM    8  C9  UNL     1      17.199   1.049  15.894  1.00  0.00     0.187 C 
HETATM    9  O2  UNL     1      16.476   1.259  17.044  1.00  0.00    -0.389 OA
HETATM   10  C10 UNL     1      15.166   0.836  16.983  1.00  0.00     0.175 C 
HETATM   11  C11 UNL     1      14.209   2.008  16.768  1.00  0.00     0.103 C 
ENDROOT
BRANCH   1  12
HETATM   12  C4  UNL     1      17.328   4.328  13.578  1.00  0.00     0.059 C 
BRANCH  12  13
HETATM   13  C3  UNL     1      16.789   4.265  12.196  1.00  0.00     0.017 C 
BRANCH  13  14
HETATM   14  C2  UNL     1      17.451   3.313  11.252  1.00  0.00    -0.019 C 
HETATM   15  C12 UNL     1      18.716   2.824  11.925  1.00  0.00     0.011 C 
HETATM   16  C13 UNL     1      19.886   2.720  10.978  1.00  0.00     0.001 C 
HETATM   17  C14 UNL     1      20.260   4.055  10.379  1.00  0.00     0.000 C 
HETATM   18  C15 UNL     1      19.060   4.962  10.227  1.00  0.00     0.001 C 
HETATM   19  C16 UNL     1      17.801   4.149  10.007  1.00  0.00     0.011 C 
BRANCH  14  20
HETATM   20  C1  UNL     1      16.612   2.192  10.744  1.00  0.00     0.173 C 
BRANCH  20  21
HETATM   21  O1  UNL     1      15.319   2.133  11.185  1.00  0.00    -0.400 OA
ATOM     22  H1  UNL     1      14.799   1.390  10.902  1.00  0.00     0.209 HD
ENDBRANCH  20  21
ENDBRANCH  14  20
ENDBRANCH  13  14
ENDBRANCH  12  13
ENDBRANCH   1  12
TORSDOF 5
ENDMDL
MODEL 4
REMARK VINA RESULT: -6.924463740      3.131      5.976
REMARK  5 active torsions:
REMARK  status: ('A' for Active; 'I' for Inactive)
REMARK    1  A    between atoms: O1_1  and  C1_3 
REMARK    2  A    between atoms: C1_3  and  C2_4 
REMARK    3  A    between atoms: C2_4  and  C3_5 
REMARK    4  A    between atoms: C3_5  and  C4_6 
REMARK    5  A    between atoms: C4_6  and  C5_7 
ROOT
HETATM    1  C5  UNL     1      15.734   4.125  14.693  1.00  0.00     0.028 A 
HETATM    2  C6  UNL     1      15.013   4.993  15.477  1.00  0.00     0.114 A 
HETATM    3  N1  UNL     1      14.436   4.250  16.454  1.00  0.00    -0.354 N 
ATOM      4  H1  UNL     1      13.835   4.610  17.195  1.00  0.00     0.166 HD
HETATM    5  C7  UNL     1      14.785   2.949  16.289  1.00  0.00     0.085 A 
HETATM    6  N2  UNL     1      15.591   2.908  15.186  1.00  0.00    -0.337 N 
HETATM    7  C8  UNL     1      16.189   1.695  14.656  1.00  0.00     0.156 C 
HETATM    8  C9  UNL     1      17.180   1.200  15.709  1.00  0.00     0.187 C 
HETATM    9  O2  UNL     1      16.678   1.329  16.982  1.00  0.00    -0.389 OA
HETATM   10  C10 UNL     1      15.428   0.779  17.166  1.00  0.00     0.175 C 
HETATM   11  C11 UNL     1      14.340   1.852  17.170  1.00  0.00     0.103 C 
ENDROOT
BRANCH   1  12
HETATM   12  C4  UNL     1      16.538   4.489  13.495  1.00  0.00     0.059 C 
BRANCH  12  13
HETATM   13  C3  UNL     1      16.950   5.915  13.514  1.00  0.00     0.017 C 
BRANCH  13  14
HETATM   14  C2  UNL     1      18.315   6.220  14.041  1.00  0.00    -0.019 C 
HETATM   15  C12 UNL     1      18.155   7.280  15.110  1.00  0.00     0.011 C 
HETATM   16  C13 UNL     1      19.231   8.336  15.061  1.00  0.00     0.001 C 
HETATM   17  C14 UNL     1      19.227   9.100  13.759  1.00  0.00     0.000 C 
HETATM   18  C15 UNL     1      18.753   8.246  12.605  1.00  0.00     0.001 C 
HETATM   19  C16 UNL     1      19.096   6.790  12.842  1.00  0.00     0.011 C 
BRANCH  14  20
HETATM   20  C1  UNL     1      19.120   5.058  14.512  1.00  0.00     0.173 C 
BRANCH  20  21
HETATM   21  O1  UNL     1      20.122   4.623  13.691  1.00  0.00    -0.400 OA
ATOM     22  H1  UNL     1      20.272   3.685  13.650  1.00  0.00     0.209 HD
ENDBRANCH  20  21
ENDBRANCH  14  20
ENDBRANCH  13  14
ENDBRANCH  12  13
ENDBRANCH   1  12
TORSDOF 5
ENDMDL
MODEL 5
REMARK VINA RESULT: -6.902226648      2.067      3.419
REMARK  5 active torsions:
REMARK  status: ('A' for Active; 'I' for Inactive)
REMARK    1  A    between atoms: O1_1  and  C1_3 
REMARK    2  A    between atoms: C1_3  and  C2_4 
REMARK    3  A    between atoms: C2_4  and  C3_5 
REMARK    4  A    between atoms: C3_5  and  C4_6 
REMARK    5  A    between atoms: C4_6  and  C5_7 
ROOT
HETATM    1  C5  UNL     1      17.728   1.950  11.760  1.00  0.00     0.028 A 
HETATM    2  C6  UNL     1      18.661   0.947  11.648  1.00  0.00     0.114 A 
HETATM    3  N1  UNL     1      19.640   1.414  10.834  1.00  0.00    -0.354 N 
ATOM      4  H1  UNL     1      20.475   0.899  10.558  1.00  0.00     0.166 HD
HETATM    5  C7  UNL     1      19.331   2.677  10.445  1.00  0.00     0.085 A 
HETATM    6  N2  UNL     1      18.138   2.977  11.039  1.00  0.00    -0.337 N 
HETATM    7  C8  UNL     1      17.444   4.244  10.884  1.00  0.00     0.156 C 
HETATM    8  C9  UNL     1      18.324   5.307  11.539  1.00  0.00     0.187 C 
HETATM    9  O2  UNL     1      19.656   5.109  11.262  1.00  0.00    -0.389 OA
HETATM   10  C10 UNL     1      19.948   4.965   9.924  1.00  0.00     0.175 C 
HETATM   11  C11 UNL     1      20.171   3.500   9.554  1.00  0.00     0.103 C 
ENDROOT
BRANCH   1  12
HETATM   12  C4  UNL     1      16.472   1.892  12.557  1.00  0.00     0.059 C 
BRANCH  12  13
HETATM   13  C3  UNL     1      16.723   1.479  13.961  1.00  0.00     0.017 C 
BRANCH  13  14
HETATM   14  C2  UNL     1      16.140   2.339  15.036  1.00  0.00    -0.019 C 
HETATM   15  C12 UNL     1      15.333   3.423  14.353  1.00  0.00     0.011 C 
HETATM   16  C13 UNL     1      15.493   4.776  15.000  1.00  0.00     0.001 C 
HETATM   17  C14 UNL     1      16.919   5.270  14.951  1.00  0.00     0.000 C 
HETATM   18  C15 UNL     1      17.913   4.132  14.991  1.00  0.00     0.001 C 
HETATM   19  C16 UNL     1      17.349   2.958  15.763  1.00  0.00     0.011 C 
BRANCH  14  20
HETATM   20  C1  UNL     1      15.364   1.640  16.098  1.00  0.00     0.173 C 
BRANCH  20  21
HETATM   21  O1  UNL     1      15.505   0.282  16.179  1.00  0.00    -0.400 OA
ATOM     22  H1  UNL     1      14.771  -0.209  16.528  1.00  0.00     0.209 HD
ENDBRANCH  20  21
ENDBRANCH  14  20
ENDBRANCH  13  14
ENDBRANCH  12  13
ENDBRANCH   1  12
TORSDOF 5
ENDMDL
