MODEL 1
REMARK VINA RESULT: -5.588005205      0.000      0.000
REMARK  8 active torsions:
REMARK  status: ('A' for Active; 'I' for Inactive)
REMARK    1  A    between atoms: C2_3  and  C3_4 
REMARK    2  A    between atoms: C4_5  and  C5_6 
REMARK    3  A    between atoms: C5_6  and  O1_7 
REMARK    4  A    between atoms: C6_9  and  O2_10 
REMARK    5  A    between atoms: C7_12  and  O3_13 
REMARK    6  A    between atoms: C8_15  and  O4_16 
REMARK    7  A    between atoms: C9_18  and  N2_19 
REMARK    8  A    between atoms: N2_19  and  N3_21 
ROOT
HETATM    1  N1  UNL     1       8.958  -0.943  26.065  1.00  0.00    -0.197 NA
HETATM    2  C1  UNL     1       7.851  -1.267  25.998  1.00  0.00     0.059 C 
HETATM    3  C2  UNL     1       6.467  -1.646  25.907  1.00  0.00     0.131 C 
ENDROOT
BRANCH   3   4
HETATM    4  C3  UNL     1       6.259  -3.093  25.683  1.00  0.00     0.034 C 
HETATM    5  C4  UNL     1       5.319  -3.285  24.503  1.00  0.00     0.048 C 
HETATM    6  C6  UNL     1       5.373  -4.719  24.068  1.00  0.00     0.156 C 
HETATM    7  C7  UNL     1       4.775  -5.544  25.211  1.00  0.00     0.178 C 
HETATM    8  C8  UNL     1       5.502  -5.293  26.481  1.00  0.00     0.174 C 
HETATM    9  C9  UNL     1       5.675  -3.841  26.833  1.00  0.00     0.137 C 
BRANCH   5  10
HETATM   10  C5  UNL     1       5.634  -2.358  23.356  1.00  0.00     0.172 C 
BRANCH  10  11
HETATM   11  O1  UNL     1       6.734  -2.746  22.633  1.00  0.00    -0.400 OA
ATOM     12  H1  UNL     1       7.072  -2.061  22.067  1.00  0.00     0.209 HD
ENDBRANCH  10  11
ENDBRANCH   5  10
BRANCH   6  13
HETATM   13  O2  UNL     1       6.709  -5.093  23.941  1.00  0.00    -0.392 OA
ATOM     14  H2  UNL     1       6.745  -5.954  23.539  1.00  0.00     0.210 HD
ENDBRANCH   6  13
BRANCH   7  15
HETATM   15  O3  UNL     1       4.946  -6.894  24.874  1.00  0.00    -0.390 OA
ATOM     16  H3  UNL     1       4.114  -7.326  25.031  1.00  0.00     0.210 HD
ENDBRANCH   7  15
BRANCH   8  17
HETATM   17  O4  UNL     1       6.787  -5.849  26.361  1.00  0.00    -0.391 OA
ATOM     18  H4  UNL     1       7.382  -5.156  26.096  1.00  0.00     0.210 HD
ENDBRANCH   8  17
BRANCH   9  19
HETATM   19  N2  UNL     1       6.495  -3.811  28.029  1.00  0.00    -0.315 N 
ATOM     20  H2  UNL     1       7.375  -3.296  28.063  1.00  0.00     0.182 HD
BRANCH  19  21
HETATM   21  N3  UNL     1       6.074  -4.438  28.999  1.00  0.00    -0.253 N 
HETATM   22  N4  UNL     1       5.793  -4.597  30.207  1.00  0.00    -0.331 N 
ATOM     23  H42 UNL     1       6.079  -3.691  30.579  1.00  0.00     0.178 HD
ATOM     24  H41 UNL     1       5.443  -5.118  31.012  1.00  0.00     0.178 HD
ATOM     25  H3  UNL     1       5.800  -5.331  28.587  1.00  0.00     0.207 HD
ENDBRANCH  19  21
ENDBRANCH   9  19
ENDBRANCH   3   4
TORSDOF 8
ENDMDL
MODEL 2
REMARK VINA RESULT: -5.558108693      2.943      3.783
REMARK  8 active torsions:
REMARK  status: ('A' for Active; 'I' for Inactive)
REMARK    1  A    between atoms: C2_3  and  C3_4 
REMARK    2  A    between atoms: C4_5  and  C5_6 
REMARK    3  A    between atoms: C5_6  and  O1_7 
REMARK    4  A    between atoms: C6_9  and  O2_10 
REMARK    5  A    between atoms: C7_12  and  O3_13 
REMARK    6  A    between atoms: C8_15  and  O4_16 
REMARK    7  A    between atoms: C9_18  and  N2_19 
REMARK    8  A    between atoms: N2_19  and  N3_21 
ROOT
HETATM    1  N1  UNL     1       9.066  -6.011  28.591  1.00  0.00    -0.197 NA
HETATM    2  C1  UNL     1       8.211  -6.599  28.083  1.00  0.00     0.059 C 
HETATM    3  C2  UNL     1       7.156  -7.353  27.462  1.00  0.00     0.131 C 
ENDROOT
BRANCH   3   4
HETATM    4  C3  UNL     1       5.953  -6.552  27.152  1.00  0.00     0.034 C 
HETATM    5  C4  UNL     1       5.973  -6.169  25.681  1.00  0.00     0.048 C 
HETATM    6  C6  UNL     1       4.617  -5.658  25.293  1.00  0.00     0.156 C 
HETATM    7  C7  UNL     1       4.412  -4.347  26.058  1.00  0.00     0.178 C 
HETATM    8  C8  UNL     1       4.558  -4.559  27.520  1.00  0.00     0.174 C 
HETATM    9  C9  UNL     1       5.808  -5.288  27.930  1.00  0.00     0.137 C 
BRANCH   5  10
HETATM   10  C5  UNL     1       6.396  -7.311  24.792  1.00  0.00     0.172 C 
BRANCH  10  11
HETATM   11  O1  UNL     1       5.348  -7.895  24.125  1.00  0.00    -0.400 OA
ATOM     12  H1  UNL     1       5.612  -8.333  23.323  1.00  0.00     0.209 HD
ENDBRANCH  10  11
ENDBRANCH   5  10
BRANCH   6  13
HETATM   13  O2  UNL     1       3.658  -6.559  25.748  1.00  0.00    -0.392 OA
ATOM     14  H2  UNL     1       2.853  -6.083  25.918  1.00  0.00     0.210 HD
ENDBRANCH   6  13
BRANCH   7  15
HETATM   15  O3  UNL     1       3.096  -3.931  25.810  1.00  0.00    -0.390 OA
ATOM     16  H3  UNL     1       2.797  -3.477  26.590  1.00  0.00     0.210 HD
ENDBRANCH   7  15
BRANCH   8  17
HETATM   17  O4  UNL     1       3.465  -5.327  27.957  1.00  0.00    -0.391 OA
ATOM     18  H4  UNL     1       3.762  -6.224  28.065  1.00  0.00     0.210 HD
ENDBRANCH   8  17
BRANCH   9  19
HETATM   19  N2  UNL     1       5.705  -5.490  29.363  1.00  0.00    -0.315 N 
ATOM     20  H2  UNL     1       5.569  -6.418  29.766  1.00  0.00     0.182 HD
BRANCH  19  21
HETATM   21  N3  UNL     1       5.790  -4.485  30.067  1.00  0.00    -0.253 N 
HETATM   22  N4  UNL     1       5.966  -3.868  31.140  1.00  0.00    -0.331 N 
ATOM     23  H42 UNL     1       6.128  -4.652  31.773  1.00  0.00     0.178 HD
ATOM     24  H41 UNL     1       6.037  -3.034  31.724  1.00  0.00     0.178 HD
ATOM     25  H3  UNL     1       5.624  -3.730  29.400  1.00  0.00     0.207 HD
ENDBRANCH  19  21
ENDBRANCH   9  19
ENDBRANCH   3   4
TORSDOF 8
ENDMDL
MODEL 3
REMARK VINA RESULT: -5.382781408      5.094      6.930
REMARK  8 active torsions:
REMARK  status: ('A' for Active; 'I' for Inactive)
REMARK    1  A    between atoms: C2_3  and  C3_4 
REMARK    2  A    between atoms: C4_5  and  C5_6 
REMARK    3  A    between atoms: C5_6  and  O1_7 
REMARK    4  A    between atoms: C6_9  and  O2_10 
REMARK    5  A    between atoms: C7_12  and  O3_13 
REMARK    6  A    between atoms: C8_15  and  O4_16 
REMARK    7  A    between atoms: C9_18  and  N2_19 
REMARK    8  A    between atoms: N2_19  and  N3_21 
ROOT
HETATM    1  N1  UNL     1       1.939  -5.101  21.832  1.00  0.00    -0.197 NA
HETATM    2  C1  UNL     1       2.529  -4.281  21.269  1.00  0.00     0.059 C 
HETATM    3  C2  UNL     1       3.261  -3.276  20.548  1.00  0.00     0.131 C 
ENDROOT
BRANCH   3   4
HETATM    4  C3  UNL     1       3.096  -1.912  21.093  1.00  0.00     0.034 C 
HETATM    5  C4  UNL     1       3.188  -0.905  19.956  1.00  0.00     0.048 C 
HETATM    6  C6  UNL     1       2.692   0.424  20.443  1.00  0.00     0.156 C 
HETATM    7  C7  UNL     1       3.694   0.901  21.499  1.00  0.00     0.178 C 
HETATM    8  C8  UNL     1       3.834  -0.101  22.585  1.00  0.00     0.174 C 
HETATM    9  C9  UNL     1       4.100  -1.506  22.117  1.00  0.00     0.137 C 
BRANCH   5  10
HETATM   10  C5  UNL     1       2.432  -1.349  18.729  1.00  0.00     0.172 C 
BRANCH  10  11
HETATM   11  O1  UNL     1       2.014  -0.305  17.943  1.00  0.00    -0.400 OA
ATOM     12  H1  UNL     1       2.616   0.431  17.946  1.00  0.00     0.209 HD
ENDBRANCH  10  11
ENDBRANCH   5  10
BRANCH   6  13
HETATM   13  O2  UNL     1       1.471   0.233  21.085  1.00  0.00    -0.392 OA
ATOM     14  H2  UNL     1       1.546  -0.520  21.660  1.00  0.00     0.210 HD
ENDBRANCH   6  13
BRANCH   7  15
HETATM   15  O3  UNL     1       3.169   2.075  22.059  1.00  0.00    -0.390 OA
ATOM     16  H3  UNL     1       3.534   2.152  22.932  1.00  0.00     0.210 HD
ENDBRANCH   7  15
BRANCH   8  17
HETATM   17  O4  UNL     1       2.632  -0.124  23.311  1.00  0.00    -0.391 OA
ATOM     18  H4  UNL     1       2.344   0.774  23.430  1.00  0.00     0.210 HD
ENDBRANCH   8  17
BRANCH   9  19
HETATM   19  N2  UNL     1       4.091  -2.335  23.307  1.00  0.00    -0.315 N 
ATOM     20  H2  UNL     1       3.443  -3.116  23.412  1.00  0.00     0.182 HD
BRANCH  19  21
HETATM   21  N3  UNL     1       4.907  -2.049  24.182  1.00  0.00    -0.253 N 
HETATM   22  N4  UNL     1       5.605  -2.275  25.194  1.00  0.00    -0.331 N 
ATOM     23  H42 UNL     1       5.335  -3.240  25.387  1.00  0.00     0.178 HD
ATOM     24  H41 UNL     1       6.282  -2.037  25.920  1.00  0.00     0.178 HD
ATOM     25  H3  UNL     1       5.149  -1.084  23.955  1.00  0.00     0.207 HD
ENDBRANCH  19  21
ENDBRANCH   9  19
ENDBRANCH   3   4
TORSDOF 8
ENDMDL
MODEL 4
REMARK VINA RESULT: -5.309009878      3.593      4.258
REMARK  8 active torsions:
REMARK  status: ('A' for Active; 'I' for Inactive)
REMARK    1  A    between atoms: C2_3  and  C3_4 
REMARK    2  A    between atoms: C4_5  and  C5_6 
REMARK    3  A    between atoms: C5_6  and  O1_7 
REMARK    4  A    between atoms: C6_9  and  O2_10 
REMARK    5  A    between atoms: C7_12  and  O3_13 
REMARK    6  A    between atoms: C8_15  and  O4_16 
REMARK    7  A    between atoms: C9_18  and  N2_19 
REMARK    8  A    between atoms: N2_19  and  N3_21 
ROOT
HETATM    1  N1  UNL     1       7.182  -5.726  23.303  1.00  0.00    -0.197 NA
HETATM    2  C1  UNL     1       6.357  -6.153  23.989  1.00  0.00     0.059 C 
HETATM    3  C2  UNL     1       5.329  -6.707  24.828  1.00  0.00     0.131 C 
ENDROOT
BRANCH   3   4
HETATM    4  C3  UNL     1       5.322  -6.160  26.202  1.00  0.00     0.034 C 
HETATM    5  C4  UNL     1       4.826  -4.723  26.165  1.00  0.00     0.048 C 
HETATM    6  C6  UNL     1       4.500  -4.286  27.562  1.00  0.00     0.156 C 
HETATM    7  C7  UNL     1       5.828  -4.245  28.324  1.00  0.00     0.178 C 
HETATM    8  C8  UNL     1       6.510  -5.562  28.271  1.00  0.00     0.174 C 
HETATM    9  C9  UNL     1       6.644  -6.148  26.892  1.00  0.00     0.137 C 
BRANCH   5  10
HETATM   10  C5  UNL     1       3.639  -4.546  25.251  1.00  0.00     0.172 C 
BRANCH  10  11
HETATM   11  O1  UNL     1       2.491  -4.196  25.916  1.00  0.00    -0.400 OA
ATOM     12  H1  UNL     1       2.213  -3.304  25.741  1.00  0.00     0.209 HD
ENDBRANCH  10  11
ENDBRANCH   5  10
BRANCH   6  13
HETATM   13  O2  UNL     1       3.709  -5.264  28.159  1.00  0.00    -0.392 OA
ATOM     14  H2  UNL     1       2.873  -5.293  27.708  1.00  0.00     0.210 HD
ENDBRANCH   6  13
BRANCH   7  15
HETATM   15  O3  UNL     1       5.520  -3.970  29.665  1.00  0.00    -0.390 OA
ATOM     16  H3  UNL     1       6.054  -3.228  29.925  1.00  0.00     0.210 HD
ENDBRANCH   7  15
BRANCH   8  17
HETATM   17  O4  UNL     1       5.760  -6.469  29.039  1.00  0.00    -0.391 OA
ATOM     18  H4  UNL     1       5.665  -7.270  28.535  1.00  0.00     0.210 HD
ENDBRANCH   8  17
BRANCH   9  19
HETATM   19  N2  UNL     1       7.225  -7.465  27.069  1.00  0.00    -0.315 N 
ATOM     20  H2  UNL     1       6.842  -8.288  26.603  1.00  0.00     0.182 HD
BRANCH  19  21
HETATM   21  N3  UNL     1       8.205  -7.538  27.809  1.00  0.00    -0.253 N 
HETATM   22  N4  UNL     1       9.354  -7.233  28.197  1.00  0.00    -0.331 N 
ATOM     23  H42 UNL     1       9.600  -6.533  27.497  1.00  0.00     0.178 HD
ATOM     24  H41 UNL     1      10.166  -7.293  28.811  1.00  0.00     0.178 HD
ATOM     25  H3  UNL     1       7.920  -8.243  28.489  1.00  0.00     0.207 HD
ENDBRANCH  19  21
ENDBRANCH   9  19
ENDBRANCH   3   4
TORSDOF 8
ENDMDL
MODEL 5
REMARK VINA RESULT: -5.155938005      6.951      8.298
REMARK  8 active torsions:
REMARK  status: ('A' for Active; 'I' for Inactive)
REMARK    1  A    between atoms: C2_3  and  C3_4 
REMARK    2  A    between atoms: C4_5  and  C5_6 
REMARK    3  A    between atoms: C5_6  and  O1_7 
REMARK    4  A    between atoms: C6_9  and  O2_10 
REMARK    5  A    between atoms: C7_12  and  O3_13 
REMARK    6  A    between atoms: C8_15  and  O4_16 
REMARK    7  A    between atoms: C9_18  and  N2_19 
REMARK    8  A    between atoms: N2_19  and  N3_21 
ROOT
HETATM    1  N1  UNL     1       1.691  -4.132  22.216  1.00  0.00    -0.197 NA
HETATM    2  C1  UNL     1       2.406  -3.447  21.621  1.00  0.00     0.059 C 
HETATM    3  C2  UNL     1       3.311  -2.616  20.874  1.00  0.00     0.131 C 
ENDROOT
BRANCH   3   4
HETATM    4  C3  UNL     1       2.714  -1.341  20.422  1.00  0.00     0.034 C 
HETATM    5  C4  UNL     1       2.668  -1.322  18.902  1.00  0.00     0.048 C 
HETATM    6  C6  UNL     1       1.772  -0.205  18.457  1.00  0.00     0.156 C 
HETATM    7  C7  UNL     1       2.467   1.098  18.866  1.00  0.00     0.178 C 
HETATM    8  C8  UNL     1       2.740   1.117  20.324  1.00  0.00     0.174 C 
HETATM    9  C9  UNL     1       3.435  -0.109  20.852  1.00  0.00     0.137 C 
BRANCH   5  10
HETATM   10  C5  UNL     1       2.219  -2.640  18.322  1.00  0.00     0.172 C 
BRANCH  10  11
HETATM   11  O1  UNL     1       1.510  -2.504  17.155  1.00  0.00    -0.400 OA
ATOM     12  H1  UNL     1       1.661  -3.214  16.540  1.00  0.00     0.209 HD
ENDBRANCH  10  11
ENDBRANCH   5  10
BRANCH   6  13
HETATM   13  O2  UNL     1       0.579  -0.281  19.173  1.00  0.00    -0.392 OA
ATOM     14  H2  UNL     1       0.684   0.199  19.987  1.00  0.00     0.210 HD
ENDBRANCH   6  13
BRANCH   7  15
HETATM   15  O3  UNL     1       1.576   2.143  18.578  1.00  0.00    -0.390 OA
ATOM     16  H3  UNL     1       0.702   1.770  18.583  1.00  0.00     0.210 HD
ENDBRANCH   7  15
BRANCH   8  17
HETATM   17  O4  UNL     1       1.509   1.220  20.994  1.00  0.00    -0.391 OA
ATOM     18  H4  UNL     1       1.289   2.142  21.061  1.00  0.00     0.210 HD
ENDBRANCH   8  17
BRANCH   9  19
HETATM   19  N2  UNL     1       3.506   0.057  22.291  1.00  0.00    -0.315 N 
ATOM     20  H2  UNL     1       4.341   0.423  22.749  1.00  0.00     0.182 HD
BRANCH  19  21
HETATM   21  N3  UNL     1       2.507  -0.267  22.931  1.00  0.00    -0.253 N 
HETATM   22  N4  UNL     1       1.552  -0.068  23.713  1.00  0.00    -0.331 N 
ATOM     23  H42 UNL     1       1.701   0.917  23.932  1.00  0.00     0.178 HD
ATOM     24  H41 UNL     1       0.723  -0.337  24.244  1.00  0.00     0.178 HD
ATOM     25  H3  UNL     1       2.393  -1.251  22.686  1.00  0.00     0.207 HD
ENDBRANCH  19  21
ENDBRANCH   9  19
ENDBRANCH   3   4
TORSDOF 8
ENDMDL
