MODEL 1
REMARK VINA RESULT: -6.057957684      0.000      0.000
REMARK  8 active torsions:
REMARK  status: ('A' for Active; 'I' for Inactive)
REMARK    1  A    between atoms: N1_1  and  N2_4 
REMARK    2  A    between atoms: N3_6  and  C1_8 
REMARK    3  A    between atoms: C3_11  and  O2_12 
REMARK    4  A    between atoms: O2_12  and  C4_13 
REMARK    5  A    between atoms: C4_13  and  N4_15 
REMARK    6  A    between atoms: N4_15  and  O3_17 
REMARK    7  A    between atoms: C5_19  and  O4_20 
REMARK    8  A    between atoms: C6_22  and  O5_23 
ROOT
HETATM    1  C1  UNL     1       5.615  -4.714  28.689  1.00  0.00     0.156 C 
HETATM    2  C2  UNL     1       6.865  -5.179  28.055  1.00  0.00     0.200 C 
HETATM    3  O1  UNL     1       6.755  -5.517  26.716  1.00  0.00    -0.356 OA
HETATM    4  C3  UNL     1       5.751  -6.434  26.532  1.00  0.00     0.300 C 
HETATM    5  C5  UNL     1       4.436  -5.710  26.730  1.00  0.00     0.204 C 
HETATM    6  C6  UNL     1       4.361  -5.381  28.209  1.00  0.00     0.178 C 
ENDROOT
BRANCH   1   7
HETATM    7  N3  UNL     1       5.712  -4.849  30.127  1.00  0.00    -0.313 N 
HETATM    8  N2  UNL     1       5.860  -3.836  30.810  1.00  0.00    -0.253 N 
ATOM      9  H2  UNL     1       6.582  -3.346  30.283  1.00  0.00     0.207 HD
ATOM     10  H3  UNL     1       5.660  -5.767  30.567  1.00  0.00     0.182 HD
BRANCH   8  11
HETATM   11  N1  UNL     1       5.669  -3.045  31.747  1.00  0.00    -0.331 N 
ATOM     12  H12 UNL     1       5.780  -2.174  31.226  1.00  0.00     0.178 HD
ATOM     13  H11 UNL     1       5.474  -2.740  32.700  1.00  0.00     0.178 HD
ENDBRANCH   8  11
ENDBRANCH   1   7
BRANCH   6  14
HETATM   14  O5  UNL     1       4.090  -6.575  28.878  1.00  0.00    -0.391 OA
ATOM     15  H5  UNL     1       3.177  -6.833  28.819  1.00  0.00     0.210 HD
ENDBRANCH   6  14
BRANCH   5  16
HETATM   16  O4  UNL     1       4.520  -4.529  25.966  1.00  0.00    -0.388 OA
ATOM     17  H4  UNL     1       3.626  -4.283  25.760  1.00  0.00     0.210 HD
ENDBRANCH   5  16
BRANCH   4  18
HETATM   18  O2  UNL     1       5.796  -7.106  25.298  1.00  0.00    -0.291 OA
BRANCH  18  19
HETATM   19  C4  UNL     1       5.685  -6.521  24.074  1.00  0.00     0.236 C 
HETATM   20  S1  UNL     1       4.492  -7.024  23.063  1.00  0.00    -0.031 SA
BRANCH  19  21
HETATM   21  N4  UNL     1       6.532  -5.494  23.593  1.00  0.00    -0.238 N 
ATOM     22  H4  UNL     1       7.205  -5.730  22.864  1.00  0.00     0.197 HD
BRANCH  21  23
HETATM   23  O3  UNL     1       6.501  -4.225  24.039  1.00  0.00    -0.287 OA
ATOM     24  H3  UNL     1       6.920  -3.496  23.595  1.00  0.00     0.244 HD
ENDBRANCH  21  23
ENDBRANCH  19  21
ENDBRANCH  18  19
ENDBRANCH   4  18
TORSDOF 8
ENDMDL
MODEL 2
REMARK VINA RESULT: -5.900759674      1.577      1.592
REMARK  8 active torsions:
REMARK  status: ('A' for Active; 'I' for Inactive)
REMARK    1  A    between atoms: N1_1  and  N2_4 
REMARK    2  A    between atoms: N3_6  and  C1_8 
REMARK    3  A    between atoms: C3_11  and  O2_12 
REMARK    4  A    between atoms: O2_12  and  C4_13 
REMARK    5  A    between atoms: C4_13  and  N4_15 
REMARK    6  A    between atoms: N4_15  and  O3_17 
REMARK    7  A    between atoms: C5_19  and  O4_20 
REMARK    8  A    between atoms: C6_22  and  O5_23 
ROOT
HETATM    1  C1  UNL     1       5.304  -4.429  28.499  1.00  0.00     0.156 C 
HETATM    2  C2  UNL     1       6.329  -4.055  27.504  1.00  0.00     0.200 C 
HETATM    3  O1  UNL     1       5.917  -4.119  26.182  1.00  0.00    -0.356 OA
HETATM    4  C3  UNL     1       5.399  -5.358  25.899  1.00  0.00     0.300 C 
HETATM    5  C5  UNL     1       4.060  -5.458  26.599  1.00  0.00     0.204 C 
HETATM    6  C6  UNL     1       4.369  -5.524  28.082  1.00  0.00     0.178 C 
ENDROOT
BRANCH   1   7
HETATM    7  N3  UNL     1       5.939  -4.787  29.750  1.00  0.00    -0.313 N 
HETATM    8  N2  UNL     1       5.937  -3.974  30.672  1.00  0.00    -0.253 N 
ATOM      9  H2  UNL     1       6.199  -3.119  30.182  1.00  0.00     0.207 HD
ATOM     10  H3  UNL     1       6.381  -5.699  29.864  1.00  0.00     0.182 HD
BRANCH   8  11
HETATM   11  N1  UNL     1       5.812  -3.554  31.833  1.00  0.00    -0.331 N 
ATOM     12  H12 UNL     1       5.596  -4.442  32.287  1.00  0.00     0.178 HD
ATOM     13  H11 UNL     1       5.794  -2.876  32.595  1.00  0.00     0.178 HD
ENDBRANCH   8  11
ENDBRANCH   1   7
BRANCH   6  14
HETATM   14  O5  UNL     1       4.876  -6.798  28.335  1.00  0.00    -0.391 OA
ATOM     15  H5  UNL     1       5.093  -6.935  29.251  1.00  0.00     0.210 HD
ENDBRANCH   6  14
BRANCH   5  16
HETATM   16  O4  UNL     1       3.368  -4.268  26.292  1.00  0.00    -0.388 OA
ATOM     17  H4  UNL     1       3.246  -4.270  25.350  1.00  0.00     0.210 HD
ENDBRANCH   5  16
BRANCH   4  18
HETATM   18  O2  UNL     1       5.294  -5.644  24.527  1.00  0.00    -0.291 OA
BRANCH  18  19
HETATM   19  C4  UNL     1       5.234  -4.721  23.528  1.00  0.00     0.236 C 
HETATM   20  S1  UNL     1       6.276  -4.855  22.265  1.00  0.00    -0.031 SA
BRANCH  19  21
HETATM   21  N4  UNL     1       4.328  -3.635  23.490  1.00  0.00    -0.238 N 
ATOM     22  H4  UNL     1       3.488  -3.731  22.919  1.00  0.00     0.197 HD
BRANCH  21  23
HETATM   23  O3  UNL     1       4.508  -2.482  24.162  1.00  0.00    -0.287 OA
ATOM     24  H3  UNL     1       4.050  -2.259  24.964  1.00  0.00     0.244 HD
ENDBRANCH  21  23
ENDBRANCH  19  21
ENDBRANCH  18  19
ENDBRANCH   4  18
TORSDOF 8
ENDMDL
MODEL 3
REMARK VINA RESULT: -5.757184405      2.012      2.948
REMARK  8 active torsions:
REMARK  status: ('A' for Active; 'I' for Inactive)
REMARK    1  A    between atoms: N1_1  and  N2_4 
REMARK    2  A    between atoms: N3_6  and  C1_8 
REMARK    3  A    between atoms: C3_11  and  O2_12 
REMARK    4  A    between atoms: O2_12  and  C4_13 
REMARK    5  A    between atoms: C4_13  and  N4_15 
REMARK    6  A    between atoms: N4_15  and  O3_17 
REMARK    7  A    between atoms: C5_19  and  O4_20 
REMARK    8  A    between atoms: C6_22  and  O5_23 
ROOT
HETATM    1  C1  UNL     1       5.094  -6.118  28.211  1.00  0.00     0.156 C 
HETATM    2  C2  UNL     1       3.854  -5.395  27.865  1.00  0.00     0.200 C 
HETATM    3  O1  UNL     1       3.629  -5.229  26.507  1.00  0.00    -0.356 OA
HETATM    4  C3  UNL     1       4.714  -4.641  25.908  1.00  0.00     0.300 C 
HETATM    5  C5  UNL     1       5.822  -5.674  25.868  1.00  0.00     0.204 C 
HETATM    6  C6  UNL     1       6.262  -5.867  27.306  1.00  0.00     0.178 C 
ENDROOT
BRANCH   1   7
HETATM    7  N3  UNL     1       5.470  -5.825  29.578  1.00  0.00    -0.313 N 
HETATM    8  N2  UNL     1       5.755  -4.668  29.881  1.00  0.00    -0.253 N 
ATOM      9  H2  UNL     1       6.363  -4.405  29.106  1.00  0.00     0.207 HD
ATOM     10  H3  UNL     1       5.499  -6.566  30.278  1.00  0.00     0.182 HD
BRANCH   8  11
HETATM   11  N1  UNL     1       5.758  -3.624  30.551  1.00  0.00    -0.331 N 
ATOM     12  H12 UNL     1       6.496  -3.874  31.209  1.00  0.00     0.178 HD
ATOM     13  H11 UNL     1       5.478  -2.686  30.839  1.00  0.00     0.178 HD
ENDBRANCH   8  11
ENDBRANCH   1   7
BRANCH   6  14
HETATM   14  O5  UNL     1       6.993  -4.734  27.664  1.00  0.00    -0.391 OA
ATOM     15  H5  UNL     1       7.542  -4.873  28.426  1.00  0.00     0.210 HD
ENDBRANCH   6  14
BRANCH   5  16
HETATM   16  O4  UNL     1       5.238  -6.855  25.368  1.00  0.00    -0.388 OA
ATOM     17  H4  UNL     1       5.643  -7.013  24.524  1.00  0.00     0.210 HD
ENDBRANCH   5  16
BRANCH   4  18
HETATM   18  O2  UNL     1       4.455  -4.104  24.635  1.00  0.00    -0.291 OA
BRANCH  18  19
HETATM   19  C4  UNL     1       3.274  -4.193  23.963  1.00  0.00     0.236 C 
HETATM   20  S1  UNL     1       3.199  -5.131  22.617  1.00  0.00    -0.031 SA
BRANCH  19  21
HETATM   21  N4  UNL     1       2.082  -3.530  24.341  1.00  0.00    -0.238 N 
ATOM     22  H4  UNL     1       1.822  -2.685  23.831  1.00  0.00     0.197 HD
BRANCH  21  23
HETATM   23  O3  UNL     1       1.271  -3.947  25.331  1.00  0.00    -0.287 OA
ATOM     24  H3  UNL     1       0.338  -3.769  25.363  1.00  0.00     0.244 HD
ENDBRANCH  21  23
ENDBRANCH  19  21
ENDBRANCH  18  19
ENDBRANCH   4  18
TORSDOF 8
ENDMDL
MODEL 4
REMARK VINA RESULT: -5.712065160      2.294      3.355
REMARK  8 active torsions:
REMARK  status: ('A' for Active; 'I' for Inactive)
REMARK    1  A    between atoms: N1_1  and  N2_4 
REMARK    2  A    between atoms: N3_6  and  C1_8 
REMARK    3  A    between atoms: C3_11  and  O2_12 
REMARK    4  A    between atoms: O2_12  and  C4_13 
REMARK    5  A    between atoms: C4_13  and  N4_15 
REMARK    6  A    between atoms: N4_15  and  O3_17 
REMARK    7  A    between atoms: C5_19  and  O4_20 
REMARK    8  A    between atoms: C6_22  and  O5_23 
ROOT
HETATM    1  C1  UNL     1       6.071  -5.792  28.238  1.00  0.00     0.156 C 
HETATM    2  C2  UNL     1       4.688  -6.059  28.681  1.00  0.00     0.200 C 
HETATM    3  O1  UNL     1       3.779  -6.298  27.662  1.00  0.00    -0.356 OA
HETATM    4  C3  UNL     1       3.804  -5.277  26.745  1.00  0.00     0.300 C 
HETATM    5  C5  UNL     1       5.103  -5.394  25.975  1.00  0.00     0.204 C 
HETATM    6  C6  UNL     1       6.202  -5.030  26.954  1.00  0.00     0.178 C 
ENDROOT
BRANCH   1   7
HETATM    7  N3  UNL     1       6.800  -5.106  29.284  1.00  0.00    -0.313 N 
HETATM    8  N2  UNL     1       6.181  -4.386  30.066  1.00  0.00    -0.253 N 
ATOM      9  H2  UNL     1       5.580  -3.869  29.424  1.00  0.00     0.207 HD
ATOM     10  H3  UNL     1       7.810  -5.217  29.370  1.00  0.00     0.182 HD
BRANCH   8  11
HETATM   11  N1  UNL     1       5.839  -3.902  31.155  1.00  0.00    -0.331 N 
ATOM     12  H12 UNL     1       6.751  -3.910  31.612  1.00  0.00     0.178 HD
ATOM     13  H11 UNL     1       5.214  -3.509  31.859  1.00  0.00     0.178 HD
ENDBRANCH   8  11
ENDBRANCH   1   7
BRANCH   6  14
HETATM   14  O5  UNL     1       6.145  -3.648  27.134  1.00  0.00    -0.391 OA
ATOM     15  H5  UNL     1       5.851  -3.400  28.004  1.00  0.00     0.210 HD
ENDBRANCH   6  14
BRANCH   5  16
HETATM   16  O4  UNL     1       5.211  -6.747  25.593  1.00  0.00    -0.388 OA
ATOM     17  H4  UNL     1       4.794  -6.815  24.742  1.00  0.00     0.210 HD
ENDBRANCH   5  16
BRANCH   4  18
HETATM   18  O2  UNL     1       2.690  -5.238  25.889  1.00  0.00    -0.291 OA
BRANCH  18  19
HETATM   19  C4  UNL     1       1.941  -6.311  25.515  1.00  0.00     0.236 C 
HETATM   20  S1  UNL     1       1.996  -6.806  23.949  1.00  0.00    -0.031 SA
BRANCH  19  21
HETATM   21  N4  UNL     1       1.102  -7.049  26.384  1.00  0.00    -0.238 N 
ATOM     22  H4  UNL     1       0.110  -6.811  26.410  1.00  0.00     0.197 HD
BRANCH  21  23
HETATM   23  O3  UNL     1       1.535  -8.046  27.178  1.00  0.00    -0.287 OA
ATOM     24  H3  UNL     1       2.364  -8.496  27.061  1.00  0.00     0.244 HD
ENDBRANCH  21  23
ENDBRANCH  19  21
ENDBRANCH  18  19
ENDBRANCH   4  18
TORSDOF 8
ENDMDL
MODEL 5
REMARK VINA RESULT: -5.584762056      1.687      1.838
REMARK  8 active torsions:
REMARK  status: ('A' for Active; 'I' for Inactive)
REMARK    1  A    between atoms: N1_1  and  N2_4 
REMARK    2  A    between atoms: N3_6  and  C1_8 
REMARK    3  A    between atoms: C3_11  and  O2_12 
REMARK    4  A    between atoms: O2_12  and  C4_13 
REMARK    5  A    between atoms: C4_13  and  N4_15 
REMARK    6  A    between atoms: N4_15  and  O3_17 
REMARK    7  A    between atoms: C5_19  and  O4_20 
REMARK    8  A    between atoms: C6_22  and  O5_23 
ROOT
HETATM    1  C1  UNL     1       5.332  -4.352  27.999  1.00  0.00     0.156 C 
HETATM    2  C2  UNL     1       6.038  -4.274  26.705  1.00  0.00     0.200 C 
HETATM    3  O1  UNL     1       5.255  -4.529  25.590  1.00  0.00    -0.356 OA
HETATM    4  C3  UNL     1       4.614  -5.736  25.718  1.00  0.00     0.300 C 
HETATM    5  C5  UNL     1       3.535  -5.565  26.767  1.00  0.00     0.204 C 
HETATM    6  C6  UNL     1       4.261  -5.397  28.088  1.00  0.00     0.178 C 
ENDROOT
BRANCH   1   7
HETATM    7  N3  UNL     1       6.286  -4.547  29.070  1.00  0.00    -0.313 N 
HETATM    8  N2  UNL     1       6.043  -4.069  30.177  1.00  0.00    -0.253 N 
ATOM      9  H2  UNL     1       5.730  -3.133  29.923  1.00  0.00     0.207 HD
ATOM     10  H3  UNL     1       7.146  -5.072  28.910  1.00  0.00     0.182 HD
BRANCH   8  11
HETATM   11  N1  UNL     1       5.945  -4.026  31.413  1.00  0.00    -0.331 N 
ATOM     12  H12 UNL     1       5.107  -3.447  31.472  1.00  0.00     0.178 HD
ATOM     13  H11 UNL     1       6.186  -4.212  32.386  1.00  0.00     0.178 HD
ENDBRANCH   8  11
ENDBRANCH   1   7
BRANCH   6  14
HETATM   14  O5  UNL     1       4.755  -6.653  28.443  1.00  0.00    -0.391 OA
ATOM     15  H5  UNL     1       5.603  -6.610  28.870  1.00  0.00     0.210 HD
ENDBRANCH   6  14
BRANCH   5  16
HETATM   16  O4  UNL     1       2.845  -4.383  26.430  1.00  0.00    -0.388 OA
ATOM     17  H4  UNL     1       3.384  -3.938  25.787  1.00  0.00     0.210 HD
ENDBRANCH   5  16
BRANCH   4  18
HETATM   18  O2  UNL     1       4.098  -6.250  24.516  1.00  0.00    -0.291 OA
BRANCH  18  19
HETATM   19  C4  UNL     1       3.816  -5.523  23.400  1.00  0.00     0.236 C 
HETATM   20  S1  UNL     1       4.419  -6.025  21.957  1.00  0.00    -0.031 SA
BRANCH  19  21
HETATM   21  N4  UNL     1       3.030  -4.347  23.384  1.00  0.00    -0.238 N 
ATOM     22  H4  UNL     1       2.067  -4.418  23.054  1.00  0.00     0.197 HD
BRANCH  21  23
HETATM   23  O3  UNL     1       3.476  -3.139  23.779  1.00  0.00    -0.287 OA
ATOM     24  H3  UNL     1       2.908  -2.411  24.003  1.00  0.00     0.244 HD
ENDBRANCH  21  23
ENDBRANCH  19  21
ENDBRANCH  18  19
ENDBRANCH   4  18
TORSDOF 8
ENDMDL
