MODEL 1
REMARK VINA RESULT: -7.183571301      0.000      0.000
REMARK  5 active torsions:
REMARK  status: ('A' for Active; 'I' for Inactive)
REMARK    1  A    between atoms: C2_2  and  N1_3 
REMARK       I    between atoms: N1_3  and  C3_5 
REMARK    2  A    between atoms: C3_5  and  C4_7 
REMARK    3  A    between atoms: C6_9  and  C7_10 
REMARK    4  A    between atoms: C7_10  and  O2_11 
REMARK    5  A    between atoms: C13_18  and  N2_19 
ROOT
HETATM    1  C7  UNL     1      -4.575 -10.525  71.622  1.00  0.00     0.159 C 
HETATM    2  C8  UNL     1      -3.129 -10.123  71.167  1.00  0.00     0.084 C 
HETATM    3  C9  UNL     1      -2.118 -11.182  71.261  1.00  0.00    -0.023 C 
HETATM    4  C10 UNL     1      -1.388 -11.596  72.461  1.00  0.00    -0.008 C 
HETATM    5  C11 UNL     1      -1.955 -11.816  73.780  1.00  0.00    -0.024 C 
HETATM    6  C12 UNL     1      -3.048 -12.715  74.134  1.00  0.00     0.072 C 
HETATM    7  C13 UNL     1      -4.498 -12.254  73.797  1.00  0.00     0.256 C 
HETATM    8  C14 UNL     1      -4.360 -11.438  72.663  1.00  0.00    -0.106 C 
ENDROOT
BRANCH   1   9
HETATM    9  C6  UNL     1      -5.296 -10.933  70.398  1.00  0.00     0.081 A 
HETATM   10  C5  UNL     1      -4.687 -11.158  69.158  1.00  0.00     0.076 A 
HETATM   11  C4  UNL     1      -5.657 -11.505  68.230  1.00  0.00     0.168 A 
HETATM   12  O3  UNL     1      -6.780 -11.486  68.881  1.00  0.00    -0.232 OA
HETATM   13  N3  UNL     1      -6.596 -11.153  70.150  1.00  0.00    -0.261 N 
ATOM     14  H3  UNL     1      -7.340 -11.076  70.844  1.00  0.00     0.194 HD
BRANCH  11  15
HETATM   15  C3  UNL     1      -5.384 -11.824  66.808  1.00  0.00     0.277 C 
HETATM   16  N1  UNL     1      -6.107 -11.329  65.728  1.00  0.00    -0.356 N 
ATOM     17  H1  UNL     1      -6.892 -10.702  65.907  1.00  0.00     0.162 HD
HETATM   18  O1  UNL     1      -4.391 -12.614  66.542  1.00  0.00    -0.265 OA
BRANCH  16  19
HETATM   19  C2  UNL     1      -5.788 -11.670  64.370  1.00  0.00     0.118 C 
HETATM   20  C1  UNL     1      -6.377 -12.964  63.882  1.00  0.00     0.026 C 
ENDBRANCH  16  19
ENDBRANCH  11  15
ENDBRANCH   1   9
BRANCH   1  21
HETATM   21  O2  UNL     1      -5.144  -9.323  72.104  1.00  0.00    -0.372 OA
ATOM     22  H2  UNL     1      -4.871  -8.610  71.539  1.00  0.00     0.212 HD
ENDBRANCH   1  21
BRANCH   7  23
HETATM   23  N2  UNL     1      -5.265 -13.464  73.702  1.00  0.00    -0.065 N 
ATOM     24  H23 UNL     1      -4.702 -14.296  73.525  1.00  0.00     0.275 HD
ATOM     25  H22 UNL     1      -5.658 -13.775  74.590  1.00  0.00     0.275 HD
ATOM     26  H21 UNL     1      -5.966 -13.281  72.983  1.00  0.00     0.275 HD
ENDBRANCH   7  23
TORSDOF 5
ENDMDL
MODEL 2
REMARK VINA RESULT: -7.176836487      4.097      5.286
REMARK  5 active torsions:
REMARK  status: ('A' for Active; 'I' for Inactive)
REMARK    1  A    between atoms: C2_2  and  N1_3 
REMARK       I    between atoms: N1_3  and  C3_5 
REMARK    2  A    between atoms: C3_5  and  C4_7 
REMARK    3  A    between atoms: C6_9  and  C7_10 
REMARK    4  A    between atoms: C7_10  and  O2_11 
REMARK    5  A    between atoms: C13_18  and  N2_19 
ROOT
HETATM    1  C7  UNL     1      -1.423 -10.917  70.353  1.00  0.00     0.159 C 
HETATM    2  C8  UNL     1      -2.301 -11.877  71.229  1.00  0.00     0.084 C 
HETATM    3  C9  UNL     1      -2.479 -11.473  72.628  1.00  0.00    -0.023 C 
HETATM    4  C10 UNL     1      -1.538 -11.685  73.730  1.00  0.00    -0.008 C 
HETATM    5  C11 UNL     1      -0.103 -11.461  73.692  1.00  0.00    -0.024 C 
HETATM    6  C12 UNL     1       0.589 -10.226  73.338  1.00  0.00     0.072 C 
HETATM    7  C13 UNL     1       0.685  -9.862  71.826  1.00  0.00     0.256 C 
HETATM    8  C14 UNL     1      -0.465 -10.425  71.248  1.00  0.00    -0.106 C 
ENDROOT
BRANCH   1   9
HETATM    9  C6  UNL     1      -2.362 -10.000  69.674  1.00  0.00     0.081 A 
HETATM   10  C5  UNL     1      -2.353  -8.607  69.819  1.00  0.00     0.076 A 
HETATM   11  C4  UNL     1      -3.378  -8.064  69.059  1.00  0.00     0.168 A 
HETATM   12  O3  UNL     1      -3.965  -9.076  68.496  1.00  0.00    -0.232 OA
HETATM   13  N3  UNL     1      -3.390 -10.219  68.840  1.00  0.00    -0.261 N 
ATOM     14  H3  UNL     1      -3.688 -11.139  68.516  1.00  0.00     0.194 HD
BRANCH  11  15
HETATM   15  C3  UNL     1      -3.673  -6.614  68.959  1.00  0.00     0.277 C 
HETATM   16  N1  UNL     1      -3.611  -5.868  67.788  1.00  0.00    -0.356 N 
ATOM     17  H1  UNL     1      -3.339  -6.333  66.922  1.00  0.00     0.162 HD
HETATM   18  O1  UNL     1      -4.029  -5.991  70.039  1.00  0.00    -0.265 OA
BRANCH  16  19
HETATM   19  C2  UNL     1      -3.918  -4.465  67.755  1.00  0.00     0.118 C 
HETATM   20  C1  UNL     1      -3.672  -3.790  66.434  1.00  0.00     0.026 C 
ENDBRANCH  16  19
ENDBRANCH  11  15
ENDBRANCH   1   9
BRANCH   1  21
HETATM   21  O2  UNL     1      -0.833 -11.761  69.383  1.00  0.00    -0.372 OA
ATOM     22  H2  UNL     1      -1.200 -12.632  69.474  1.00  0.00     0.212 HD
ENDBRANCH   1  21
BRANCH   7  23
HETATM   23  N2  UNL     1       0.862  -8.438  71.792  1.00  0.00    -0.065 N 
ATOM     24  H23 UNL     1       0.030  -7.926  71.500  1.00  0.00     0.275 HD
ATOM     25  H22 UNL     1       0.946  -8.011  72.715  1.00  0.00     0.275 HD
ATOM     26  H21 UNL     1       1.673  -8.284  71.192  1.00  0.00     0.275 HD
ENDBRANCH   7  23
TORSDOF 5
ENDMDL
MODEL 3
REMARK VINA RESULT: -6.981490455      4.014      5.028
REMARK  5 active torsions:
REMARK  status: ('A' for Active; 'I' for Inactive)
REMARK    1  A    between atoms: C2_2  and  N1_3 
REMARK       I    between atoms: N1_3  and  C3_5 
REMARK    2  A    between atoms: C3_5  and  C4_7 
REMARK    3  A    between atoms: C6_9  and  C7_10 
REMARK    4  A    between atoms: C7_10  and  O2_11 
REMARK    5  A    between atoms: C13_18  and  N2_19 
ROOT
HETATM    1  C7  UNL     1      -1.223 -11.049  70.672  1.00  0.00     0.159 C 
HETATM    2  C8  UNL     1      -1.891 -12.088  71.638  1.00  0.00     0.084 C 
HETATM    3  C9  UNL     1      -1.986 -11.678  73.043  1.00  0.00    -0.023 C 
HETATM    4  C10 UNL     1      -0.928 -11.751  74.052  1.00  0.00    -0.008 C 
HETATM    5  C11 UNL     1       0.459 -11.355  73.876  1.00  0.00    -0.024 C 
HETATM    6  C12 UNL     1       0.959 -10.054  73.445  1.00  0.00     0.072 C 
HETATM    7  C13 UNL     1       0.868  -9.715  71.927  1.00  0.00     0.256 C 
HETATM    8  C14 UNL     1      -0.252 -10.425  71.467  1.00  0.00    -0.106 C 
ENDROOT
BRANCH   1   9
HETATM    9  C6  UNL     1      -2.326 -10.268  70.076  1.00  0.00     0.081 A 
HETATM   10  C5  UNL     1      -2.151  -9.213  69.172  1.00  0.00     0.076 A 
HETATM   11  C4  UNL     1      -3.392  -8.694  68.833  1.00  0.00     0.168 A 
HETATM   12  O3  UNL     1      -4.255  -9.399  69.498  1.00  0.00    -0.232 OA
HETATM   13  N3  UNL     1      -3.657 -10.325  70.233  1.00  0.00    -0.261 N 
ATOM     14  H3  UNL     1      -4.142 -10.990  70.836  1.00  0.00     0.194 HD
BRANCH  11  15
HETATM   15  C3  UNL     1      -3.603  -7.569  67.890  1.00  0.00     0.277 C 
HETATM   16  N1  UNL     1      -3.376  -6.230  68.186  1.00  0.00    -0.356 N 
ATOM     17  H1  UNL     1      -3.044  -5.981  69.118  1.00  0.00     0.162 HD
HETATM   18  O1  UNL     1      -4.020  -7.848  66.694  1.00  0.00    -0.265 OA
BRANCH  16  19
HETATM   19  C2  UNL     1      -3.592  -5.184  67.224  1.00  0.00     0.118 C 
HETATM   20  C1  UNL     1      -4.327  -3.981  67.746  1.00  0.00     0.026 C 
ENDBRANCH  16  19
ENDBRANCH  11  15
ENDBRANCH   1   9
BRANCH   1  21
HETATM   21  O2  UNL     1      -0.627 -11.837  69.660  1.00  0.00    -0.372 OA
ATOM     22  H2  UNL     1       0.302 -11.639  69.627  1.00  0.00     0.212 HD
ENDBRANCH   1  21
BRANCH   7  23
HETATM   23  N2  UNL     1       0.866  -8.281  71.861  1.00  0.00    -0.065 N 
ATOM     24  H23 UNL     1       1.432  -7.834  72.582  1.00  0.00     0.275 HD
ATOM     25  H22 UNL     1       1.374  -7.903  71.061  1.00  0.00     0.275 HD
ATOM     26  H21 UNL     1      -0.119  -8.014  71.886  1.00  0.00     0.275 HD
ENDBRANCH   7  23
TORSDOF 5
ENDMDL
MODEL 4
REMARK VINA RESULT: -6.965860415      5.962      7.256
REMARK  5 active torsions:
REMARK  status: ('A' for Active; 'I' for Inactive)
REMARK    1  A    between atoms: C2_2  and  N1_3 
REMARK       I    between atoms: N1_3  and  C3_5 
REMARK    2  A    between atoms: C3_5  and  C4_7 
REMARK    3  A    between atoms: C6_9  and  C7_10 
REMARK    4  A    between atoms: C7_10  and  O2_11 
REMARK    5  A    between atoms: C13_18  and  N2_19 
ROOT
HETATM    1  C7  UNL     1       0.621  -9.642  71.497  1.00  0.00     0.159 C 
HETATM    2  C8  UNL     1       0.581 -10.401  72.870  1.00  0.00     0.084 C 
HETATM    3  C9  UNL     1      -0.141 -11.677  72.867  1.00  0.00    -0.023 C 
HETATM    4  C10 UNL     1      -1.590 -11.867  72.970  1.00  0.00    -0.008 C 
HETATM    5  C11 UNL     1      -2.609 -11.119  72.255  1.00  0.00    -0.024 C 
HETATM    6  C12 UNL     1      -2.734 -10.952  70.811  1.00  0.00     0.072 C 
HETATM    7  C13 UNL     1      -1.774  -9.938  70.118  1.00  0.00     0.256 C 
HETATM    8  C14 UNL     1      -0.614  -9.946  70.908  1.00  0.00    -0.106 C 
ENDROOT
BRANCH   1   9
HETATM    9  C6  UNL     1       1.886 -10.034  70.843  1.00  0.00     0.081 A 
HETATM   10  C5  UNL     1       2.091 -10.045  69.458  1.00  0.00     0.076 A 
HETATM   11  C4  UNL     1       3.381 -10.482  69.193  1.00  0.00     0.168 A 
HETATM   12  O3  UNL     1       3.911 -10.719  70.354  1.00  0.00    -0.232 OA
HETATM   13  N3  UNL     1       3.057 -10.465  71.334  1.00  0.00    -0.261 N 
ATOM     14  H3  UNL     1       3.263 -10.582  72.327  1.00  0.00     0.194 HD
BRANCH  11  15
HETATM   15  C3  UNL     1       3.960 -10.617  67.834  1.00  0.00     0.277 C 
HETATM   16  N1  UNL     1       3.221 -10.751  66.664  1.00  0.00    -0.356 N 
ATOM     17  H1  UNL     1       2.203 -10.765  66.724  1.00  0.00     0.162 HD
HETATM   18  O1  UNL     1       5.251 -10.598  67.719  1.00  0.00    -0.265 OA
BRANCH  16  19
HETATM   19  C2  UNL     1       3.842 -10.870  65.374  1.00  0.00     0.118 C 
HETATM   20  C1  UNL     1       2.899 -11.137  64.235  1.00  0.00     0.026 C 
ENDBRANCH  16  19
ENDBRANCH  11  15
ENDBRANCH   1   9
BRANCH   1  21
HETATM   21  O2  UNL     1       0.697  -8.274  71.850  1.00  0.00    -0.372 OA
ATOM     22  H2  UNL     1       0.640  -7.752  71.058  1.00  0.00     0.212 HD
ENDBRANCH   1  21
BRANCH   7  23
HETATM   23  N2  UNL     1      -1.696 -10.369  68.751  1.00  0.00    -0.065 N 
ATOM     24  H23 UNL     1      -2.222 -11.221  68.556  1.00  0.00     0.275 HD
ATOM     25  H22 UNL     1      -2.201  -9.768  68.099  1.00  0.00     0.275 HD
ATOM     26  H21 UNL     1      -0.698 -10.446  68.552  1.00  0.00     0.275 HD
ENDBRANCH   7  23
TORSDOF 5
ENDMDL
MODEL 5
REMARK VINA RESULT: -6.871684569      3.948      5.442
REMARK  5 active torsions:
REMARK  status: ('A' for Active; 'I' for Inactive)
REMARK    1  A    between atoms: C2_2  and  N1_3 
REMARK       I    between atoms: N1_3  and  C3_5 
REMARK    2  A    between atoms: C3_5  and  C4_7 
REMARK    3  A    between atoms: C6_9  and  C7_10 
REMARK    4  A    between atoms: C7_10  and  O2_11 
REMARK    5  A    between atoms: C13_18  and  N2_19 
ROOT
HETATM    1  C7  UNL     1      -2.459 -11.050  70.132  1.00  0.00     0.159 C 
HETATM    2  C8  UNL     1      -3.596 -11.636  71.041  1.00  0.00     0.084 C 
HETATM    3  C9  UNL     1      -3.641 -11.120  72.413  1.00  0.00    -0.023 C 
HETATM    4  C10 UNL     1      -2.817 -11.557  73.542  1.00  0.00    -0.008 C 
HETATM    5  C11 UNL     1      -1.384 -11.797  73.520  1.00  0.00    -0.024 C 
HETATM    6  C12 UNL     1      -0.337 -10.864  73.116  1.00  0.00     0.072 C 
HETATM    7  C13 UNL     1      -0.129 -10.632  71.589  1.00  0.00     0.256 C 
HETATM    8  C14 UNL     1      -1.396 -10.836  71.020  1.00  0.00    -0.106 C 
ENDROOT
BRANCH   1   9
HETATM    9  C6  UNL     1      -3.061  -9.924  69.390  1.00  0.00     0.081 A 
HETATM   10  C5  UNL     1      -2.730  -8.577  69.589  1.00  0.00     0.076 A 
HETATM   11  C4  UNL     1      -3.496  -7.791  68.741  1.00  0.00     0.168 A 
HETATM   12  O3  UNL     1      -4.240  -8.621  68.077  1.00  0.00    -0.232 OA
HETATM   13  N3  UNL     1      -4.005  -9.874  68.439  1.00  0.00    -0.261 N 
ATOM     14  H3  UNL     1      -4.478 -10.689  68.047  1.00  0.00     0.194 HD
BRANCH  11  15
HETATM   15  C3  UNL     1      -3.415  -6.312  68.665  1.00  0.00     0.277 C 
HETATM   16  N1  UNL     1      -3.723  -5.444  69.707  1.00  0.00    -0.356 N 
ATOM     17  H1  UNL     1      -4.035  -5.833  70.596  1.00  0.00     0.162 HD
HETATM   18  O1  UNL     1      -3.017  -5.781  67.551  1.00  0.00    -0.265 OA
BRANCH  16  19
HETATM   19  C2  UNL     1      -3.617  -4.017  69.573  1.00  0.00     0.118 C 
HETATM   20  C1  UNL     1      -2.497  -3.386  70.353  1.00  0.00     0.026 C 
ENDBRANCH  16  19
ENDBRANCH  11  15
ENDBRANCH   1   9
BRANCH   1  21
HETATM   21  O2  UNL     1      -2.163 -12.089  69.219  1.00  0.00    -0.372 OA
ATOM     22  H2  UNL     1      -2.911 -12.214  68.647  1.00  0.00     0.212 HD
ENDBRANCH   1  21
BRANCH   7  23
HETATM   23  N2  UNL     1       0.488  -9.340  71.486  1.00  0.00    -0.065 N 
ATOM     24  H23 UNL     1       1.142  -9.134  72.240  1.00  0.00     0.275 HD
ATOM     25  H22 UNL     1       1.159  -9.263  70.722  1.00  0.00     0.275 HD
ATOM     26  H21 UNL     1      -0.287  -8.679  71.421  1.00  0.00     0.275 HD
ENDBRANCH   7  23
TORSDOF 5
ENDMDL
