MODEL 1
REMARK VINA RESULT: -7.899306259      0.000      0.000
REMARK  7 active torsions:
REMARK  status: ('A' for Active; 'I' for Inactive)
REMARK       I    between atoms: C2_2  and  N1_4 
REMARK    1  A    between atoms: N1_4  and  C3_6 
REMARK    2  A    between atoms: C4_7  and  N2_8 
REMARK    3  A    between atoms: N2_8  and  N3_10 
REMARK    4  A    between atoms: C5_15  and  O2_16 
REMARK    5  A    between atoms: C6_18  and  N5_19 
REMARK       I    between atoms: N5_19  and  C7_21 
REMARK    6  A    between atoms: C7_21  and  C8_23 
REMARK    7  A    between atoms: C11_26  and  C12_27 
REMARK       I    between atoms: N6_30  and  C13_31 
ROOT
HETATM    1  C3  UNL     1      67.170  -0.944  99.821  1.00  0.00     0.136 C 
HETATM    2  C4  UNL     1      66.933   0.552  99.725  1.00  0.00     0.156 C 
HETATM    3  C5  UNL     1      67.940   0.726 100.842  1.00  0.00     0.169 C 
HETATM    4  C6  UNL     1      68.500  -0.625 100.485  1.00  0.00     0.140 C 
ENDROOT
BRANCH   4   5
HETATM    5  N5  UNL     1      68.765  -1.426 101.661  1.00  0.00    -0.350 N 
HETATM    6  C7  UNL     1      69.481  -2.622 101.613  1.00  0.00     0.241 C 
HETATM    7  O3  UNL     1      69.907  -3.014 100.483  1.00  0.00    -0.271 OA
ATOM      8  H5  UNL     1      68.412  -1.102 102.561  1.00  0.00     0.163 HD
BRANCH   6   9
HETATM    9  C8  UNL     1      69.791  -3.494 102.776  1.00  0.00     0.180 C 
HETATM   10  C9  UNL     1      68.486  -4.032 103.353  1.00  0.00     0.038 C 
HETATM   11  C10 UNL     1      68.842  -4.363 104.747  1.00  0.00     0.039 C 
HETATM   12  C11 UNL     1      69.769  -3.215 105.149  1.00  0.00     0.189 C 
HETATM   13  N6  UNL     1      70.368  -2.809 103.896  1.00  0.00    -0.324 N 
HETATM   14  C13 UNL     1      71.447  -1.877 103.753  1.00  0.00     0.217 C 
HETATM   15  C14 UNL     1      71.941  -1.092 104.900  1.00  0.00     0.117 C 
HETATM   16  O6  UNL     1      71.995  -1.705 102.631  1.00  0.00    -0.274 OA
BRANCH  12  17
HETATM   17  C12 UNL     1      70.767  -3.743 106.130  1.00  0.00     0.197 C 
HETATM   18  O4  UNL     1      71.595  -4.637 105.910  1.00  0.00    -0.646 OA
HETATM   19  O5  UNL     1      70.760  -3.174 107.400  1.00  0.00    -0.646 OA
ENDBRANCH  12  17
ENDBRANCH   6   9
ENDBRANCH   4   5
BRANCH   1  20
HETATM   20  N1  UNL     1      67.266  -1.531  98.524  1.00  0.00    -0.353 N 
HETATM   21  C2  UNL     1      66.123  -2.054  97.896  1.00  0.00     0.214 C 
HETATM   22  C1  UNL     1      66.192  -2.668  96.552  1.00  0.00     0.117 C 
HETATM   23  O1  UNL     1      65.016  -2.005  98.476  1.00  0.00    -0.274 OA
ATOM     24  H1  UNL     1      68.168  -1.570  98.051  1.00  0.00     0.163 HD
ENDBRANCH   1  20
BRANCH   3  25
HETATM   25  O2  UNL     1      67.257   0.630 102.074  1.00  0.00    -0.391 OA
ATOM     26  H2  UNL     1      67.181   1.503 102.442  1.00  0.00     0.210 HD
ENDBRANCH   3  25
BRANCH   2  27
HETATM   27  N2  UNL     1      67.306   1.153  98.477  1.00  0.00    -0.313 N 
ATOM     28  H2  UNL     1      68.293   1.167  98.221  1.00  0.00     0.182 HD
BRANCH  27  29
HETATM   29  N3  UNL     1      66.487   1.656  97.694  1.00  0.00    -0.253 N 
HETATM   30  N4  UNL     1      65.650   2.422  97.250  1.00  0.00    -0.331 N 
ATOM     31  H42 UNL     1      65.610   3.041  98.060  1.00  0.00     0.178 HD
ATOM     32  H41 UNL     1      64.976   2.836  96.606  1.00  0.00     0.178 HD
ATOM     33  H3  UNL     1      66.566   1.006  96.912  1.00  0.00     0.207 HD
ENDBRANCH  27  29
ENDBRANCH   2  27
TORSDOF 7
ENDMDL
MODEL 2
REMARK VINA RESULT: -7.833893429      2.625      7.763
REMARK  7 active torsions:
REMARK  status: ('A' for Active; 'I' for Inactive)
REMARK       I    between atoms: C2_2  and  N1_4 
REMARK    1  A    between atoms: N1_4  and  C3_6 
REMARK    2  A    between atoms: C4_7  and  N2_8 
REMARK    3  A    between atoms: N2_8  and  N3_10 
REMARK    4  A    between atoms: C5_15  and  O2_16 
REMARK    5  A    between atoms: C6_18  and  N5_19 
REMARK       I    between atoms: N5_19  and  C7_21 
REMARK    6  A    between atoms: C7_21  and  C8_23 
REMARK    7  A    between atoms: C11_26  and  C12_27 
REMARK       I    between atoms: N6_30  and  C13_31 
ROOT
HETATM    1  C3  UNL     1      70.540  -3.016 105.707  1.00  0.00     0.136 C 
HETATM    2  C4  UNL     1      70.511  -3.928 106.920  1.00  0.00     0.156 C 
HETATM    3  C5  UNL     1      69.876  -4.983 106.040  1.00  0.00     0.169 C 
HETATM    4  C6  UNL     1      70.446  -4.265 104.846  1.00  0.00     0.140 C 
ENDROOT
BRANCH   4   5
HETATM    5  N5  UNL     1      69.482  -4.155 103.773  1.00  0.00    -0.350 N 
HETATM    6  C7  UNL     1      69.853  -3.971 102.441  1.00  0.00     0.241 C 
HETATM    7  O3  UNL     1      71.092  -3.892 102.175  1.00  0.00    -0.271 OA
ATOM      8  H5  UNL     1      68.490  -4.215 104.000  1.00  0.00     0.163 HD
BRANCH   6   9
HETATM    9  C8  UNL     1      68.921  -3.851 101.290  1.00  0.00     0.180 C 
HETATM   10  C9  UNL     1      69.613  -4.374 100.036  1.00  0.00     0.038 C 
HETATM   11  C10 UNL     1      68.886  -3.703  98.940  1.00  0.00     0.039 C 
HETATM   12  C11 UNL     1      68.646  -2.297  99.494  1.00  0.00     0.189 C 
HETATM   13  N6  UNL     1      68.596  -2.502 100.926  1.00  0.00    -0.324 N 
HETATM   14  C13 UNL     1      68.218  -1.516 101.894  1.00  0.00     0.217 C 
HETATM   15  C14 UNL     1      68.009  -0.106 101.514  1.00  0.00     0.117 C 
HETATM   16  O6  UNL     1      68.062  -1.837 103.103  1.00  0.00    -0.274 OA
BRANCH  12  17
HETATM   17  C12 UNL     1      67.359  -1.787  98.931  1.00  0.00     0.197 C 
HETATM   18  O4  UNL     1      66.236  -2.260  99.148  1.00  0.00    -0.646 OA
HETATM   19  O5  UNL     1      67.437  -0.681  98.090  1.00  0.00    -0.646 OA
ENDBRANCH  12  17
ENDBRANCH   6   9
ENDBRANCH   4   5
BRANCH   1  20
HETATM   20  N1  UNL     1      71.778  -2.313 105.624  1.00  0.00    -0.353 N 
HETATM   21  C2  UNL     1      72.007  -1.396 104.585  1.00  0.00     0.214 C 
HETATM   22  C1  UNL     1      73.282  -0.653 104.474  1.00  0.00     0.117 C 
HETATM   23  O1  UNL     1      71.120  -1.194 103.726  1.00  0.00    -0.274 OA
ATOM     24  H1  UNL     1      72.502  -2.477 106.324  1.00  0.00     0.163 HD
ENDBRANCH   1  20
BRANCH   3  25
HETATM   25  O2  UNL     1      68.478  -4.799 106.064  1.00  0.00    -0.391 OA
ATOM     26  H2  UNL     1      68.065  -5.599 105.759  1.00  0.00     0.210 HD
ENDBRANCH   3  25
BRANCH   2  27
HETATM   27  N2  UNL     1      71.795  -4.278 107.453  1.00  0.00    -0.313 N 
ATOM     28  H2  UNL     1      72.223  -3.654 108.138  1.00  0.00     0.182 HD
BRANCH  27  29
HETATM   29  N3  UNL     1      72.412  -5.302 107.123  1.00  0.00    -0.253 N 
HETATM   30  N4  UNL     1      73.343  -6.059 106.914  1.00  0.00    -0.331 N 
ATOM     31  H42 UNL     1      74.086  -5.422 107.201  1.00  0.00     0.178 HD
ATOM     32  H41 UNL     1      73.851  -6.902 106.643  1.00  0.00     0.178 HD
ATOM     33  H3  UNL     1      71.632  -5.899 106.848  1.00  0.00     0.207 HD
ENDBRANCH  27  29
ENDBRANCH   2  27
TORSDOF 7
ENDMDL
MODEL 3
REMARK VINA RESULT: -7.797024442      4.349      8.017
REMARK  7 active torsions:
REMARK  status: ('A' for Active; 'I' for Inactive)
REMARK       I    between atoms: C2_2  and  N1_4 
REMARK    1  A    between atoms: N1_4  and  C3_6 
REMARK    2  A    between atoms: C4_7  and  N2_8 
REMARK    3  A    between atoms: N2_8  and  N3_10 
REMARK    4  A    between atoms: C5_15  and  O2_16 
REMARK    5  A    between atoms: C6_18  and  N5_19 
REMARK       I    between atoms: N5_19  and  C7_21 
REMARK    6  A    between atoms: C7_21  and  C8_23 
REMARK    7  A    between atoms: C11_26  and  C12_27 
REMARK       I    between atoms: N6_30  and  C13_31 
ROOT
HETATM    1  C3  UNL     1      69.624  -3.513 104.659  1.00  0.00     0.136 C 
HETATM    2  C4  UNL     1      69.070  -4.343 105.802  1.00  0.00     0.156 C 
HETATM    3  C5  UNL     1      69.041  -5.524 104.856  1.00  0.00     0.169 C 
HETATM    4  C6  UNL     1      70.069  -4.816 104.015  1.00  0.00     0.140 C 
ENDROOT
BRANCH   4   5
HETATM    5  N5  UNL     1      69.758  -4.898 102.604  1.00  0.00    -0.350 N 
HETATM    6  C7  UNL     1      70.722  -5.174 101.634  1.00  0.00     0.241 C 
HETATM    7  O3  UNL     1      71.918  -5.354 102.020  1.00  0.00    -0.271 OA
ATOM      8  H5  UNL     1      68.795  -4.746 102.306  1.00  0.00     0.163 HD
BRANCH   6   9
HETATM    9  C8  UNL     1      70.477  -5.274 100.171  1.00  0.00     0.180 C 
HETATM   10  C9  UNL     1      70.189  -3.881  99.621  1.00  0.00     0.038 C 
HETATM   11  C10 UNL     1      69.427  -4.154  98.387  1.00  0.00     0.039 C 
HETATM   12  C11 UNL     1      68.530  -5.327  98.785  1.00  0.00     0.189 C 
HETATM   13  N6  UNL     1      69.292  -6.000  99.815  1.00  0.00    -0.324 N 
HETATM   14  C13 UNL     1      68.964  -7.267 100.398  1.00  0.00     0.217 C 
HETATM   15  C14 UNL     1      67.682  -7.937 100.109  1.00  0.00     0.117 C 
HETATM   16  O6  UNL     1      69.773  -7.837 101.179  1.00  0.00    -0.274 OA
BRANCH  12  17
HETATM   17  C12 UNL     1      68.307  -6.175  97.575  1.00  0.00     0.197 C 
HETATM   18  O4  UNL     1      69.152  -6.899  97.032  1.00  0.00    -0.646 OA
HETATM   19  O5  UNL     1      67.034  -6.146  97.014  1.00  0.00    -0.646 OA
ENDBRANCH  12  17
ENDBRANCH   6   9
ENDBRANCH   4   5
BRANCH   1  20
HETATM   20  N1  UNL     1      70.682  -2.667 105.107  1.00  0.00    -0.353 N 
HETATM   21  C2  UNL     1      71.409  -1.893 104.187  1.00  0.00     0.214 C 
HETATM   22  C1  UNL     1      72.511  -1.005 104.623  1.00  0.00     0.117 C 
HETATM   23  O1  UNL     1      71.129  -1.946 102.969  1.00  0.00    -0.274 OA
ATOM     24  H1  UNL     1      70.910  -2.623 106.100  1.00  0.00     0.163 HD
ENDBRANCH   1  20
BRANCH   3  25
HETATM   25  O2  UNL     1      67.804  -5.517 104.175  1.00  0.00    -0.391 OA
ATOM     26  H2  UNL     1      67.870  -4.916 103.442  1.00  0.00     0.210 HD
ENDBRANCH   3  25
BRANCH   2  27
HETATM   27  N2  UNL     1      69.944  -4.494 106.930  1.00  0.00    -0.313 N 
ATOM     28  H2  UNL     1      70.500  -3.690 107.223  1.00  0.00     0.182 HD
BRANCH  27  29
HETATM   29  N3  UNL     1      70.057  -5.552 107.566  1.00  0.00    -0.253 N 
HETATM   30  N4  UNL     1      69.789  -6.656 108.007  1.00  0.00    -0.331 N 
ATOM     31  H42 UNL     1      68.887  -6.757 107.543  1.00  0.00     0.178 HD
ATOM     32  H41 UNL     1      69.882  -7.526 108.531  1.00  0.00     0.178 HD
ATOM     33  H3  UNL     1      70.964  -5.399 108.006  1.00  0.00     0.207 HD
ENDBRANCH  27  29
ENDBRANCH   2  27
TORSDOF 7
ENDMDL
MODEL 4
REMARK VINA RESULT: -7.658519096      2.124      7.572
REMARK  7 active torsions:
REMARK  status: ('A' for Active; 'I' for Inactive)
REMARK       I    between atoms: C2_2  and  N1_4 
REMARK    1  A    between atoms: N1_4  and  C3_6 
REMARK    2  A    between atoms: C4_7  and  N2_8 
REMARK    3  A    between atoms: N2_8  and  N3_10 
REMARK    4  A    between atoms: C5_15  and  O2_16 
REMARK    5  A    between atoms: C6_18  and  N5_19 
REMARK       I    between atoms: N5_19  and  C7_21 
REMARK    6  A    between atoms: C7_21  and  C8_23 
REMARK    7  A    between atoms: C11_26  and  C12_27 
REMARK       I    between atoms: N6_30  and  C13_31 
ROOT
HETATM    1  C3  UNL     1      70.004  -3.476 103.172  1.00  0.00     0.136 C 
HETATM    2  C4  UNL     1      70.985  -3.279 104.313  1.00  0.00     0.156 C 
HETATM    3  C5  UNL     1      70.968  -1.799 103.996  1.00  0.00     0.169 C 
HETATM    4  C6  UNL     1      69.642  -2.007 103.315  1.00  0.00     0.140 C 
ENDROOT
BRANCH   4   5
HETATM    5  N5  UNL     1      69.571  -1.305 102.051  1.00  0.00    -0.350 N 
HETATM    6  C7  UNL     1      68.373  -0.826 101.522  1.00  0.00     0.241 C 
HETATM    7  O3  UNL     1      67.308  -1.025 102.184  1.00  0.00    -0.271 OA
ATOM      8  H5  UNL     1      70.432  -1.156 101.526  1.00  0.00     0.163 HD
BRANCH   6   9
HETATM    9  C8  UNL     1      68.223  -0.098 100.234  1.00  0.00     0.180 C 
HETATM   10  C9  UNL     1      67.269   1.074 100.436  1.00  0.00     0.038 C 
HETATM   11  C10 UNL     1      66.762   1.338  99.075  1.00  0.00     0.039 C 
HETATM   12  C11 UNL     1      66.586  -0.066  98.493  1.00  0.00     0.189 C 
HETATM   13  N6  UNL     1      67.578  -0.850  99.198  1.00  0.00    -0.324 N 
HETATM   14  C13 UNL     1      67.939  -2.202  98.892  1.00  0.00     0.217 C 
HETATM   15  C14 UNL     1      67.180  -2.997  97.908  1.00  0.00     0.117 C 
HETATM   16  O6  UNL     1      68.920  -2.746  99.469  1.00  0.00    -0.274 OA
BRANCH  12  17
HETATM   17  C12 UNL     1      66.836   0.005  97.021  1.00  0.00     0.197 C 
HETATM   18  O4  UNL     1      67.660   0.740  96.461  1.00  0.00    -0.646 OA
HETATM   19  O5  UNL     1      66.072  -0.832  96.214  1.00  0.00    -0.646 OA
ENDBRANCH  12  17
ENDBRANCH   6   9
ENDBRANCH   4   5
BRANCH   1  20
HETATM   20  N1  UNL     1      68.973  -4.393 103.537  1.00  0.00    -0.353 N 
HETATM   21  C2  UNL     1      69.084  -5.754 103.207  1.00  0.00     0.214 C 
HETATM   22  C1  UNL     1      68.030  -6.727 103.572  1.00  0.00     0.117 C 
HETATM   23  O1  UNL     1      70.092  -6.165 102.591  1.00  0.00    -0.274 OA
ATOM     24  H1  UNL     1      68.151  -4.057 104.039  1.00  0.00     0.163 HD
ENDBRANCH   1  20
BRANCH   3  25
HETATM   25  O2  UNL     1      71.954  -1.544 103.018  1.00  0.00    -0.391 OA
ATOM     26  H2  UNL     1      71.529  -1.501 102.170  1.00  0.00     0.210 HD
ENDBRANCH   3  25
BRANCH   2  27
HETATM   27  N2  UNL     1      70.488  -3.623 105.614  1.00  0.00    -0.313 N 
ATOM     28  H2  UNL     1      69.983  -4.503 105.724  1.00  0.00     0.182 HD
BRANCH  27  29
HETATM   29  N3  UNL     1      70.643  -2.905 106.613  1.00  0.00    -0.253 N 
HETATM   30  N4  UNL     1      70.523  -2.486 107.751  1.00  0.00    -0.331 N 
ATOM     31  H42 UNL     1      69.871  -3.200 108.075  1.00  0.00     0.178 HD
ATOM     32  H41 UNL     1      70.649  -1.894 108.572  1.00  0.00     0.178 HD
ATOM     33  H3  UNL     1      71.295  -2.216 106.237  1.00  0.00     0.207 HD
ENDBRANCH  27  29
ENDBRANCH   2  27
TORSDOF 7
ENDMDL
MODEL 5
REMARK VINA RESULT: -7.379039793      2.513      7.530
REMARK  7 active torsions:
REMARK  status: ('A' for Active; 'I' for Inactive)
REMARK       I    between atoms: C2_2  and  N1_4 
REMARK    1  A    between atoms: N1_4  and  C3_6 
REMARK    2  A    between atoms: C4_7  and  N2_8 
REMARK    3  A    between atoms: N2_8  and  N3_10 
REMARK    4  A    between atoms: C5_15  and  O2_16 
REMARK    5  A    between atoms: C6_18  and  N5_19 
REMARK       I    between atoms: N5_19  and  C7_21 
REMARK    6  A    between atoms: C7_21  and  C8_23 
REMARK    7  A    between atoms: C11_26  and  C12_27 
REMARK       I    between atoms: N6_30  and  C13_31 
ROOT
HETATM    1  C3  UNL     1      70.065  -4.990 102.326  1.00  0.00     0.136 C 
HETATM    2  C4  UNL     1      70.635  -4.918 103.731  1.00  0.00     0.156 C 
HETATM    3  C5  UNL     1      70.291  -3.444 103.733  1.00  0.00     0.169 C 
HETATM    4  C6  UNL     1      69.289  -3.724 102.646  1.00  0.00     0.140 C 
ENDROOT
BRANCH   4   5
HETATM    5  N5  UNL     1      69.345  -2.732 101.594  1.00  0.00    -0.350 N 
HETATM    6  C7  UNL     1      68.479  -1.640 101.539  1.00  0.00     0.241 C 
HETATM    7  O3  UNL     1      67.606  -1.528 102.454  1.00  0.00    -0.271 OA
ATOM      8  H5  UNL     1      70.048  -2.836 100.862  1.00  0.00     0.163 HD
BRANCH   6   9
HETATM    9  C8  UNL     1      68.479  -0.584 100.493  1.00  0.00     0.180 C 
HETATM   10  C9  UNL     1      68.001   0.725 101.111  1.00  0.00     0.038 C 
HETATM   11  C10 UNL     1      67.502   1.488  99.949  1.00  0.00     0.039 C 
HETATM   12  C11 UNL     1      66.811   0.416  99.103  1.00  0.00     0.189 C 
HETATM   13  N6  UNL     1      67.532  -0.794  99.437  1.00  0.00    -0.324 N 
HETATM   14  C13 UNL     1      67.385  -2.057  98.778  1.00  0.00     0.217 C 
HETATM   15  C14 UNL     1      66.321  -2.285  97.781  1.00  0.00     0.117 C 
HETATM   16  O6  UNL     1      68.166  -3.010  99.044  1.00  0.00    -0.274 OA
BRANCH  12  17
HETATM   17  C12 UNL     1      66.946   0.800  97.665  1.00  0.00     0.197 C 
HETATM   18  O4  UNL     1      68.008   1.044  97.077  1.00  0.00    -0.646 OA
HETATM   19  O5  UNL     1      65.771   0.887  96.926  1.00  0.00    -0.646 OA
ENDBRANCH  12  17
ENDBRANCH   6   9
ENDBRANCH   4   5
BRANCH   1  20
HETATM   20  N1  UNL     1      69.271  -6.163 102.156  1.00  0.00    -0.353 N 
HETATM   21  C2  UNL     1      69.023  -6.672 100.870  1.00  0.00     0.214 C 
HETATM   22  C1  UNL     1      68.203  -7.886 100.663  1.00  0.00     0.117 C 
HETATM   23  O1  UNL     1      69.502  -6.095  99.869  1.00  0.00    -0.274 OA
ATOM     24  H1  UNL     1      68.880  -6.634 102.972  1.00  0.00     0.163 HD
ENDBRANCH   1  20
BRANCH   3  25
HETATM   25  O2  UNL     1      71.379  -2.733 103.185  1.00  0.00    -0.391 OA
ATOM     26  H2  UNL     1      71.640  -2.061 103.804  1.00  0.00     0.210 HD
ENDBRANCH   3  25
BRANCH   2  27
HETATM   27  N2  UNL     1      69.943  -5.702 104.713  1.00  0.00    -0.313 N 
ATOM     28  H2  UNL     1      69.474  -6.556 104.410  1.00  0.00     0.182 HD
BRANCH  27  29
HETATM   29  N3  UNL     1      69.887  -5.393 105.913  1.00  0.00    -0.253 N 
HETATM   30  N4  UNL     1      69.882  -5.511 107.125  1.00  0.00    -0.331 N 
ATOM     31  H42 UNL     1      70.001  -6.523 107.150  1.00  0.00     0.178 HD
ATOM     32  H41 UNL     1      69.836  -5.256 108.113  1.00  0.00     0.178 HD
ATOM     33  H3  UNL     1      69.768  -4.383 105.831  1.00  0.00     0.207 HD
ENDBRANCH  27  29
ENDBRANCH   2  27
TORSDOF 7
ENDMDL
