MODEL 1
REMARK VINA RESULT: -6.071166851      0.000      0.000
REMARK  3 active torsions:
REMARK  status: ('A' for Active; 'I' for Inactive)
REMARK    1  A    between atoms: O1_1  and  C1_3 
REMARK    2  A    between atoms: C4_12  and  C5_13 
REMARK    3  A    between atoms: C5_13  and  C6_14 
ROOT
HETATM    1  C1  UNL     1      43.550  73.972  42.944  1.00  0.00     0.151 A 
HETATM    2  N1  UNL     1      43.648  72.641  43.065  1.00  0.00    -0.313 N 
ATOM      3  H1  UNL     1      43.075  72.146  43.749  1.00  0.00     0.170 HD
HETATM    4  C2  UNL     1      44.503  71.958  42.284  1.00  0.00     0.178 A 
HETATM    5  S1  UNL     1      44.646  70.318  42.412  1.00  0.00    -0.040 SA
HETATM    6  N2  UNL     1      45.259  72.609  41.381  1.00  0.00    -0.323 N 
ATOM      7  H2  UNL     1      45.906  72.089  40.789  1.00  0.00     0.169 HD
HETATM    8  C3  UNL     1      45.160  73.971  41.255  1.00  0.00     0.113 A 
HETATM    9  S2  UNL     1      46.102  74.670  40.119  1.00  0.00    -0.060 SA
HETATM   10  C4  UNL     1      44.293  74.687  42.042  1.00  0.00     0.031 A 
ENDROOT
BRANCH  10  11
HETATM   11  C5  UNL     1      44.154  76.123  41.926  1.00  0.00     0.051 C 
BRANCH  11  12
HETATM   12  C6  UNL     1      45.051  76.970  42.743  1.00  0.00    -0.010 C 
HETATM   13  C7  UNL     1      44.197  77.809  43.696  1.00  0.00     0.005 C 
HETATM   14  C8  UNL     1      45.290  78.677  44.323  1.00  0.00     0.000 C 
HETATM   15  C9  UNL     1      46.133  79.052  43.147  1.00  0.00     0.000 C 
HETATM   16  C10 UNL     1      45.816  78.035  42.040  1.00  0.00     0.005 C 
ENDBRANCH  11  12
ENDBRANCH  10  11
BRANCH   1  17
HETATM   17  O1  UNL     1      42.663  74.645  43.762  1.00  0.00    -0.346 OA
ATOM     18  H1  UNL     1      42.304  75.471  43.460  1.00  0.00     0.219 HD
ENDBRANCH   1  17
TORSDOF 3
ENDMDL
MODEL 2
REMARK VINA RESULT: -6.065804343      2.216      2.903
REMARK  3 active torsions:
REMARK  status: ('A' for Active; 'I' for Inactive)
REMARK    1  A    between atoms: O1_1  and  C1_3 
REMARK    2  A    between atoms: C4_12  and  C5_13 
REMARK    3  A    between atoms: C5_13  and  C6_14 
ROOT
HETATM    1  C1  UNL     1      45.447  74.052  41.563  1.00  0.00     0.151 A 
HETATM    2  N1  UNL     1      45.366  72.721  41.436  1.00  0.00    -0.313 N 
ATOM      3  H1  UNL     1      45.932  72.239  40.737  1.00  0.00     0.170 HD
HETATM    4  C2  UNL     1      44.539  72.020  42.231  1.00  0.00     0.178 A 
HETATM    5  S1  UNL     1      44.419  70.378  42.095  1.00  0.00    -0.040 SA
HETATM    6  N2  UNL     1      43.793  72.653  43.154  1.00  0.00    -0.323 N 
ATOM      7  H2  UNL     1      43.166  72.119  43.756  1.00  0.00     0.169 HD
HETATM    8  C3  UNL     1      43.873  74.016  43.287  1.00  0.00     0.113 A 
HETATM    9  S2  UNL     1      42.945  74.693  44.446  1.00  0.00    -0.060 SA
HETATM   10  C4  UNL     1      44.711  74.751  42.485  1.00  0.00     0.031 A 
ENDROOT
BRANCH  10  11
HETATM   11  C5  UNL     1      44.830  76.187  42.608  1.00  0.00     0.051 C 
BRANCH  11  12
HETATM   12  C6  UNL     1      43.909  77.026  41.810  1.00  0.00    -0.010 C 
HETATM   13  C7  UNL     1      44.734  77.877  40.844  1.00  0.00     0.005 C 
HETATM   14  C8  UNL     1      43.620  78.733  40.239  1.00  0.00     0.000 C 
HETATM   15  C9  UNL     1      42.794  79.095  41.432  1.00  0.00     0.000 C 
HETATM   16  C10 UNL     1      43.144  78.080  42.530  1.00  0.00     0.005 C 
ENDBRANCH  11  12
ENDBRANCH  10  11
BRANCH   1  17
HETATM   17  O1  UNL     1      46.306  74.744  40.731  1.00  0.00    -0.346 OA
ATOM     18  H1  UNL     1      46.596  75.609  40.996  1.00  0.00     0.219 HD
ENDBRANCH   1  17
TORSDOF 3
ENDMDL
MODEL 3
REMARK VINA RESULT: -6.040883212      1.759      2.198
REMARK  3 active torsions:
REMARK  status: ('A' for Active; 'I' for Inactive)
REMARK    1  A    between atoms: O1_1  and  C1_3 
REMARK    2  A    between atoms: C4_12  and  C5_13 
REMARK    3  A    between atoms: C5_13  and  C6_14 
ROOT
HETATM    1  C1  UNL     1      44.998  74.056  41.293  1.00  0.00     0.151 A 
HETATM    2  N1  UNL     1      45.189  72.730  41.299  1.00  0.00    -0.313 N 
ATOM      3  H1  UNL     1      45.787  72.296  40.595  1.00  0.00     0.170 HD
HETATM    4  C2  UNL     1      44.591  71.971  42.233  1.00  0.00     0.178 A 
HETATM    5  S1  UNL     1      44.807  70.334  42.264  1.00  0.00    -0.040 SA
HETATM    6  N2  UNL     1      43.802  72.541  43.162  1.00  0.00    -0.323 N 
ATOM      7  H2  UNL     1      43.350  71.963  43.871  1.00  0.00     0.169 HD
HETATM    8  C3  UNL     1      43.606  73.899  43.158  1.00  0.00     0.113 A 
HETATM    9  S2  UNL     1      42.649  74.501  44.336  1.00  0.00    -0.060 SA
HETATM   10  C4  UNL     1      44.207  74.692  42.213  1.00  0.00     0.031 A 
ENDROOT
BRANCH  10  11
HETATM   11  C5  UNL     1      44.032  76.128  42.189  1.00  0.00     0.051 C 
BRANCH  11  12
HETATM   12  C6  UNL     1      45.069  76.959  42.840  1.00  0.00    -0.010 C 
HETATM   13  C7  UNL     1      44.393  77.873  43.863  1.00  0.00     0.005 C 
HETATM   14  C8  UNL     1      45.598  78.708  44.298  1.00  0.00     0.000 C 
HETATM   15  C9  UNL     1      46.288  78.998  43.003  1.00  0.00     0.000 C 
HETATM   16  C10 UNL     1      45.776  77.958  41.994  1.00  0.00     0.005 C 
ENDBRANCH  11  12
ENDBRANCH  10  11
BRANCH   1  17
HETATM   17  O1  UNL     1      45.627  74.808  40.319  1.00  0.00    -0.346 OA
ATOM     18  H1  UNL     1      46.046  74.356  39.596  1.00  0.00     0.219 HD
ENDBRANCH   1  17
TORSDOF 3
ENDMDL
MODEL 4
REMARK VINA RESULT: -6.029339683      1.307      1.896
REMARK  3 active torsions:
REMARK  status: ('A' for Active; 'I' for Inactive)
REMARK    1  A    between atoms: O1_1  and  C1_3 
REMARK    2  A    between atoms: C4_12  and  C5_13 
REMARK    3  A    between atoms: C5_13  and  C6_14 
ROOT
HETATM    1  C1  UNL     1      44.056  74.038  43.314  1.00  0.00     0.151 A 
HETATM    2  N1  UNL     1      43.862  72.712  43.304  1.00  0.00    -0.313 N 
ATOM      3  H1  UNL     1      43.267  72.278  44.011  1.00  0.00     0.170 HD
HETATM    4  C2  UNL     1      44.451  71.955  42.363  1.00  0.00     0.178 A 
HETATM    5  S1  UNL     1      44.230  70.319  42.328  1.00  0.00    -0.040 SA
HETATM    6  N2  UNL     1      45.234  72.527  41.430  1.00  0.00    -0.323 N 
ATOM      7  H2  UNL     1      45.680  71.950  40.717  1.00  0.00     0.169 HD
HETATM    8  C3  UNL     1      45.434  73.884  41.437  1.00  0.00     0.113 A 
HETATM    9  S2  UNL     1      46.384  74.488  40.255  1.00  0.00    -0.060 SA
HETATM   10  C4  UNL     1      44.842  74.675  42.389  1.00  0.00     0.031 A 
ENDROOT
BRANCH  10  11
HETATM   11  C5  UNL     1      45.021  76.111  42.417  1.00  0.00     0.051 C 
BRANCH  11  12
HETATM   12  C6  UNL     1      43.978  76.947  41.782  1.00  0.00    -0.010 C 
HETATM   13  C7  UNL     1      44.645  77.867  40.758  1.00  0.00     0.005 C 
HETATM   14  C8  UNL     1      43.436  78.706  40.339  1.00  0.00     0.000 C 
HETATM   15  C9  UNL     1      42.760  78.988  41.643  1.00  0.00     0.000 C 
HETATM   16  C10 UNL     1      43.280  77.942  42.640  1.00  0.00     0.005 C 
ENDBRANCH  11  12
ENDBRANCH  10  11
BRANCH   1  17
HETATM   17  O1  UNL     1      43.436  74.789  44.294  1.00  0.00    -0.346 OA
ATOM     18  H1  UNL     1      42.841  75.480  44.029  1.00  0.00     0.219 HD
ENDBRANCH   1  17
TORSDOF 3
ENDMDL
MODEL 5
REMARK VINA RESULT: -5.662564095      3.325      5.813
REMARK  3 active torsions:
REMARK  status: ('A' for Active; 'I' for Inactive)
REMARK    1  A    between atoms: O1_1  and  C1_3 
REMARK    2  A    between atoms: C4_12  and  C5_13 
REMARK    3  A    between atoms: C5_13  and  C6_14 
ROOT
HETATM    1  C1  UNL     1      45.506  76.606  40.730  1.00  0.00     0.151 A 
HETATM    2  N1  UNL     1      45.038  77.857  40.623  1.00  0.00    -0.313 N 
ATOM      3  H1  UNL     1      45.388  78.472  39.887  1.00  0.00     0.170 HD
HETATM    4  C2  UNL     1      44.108  78.301  41.485  1.00  0.00     0.178 A 
HETATM    5  S1  UNL     1      43.515  79.839  41.377  1.00  0.00    -0.040 SA
HETATM    6  N2  UNL     1      43.646  77.492  42.455  1.00  0.00    -0.323 N 
ATOM      7  H2  UNL     1      42.940  77.831  43.109  1.00  0.00     0.169 HD
HETATM    8  C3  UNL     1      44.123  76.211  42.568  1.00  0.00     0.113 A 
HETATM    9  S2  UNL     1      43.489  75.298  43.763  1.00  0.00    -0.060 SA
HETATM   10  C4  UNL     1      45.072  75.737  41.697  1.00  0.00     0.031 A 
ENDROOT
BRANCH  10  11
HETATM   11  C5  UNL     1      45.586  74.387  41.779  1.00  0.00     0.051 C 
BRANCH  11  12
HETATM   12  C6  UNL     1      44.732  73.293  41.266  1.00  0.00    -0.010 C 
HETATM   13  C7  UNL     1      45.104  72.000  41.994  1.00  0.00     0.005 C 
HETATM   14  C8  UNL     1      44.220  71.012  41.231  1.00  0.00     0.000 C 
HETATM   15  C9  UNL     1      44.391  71.441  39.809  1.00  0.00     0.000 C 
HETATM   16  C10 UNL     1      44.922  72.882  39.849  1.00  0.00     0.005 C 
ENDBRANCH  11  12
ENDBRANCH  10  11
BRANCH   1  17
HETATM   17  O1  UNL     1      46.462  76.179  39.828  1.00  0.00    -0.346 OA
ATOM     18  H1  UNL     1      46.624  76.706  39.055  1.00  0.00     0.219 HD
ENDBRANCH   1  17
TORSDOF 3
ENDMDL
