MODEL 1
REMARK VINA RESULT: -6.491261554      0.000      0.000
REMARK  5 active torsions:
REMARK  status: ('A' for Active; 'I' for Inactive)
REMARK    1  A    between atoms: C2_2  and  C3_3 
REMARK    2  A    between atoms: C3_3  and  C4_4 
REMARK    3  A    between atoms: C7_7  and  C9_9 
REMARK    4  A    between atoms: C9_9  and  O1_10 
REMARK    5  A    between atoms: C14_16  and  O2_18 
ROOT
HETATM    1  C4  UNL     1     -22.089  -0.340 -24.269  1.00  0.00     0.006 C 
HETATM    2  C5  UNL     1     -23.376  -0.227 -23.492  1.00  0.00     0.007 C 
HETATM    3  C6  UNL     1     -23.140  -1.267 -22.409  1.00  0.00     0.012 C 
HETATM    4  C7  UNL     1     -21.682  -0.968 -22.036  1.00  0.00    -0.015 C 
HETATM    5  C8  UNL     1     -21.074  -2.101 -21.261  1.00  0.00     0.018 C 
HETATM    6  C10 UNL     1     -21.005  -0.793 -23.395  1.00  0.00    -0.034 C 
HETATM    7  C11 UNL     1     -20.535  -2.201 -23.857  1.00  0.00     0.016 C 
HETATM    8  C12 UNL     1     -19.775   0.005 -23.270  1.00  0.00     0.016 C 
ENDROOT
BRANCH   1   9
HETATM    9  C3  UNL     1     -21.829   0.845 -25.187  1.00  0.00    -0.003 A 
HETATM   10  C13 UNL     1     -20.668   0.740 -26.078  1.00  0.00     0.051 A 
HETATM   11  C14 UNL     1     -22.053   0.463 -26.662  1.00  0.00     0.063 A 
HETATM   12  C15 UNL     1     -22.499   1.409 -27.691  1.00  0.00     0.046 C 
BRANCH   9  13
HETATM   13  C2  UNL     1     -22.438   2.135 -24.780  1.00  0.00     0.008 C 
HETATM   14  C1  UNL     1     -22.001   2.757 -23.509  1.00  0.00     0.006 C 
ENDBRANCH   9  13
BRANCH  11  15
HETATM   15  O2  UNL     1     -22.362  -0.899 -26.899  1.00  0.00    -0.389 OA
ATOM     16  H2  UNL     1     -22.853  -1.332 -26.210  1.00  0.00     0.210 HD
ENDBRANCH  11  15
ENDBRANCH   1   9
BRANCH   4  17
HETATM   17  C9  UNL     1     -21.698   0.247 -21.183  1.00  0.00     0.173 C 
BRANCH  17  18
HETATM   18  O1  UNL     1     -21.370  -0.189 -19.870  1.00  0.00    -0.400 OA
ATOM     19  H1  UNL     1     -21.502   0.561 -19.303  1.00  0.00     0.209 HD
ENDBRANCH  17  18
ENDBRANCH   4  17
TORSDOF 5
ENDMDL
MODEL 2
REMARK VINA RESULT: -6.490123644      1.389      3.216
REMARK  5 active torsions:
REMARK  status: ('A' for Active; 'I' for Inactive)
REMARK    1  A    between atoms: C2_2  and  C3_3 
REMARK    2  A    between atoms: C3_3  and  C4_4 
REMARK    3  A    between atoms: C7_7  and  C9_9 
REMARK    4  A    between atoms: C9_9  and  O1_10 
REMARK    5  A    between atoms: C14_16  and  O2_18 
ROOT
HETATM    1  C4  UNL     1     -20.966   0.331 -24.261  1.00  0.00     0.006 C 
HETATM    2  C5  UNL     1     -19.676   0.223 -23.490  1.00  0.00     0.007 C 
HETATM    3  C6  UNL     1     -19.906   1.269 -22.411  1.00  0.00     0.012 C 
HETATM    4  C7  UNL     1     -21.363   0.972 -22.030  1.00  0.00    -0.015 C 
HETATM    5  C8  UNL     1     -21.967   2.109 -21.259  1.00  0.00     0.018 C 
HETATM    6  C10 UNL     1     -22.046   0.789 -23.385  1.00  0.00    -0.034 C 
HETATM    7  C11 UNL     1     -22.519   2.194 -23.852  1.00  0.00     0.016 C 
HETATM    8  C12 UNL     1     -23.275  -0.009 -23.249  1.00  0.00     0.016 C 
ENDROOT
BRANCH   1   9
HETATM    9  C3  UNL     1     -21.230  -0.859 -25.171  1.00  0.00    -0.003 A 
HETATM   10  C13 UNL     1     -22.389  -0.755 -26.064  1.00  0.00     0.051 A 
HETATM   11  C14 UNL     1     -21.003  -0.488 -26.648  1.00  0.00     0.063 A 
HETATM   12  C15 UNL     1     -20.559  -1.443 -27.671  1.00  0.00     0.046 C 
BRANCH   9  13
HETATM   13  C2  UNL     1     -20.626  -2.148 -24.754  1.00  0.00     0.008 C 
HETATM   14  C1  UNL     1     -21.074  -2.765 -23.485  1.00  0.00     0.006 C 
ENDBRANCH   9  13
BRANCH  11  15
HETATM   15  O2  UNL     1     -20.688   0.871 -26.894  1.00  0.00    -0.389 OA
ATOM     16  H2  UNL     1     -20.592   1.415 -26.121  1.00  0.00     0.210 HD
ENDBRANCH  11  15
ENDBRANCH   1   9
BRANCH   4  17
HETATM   17  C9  UNL     1     -21.343  -0.238 -21.169  1.00  0.00     0.173 C 
BRANCH  17  18
HETATM   18  O1  UNL     1     -21.710   0.197 -19.868  1.00  0.00    -0.400 OA
ATOM     19  H1  UNL     1     -21.466  -0.504 -19.276  1.00  0.00     0.209 HD
ENDBRANCH  17  18
ENDBRANCH   4  17
TORSDOF 5
ENDMDL
MODEL 3
REMARK VINA RESULT: -5.827053161      1.818      2.794
REMARK  5 active torsions:
REMARK  status: ('A' for Active; 'I' for Inactive)
REMARK    1  A    between atoms: C2_2  and  C3_3 
REMARK    2  A    between atoms: C3_3  and  C4_4 
REMARK    3  A    between atoms: C7_7  and  C9_9 
REMARK    4  A    between atoms: C9_9  and  O1_10 
REMARK    5  A    between atoms: C14_16  and  O2_18 
ROOT
HETATM    1  C4  UNL     1     -22.158   0.329 -25.685  1.00  0.00     0.006 C 
HETATM    2  C5  UNL     1     -22.764   1.696 -25.490  1.00  0.00     0.007 C 
HETATM    3  C6  UNL     1     -23.041   1.668 -23.996  1.00  0.00     0.012 C 
HETATM    4  C7  UNL     1     -21.745   1.032 -23.475  1.00  0.00    -0.015 C 
HETATM    5  C8  UNL     1     -21.910   0.534 -22.069  1.00  0.00     0.018 C 
HETATM    6  C10 UNL     1     -21.508  -0.119 -24.452  1.00  0.00    -0.034 C 
HETATM    7  C11 UNL     1     -22.267  -1.356 -23.896  1.00  0.00     0.016 C 
HETATM    8  C12 UNL     1     -20.088  -0.509 -24.467  1.00  0.00     0.016 C 
ENDROOT
BRANCH   1   9
HETATM    9  C3  UNL     1     -21.402   0.181 -26.996  1.00  0.00    -0.003 A 
HETATM   10  C13 UNL     1     -20.809  -1.133 -27.265  1.00  0.00     0.051 A 
HETATM   11  C14 UNL     1     -22.129  -0.783 -27.950  1.00  0.00     0.063 A 
HETATM   12  C15 UNL     1     -22.069  -0.684 -29.413  1.00  0.00     0.046 C 
BRANCH   9  13
HETATM   13  C2  UNL     1     -20.931   1.440 -27.625  1.00  0.00     0.008 C 
HETATM   14  C1  UNL     1     -19.542   1.503 -28.134  1.00  0.00     0.006 C 
ENDBRANCH   9  13
BRANCH  11  15
HETATM   15  O2  UNL     1     -23.285  -1.409 -27.420  1.00  0.00    -0.389 OA
ATOM     16  H2  UNL     1     -24.109  -0.980 -27.619  1.00  0.00     0.210 HD
ENDBRANCH  11  15
ENDBRANCH   1   9
BRANCH   4  17
HETATM   17  C9  UNL     1     -20.708   2.094 -23.493  1.00  0.00     0.173 C 
BRANCH  17  18
HETATM   18  O1  UNL     1     -21.190   3.130 -22.648  1.00  0.00    -0.400 OA
ATOM     19  H1  UNL     1     -20.428   3.634 -22.388  1.00  0.00     0.209 HD
ENDBRANCH  17  18
ENDBRANCH   4  17
TORSDOF 5
ENDMDL
MODEL 4
REMARK VINA RESULT: -5.806297307      1.905      3.213
REMARK  5 active torsions:
REMARK  status: ('A' for Active; 'I' for Inactive)
REMARK    1  A    between atoms: C2_2  and  C3_3 
REMARK    2  A    between atoms: C3_3  and  C4_4 
REMARK    3  A    between atoms: C7_7  and  C9_9 
REMARK    4  A    between atoms: C9_9  and  O1_10 
REMARK    5  A    between atoms: C14_16  and  O2_18 
ROOT
HETATM    1  C4  UNL     1     -20.899  -0.271 -25.491  1.00  0.00     0.006 C 
HETATM    2  C5  UNL     1     -20.269  -1.632 -25.337  1.00  0.00     0.007 C 
HETATM    3  C6  UNL     1     -20.035  -1.663 -23.835  1.00  0.00     0.012 C 
HETATM    4  C7  UNL     1     -21.359  -1.076 -23.326  1.00  0.00    -0.015 C 
HETATM    5  C8  UNL     1     -21.246  -0.635 -21.896  1.00  0.00     0.018 C 
HETATM    6  C10 UNL     1     -21.594   0.110 -24.260  1.00  0.00    -0.034 C 
HETATM    7  C11 UNL     1     -20.879   1.337 -23.631  1.00  0.00     0.016 C 
HETATM    8  C12 UNL     1     -23.021   0.471 -24.301  1.00  0.00     0.016 C 
ENDROOT
BRANCH   1   9
HETATM    9  C3  UNL     1     -21.621  -0.084 -26.817  1.00  0.00    -0.003 A 
HETATM   10  C13 UNL     1     -22.219   1.234 -27.055  1.00  0.00     0.051 A 
HETATM   11  C14 UNL     1     -20.878   0.921 -27.715  1.00  0.00     0.063 A 
HETATM   12  C15 UNL     1     -20.897   0.874 -29.183  1.00  0.00     0.046 C 
BRANCH   9  13
HETATM   13  C2  UNL     1     -22.062  -1.323 -27.503  1.00  0.00     0.008 C 
HETATM   14  C1  UNL     1     -23.438  -1.384 -28.044  1.00  0.00     0.006 C 
ENDBRANCH   9  13
BRANCH  11  15
HETATM   15  O2  UNL     1     -19.744   1.539 -27.132  1.00  0.00    -0.389 OA
ATOM     16  H2  UNL     1     -19.008   0.962 -26.960  1.00  0.00     0.210 HD
ENDBRANCH  11  15
ENDBRANCH   1   9
BRANCH   4  17
HETATM   17  C9  UNL     1     -22.371  -2.158 -23.419  1.00  0.00     0.173 C 
BRANCH  17  18
HETATM   18  O1  UNL     1     -21.916  -3.198 -22.564  1.00  0.00    -0.400 OA
ATOM     19  H1  UNL     1     -21.792  -3.959 -23.118  1.00  0.00     0.209 HD
ENDBRANCH  17  18
ENDBRANCH   4  17
TORSDOF 5
ENDMDL
MODEL 5
REMARK VINA RESULT: -5.319844101      2.165      3.666
REMARK  5 active torsions:
REMARK  status: ('A' for Active; 'I' for Inactive)
REMARK    1  A    between atoms: C2_2  and  C3_3 
REMARK    2  A    between atoms: C3_3  and  C4_4 
REMARK    3  A    between atoms: C7_7  and  C9_9 
REMARK    4  A    between atoms: C9_9  and  O1_10 
REMARK    5  A    between atoms: C14_16  and  O2_18 
ROOT
HETATM    1  C4  UNL     1     -20.865  -0.656 -26.568  1.00  0.00     0.006 C 
HETATM    2  C5  UNL     1     -20.499  -2.091 -26.284  1.00  0.00     0.007 C 
HETATM    3  C6  UNL     1     -19.967  -1.968 -24.865  1.00  0.00     0.012 C 
HETATM    4  C7  UNL     1     -21.012  -1.029 -24.246  1.00  0.00    -0.015 C 
HETATM    5  C8  UNL     1     -20.517  -0.435 -22.961  1.00  0.00     0.018 C 
HETATM    6  C10 UNL     1     -21.198   0.039 -25.323  1.00  0.00    -0.034 C 
HETATM    7  C11 UNL     1     -20.138   1.144 -25.059  1.00  0.00     0.016 C 
HETATM    8  C12 UNL     1     -22.501   0.708 -25.178  1.00  0.00     0.016 C 
ENDROOT
BRANCH   1   9
HETATM    9  C3  UNL     1     -21.797  -0.492 -27.758  1.00  0.00    -0.003 A 
HETATM   10  C13 UNL     1     -22.278   0.866 -28.030  1.00  0.00     0.051 A 
HETATM   11  C14 UNL     1     -21.127   0.326 -28.877  1.00  0.00     0.063 A 
HETATM   12  C15 UNL     1     -21.426   0.155 -30.304  1.00  0.00     0.046 C 
BRANCH   9  13
HETATM   13  C2  UNL     1     -22.494  -1.719 -28.218  1.00  0.00     0.008 C 
HETATM   14  C1  UNL     1     -23.944  -1.646 -28.507  1.00  0.00     0.006 C 
ENDBRANCH   9  13
BRANCH  11  15
HETATM   15  O2  UNL     1     -19.843   0.839 -28.572  1.00  0.00    -0.389 OA
ATOM     16  H2  UNL     1     -19.421   1.328 -29.270  1.00  0.00     0.210 HD
ENDBRANCH  11  15
ENDBRANCH   1   9
BRANCH   4  17
HETATM   17  C9  UNL     1     -22.215  -1.853 -23.965  1.00  0.00     0.173 C 
BRANCH  17  18
HETATM   18  O1  UNL     1     -21.859  -2.719 -22.896  1.00  0.00    -0.400 OA
ATOM     19  H1  UNL     1     -21.632  -3.550 -23.294  1.00  0.00     0.209 HD
ENDBRANCH  17  18
ENDBRANCH   4  17
TORSDOF 5
ENDMDL
