MODEL 1
REMARK VINA RESULT: -5.871607034      0.000      0.000
REMARK  5 active torsions:
REMARK  status: ('A' for Active; 'I' for Inactive)
REMARK    1  A    between atoms: C2_2  and  N1_3 
REMARK    2  A    between atoms: C2_2  and  C3_7 
REMARK    3  A    between atoms: C3_7  and  C4_8 
REMARK    4  A    between atoms: C4_8  and  O1_9 
REMARK    5  A    between atoms: C9_15  and  C10_16 
ROOT
HETATM    1  C4  UNL     1     -22.028  -0.827 -27.971  1.00  0.00     0.065 C 
HETATM    2  C5  UNL     1     -22.191   0.398 -28.843  1.00  0.00     0.047 C 
HETATM    3  C6  UNL     1     -21.791   1.242 -27.650  1.00  0.00    -0.038 C 
HETATM    4  C7  UNL     1     -22.746   2.407 -27.387  1.00  0.00     0.015 C 
HETATM    5  C8  UNL     1     -20.428   1.793 -27.878  1.00  0.00     0.015 C 
HETATM    6  C9  UNL     1     -22.051   0.106 -26.790  1.00  0.00     0.032 C 
ENDROOT
BRANCH   1   7
HETATM    7  C3  UNL     1     -23.207  -1.775 -28.054  1.00  0.00     0.070 C 
BRANCH   7   8
HETATM    8  C2  UNL     1     -23.747  -1.822 -29.450  1.00  0.00     0.182 C 
HETATM    9  C1  UNL     1     -25.223  -2.165 -29.483  1.00  0.00     0.039 C 
BRANCH   8  10
HETATM   10  N1  UNL     1     -23.063  -2.771 -30.296  1.00  0.00    -0.075 N 
ATOM     11  H13 UNL     1     -22.758  -3.604 -29.794  1.00  0.00     0.274 HD
ATOM     12  H12 UNL     1     -23.685  -3.234 -30.958  1.00  0.00     0.274 HD
ATOM     13  H11 UNL     1     -22.295  -2.277 -30.750  1.00  0.00     0.274 HD
ENDBRANCH   8  10
ENDBRANCH   7   8
ENDBRANCH   1   7
BRANCH   1  14
HETATM   14  O1  UNL     1     -20.845  -1.525 -28.156  1.00  0.00    -0.389 OA
ATOM     15  H1  UNL     1     -20.354  -1.146 -28.875  1.00  0.00     0.210 HD
ENDBRANCH   1  14
BRANCH   6  16
HETATM   16  C10 UNL     1     -21.255  -0.264 -25.609  1.00  0.00    -0.007 C 
HETATM   17  C11 UNL     1     -22.156  -1.019 -24.651  1.00  0.00     0.005 C 
HETATM   18  C12 UNL     1     -21.295  -2.029 -23.925  1.00  0.00     0.000 C 
HETATM   19  C13 UNL     1     -19.982  -1.361 -23.560  1.00  0.00     0.000 C 
HETATM   20  C14 UNL     1     -20.143   0.146 -23.483  1.00  0.00     0.000 C 
HETATM   21  C15 UNL     1     -20.489   0.732 -24.861  1.00  0.00     0.005 C 
ENDBRANCH   6  16
TORSDOF 5
ENDMDL
MODEL 2
REMARK VINA RESULT: -5.862080227      2.332      4.155
REMARK  5 active torsions:
REMARK  status: ('A' for Active; 'I' for Inactive)
REMARK    1  A    between atoms: C2_2  and  N1_3 
REMARK    2  A    between atoms: C2_2  and  C3_7 
REMARK    3  A    between atoms: C3_7  and  C4_8 
REMARK    4  A    between atoms: C4_8  and  O1_9 
REMARK    5  A    between atoms: C9_15  and  C10_16 
ROOT
HETATM    1  C4  UNL     1     -20.986   0.866 -27.968  1.00  0.00     0.065 C 
HETATM    2  C5  UNL     1     -20.908  -0.368 -28.841  1.00  0.00     0.047 C 
HETATM    3  C6  UNL     1     -21.294  -1.191 -27.630  1.00  0.00    -0.038 C 
HETATM    4  C7  UNL     1     -20.377  -2.394 -27.400  1.00  0.00     0.015 C 
HETATM    5  C8  UNL     1     -22.686  -1.687 -27.801  1.00  0.00     0.015 C 
HETATM    6  C9  UNL     1     -20.954  -0.065 -26.786  1.00  0.00     0.032 C 
ENDROOT
BRANCH   1   7
HETATM    7  C3  UNL     1     -19.775   1.764 -28.102  1.00  0.00     0.070 C 
BRANCH   7   8
HETATM    8  C2  UNL     1     -19.302   1.804 -29.522  1.00  0.00     0.182 C 
HETATM    9  C1  UNL     1     -17.821   2.104 -29.626  1.00  0.00     0.039 C 
BRANCH   8  10
HETATM   10  N1  UNL     1     -19.999   2.778 -30.329  1.00  0.00    -0.075 N 
ATOM     11  H13 UNL     1     -21.004   2.609 -30.377  1.00  0.00     0.274 HD
ATOM     12  H12 UNL     1     -20.040   3.699 -29.893  1.00  0.00     0.274 HD
ATOM     13  H11 UNL     1     -19.553   2.791 -31.246  1.00  0.00     0.274 HD
ENDBRANCH   8  10
ENDBRANCH   7   8
ENDBRANCH   1   7
BRANCH   1  14
HETATM   14  O1  UNL     1     -22.146   1.610 -28.109  1.00  0.00    -0.389 OA
ATOM     15  H1  UNL     1     -22.277   2.156 -27.344  1.00  0.00     0.210 HD
ENDBRANCH   1  14
BRANCH   6  16
HETATM   16  C10 UNL     1     -21.687   0.340 -25.575  1.00  0.00    -0.007 C 
HETATM   17  C11 UNL     1     -20.695   0.953 -24.607  1.00  0.00     0.005 C 
HETATM   18  C12 UNL     1     -21.430   2.020 -23.824  1.00  0.00     0.000 C 
HETATM   19  C13 UNL     1     -22.802   1.483 -23.461  1.00  0.00     0.000 C 
HETATM   20  C14 UNL     1     -22.804  -0.035 -23.445  1.00  0.00     0.000 C 
HETATM   21  C15 UNL     1     -22.545  -0.598 -24.852  1.00  0.00     0.005 C 
ENDBRANCH   6  16
TORSDOF 5
ENDMDL
MODEL 3
REMARK VINA RESULT: -5.715260373      2.653      4.176
REMARK  5 active torsions:
REMARK  status: ('A' for Active; 'I' for Inactive)
REMARK    1  A    between atoms: C2_2  and  N1_3 
REMARK    2  A    between atoms: C2_2  and  C3_7 
REMARK    3  A    between atoms: C3_7  and  C4_8 
REMARK    4  A    between atoms: C4_8  and  O1_9 
REMARK    5  A    between atoms: C9_15  and  C10_16 
ROOT
HETATM    1  C4  UNL     1     -20.556   0.814 -28.934  1.00  0.00     0.065 C 
HETATM    2  C5  UNL     1     -21.439   0.065 -29.909  1.00  0.00     0.047 C 
HETATM    3  C6  UNL     1     -22.160  -0.536 -28.720  1.00  0.00    -0.038 C 
HETATM    4  C7  UNL     1     -22.307  -2.056 -28.808  1.00  0.00     0.015 C 
HETATM    5  C8  UNL     1     -23.518   0.063 -28.620  1.00  0.00     0.015 C 
HETATM    6  C9  UNL     1     -21.054  -0.133 -27.876  1.00  0.00     0.032 C 
ENDROOT
BRANCH   1   7
HETATM    7  C3  UNL     1     -19.082   0.690 -29.254  1.00  0.00     0.070 C 
BRANCH   7   8
HETATM    8  C2  UNL     1     -18.493   2.033 -29.558  1.00  0.00     0.182 C 
HETATM    9  C1  UNL     1     -17.306   1.941 -30.495  1.00  0.00     0.039 C 
BRANCH   8  10
HETATM   10  N1  UNL     1     -18.061   2.748 -28.380  1.00  0.00    -0.075 N 
ATOM     11  H13 UNL     1     -17.050   2.723 -28.248  1.00  0.00     0.274 HD
ATOM     12  H12 UNL     1     -18.158   3.759 -28.471  1.00  0.00     0.274 HD
ATOM     13  H11 UNL     1     -18.576   2.368 -27.586  1.00  0.00     0.274 HD
ENDBRANCH   8  10
ENDBRANCH   7   8
ENDBRANCH   1   7
BRANCH   1  14
HETATM   14  O1  UNL     1     -20.891   2.145 -28.747  1.00  0.00    -0.389 OA
ATOM     15  H1  UNL     1     -21.072   2.309 -27.829  1.00  0.00     0.210 HD
ENDBRANCH   1  14
BRANCH   6  16
HETATM   16  C10 UNL     1     -21.178   0.379 -26.502  1.00  0.00    -0.007 C 
HETATM   17  C11 UNL     1     -21.105  -0.800 -25.551  1.00  0.00     0.005 C 
HETATM   18  C12 UNL     1     -20.448  -0.312 -24.279  1.00  0.00     0.000 C 
HETATM   19  C13 UNL     1     -21.012   1.056 -23.946  1.00  0.00     0.000 C 
HETATM   20  C14 UNL     1     -22.382   1.245 -24.572  1.00  0.00     0.000 C 
HETATM   21  C15 UNL     1     -22.288   1.244 -26.106  1.00  0.00     0.005 C 
ENDBRANCH   6  16
TORSDOF 5
ENDMDL
MODEL 4
REMARK VINA RESULT: -5.699487874      1.418      1.852
REMARK  5 active torsions:
REMARK  status: ('A' for Active; 'I' for Inactive)
REMARK    1  A    between atoms: C2_2  and  N1_3 
REMARK    2  A    between atoms: C2_2  and  C3_7 
REMARK    3  A    between atoms: C3_7  and  C4_8 
REMARK    4  A    between atoms: C4_8  and  O1_9 
REMARK    5  A    between atoms: C9_15  and  C10_16 
ROOT
HETATM    1  C4  UNL     1     -22.516  -0.796 -28.921  1.00  0.00     0.065 C 
HETATM    2  C5  UNL     1     -21.637  -0.053 -29.903  1.00  0.00     0.047 C 
HETATM    3  C6  UNL     1     -20.904   0.546 -28.720  1.00  0.00    -0.038 C 
HETATM    4  C7  UNL     1     -20.749   2.065 -28.812  1.00  0.00     0.015 C 
HETATM    5  C8  UNL     1     -19.548  -0.060 -28.630  1.00  0.00     0.015 C 
HETATM    6  C9  UNL     1     -22.006   0.150 -27.868  1.00  0.00     0.032 C 
ENDROOT
BRANCH   1   7
HETATM    7  C3  UNL     1     -23.993  -0.664 -29.230  1.00  0.00     0.070 C 
BRANCH   7   8
HETATM    8  C2  UNL     1     -24.575  -1.994 -29.598  1.00  0.00     0.182 C 
HETATM    9  C1  UNL     1     -25.759  -1.863 -30.534  1.00  0.00     0.039 C 
BRANCH   8  10
HETATM   10  N1  UNL     1     -25.008  -2.764 -28.456  1.00  0.00    -0.075 N 
ATOM     11  H13 UNL     1     -24.845  -2.287 -27.569  1.00  0.00     0.274 HD
ATOM     12  H12 UNL     1     -26.023  -2.833 -28.385  1.00  0.00     0.274 HD
ATOM     13  H11 UNL     1     -24.551  -3.674 -28.508  1.00  0.00     0.274 HD
ENDBRANCH   8  10
ENDBRANCH   7   8
ENDBRANCH   1   7
BRANCH   1  14
HETATM   14  O1  UNL     1     -22.188  -2.129 -28.733  1.00  0.00    -0.389 OA
ATOM     15  H1  UNL     1     -21.699  -2.233 -27.926  1.00  0.00     0.210 HD
ENDBRANCH   1  14
BRANCH   6  16
HETATM   16  C10 UNL     1     -21.875  -0.360 -26.494  1.00  0.00    -0.007 C 
HETATM   17  C11 UNL     1     -21.956   0.818 -25.543  1.00  0.00     0.005 C 
HETATM   18  C12 UNL     1     -22.606   0.325 -24.269  1.00  0.00     0.000 C 
HETATM   19  C13 UNL     1     -22.029  -1.038 -23.937  1.00  0.00     0.000 C 
HETATM   20  C14 UNL     1     -20.659  -1.215 -24.566  1.00  0.00     0.000 C 
HETATM   21  C15 UNL     1     -20.756  -1.216 -26.100  1.00  0.00     0.005 C 
ENDBRANCH   6  16
TORSDOF 5
ENDMDL
MODEL 5
REMARK VINA RESULT: -5.686189137      2.381      5.231
REMARK  5 active torsions:
REMARK  status: ('A' for Active; 'I' for Inactive)
REMARK    1  A    between atoms: C2_2  and  N1_3 
REMARK    2  A    between atoms: C2_2  and  C3_7 
REMARK    3  A    between atoms: C3_7  and  C4_8 
REMARK    4  A    between atoms: C4_8  and  O1_9 
REMARK    5  A    between atoms: C9_15  and  C10_16 
ROOT
HETATM    1  C4  UNL     1     -21.236   0.803 -27.155  1.00  0.00     0.065 C 
HETATM    2  C5  UNL     1     -20.032   1.674 -27.438  1.00  0.00     0.047 C 
HETATM    3  C6  UNL     1     -20.050   1.153 -28.861  1.00  0.00    -0.038 C 
HETATM    4  C7  UNL     1     -18.682   0.663 -29.341  1.00  0.00     0.015 C 
HETATM    5  C8  UNL     1     -20.506   2.237 -29.771  1.00  0.00     0.015 C 
HETATM    6  C9  UNL     1     -20.907   0.070 -28.428  1.00  0.00     0.032 C 
ENDROOT
BRANCH   1   7
HETATM    7  C3  UNL     1     -21.088  -0.020 -25.893  1.00  0.00     0.070 C 
BRANCH   7   8
HETATM    8  C2  UNL     1     -20.724   0.855 -24.733  1.00  0.00     0.182 C 
HETATM    9  C1  UNL     1     -20.019   0.086 -23.633  1.00  0.00     0.039 C 
BRANCH   8  10
HETATM   10  N1  UNL     1     -21.861   1.518 -24.138  1.00  0.00    -0.075 N 
ATOM     11  H13 UNL     1     -22.693   0.929 -24.106  1.00  0.00     0.274 HD
ATOM     12  H12 UNL     1     -21.758   1.658 -23.134  1.00  0.00     0.274 HD
ATOM     13  H11 UNL     1     -22.008   2.388 -24.648  1.00  0.00     0.274 HD
ENDBRANCH   8  10
ENDBRANCH   7   8
ENDBRANCH   1   7
BRANCH   1  14
HETATM   14  O1  UNL     1     -22.451   1.468 -27.148  1.00  0.00    -0.389 OA
ATOM     15  H1  UNL     1     -22.990   1.155 -26.431  1.00  0.00     0.210 HD
ENDBRANCH   1  14
BRANCH   6  16
HETATM   16  C10 UNL     1     -22.025  -0.490 -29.204  1.00  0.00    -0.007 C 
HETATM   17  C11 UNL     1     -22.377  -1.842 -28.617  1.00  0.00     0.005 C 
HETATM   18  C12 UNL     1     -23.866  -2.039 -28.800  1.00  0.00     0.000 C 
HETATM   19  C13 UNL     1     -24.243  -1.555 -30.188  1.00  0.00     0.000 C 
HETATM   20  C14 UNL     1     -23.045  -1.593 -31.120  1.00  0.00     0.000 C 
HETATM   21  C15 UNL     1     -21.962  -0.603 -30.661  1.00  0.00     0.005 C 
ENDBRANCH   6  16
TORSDOF 5
ENDMDL
