MODEL 1
REMARK VINA RESULT: -7.389712516      0.000      0.000
REMARK  4 active torsions:
REMARK  status: ('A' for Active; 'I' for Inactive)
REMARK    1  A    between atoms: C2_2  and  C4_4 
REMARK    2  A    between atoms: C11_11  and  N1_12 
REMARK    3  A    between atoms: N1_12  and  C12_15 
REMARK    4  A    between atoms: C12_15  and  O1_16 
ROOT
HETATM    1  C4  UNL     1     -22.081   0.520 -24.742  1.00  0.00    -0.034 C 
HETATM    2  C5  UNL     1     -23.181  -0.139 -23.939  1.00  0.00     0.014 C 
HETATM    3  C6  UNL     1     -22.596  -0.784 -22.688  1.00  0.00    -0.011 C 
HETATM    4  C7  UNL     1     -21.955   0.294 -21.859  1.00  0.00     0.014 C 
HETATM    5  C8  UNL     1     -20.798   0.873 -22.646  1.00  0.00    -0.041 C 
HETATM    6  C9  UNL     1     -20.152   1.956 -21.811  1.00  0.00     0.015 C 
HETATM    7  C10 UNL     1     -19.829  -0.206 -23.042  1.00  0.00     0.048 C 
HETATM    8  C11 UNL     1     -20.519  -1.182 -23.945  1.00  0.00     0.130 C 
HETATM    9  C13 UNL     1     -21.624  -1.842 -23.126  1.00  0.00     0.043 C 
HETATM   10  C14 UNL     1     -21.125  -0.543 -25.172  1.00  0.00     0.049 C 
HETATM   11  C15 UNL     1     -21.322   1.521 -23.896  1.00  0.00     0.019 C 
ENDROOT
BRANCH   8  12
HETATM   12  N1  UNL     1     -19.676  -2.250 -24.405  1.00  0.00    -0.045 N 
ATOM     13  H12 UNL     1     -18.694  -1.986 -24.321  1.00  0.00     0.280 HD
ATOM     14  H11 UNL     1     -19.706  -3.031 -23.749  1.00  0.00     0.280 HD
BRANCH  12  15
HETATM   15  C12 UNL     1     -19.956  -2.706 -25.733  1.00  0.00     0.397 C 
BRANCH  15  16
HETATM   16  O1  UNL     1     -19.031  -3.724 -26.017  1.00  0.00    -0.375 OA
ATOM     17  H1  UNL     1     -19.149  -4.395 -25.354  1.00  0.00     0.211 HD
ENDBRANCH  15  16
ENDBRANCH  12  15
ENDBRANCH   8  12
BRANCH   1  18
HETATM   18  C2  UNL     1     -22.704   1.294 -25.864  1.00  0.00    -0.014 C 
HETATM   19  C1  UNL     1     -23.094   2.697 -25.493  1.00  0.00     0.010 C 
HETATM   20  C3  UNL     1     -21.895   1.267 -27.137  1.00  0.00     0.010 C 
ENDBRANCH   1  18
TORSDOF 4
ENDMDL
MODEL 2
REMARK VINA RESULT: -7.369459098      2.753      4.251
REMARK  4 active torsions:
REMARK  status: ('A' for Active; 'I' for Inactive)
REMARK    1  A    between atoms: C2_2  and  C4_4 
REMARK    2  A    between atoms: C11_11  and  N1_12 
REMARK    3  A    between atoms: N1_12  and  C12_15 
REMARK    4  A    between atoms: C12_15  and  O1_16 
ROOT
HETATM    1  C4  UNL     1     -20.937  -0.500 -24.694  1.00  0.00    -0.034 C 
HETATM    2  C5  UNL     1     -19.863   0.203 -23.892  1.00  0.00     0.014 C 
HETATM    3  C6  UNL     1     -20.479   0.855 -22.659  1.00  0.00    -0.011 C 
HETATM    4  C7  UNL     1     -21.100  -0.225 -21.817  1.00  0.00     0.014 C 
HETATM    5  C8  UNL     1     -22.233  -0.848 -22.606  1.00  0.00    -0.041 C 
HETATM    6  C9  UNL     1     -22.860  -1.932 -21.758  1.00  0.00     0.015 C 
HETATM    7  C10 UNL     1     -23.225   0.198 -23.032  1.00  0.00     0.048 C 
HETATM    8  C11 UNL     1     -22.551   1.174 -23.946  1.00  0.00     0.130 C 
HETATM    9  C13 UNL     1     -21.473   1.878 -23.128  1.00  0.00     0.043 C 
HETATM   10  C14 UNL     1     -21.915   0.529 -25.155  1.00  0.00     0.049 C 
HETATM   11  C15 UNL     1     -21.679  -1.505 -23.838  1.00  0.00     0.019 C 
ENDROOT
BRANCH   8  12
HETATM   12  N1  UNL     1     -23.417   2.211 -24.435  1.00  0.00    -0.045 N 
ATOM     13  H12 UNL     1     -24.392   1.921 -24.364  1.00  0.00     0.280 HD
ATOM     14  H11 UNL     1     -23.421   3.002 -23.790  1.00  0.00     0.280 HD
BRANCH  12  15
HETATM   15  C12 UNL     1     -23.127   2.658 -25.765  1.00  0.00     0.397 C 
BRANCH  15  16
HETATM   16  O1  UNL     1     -23.916   3.797 -25.992  1.00  0.00    -0.375 OA
ATOM     17  H1  UNL     1     -23.491   4.292 -26.682  1.00  0.00     0.211 HD
ENDBRANCH  15  16
ENDBRANCH  12  15
ENDBRANCH   8  12
BRANCH   1  18
HETATM   18  C2  UNL     1     -20.281  -1.277 -25.795  1.00  0.00    -0.014 C 
HETATM   19  C1  UNL     1     -19.914  -2.684 -25.413  1.00  0.00     0.010 C 
HETATM   20  C3  UNL     1     -21.045  -1.244 -27.095  1.00  0.00     0.010 C 
ENDBRANCH   1  18
TORSDOF 4
ENDMDL
MODEL 3
REMARK VINA RESULT: -6.715539868      2.066      2.747
REMARK  4 active torsions:
REMARK  status: ('A' for Active; 'I' for Inactive)
REMARK    1  A    between atoms: C2_2  and  C4_4 
REMARK    2  A    between atoms: C11_11  and  N1_12 
REMARK    3  A    between atoms: N1_12  and  C12_15 
REMARK    4  A    between atoms: C12_15  and  O1_16 
ROOT
HETATM    1  C4  UNL     1     -21.398   0.365 -25.415  1.00  0.00    -0.034 C 
HETATM    2  C5  UNL     1     -22.738   1.068 -25.382  1.00  0.00     0.014 C 
HETATM    3  C6  UNL     1     -23.238   1.164 -23.945  1.00  0.00    -0.011 C 
HETATM    4  C7  UNL     1     -22.240   1.962 -23.152  1.00  0.00     0.014 C 
HETATM    5  C8  UNL     1     -20.936   1.193 -23.120  1.00  0.00    -0.041 C 
HETATM    6  C9  UNL     1     -19.933   1.994 -22.321  1.00  0.00     0.015 C 
HETATM    7  C10 UNL     1     -21.145  -0.189 -22.566  1.00  0.00     0.048 C 
HETATM    8  C11 UNL     1     -22.070  -0.947 -23.466  1.00  0.00     0.130 C 
HETATM    9  C13 UNL     1     -23.417  -0.233 -23.424  1.00  0.00     0.043 C 
HETATM   10  C14 UNL     1     -21.593  -1.022 -24.897  1.00  0.00     0.049 C 
HETATM   11  C15 UNL     1     -20.399   1.066 -24.518  1.00  0.00     0.019 C 
ENDROOT
BRANCH   8  12
HETATM   12  N1  UNL     1     -22.324  -2.296 -23.042  1.00  0.00    -0.045 N 
ATOM     13  H12 UNL     1     -23.310  -2.528 -23.171  1.00  0.00     0.280 HD
ATOM     14  H11 UNL     1     -21.900  -2.957 -23.692  1.00  0.00     0.280 HD
BRANCH  12  15
HETATM   15  C12 UNL     1     -21.917  -2.590 -21.700  1.00  0.00     0.397 C 
BRANCH  15  16
HETATM   16  O1  UNL     1     -23.091  -2.739 -20.943  1.00  0.00    -0.375 OA
ATOM     17  H1  UNL     1     -23.108  -2.024 -20.318  1.00  0.00     0.211 HD
ENDBRANCH  15  16
ENDBRANCH  12  15
ENDBRANCH   8  12
BRANCH   1  18
HETATM   18  C2  UNL     1     -20.850   0.443 -26.808  1.00  0.00    -0.014 C 
HETATM   19  C1  UNL     1     -20.736  -0.889 -27.493  1.00  0.00     0.010 C 
HETATM   20  C3  UNL     1     -21.562   1.449 -27.679  1.00  0.00     0.010 C 
ENDBRANCH   1  18
TORSDOF 4
ENDMDL
MODEL 4
REMARK VINA RESULT: -6.713501220      2.579      3.826
REMARK  4 active torsions:
REMARK  status: ('A' for Active; 'I' for Inactive)
REMARK    1  A    between atoms: C2_2  and  C4_4 
REMARK    2  A    between atoms: C11_11  and  N1_12 
REMARK    3  A    between atoms: N1_12  and  C12_15 
REMARK    4  A    between atoms: C12_15  and  O1_16 
ROOT
HETATM    1  C4  UNL     1     -21.647  -0.360 -25.413  1.00  0.00    -0.034 C 
HETATM    2  C5  UNL     1     -20.301  -1.050 -25.370  1.00  0.00     0.014 C 
HETATM    3  C6  UNL     1     -19.810  -1.141 -23.929  1.00  0.00    -0.011 C 
HETATM    4  C7  UNL     1     -20.807  -1.948 -23.144  1.00  0.00     0.014 C 
HETATM    5  C8  UNL     1     -22.118  -1.190 -23.121  1.00  0.00    -0.041 C 
HETATM    6  C9  UNL     1     -23.119  -2.001 -22.329  1.00  0.00     0.015 C 
HETATM    7  C10 UNL     1     -21.926   0.193 -22.566  1.00  0.00     0.048 C 
HETATM    8  C11 UNL     1     -21.001   0.960 -23.460  1.00  0.00     0.130 C 
HETATM    9  C13 UNL     1     -19.648   0.258 -23.408  1.00  0.00     0.043 C 
HETATM   10  C14 UNL     1     -21.469   1.029 -24.895  1.00  0.00     0.049 C 
HETATM   11  C15 UNL     1     -22.646  -1.069 -24.523  1.00  0.00     0.019 C 
ENDROOT
BRANCH   8  12
HETATM   12  N1  UNL     1     -20.763   2.311 -23.035  1.00  0.00    -0.045 N 
ATOM     13  H12 UNL     1     -19.785   2.561 -23.185  1.00  0.00     0.280 HD
ATOM     14  H11 UNL     1     -21.214   2.967 -23.671  1.00  0.00     0.280 HD
BRANCH  12  15
HETATM   15  C12 UNL     1     -21.144   2.590 -21.682  1.00  0.00     0.397 C 
BRANCH  15  16
HETATM   16  O1  UNL     1     -19.956   2.748 -20.950  1.00  0.00    -0.375 OA
ATOM     17  H1  UNL     1     -19.345   3.208 -21.513  1.00  0.00     0.211 HD
ENDBRANCH  15  16
ENDBRANCH  12  15
ENDBRANCH   8  12
BRANCH   1  18
HETATM   18  C2  UNL     1     -22.183  -0.444 -26.810  1.00  0.00    -0.014 C 
HETATM   19  C1  UNL     1     -22.296   0.887 -27.501  1.00  0.00     0.010 C 
HETATM   20  C3  UNL     1     -21.463  -1.450 -27.672  1.00  0.00     0.010 C 
ENDBRANCH   1  18
TORSDOF 4
ENDMDL
MODEL 5
REMARK VINA RESULT: -6.683146012      2.901      4.556
REMARK  4 active torsions:
REMARK  status: ('A' for Active; 'I' for Inactive)
REMARK    1  A    between atoms: C2_2  and  C4_4 
REMARK    2  A    between atoms: C11_11  and  N1_12 
REMARK    3  A    between atoms: N1_12  and  C12_15 
REMARK    4  A    between atoms: C12_15  and  O1_16 
ROOT
HETATM    1  C4  UNL     1     -22.128  -0.598 -22.931  1.00  0.00    -0.034 C 
HETATM    2  C5  UNL     1     -21.113  -0.931 -24.003  1.00  0.00     0.014 C 
HETATM    3  C6  UNL     1     -20.455   0.347 -24.510  1.00  0.00    -0.011 C 
HETATM    4  C7  UNL     1     -19.756   1.007 -23.354  1.00  0.00     0.014 C 
HETATM    5  C8  UNL     1     -20.802   1.416 -22.338  1.00  0.00    -0.041 C 
HETATM    6  C9  UNL     1     -20.099   2.081 -21.176  1.00  0.00     0.015 C 
HETATM    7  C10 UNL     1     -21.840   2.301 -22.968  1.00  0.00     0.048 C 
HETATM    8  C11 UNL     1     -22.556   1.537 -24.039  1.00  0.00     0.130 C 
HETATM    9  C13 UNL     1     -21.526   1.209 -25.115  1.00  0.00     0.043 C 
HETATM   10  C14 UNL     1     -23.186   0.255 -23.548  1.00  0.00     0.049 C 
HETATM   11  C15 UNL     1     -21.486   0.188 -21.806  1.00  0.00     0.019 C 
ENDROOT
BRANCH   8  12
HETATM   12  N1  UNL     1     -23.591   2.284 -24.698  1.00  0.00    -0.045 N 
ATOM     13  H12 UNL     1     -24.435   1.717 -24.786  1.00  0.00     0.280 HD
ATOM     14  H11 UNL     1     -23.938   3.023 -24.086  1.00  0.00     0.280 HD
BRANCH  12  15
HETATM   15  C12 UNL     1     -23.223   2.826 -25.972  1.00  0.00     0.397 C 
BRANCH  15  16
HETATM   16  O1  UNL     1     -24.076   3.916 -26.212  1.00  0.00    -0.375 OA
ATOM     17  H1  UNL     1     -24.272   3.911 -27.141  1.00  0.00     0.211 HD
ENDBRANCH  15  16
ENDBRANCH  12  15
ENDBRANCH   8  12
BRANCH   1  18
HETATM   18  C2  UNL     1     -22.626  -1.877 -22.329  1.00  0.00    -0.014 C 
HETATM   19  C1  UNL     1     -21.682  -3.035 -22.492  1.00  0.00     0.010 C 
HETATM   20  C3  UNL     1     -23.076  -1.733 -20.896  1.00  0.00     0.010 C 
ENDBRANCH   1  18
TORSDOF 4
ENDMDL
