MODEL 1
REMARK VINA RESULT: -8.030964938      0.000      0.000
REMARK  4 active torsions:
REMARK  status: ('A' for Active; 'I' for Inactive)
REMARK    1  A    between atoms: O1_1  and  N1_3 
REMARK    2  A    between atoms: C1_5  and  C2_6 
REMARK    3  A    between atoms: C1_5  and  C13_18 
REMARK    4  A    between atoms: C2_6  and  C3_7 
ROOT
HETATM    1  C2  UNL     1     -22.371   1.464 -26.799  1.00  0.00     0.069 C 
ENDROOT
BRANCH   1   2
HETATM    2  C1  UNL     1     -22.075   0.896 -28.113  1.00  0.00     0.044 C 
HETATM    3  N1  UNL     1     -22.905   0.159 -28.709  1.00  0.00    -0.273 N 
ATOM      4  H1  UNL     1     -23.766   0.017 -28.181  1.00  0.00     0.194 HD
BRANCH   3   5
HETATM    5  O1  UNL     1     -22.899  -0.470 -29.875  1.00  0.00    -0.290 OA
ATOM      6  H1  UNL     1     -23.569  -0.901 -30.392  1.00  0.00     0.244 HD
ENDBRANCH   3   5
BRANCH   2   7
HETATM    7  C13 UNL     1     -20.790   1.194 -28.729  1.00  0.00     0.005 A 
HETATM    8  C14 UNL     1     -19.728   0.372 -28.963  1.00  0.00     0.032 A 
HETATM    9  C15 UNL     1     -18.700   1.101 -29.583  1.00  0.00     0.088 A 
HETATM   10  N2  UNL     1     -19.154   2.349 -29.714  1.00  0.00    -0.374 N 
HETATM   11  C16 UNL     1     -20.391   2.446 -29.220  1.00  0.00     0.101 A 
ATOM     12  H2  UNL     1     -18.632   3.119 -30.132  1.00  0.00     0.164 HD
ENDBRANCH   2   7
ENDBRANCH   1   2
BRANCH   1  13
HETATM   13  C3  UNL     1     -21.989   0.670 -25.594  1.00  0.00    -0.031 C 
HETATM   14  C4  UNL     1     -22.403  -0.771 -25.620  1.00  0.00     0.014 C 
HETATM   15  C5  UNL     1     -22.158  -1.393 -24.256  1.00  0.00    -0.010 C 
HETATM   16  C6  UNL     1     -22.947  -0.747 -23.163  1.00  0.00     0.009 C 
HETATM   17  C10 UNL     1     -20.686  -1.320 -23.921  1.00  0.00     0.048 C 
HETATM   18  C7  UNL     1     -22.541   0.713 -23.124  1.00  0.00    -0.010 C 
HETATM   19  C8  UNL     1     -21.066   0.848 -22.808  1.00  0.00     0.048 C 
HETATM   20  C12 UNL     1     -22.808   1.316 -24.452  1.00  0.00     0.014 C 
HETATM   21  C9  UNL     1     -20.305   0.137 -23.894  1.00  0.00     0.105 C 
HETATM   22  F1  UNL     1     -18.940   0.190 -23.618  1.00  0.00    -0.243 F 
HETATM   23  C11 UNL     1     -20.528   0.762 -25.240  1.00  0.00     0.053 C 
ENDBRANCH   1  13
TORSDOF 4
ENDMDL
MODEL 2
REMARK VINA RESULT: -8.014813317      2.252      3.651
REMARK  4 active torsions:
REMARK  status: ('A' for Active; 'I' for Inactive)
REMARK    1  A    between atoms: O1_1  and  N1_3 
REMARK    2  A    between atoms: C1_5  and  C2_6 
REMARK    3  A    between atoms: C1_5  and  C13_18 
REMARK    4  A    between atoms: C2_6  and  C3_7 
ROOT
HETATM    1  C2  UNL     1     -20.854  -1.429 -26.805  1.00  0.00     0.069 C 
ENDROOT
BRANCH   1   2
HETATM    2  C1  UNL     1     -21.163  -0.840 -28.106  1.00  0.00     0.044 C 
HETATM    3  N1  UNL     1     -20.356  -0.059 -28.678  1.00  0.00    -0.273 N 
ATOM      4  H1  UNL     1     -19.504   0.101 -28.141  1.00  0.00     0.194 HD
BRANCH   3   5
HETATM    5  O1  UNL     1     -20.379   0.599 -29.828  1.00  0.00    -0.290 OA
ATOM      6  H1  UNL     1     -19.704   0.910 -30.420  1.00  0.00     0.244 HD
ENDBRANCH   3   5
BRANCH   2   7
HETATM    7  C13 UNL     1     -22.433  -1.167 -28.737  1.00  0.00     0.005 A 
HETATM    8  C14 UNL     1     -23.516  -0.373 -28.973  1.00  0.00     0.032 A 
HETATM    9  C15 UNL     1     -24.517  -1.124 -29.609  1.00  0.00     0.088 A 
HETATM   10  N2  UNL     1     -24.027  -2.358 -29.749  1.00  0.00    -0.374 N 
HETATM   11  C16 UNL     1     -22.792  -2.424 -29.244  1.00  0.00     0.101 A 
ATOM     12  H2  UNL     1     -24.523  -3.138 -30.179  1.00  0.00     0.164 HD
ENDBRANCH   2   7
ENDBRANCH   1   2
BRANCH   1  13
HETATM   13  C3  UNL     1     -21.228  -0.658 -25.583  1.00  0.00    -0.031 C 
HETATM   14  C4  UNL     1     -20.807   0.780 -25.579  1.00  0.00     0.014 C 
HETATM   15  C5  UNL     1     -21.045   1.376 -24.203  1.00  0.00    -0.010 C 
HETATM   16  C6  UNL     1     -20.258   0.704 -23.125  1.00  0.00     0.009 C 
HETATM   17  C10 UNL     1     -22.517   1.304 -23.866  1.00  0.00     0.048 C 
HETATM   18  C7  UNL     1     -20.671  -0.755 -23.115  1.00  0.00    -0.010 C 
HETATM   19  C8  UNL     1     -22.147  -0.888 -22.798  1.00  0.00     0.048 C 
HETATM   20  C12 UNL     1     -20.411  -1.332 -24.456  1.00  0.00     0.014 C 
HETATM   21  C9  UNL     1     -22.906  -0.151 -23.868  1.00  0.00     0.105 C 
HETATM   22  F1  UNL     1     -24.271  -0.203 -23.589  1.00  0.00    -0.243 F 
HETATM   23  C11 UNL     1     -22.690  -0.749 -25.227  1.00  0.00     0.053 C 
ENDBRANCH   1  13
TORSDOF 4
ENDMDL
MODEL 3
REMARK VINA RESULT: -7.848318811      1.033      1.494
REMARK  4 active torsions:
REMARK  status: ('A' for Active; 'I' for Inactive)
REMARK    1  A    between atoms: O1_1  and  N1_3 
REMARK    2  A    between atoms: C1_5  and  C2_6 
REMARK    3  A    between atoms: C1_5  and  C13_18 
REMARK    4  A    between atoms: C2_6  and  C3_7 
ROOT
HETATM    1  C2  UNL     1     -22.242   1.240 -26.525  1.00  0.00     0.069 C 
ENDROOT
BRANCH   1   2
HETATM    2  C1  UNL     1     -22.032   0.730 -27.878  1.00  0.00     0.044 C 
HETATM    3  N1  UNL     1     -22.870  -0.035 -28.426  1.00  0.00    -0.273 N 
ATOM      4  H1  UNL     1     -23.672  -0.242 -27.832  1.00  0.00     0.194 HD
BRANCH   3   5
HETATM    5  O1  UNL     1     -22.931  -0.629 -29.609  1.00  0.00    -0.290 OA
ATOM      6  H1  UNL     1     -23.341  -1.426 -29.923  1.00  0.00     0.244 HD
ENDBRANCH   3   5
BRANCH   2   7
HETATM    7  C13 UNL     1     -20.823   1.118 -28.592  1.00  0.00     0.005 A 
HETATM    8  C14 UNL     1     -19.737   0.369 -28.931  1.00  0.00     0.032 A 
HETATM    9  C15 UNL     1     -18.810   1.172 -29.616  1.00  0.00     0.088 A 
HETATM   10  N2  UNL     1     -19.349   2.391 -29.682  1.00  0.00    -0.374 N 
HETATM   11  C16 UNL     1     -20.545   2.401 -29.085  1.00  0.00     0.101 A 
ATOM     12  H2  UNL     1     -18.912   3.200 -30.123  1.00  0.00     0.164 HD
ENDBRANCH   2   7
ENDBRANCH   1   2
BRANCH   1  13
HETATM   13  C3  UNL     1     -21.859   0.363 -25.381  1.00  0.00    -0.031 C 
HETATM   14  C4  UNL     1     -22.962   0.053 -24.415  1.00  0.00     0.014 C 
HETATM   15  C5  UNL     1     -22.387  -0.648 -23.196  1.00  0.00    -0.010 C 
HETATM   16  C6  UNL     1     -21.395   0.184 -22.450  1.00  0.00     0.009 C 
HETATM   17  C10 UNL     1     -21.736  -1.946 -23.616  1.00  0.00     0.048 C 
HETATM   18  C7  UNL     1     -20.271   0.508 -23.415  1.00  0.00    -0.010 C 
HETATM   19  C8  UNL     1     -19.590  -0.761 -23.884  1.00  0.00     0.048 C 
HETATM   20  C12 UNL     1     -20.840   1.214 -24.587  1.00  0.00     0.014 C 
HETATM   21  C9  UNL     1     -20.629  -1.600 -24.577  1.00  0.00     0.105 C 
HETATM   22  F1  UNL     1     -20.058  -2.805 -24.983  1.00  0.00    -0.243 F 
HETATM   23  C11 UNL     1     -21.184  -0.920 -25.793  1.00  0.00     0.053 C 
ENDBRANCH   1  13
TORSDOF 4
ENDMDL
MODEL 4
REMARK VINA RESULT: -7.841780142      2.195      3.483
REMARK  4 active torsions:
REMARK  status: ('A' for Active; 'I' for Inactive)
REMARK    1  A    between atoms: O1_1  and  N1_3 
REMARK    2  A    between atoms: C1_5  and  C2_6 
REMARK    3  A    between atoms: C1_5  and  C13_18 
REMARK    4  A    between atoms: C2_6  and  C3_7 
ROOT
HETATM    1  C2  UNL     1     -20.979  -1.232 -26.516  1.00  0.00     0.069 C 
ENDROOT
BRANCH   1   2
HETATM    2  C1  UNL     1     -21.185  -0.724 -27.871  1.00  0.00     0.044 C 
HETATM    3  N1  UNL     1     -20.347   0.041 -28.418  1.00  0.00    -0.273 N 
ATOM      4  H1  UNL     1     -19.546   0.249 -27.821  1.00  0.00     0.194 HD
BRANCH   3   5
HETATM    5  O1  UNL     1     -20.283   0.633 -29.601  1.00  0.00    -0.290 OA
ATOM      6  H1  UNL     1     -20.798   0.567 -30.397  1.00  0.00     0.244 HD
ENDBRANCH   3   5
BRANCH   2   7
HETATM    7  C13 UNL     1     -22.392  -1.114 -28.587  1.00  0.00     0.005 A 
HETATM    8  C14 UNL     1     -23.479  -0.366 -28.928  1.00  0.00     0.032 A 
HETATM    9  C15 UNL     1     -24.403  -1.171 -29.616  1.00  0.00     0.088 A 
HETATM   10  N2  UNL     1     -23.862  -2.390 -29.680  1.00  0.00    -0.374 N 
HETATM   11  C16 UNL     1     -22.668  -2.398 -29.081  1.00  0.00     0.101 A 
ATOM     12  H2  UNL     1     -24.297  -3.199 -30.122  1.00  0.00     0.164 HD
ENDBRANCH   2   7
ENDBRANCH   1   2
BRANCH   1  13
HETATM   13  C3  UNL     1     -21.362  -0.352 -25.374  1.00  0.00    -0.031 C 
HETATM   14  C4  UNL     1     -20.262  -0.048 -24.403  1.00  0.00     0.014 C 
HETATM   15  C5  UNL     1     -20.838   0.657 -23.188  1.00  0.00    -0.010 C 
HETATM   16  C6  UNL     1     -21.839  -0.169 -22.445  1.00  0.00     0.009 C 
HETATM   17  C10 UNL     1     -21.480   1.958 -23.612  1.00  0.00     0.048 C 
HETATM   18  C7  UNL     1     -22.960  -0.487 -23.416  1.00  0.00    -0.010 C 
HETATM   19  C8  UNL     1     -23.632   0.786 -23.889  1.00  0.00     0.048 C 
HETATM   20  C12 UNL     1     -22.390  -1.197 -24.585  1.00  0.00     0.014 C 
HETATM   21  C9  UNL     1     -22.585   1.619 -24.577  1.00  0.00     0.105 C 
HETATM   22  F1  UNL     1     -23.146   2.827 -24.987  1.00  0.00    -0.243 F 
HETATM   23  C11 UNL     1     -22.027   0.934 -25.791  1.00  0.00     0.053 C 
ENDBRANCH   1  13
TORSDOF 4
ENDMDL
MODEL 5
REMARK VINA RESULT: -7.837686240      1.589      2.552
REMARK  4 active torsions:
REMARK  status: ('A' for Active; 'I' for Inactive)
REMARK    1  A    between atoms: O1_1  and  N1_3 
REMARK    2  A    between atoms: C1_5  and  C2_6 
REMARK    3  A    between atoms: C1_5  and  C13_18 
REMARK    4  A    between atoms: C2_6  and  C3_7 
ROOT
HETATM    1  C2  UNL     1     -22.478   1.275 -26.681  1.00  0.00     0.069 C 
ENDROOT
BRANCH   1   2
HETATM    2  C1  UNL     1     -21.961   0.810 -27.966  1.00  0.00     0.044 C 
HETATM    3  N1  UNL     1     -21.022   1.412 -28.550  1.00  0.00    -0.273 N 
ATOM      4  H1  UNL     1     -20.686   2.226 -28.036  1.00  0.00     0.194 HD
BRANCH   3   5
HETATM    5  O1  UNL     1     -20.376   1.215 -29.691  1.00  0.00    -0.290 OA
ATOM      6  H1  UNL     1     -19.719   1.709 -30.167  1.00  0.00     0.244 HD
ENDBRANCH   3   5
BRANCH   2   7
HETATM    7  C13 UNL     1     -22.559  -0.371 -28.574  1.00  0.00     0.005 A 
HETATM    8  C14 UNL     1     -23.759  -0.509 -29.206  1.00  0.00     0.032 A 
HETATM    9  C15 UNL     1     -23.912  -1.839 -29.632  1.00  0.00     0.088 A 
HETATM   10  N2  UNL     1     -22.806  -2.483 -29.253  1.00  0.00    -0.374 N 
HETATM   11  C16 UNL     1     -21.977  -1.646 -28.622  1.00  0.00     0.101 A 
ATOM     12  H2  UNL     1     -22.620  -3.471 -29.420  1.00  0.00     0.164 HD
ENDBRANCH   2   7
ENDBRANCH   1   2
BRANCH   1  13
HETATM   13  C3  UNL     1     -22.046   0.547 -25.451  1.00  0.00    -0.031 C 
HETATM   14  C4  UNL     1     -22.569  -0.852 -25.318  1.00  0.00     0.014 C 
HETATM   15  C5  UNL     1     -22.245  -1.385 -23.934  1.00  0.00    -0.010 C 
HETATM   16  C6  UNL     1     -22.876  -0.593 -22.834  1.00  0.00     0.009 C 
HETATM   17  C10 UNL     1     -20.747  -1.410 -23.736  1.00  0.00     0.048 C 
HETATM   18  C7  UNL     1     -22.358   0.827 -22.955  1.00  0.00    -0.010 C 
HETATM   19  C8  UNL     1     -20.854   0.861 -22.781  1.00  0.00     0.048 C 
HETATM   20  C12 UNL     1     -22.702   1.345 -24.300  1.00  0.00     0.014 C 
HETATM   21  C9  UNL     1     -20.255   0.008 -23.866  1.00  0.00     0.105 C 
HETATM   22  F1  UNL     1     -18.870  -0.032 -23.716  1.00  0.00    -0.243 F 
HETATM   23  C11 UNL     1     -20.555   0.543 -25.235  1.00  0.00     0.053 C 
ENDBRANCH   1  13
TORSDOF 4
ENDMDL
