MODEL 1
REMARK VINA RESULT: -9.942096511      0.000      0.000
REMARK  8 active torsions:
REMARK  status: ('A' for Active; 'I' for Inactive)
REMARK    1  A    between atoms: C1_2  and  C2_4 
REMARK    2  A    between atoms: C5_7  and  N2_8 
REMARK       I    between atoms: N2_8  and  C6_10 
REMARK       I    between atoms: C6_10  and  N3_12 
REMARK    3  A    between atoms: N3_12  and  C7_14 
REMARK    4  A    between atoms: C9_16  and  N4_17 
REMARK    5  A    between atoms: C12_23  and  N5_24 
REMARK    6  A    between atoms: N5_24  and  C13_26 
REMARK    7  A    between atoms: C16_32  and  N7_33 
REMARK    8  A    between atoms: N7_33  and  C17_35 
ROOT
HETATM    1  C7  UNL     1     -14.817  17.385 -48.376  1.00  0.00     0.111 C 
HETATM    2  C8  UNL     1     -14.351  18.264 -47.235  1.00  0.00     0.060 C 
HETATM    3  C9  UNL     1     -15.498  18.889 -46.495  1.00  0.00     0.185 C 
HETATM    4  C10 UNL     1     -16.497  19.547 -47.386  1.00  0.00     0.035 C 
HETATM    5  C11 UNL     1     -15.943  19.569 -48.802  1.00  0.00     0.030 C 
HETATM    6  C12 UNL     1     -15.839  18.110 -49.245  1.00  0.00     0.122 C 
ENDROOT
BRANCH   6   7
HETATM    7  N5  UNL     1     -17.143  17.541 -49.117  1.00  0.00    -0.219 N 
ATOM      8  H5  UNL     1     -17.396  17.066 -48.250  1.00  0.00     0.178 HD
BRANCH   7   9
HETATM    9  C13 UNL     1     -18.005  17.614 -50.067  1.00  0.00     0.679 A 
HETATM   10  N6  UNL     1     -18.059  16.787 -51.123  1.00  0.00    -0.200 N 
HETATM   11  C14 UNL     1     -18.992  16.898 -52.108  1.00  0.00     0.133 A 
ATOM     12  H6  UNL     1     -17.368  16.039 -51.190  1.00  0.00     0.183 HD
HETATM   13  C15 UNL     1     -19.938  17.894 -52.049  1.00  0.00     0.094 A 
HETATM   14 CL1  UNL     1     -21.151  18.054 -53.309  1.00  0.00    -0.079 Cl
HETATM   15  C16 UNL     1     -19.895  18.750 -50.970  1.00  0.00     0.140 A 
HETATM   16  N8  UNL     1     -18.960  18.601 -50.028  1.00  0.00    -0.175 N 
ATOM     17  H8  UNL     1     -18.955  19.252 -49.242  1.00  0.00     0.186 HD
BRANCH  15  18
HETATM   18  N7  UNL     1     -20.781  19.671 -50.924  1.00  0.00    -0.370 N 
ATOM     19  H7  UNL     1     -20.613  20.491 -51.508  1.00  0.00     0.161 HD
BRANCH  18  20
HETATM   20  C17 UNL     1     -21.977  19.680 -50.145  1.00  0.00     0.083 A 
HETATM   21  C18 UNL     1     -23.310  19.873 -50.761  1.00  0.00     0.027 A 
HETATM   22  C19 UNL     1     -22.677  21.054 -50.124  1.00  0.00     0.027 A 
ENDBRANCH  18  20
ENDBRANCH  15  18
ENDBRANCH   7   9
ENDBRANCH   6   7
BRANCH   1  23
HETATM   23  N3  UNL     1     -13.621  17.095 -49.169  1.00  0.00    -0.336 N 
HETATM   24  C6  UNL     1     -12.337  17.478 -48.729  1.00  0.00     0.316 C 
HETATM   25  N2  UNL     1     -11.199  17.191 -49.502  1.00  0.00    -0.339 N 
HETATM   26  O2  UNL     1     -12.223  18.078 -47.641  1.00  0.00    -0.247 OA
ATOM     27  H2  UNL     1     -11.294  16.700 -50.392  1.00  0.00     0.164 HD
ATOM     28  H3  UNL     1     -13.718  16.605 -50.059  1.00  0.00     0.164 HD
BRANCH  25  29
HETATM   29  C5  UNL     1      -9.899  17.593 -49.032  1.00  0.00     0.086 C 
HETATM   30  C4  UNL     1      -9.048  16.352 -48.933  1.00  0.00     0.026 C 
HETATM   31  C3  UNL     1      -7.608  16.778 -49.053  1.00  0.00     0.015 C 
HETATM   32  C2  UNL     1      -7.386  17.148 -50.510  1.00  0.00     0.075 C 
HETATM   33  C21 UNL     1      -8.354  18.204 -50.920  1.00  0.00     0.015 C 
HETATM   34  C20 UNL     1      -9.282  18.672 -49.867  1.00  0.00     0.026 C 
BRANCH  32  35
HETATM   35  C1  UNL     1      -5.978  17.496 -50.752  1.00  0.00     0.235 C 
HETATM   36  N1  UNL     1      -5.566  17.798 -52.078  1.00  0.00    -0.062 NA
HETATM   37  O1  UNL     1      -5.180  17.515 -49.783  1.00  0.00    -0.277 OA
ENDBRANCH  32  35
ENDBRANCH  25  29
ENDBRANCH   1  23
BRANCH   3  38
HETATM   38  N4  UNL     1     -16.138  17.877 -45.662  1.00  0.00    -0.075 N 
ATOM     39  H43 UNL     1     -15.785  16.939 -45.852  1.00  0.00     0.274 HD
ATOM     40  H42 UNL     1     -15.853  17.944 -44.685  1.00  0.00     0.274 HD
ATOM     41  H41 UNL     1     -17.150  17.941 -45.776  1.00  0.00     0.274 HD
ENDBRANCH   3  38
TORSDOF 8
ENDMDL
MODEL 2
REMARK VINA RESULT: -9.616475193      4.738      7.326
REMARK  8 active torsions:
REMARK  status: ('A' for Active; 'I' for Inactive)
REMARK    1  A    between atoms: C1_2  and  C2_4 
REMARK    2  A    between atoms: C5_7  and  N2_8 
REMARK       I    between atoms: N2_8  and  C6_10 
REMARK       I    between atoms: C6_10  and  N3_12 
REMARK    3  A    between atoms: N3_12  and  C7_14 
REMARK    4  A    between atoms: C9_16  and  N4_17 
REMARK    5  A    between atoms: C12_23  and  N5_24 
REMARK    6  A    between atoms: N5_24  and  C13_26 
REMARK    7  A    between atoms: C16_32  and  N7_33 
REMARK    8  A    between atoms: N7_33  and  C17_35 
ROOT
HETATM    1  C7  UNL     1      -9.776  16.709 -50.174  1.00  0.00     0.111 C 
HETATM    2  C8  UNL     1      -8.384  16.772 -50.768  1.00  0.00     0.060 C 
HETATM    3  C9  UNL     1      -7.448  17.597 -49.933  1.00  0.00     0.185 C 
HETATM    4  C10 UNL     1      -7.999  18.932 -49.560  1.00  0.00     0.035 C 
HETATM    5  C11 UNL     1      -9.296  19.151 -50.321  1.00  0.00     0.030 C 
HETATM    6  C12 UNL     1     -10.279  18.100 -49.808  1.00  0.00     0.122 C 
ENDROOT
BRANCH   6   7
HETATM    7  N5  UNL     1     -10.375  18.275 -48.393  1.00  0.00    -0.219 N 
ATOM      8  H5  UNL     1      -9.521  18.404 -47.848  1.00  0.00     0.178 HD
BRANCH   7   9
HETATM    9  C13 UNL     1     -11.509  18.275 -47.789  1.00  0.00     0.679 A 
HETATM   10  N6  UNL     1     -11.689  17.996 -46.488  1.00  0.00    -0.200 N 
HETATM   11  C14 UNL     1     -12.910  18.009 -45.888  1.00  0.00     0.133 A 
ATOM     12  H6  UNL     1     -10.871  17.765 -45.923  1.00  0.00     0.183 HD
HETATM   13  C15 UNL     1     -14.033  18.317 -46.619  1.00  0.00     0.094 A 
HETATM   14 CL1  UNL     1     -15.617  18.340 -45.862  1.00  0.00    -0.079 Cl
HETATM   15  C16 UNL     1     -13.863  18.605 -47.955  1.00  0.00     0.140 A 
HETATM   16  N8  UNL     1     -12.644  18.580 -48.501  1.00  0.00    -0.175 N 
ATOM     17  H8  UNL     1     -12.552  18.798 -49.493  1.00  0.00     0.186 HD
BRANCH  15  18
HETATM   18  N7  UNL     1     -14.913  18.892 -48.626  1.00  0.00    -0.370 N 
ATOM     19  H7  UNL     1     -15.135  19.883 -48.719  1.00  0.00     0.161 HD
BRANCH  18  20
HETATM   20  C17 UNL     1     -15.810  17.978 -49.258  1.00  0.00     0.083 A 
HETATM   21  C18 UNL     1     -16.768  18.416 -50.298  1.00  0.00     0.027 A 
HETATM   22  C19 UNL     1     -17.290  18.248 -48.919  1.00  0.00     0.027 A 
ENDBRANCH  18  20
ENDBRANCH  15  18
ENDBRANCH   7   9
ENDBRANCH   6   7
BRANCH   1  23
HETATM   23  N3  UNL     1     -10.629  16.140 -51.219  1.00  0.00    -0.336 N 
HETATM   24  C6  UNL     1     -10.490  16.522 -52.569  1.00  0.00     0.316 C 
HETATM   25  N2  UNL     1     -11.317  15.967 -53.560  1.00  0.00    -0.339 N 
HETATM   26  O2  UNL     1      -9.621  17.363 -52.875  1.00  0.00    -0.247 OA
ATOM     27  H2  UNL     1     -12.028  15.279 -53.308  1.00  0.00     0.164 HD
ATOM     28  H3  UNL     1     -11.340  15.454 -50.965  1.00  0.00     0.164 HD
BRANCH  25  29
HETATM   29  C5  UNL     1     -11.157  16.373 -54.932  1.00  0.00     0.086 C 
HETATM   30  C4  UNL     1      -9.683  16.332 -55.249  1.00  0.00     0.026 C 
HETATM   31  C3  UNL     1      -9.544  16.143 -56.738  1.00  0.00     0.015 C 
HETATM   32  C2  UNL     1      -9.929  14.702 -57.029  1.00  0.00     0.075 C 
HETATM   33  C21 UNL     1     -11.303  14.429 -56.521  1.00  0.00     0.015 C 
HETATM   34  C20 UNL     1     -11.993  15.572 -55.882  1.00  0.00     0.026 C 
BRANCH  32  35
HETATM   35  C1  UNL     1      -9.740  14.388 -58.453  1.00  0.00     0.235 C 
HETATM   36  N1  UNL     1     -10.318  13.199 -58.975  1.00  0.00    -0.062 NA
HETATM   37  O1  UNL     1      -9.075  15.178 -59.168  1.00  0.00    -0.277 OA
ENDBRANCH  32  35
ENDBRANCH  25  29
ENDBRANCH   1  23
BRANCH   3  38
HETATM   38  N4  UNL     1      -7.076  16.841 -48.743  1.00  0.00    -0.075 N 
ATOM     39  H43 UNL     1      -7.794  16.879 -48.019  1.00  0.00     0.274 HD
ATOM     40  H42 UNL     1      -7.087  15.834 -48.904  1.00  0.00     0.274 HD
ATOM     41  H41 UNL     1      -6.170  17.169 -48.407  1.00  0.00     0.274 HD
ENDBRANCH   3  38
TORSDOF 8
ENDMDL
MODEL 3
REMARK VINA RESULT: -9.546617056      1.714      2.255
REMARK  8 active torsions:
REMARK  status: ('A' for Active; 'I' for Inactive)
REMARK    1  A    between atoms: C1_2  and  C2_4 
REMARK    2  A    between atoms: C5_7  and  N2_8 
REMARK       I    between atoms: N2_8  and  C6_10 
REMARK       I    between atoms: C6_10  and  N3_12 
REMARK    3  A    between atoms: N3_12  and  C7_14 
REMARK    4  A    between atoms: C9_16  and  N4_17 
REMARK    5  A    between atoms: C12_23  and  N5_24 
REMARK    6  A    between atoms: N5_24  and  C13_26 
REMARK    7  A    between atoms: C16_32  and  N7_33 
REMARK    8  A    between atoms: N7_33  and  C17_35 
ROOT
HETATM    1  C7  UNL     1     -14.677  17.616 -48.167  1.00  0.00     0.111 C 
HETATM    2  C8  UNL     1     -14.991  17.771 -46.695  1.00  0.00     0.060 C 
HETATM    3  C9  UNL     1     -16.413  17.412 -46.376  1.00  0.00     0.185 C 
HETATM    4  C10 UNL     1     -17.410  18.067 -47.271  1.00  0.00     0.035 C 
HETATM    5  C11 UNL     1     -16.689  19.089 -48.134  1.00  0.00     0.030 C 
HETATM    6  C12 UNL     1     -15.734  18.299 -49.028  1.00  0.00     0.122 C 
ENDROOT
BRANCH   6   7
HETATM    7  N5  UNL     1     -16.525  17.353 -49.749  1.00  0.00    -0.219 N 
ATOM      8  H5  UNL     1     -16.333  16.357 -49.640  1.00  0.00     0.178 HD
BRANCH   7   9
HETATM    9  C13 UNL     1     -17.473  17.726 -50.533  1.00  0.00     0.679 A 
HETATM   10  N6  UNL     1     -17.609  18.961 -51.042  1.00  0.00    -0.200 N 
HETATM   11  C14 UNL     1     -18.629  19.314 -51.871  1.00  0.00     0.133 A 
ATOM     12  H6  UNL     1     -16.916  19.668 -50.796  1.00  0.00     0.183 HD
HETATM   13  C15 UNL     1     -19.582  18.387 -52.223  1.00  0.00     0.094 A 
HETATM   14 CL1  UNL     1     -20.905  18.823 -53.292  1.00  0.00    -0.079 Cl
HETATM   15  C16 UNL     1     -19.453  17.116 -51.708  1.00  0.00     0.140 A 
HETATM   16  N8  UNL     1     -18.435  16.816 -50.898  1.00  0.00    -0.175 N 
ATOM     17  H8  UNL     1     -18.369  15.865 -50.533  1.00  0.00     0.186 HD
BRANCH  15  18
HETATM   18  N7  UNL     1     -20.343  16.261 -52.043  1.00  0.00    -0.370 N 
ATOM     19  H7  UNL     1     -20.006  15.404 -52.482  1.00  0.00     0.161 HD
BRANCH  18  20
HETATM   20  C17 UNL     1     -21.756  16.373 -51.871  1.00  0.00     0.083 A 
HETATM   21  C18 UNL     1     -22.593  15.211 -51.496  1.00  0.00     0.027 A 
HETATM   22  C19 UNL     1     -22.560  15.592 -52.930  1.00  0.00     0.027 A 
ENDBRANCH  18  20
ENDBRANCH  15  18
ENDBRANCH   7   9
ENDBRANCH   6   7
BRANCH   1  23
HETATM   23  N3  UNL     1     -13.383  18.270 -48.370  1.00  0.00    -0.336 N 
HETATM   24  C6  UNL     1     -12.383  17.686 -49.174  1.00  0.00     0.316 C 
HETATM   25  N2  UNL     1     -11.147  18.327 -49.359  1.00  0.00    -0.339 N 
HETATM   26  O2  UNL     1     -12.609  16.587 -49.720  1.00  0.00    -0.247 OA
ATOM     27  H2  UNL     1     -10.963  19.226 -48.911  1.00  0.00     0.164 HD
ATOM     28  H3  UNL     1     -13.202  19.168 -47.921  1.00  0.00     0.164 HD
BRANCH  25  29
HETATM   29  C5  UNL     1     -10.140  17.710 -50.183  1.00  0.00     0.086 C 
HETATM   30  C4  UNL     1      -9.274  18.810 -50.742  1.00  0.00     0.026 C 
HETATM   31  C3  UNL     1      -7.929  18.211 -51.063  1.00  0.00     0.015 C 
HETATM   32  C2  UNL     1      -7.237  17.965 -49.732  1.00  0.00     0.075 C 
HETATM   33  C21 UNL     1      -8.085  17.094 -48.871  1.00  0.00     0.015 C 
HETATM   34  C20 UNL     1      -9.364  16.648 -49.466  1.00  0.00     0.026 C 
BRANCH  32  35
HETATM   35  C1  UNL     1      -5.871  17.459 -49.940  1.00  0.00     0.235 C 
HETATM   36  N1  UNL     1      -5.174  17.836 -51.120  1.00  0.00    -0.062 NA
HETATM   37  O1  UNL     1      -5.360  16.711 -49.071  1.00  0.00    -0.277 OA
ENDBRANCH  32  35
ENDBRANCH  25  29
ENDBRANCH   1  23
BRANCH   3  38
HETATM   38  N4  UNL     1     -16.560  15.961 -46.415  1.00  0.00    -0.075 N 
ATOM     39  H43 UNL     1     -17.251  15.659 -47.102  1.00  0.00     0.274 HD
ATOM     40  H42 UNL     1     -15.745  15.500 -46.819  1.00  0.00     0.274 HD
ATOM     41  H41 UNL     1     -16.772  15.621 -45.477  1.00  0.00     0.274 HD
ENDBRANCH   3  38
TORSDOF 8
ENDMDL
MODEL 4
REMARK VINA RESULT: -9.404034265      1.306      1.445
REMARK  8 active torsions:
REMARK  status: ('A' for Active; 'I' for Inactive)
REMARK    1  A    between atoms: C1_2  and  C2_4 
REMARK    2  A    between atoms: C5_7  and  N2_8 
REMARK       I    between atoms: N2_8  and  C6_10 
REMARK       I    between atoms: C6_10  and  N3_12 
REMARK    3  A    between atoms: N3_12  and  C7_14 
REMARK    4  A    between atoms: C9_16  and  N4_17 
REMARK    5  A    between atoms: C12_23  and  N5_24 
REMARK    6  A    between atoms: N5_24  and  C13_26 
REMARK    7  A    between atoms: C16_32  and  N7_33 
REMARK    8  A    between atoms: N7_33  and  C17_35 
ROOT
HETATM    1  C7  UNL     1     -14.898  17.138 -48.304  1.00  0.00     0.111 C 
HETATM    2  C8  UNL     1     -14.335  18.022 -47.212  1.00  0.00     0.060 C 
HETATM    3  C9  UNL     1     -15.403  18.817 -46.517  1.00  0.00     0.185 C 
HETATM    4  C10 UNL     1     -16.317  19.533 -47.452  1.00  0.00     0.035 C 
HETATM    5  C11 UNL     1     -15.764  19.409 -48.863  1.00  0.00     0.030 C 
HETATM    6  C12 UNL     1     -15.829  17.925 -49.220  1.00  0.00     0.122 C 
ENDROOT
BRANCH   6   7
HETATM    7  N5  UNL     1     -17.191  17.519 -49.070  1.00  0.00    -0.219 N 
ATOM      8  H5  UNL     1     -17.496  17.119 -48.182  1.00  0.00     0.178 HD
BRANCH   7   9
HETATM    9  C13 UNL     1     -18.040  17.647 -50.025  1.00  0.00     0.679 A 
HETATM   10  N6  UNL     1     -18.095  16.866 -51.116  1.00  0.00    -0.200 N 
HETATM   11  C14 UNL     1     -19.015  17.035 -52.105  1.00  0.00     0.133 A 
ATOM     12  H6  UNL     1     -17.416  16.111 -51.208  1.00  0.00     0.183 HD
HETATM   13  C15 UNL     1     -19.946  18.043 -52.014  1.00  0.00     0.094 A 
HETATM   14 CL1  UNL     1     -21.141  18.277 -53.279  1.00  0.00    -0.079 Cl
HETATM   15  C16 UNL     1     -19.901  18.852 -50.899  1.00  0.00     0.140 A 
HETATM   16  N8  UNL     1     -18.980  18.647 -49.954  1.00  0.00    -0.175 N 
ATOM     17  H8  UNL     1     -18.973  19.264 -49.141  1.00  0.00     0.186 HD
BRANCH  15  18
HETATM   18  N7  UNL     1     -20.772  19.785 -50.824  1.00  0.00    -0.370 N 
ATOM     19  H7  UNL     1     -20.588  20.623 -51.377  1.00  0.00     0.161 HD
BRANCH  18  20
HETATM   20  C17 UNL     1     -21.972  19.786 -50.050  1.00  0.00     0.083 A 
HETATM   21  C18 UNL     1     -23.309  19.725 -50.682  1.00  0.00     0.027 A 
HETATM   22  C19 UNL     1     -22.820  21.058 -50.247  1.00  0.00     0.027 A 
ENDBRANCH  18  20
ENDBRANCH  15  18
ENDBRANCH   7   9
ENDBRANCH   6   7
BRANCH   1  23
HETATM   23  N3  UNL     1     -13.744  16.666 -49.070  1.00  0.00    -0.336 N 
HETATM   24  C6  UNL     1     -12.602  17.473 -49.250  1.00  0.00     0.316 C 
HETATM   25  N2  UNL     1     -11.502  17.004 -49.988  1.00  0.00    -0.339 N 
HETATM   26  O2  UNL     1     -12.580  18.614 -48.746  1.00  0.00    -0.247 OA
ATOM     27  H2  UNL     1     -11.521  16.071 -50.400  1.00  0.00     0.164 HD
ATOM     28  H3  UNL     1     -13.766  15.733 -49.482  1.00  0.00     0.164 HD
BRANCH  25  29
HETATM   29  C5  UNL     1     -10.348  17.848 -50.159  1.00  0.00     0.086 C 
HETATM   30  C4  UNL     1      -9.152  16.948 -50.346  1.00  0.00     0.026 C 
HETATM   31  C3  UNL     1      -8.112  17.727 -51.110  1.00  0.00     0.015 C 
HETATM   32  C2  UNL     1      -8.610  17.824 -52.542  1.00  0.00     0.075 C 
HETATM   33  C21 UNL     1      -9.962  18.451 -52.570  1.00  0.00     0.015 C 
HETATM   34  C20 UNL     1     -10.513  18.853 -51.257  1.00  0.00     0.026 C 
BRANCH  32  35
HETATM   35  C1  UNL     1      -7.618  18.495 -53.396  1.00  0.00     0.235 C 
HETATM   36  N1  UNL     1      -8.022  19.624 -54.158  1.00  0.00    -0.062 NA
HETATM   37  O1  UNL     1      -6.444  18.052 -53.429  1.00  0.00    -0.277 OA
ENDBRANCH  32  35
ENDBRANCH  25  29
ENDBRANCH   1  23
BRANCH   3  38
HETATM   38  N4  UNL     1     -16.156  17.936 -45.632  1.00  0.00    -0.075 N 
ATOM     39  H43 UNL     1     -17.149  17.910 -45.864  1.00  0.00     0.274 HD
ATOM     40  H42 UNL     1     -15.945  16.951 -45.795  1.00  0.00     0.274 HD
ATOM     41  H41 UNL     1     -15.991  18.213 -44.665  1.00  0.00     0.274 HD
ENDBRANCH   3  38
TORSDOF 8
ENDMDL
MODEL 5
REMARK VINA RESULT: -9.236578081      0.988      1.316
REMARK  8 active torsions:
REMARK  status: ('A' for Active; 'I' for Inactive)
REMARK    1  A    between atoms: C1_2  and  C2_4 
REMARK    2  A    between atoms: C5_7  and  N2_8 
REMARK       I    between atoms: N2_8  and  C6_10 
REMARK       I    between atoms: C6_10  and  N3_12 
REMARK    3  A    between atoms: N3_12  and  C7_14 
REMARK    4  A    between atoms: C9_16  and  N4_17 
REMARK    5  A    between atoms: C12_23  and  N5_24 
REMARK    6  A    between atoms: N5_24  and  C13_26 
REMARK    7  A    between atoms: C16_32  and  N7_33 
REMARK    8  A    between atoms: N7_33  and  C17_35 
ROOT
HETATM    1  C7  UNL     1     -14.845  17.980 -48.227  1.00  0.00     0.111 C 
HETATM    2  C8  UNL     1     -14.828  18.324 -46.753  1.00  0.00     0.060 C 
HETATM    3  C9  UNL     1     -16.112  17.952 -46.068  1.00  0.00     0.185 C 
HETATM    4  C10 UNL     1     -17.330  18.435 -46.780  1.00  0.00     0.035 C 
HETATM    5  C11 UNL     1     -16.899  19.357 -47.909  1.00  0.00     0.030 C 
HETATM    6  C12 UNL     1     -16.115  18.493 -48.895  1.00  0.00     0.122 C 
ENDROOT
BRANCH   6   7
HETATM    7  N5  UNL     1     -16.978  17.423 -49.288  1.00  0.00    -0.219 N 
ATOM      8  H5  UNL     1     -16.893  16.519 -48.823  1.00  0.00     0.178 HD
BRANCH   7   9
HETATM    9  C13 UNL     1     -17.858  17.573 -50.213  1.00  0.00     0.679 A 
HETATM   10  N6  UNL     1     -17.939  16.827 -51.326  1.00  0.00    -0.200 N 
HETATM   11  C14 UNL     1     -18.890  17.018 -52.281  1.00  0.00     0.133 A 
ATOM     12  H6  UNL     1     -17.256  16.081 -51.462  1.00  0.00     0.183 HD
HETATM   13  C15 UNL     1     -19.826  18.014 -52.129  1.00  0.00     0.094 A 
HETATM   14 CL1  UNL     1     -21.062  18.276 -53.349  1.00  0.00    -0.079 Cl
HETATM   15  C16 UNL     1     -19.754  18.786 -50.991  1.00  0.00     0.140 A 
HETATM   16  N8  UNL     1     -18.803  18.561 -50.081  1.00  0.00    -0.175 N 
ATOM     17  H8  UNL     1     -18.777  19.151 -49.250  1.00  0.00     0.186 HD
BRANCH  15  18
HETATM   18  N7  UNL     1     -20.631  19.708 -50.859  1.00  0.00    -0.370 N 
ATOM     19  H7  UNL     1     -20.442  20.587 -51.342  1.00  0.00     0.161 HD
BRANCH  18  20
HETATM   20  C17 UNL     1     -21.844  19.644 -50.110  1.00  0.00     0.083 A 
HETATM   21  C18 UNL     1     -23.171  19.665 -50.767  1.00  0.00     0.027 A 
HETATM   22  C19 UNL     1     -22.677  20.940 -50.191  1.00  0.00     0.027 A 
ENDBRANCH  18  20
ENDBRANCH  15  18
ENDBRANCH   7   9
ENDBRANCH   6   7
BRANCH   1  23
HETATM   23  N3  UNL     1     -13.682  18.654 -48.806  1.00  0.00    -0.336 N 
HETATM   24  C6  UNL     1     -12.643  17.927 -49.423  1.00  0.00     0.316 C 
HETATM   25  N2  UNL     1     -11.534  18.589 -49.975  1.00  0.00    -0.339 N 
HETATM   26  O2  UNL     1     -12.721  16.682 -49.473  1.00  0.00    -0.247 OA
ATOM     27  H2  UNL     1     -11.472  19.607 -49.933  1.00  0.00     0.164 HD
ATOM     28  H3  UNL     1     -13.621  19.671 -48.763  1.00  0.00     0.164 HD
BRANCH  25  29
HETATM   29  C5  UNL     1     -10.486  17.825 -50.599  1.00  0.00     0.086 C 
HETATM   30  C4  UNL     1      -9.510  18.802 -51.205  1.00  0.00     0.026 C 
HETATM   31  C3  UNL     1      -8.174  18.110 -51.299  1.00  0.00     0.015 C 
HETATM   32  C2  UNL     1      -7.632  18.022 -49.882  1.00  0.00     0.075 C 
HETATM   33  C21 UNL     1      -8.607  17.313 -49.008  1.00  0.00     0.015 C 
HETATM   34  C20 UNL     1      -9.843  16.841 -49.670  1.00  0.00     0.026 C 
BRANCH  32  35
HETATM   35  C1  UNL     1      -6.282  17.438 -49.876  1.00  0.00     0.235 C 
HETATM   36  N1  UNL     1      -5.385  17.777 -50.924  1.00  0.00    -0.062 NA
HETATM   37  O1  UNL     1      -5.959  16.659 -48.945  1.00  0.00    -0.277 OA
ENDBRANCH  32  35
ENDBRANCH  25  29
ENDBRANCH   1  23
BRANCH   3  38
HETATM   38  N4  UNL     1     -16.157  16.505 -45.891  1.00  0.00    -0.075 N 
ATOM     39  H43 UNL     1     -15.657  16.008 -46.628  1.00  0.00     0.274 HD
ATOM     40  H42 UNL     1     -15.594  16.195 -45.099  1.00  0.00     0.274 HD
ATOM     41  H41 UNL     1     -17.130  16.208 -45.814  1.00  0.00     0.274 HD
ENDBRANCH   3  38
TORSDOF 8
ENDMDL
