MODEL 1
REMARK VINA RESULT: -7.149640287      0.000      0.000
REMARK  6 active torsions:
REMARK  status: ('A' for Active; 'I' for Inactive)
REMARK    1  A    between atoms: O1_2  and  C2_3 
REMARK    2  A    between atoms: C2_3  and  C3_5 
REMARK    3  A    between atoms: C3_5  and  S1_6 
REMARK    4  A    between atoms: S1_6  and  C4_7 
REMARK    5  A    between atoms: C5_10  and  N2_11 
REMARK    6  A    between atoms: C7_18  and  N4_19 
ROOT
HETATM    1  C4  UNL     1      13.999  10.877  56.343  1.00  0.00     0.122 A 
HETATM    2  N1  UNL     1      14.016  12.136  56.782  1.00  0.00    -0.183 N 
ATOM      3  H1  UNL     1      13.137  12.643  56.890  1.00  0.00     0.185 HD
HETATM    4  C5  UNL     1      15.189  12.754  57.089  1.00  0.00     0.677 A 
HETATM    5  N3  UNL     1      16.344  12.124  56.960  1.00  0.00    -0.179 N 
ATOM      6  H3  UNL     1      17.202  12.619  57.200  1.00  0.00     0.185 HD
HETATM    7  C6  UNL     1      16.431  10.853  56.524  1.00  0.00     0.152 A 
HETATM    8  S2  UNL     1      17.853  10.059  56.359  1.00  0.00    -0.057 SA
HETATM    9  C7  UNL     1      15.227  10.230  56.212  1.00  0.00     0.175 A 
ENDROOT
BRANCH   1  10
HETATM   10  S1  UNL     1      12.496  10.057  55.959  1.00  0.00    -0.099 SA
BRANCH  10  11
HETATM   11  C3  UNL     1      11.787  10.393  54.367  1.00  0.00     0.191 C 
BRANCH  11  12
HETATM   12  C2  UNL     1      10.335  10.162  54.358  1.00  0.00     0.268 C 
HETATM   13  O2  UNL     1       9.564  10.878  53.698  1.00  0.00    -0.264 OA
BRANCH  12  14
HETATM   14  O1  UNL     1       9.814   9.117  55.105  1.00  0.00    -0.326 OA
HETATM   15  C1  UNL     1       8.543   8.605  54.744  1.00  0.00     0.213 C 
ENDBRANCH  12  14
ENDBRANCH  11  12
ENDBRANCH  10  11
ENDBRANCH   1  10
BRANCH   9  16
HETATM   16  N4  UNL     1      15.224   8.911  55.738  1.00  0.00    -0.110 N 
HETATM   17  O3  UNL     1      15.180   8.583  54.543  1.00  0.00    -0.532 OA
HETATM   18  O4  UNL     1      15.278   7.885  56.652  1.00  0.00    -0.532 OA
ENDBRANCH   9  16
BRANCH   4  19
HETATM   19  N2  UNL     1      15.180  13.975  57.517  1.00  0.00    -0.234 N 
ATOM     20  H22 UNL     1      14.463  14.265  58.182  1.00  0.00     0.174 HD
ATOM     21  H21 UNL     1      15.885  14.633  57.185  1.00  0.00     0.174 HD
ENDBRANCH   4  19
TORSDOF 6
ENDMDL
MODEL 2
REMARK VINA RESULT: -6.965921168      2.738      6.141
REMARK  6 active torsions:
REMARK  status: ('A' for Active; 'I' for Inactive)
REMARK    1  A    between atoms: O1_2  and  C2_3 
REMARK    2  A    between atoms: C2_3  and  C3_5 
REMARK    3  A    between atoms: C3_5  and  S1_6 
REMARK    4  A    between atoms: S1_6  and  C4_7 
REMARK    5  A    between atoms: C5_10  and  N2_11 
REMARK    6  A    between atoms: C7_18  and  N4_19 
ROOT
HETATM    1  C4  UNL     1      16.321  10.559  56.466  1.00  0.00     0.122 A 
HETATM    2  N1  UNL     1      16.287  11.844  56.823  1.00  0.00    -0.183 N 
ATOM      3  H1  UNL     1      17.153  12.318  57.078  1.00  0.00     0.185 HD
HETATM    4  C5  UNL     1      15.112  12.530  56.852  1.00  0.00     0.677 A 
HETATM    5  N3  UNL     1      13.973  11.943  56.528  1.00  0.00    -0.179 N 
ATOM      6  H3  UNL     1      13.113  12.490  56.561  1.00  0.00     0.185 HD
HETATM    7  C6  UNL     1      13.904  10.651  56.156  1.00  0.00     0.152 A 
HETATM    8  S2  UNL     1      12.502   9.909  55.751  1.00  0.00    -0.057 SA
HETATM    9  C7  UNL     1      15.109   9.957  56.129  1.00  0.00     0.175 A 
ENDROOT
BRANCH   1  10
HETATM   10  S1  UNL     1      17.827   9.662  56.405  1.00  0.00    -0.099 SA
BRANCH  10  11
HETATM   11  C3  UNL     1      19.263  10.466  57.070  1.00  0.00     0.191 C 
BRANCH  11  12
HETATM   12  C2  UNL     1      20.017  11.181  56.029  1.00  0.00     0.268 C 
HETATM   13  O2  UNL     1      20.566  12.272  56.254  1.00  0.00    -0.264 OA
BRANCH  12  14
HETATM   14  O1  UNL     1      20.117  10.623  54.764  1.00  0.00    -0.326 OA
HETATM   15  C1  UNL     1      21.167   9.705  54.519  1.00  0.00     0.213 C 
ENDBRANCH  12  14
ENDBRANCH  11  12
ENDBRANCH  10  11
ENDBRANCH   1  10
BRANCH   9  16
HETATM   16  N4  UNL     1      15.130   8.604  55.766  1.00  0.00    -0.110 N 
HETATM   17  O3  UNL     1      15.072   8.178  54.603  1.00  0.00    -0.532 OA
HETATM   18  O4  UNL     1      15.227   7.658  56.759  1.00  0.00    -0.532 OA
ENDBRANCH   9  16
BRANCH   4  19
HETATM   19  N2  UNL     1      15.104  13.777  57.199  1.00  0.00    -0.234 N 
ATOM     20  H22 UNL     1      15.961  14.200  57.556  1.00  0.00     0.174 HD
ATOM     21  H21 UNL     1      14.245  14.321  57.114  1.00  0.00     0.174 HD
ENDBRANCH   4  19
TORSDOF 6
ENDMDL
MODEL 3
REMARK VINA RESULT: -6.711313630      2.811      6.278
REMARK  6 active torsions:
REMARK  status: ('A' for Active; 'I' for Inactive)
REMARK    1  A    between atoms: O1_2  and  C2_3 
REMARK    2  A    between atoms: C2_3  and  C3_5 
REMARK    3  A    between atoms: C3_5  and  S1_6 
REMARK    4  A    between atoms: S1_6  and  C4_7 
REMARK    5  A    between atoms: C5_10  and  N2_11 
REMARK    6  A    between atoms: C7_18  and  N4_19 
ROOT
HETATM    1  C4  UNL     1      16.391  10.772  56.505  1.00  0.00     0.122 A 
HETATM    2  N1  UNL     1      16.364  12.028  56.954  1.00  0.00    -0.183 N 
ATOM      3  H1  UNL     1      17.235  12.487  57.219  1.00  0.00     0.185 HD
HETATM    4  C5  UNL     1      15.188  12.706  57.062  1.00  0.00     0.677 A 
HETATM    5  N3  UNL     1      14.042  12.138  56.727  1.00  0.00    -0.179 N 
ATOM      6  H3  UNL     1      13.182  12.678  56.822  1.00  0.00     0.185 HD
HETATM    7  C6  UNL     1      13.966  10.876  56.266  1.00  0.00     0.152 A 
HETATM    8  S2  UNL     1      12.556  10.159  55.847  1.00  0.00    -0.057 SA
HETATM    9  C7  UNL     1      15.172  10.191  56.158  1.00  0.00     0.175 A 
ENDROOT
BRANCH   1  10
HETATM   10  S1  UNL     1      17.897   9.888  56.340  1.00  0.00    -0.099 SA
BRANCH  10  11
HETATM   11  C3  UNL     1      19.246  10.745  55.567  1.00  0.00     0.191 C 
BRANCH  11  12
HETATM   12  C2  UNL     1      20.137  11.365  56.559  1.00  0.00     0.268 C 
HETATM   13  O2  UNL     1      20.668  12.470  56.359  1.00  0.00    -0.264 OA
BRANCH  12  14
HETATM   14  O1  UNL     1      20.390  10.699  57.748  1.00  0.00    -0.326 OA
HETATM   15  C1  UNL     1      21.404   9.710  57.758  1.00  0.00     0.213 C 
ENDBRANCH  12  14
ENDBRANCH  11  12
ENDBRANCH  10  11
ENDBRANCH   1  10
BRANCH   9  16
HETATM   16  N4  UNL     1      15.187   8.868  55.699  1.00  0.00    -0.110 N 
HETATM   17  O3  UNL     1      15.162   8.527  54.506  1.00  0.00    -0.532 OA
HETATM   18  O4  UNL     1      15.236   7.851  56.624  1.00  0.00    -0.532 OA
ENDBRANCH   9  16
BRANCH   4  19
HETATM   19  N2  UNL     1      15.186  13.924  57.498  1.00  0.00    -0.234 N 
ATOM     20  H22 UNL     1      15.272  14.691  56.831  1.00  0.00     0.174 HD
ATOM     21  H21 UNL     1      15.100  14.105  58.497  1.00  0.00     0.174 HD
ENDBRANCH   4  19
TORSDOF 6
ENDMDL
MODEL 4
REMARK VINA RESULT: -6.472028543      3.277      6.115
REMARK  6 active torsions:
REMARK  status: ('A' for Active; 'I' for Inactive)
REMARK    1  A    between atoms: O1_2  and  C2_3 
REMARK    2  A    between atoms: C2_3  and  C3_5 
REMARK    3  A    between atoms: C3_5  and  S1_6 
REMARK    4  A    between atoms: S1_6  and  C4_7 
REMARK    5  A    between atoms: C5_10  and  N2_11 
REMARK    6  A    between atoms: C7_18  and  N4_19 
ROOT
HETATM    1  C4  UNL     1      16.805  10.873  57.151  1.00  0.00     0.122 A 
HETATM    2  N1  UNL     1      16.422  12.128  57.390  1.00  0.00    -0.183 N 
ATOM      3  H1  UNL     1      17.048  12.759  57.891  1.00  0.00     0.185 HD
HETATM    4  C5  UNL     1      15.207  12.579  56.974  1.00  0.00     0.677 A 
HETATM    5  N3  UNL     1      14.373  11.786  56.323  1.00  0.00    -0.179 N 
ATOM      6  H3  UNL     1      13.471  12.159  56.028  1.00  0.00     0.185 HD
HETATM    7  C6  UNL     1      14.668  10.504  56.036  1.00  0.00     0.152 A 
HETATM    8  S2  UNL     1      13.647   9.510  55.231  1.00  0.00    -0.057 SA
HETATM    9  C7  UNL     1      15.911  10.052  56.465  1.00  0.00     0.175 A 
ENDROOT
BRANCH   1  10
HETATM   10  S1  UNL     1      18.374  10.278  57.663  1.00  0.00    -0.099 SA
BRANCH  10  11
HETATM   11  C3  UNL     1      19.797  11.041  56.927  1.00  0.00     0.191 C 
BRANCH  11  12
HETATM   12  C2  UNL     1      20.175  10.385  55.666  1.00  0.00     0.268 C 
HETATM   13  O2  UNL     1      19.886  10.876  54.563  1.00  0.00    -0.264 OA
BRANCH  12  14
HETATM   14  O1  UNL     1      20.873   9.189  55.711  1.00  0.00    -0.326 OA
HETATM   15  C1  UNL     1      20.746   8.298  54.617  1.00  0.00     0.213 C 
ENDBRANCH  12  14
ENDBRANCH  11  12
ENDBRANCH  10  11
ENDBRANCH   1  10
BRANCH   9  16
HETATM   16  N4  UNL     1      16.296   8.727  56.220  1.00  0.00    -0.110 N 
HETATM   17  O3  UNL     1      17.263   8.383  55.523  1.00  0.00    -0.532 OA
HETATM   18  O4  UNL     1      15.563   7.713  56.791  1.00  0.00    -0.532 OA
ENDBRANCH   9  16
BRANCH   4  19
HETATM   19  N2  UNL     1      14.858  13.801  57.215  1.00  0.00    -0.234 N 
ATOM     20  H22 UNL     1      15.254  14.282  58.023  1.00  0.00     0.174 HD
ATOM     21  H21 UNL     1      14.193  14.269  56.599  1.00  0.00     0.174 HD
ENDBRANCH   4  19
TORSDOF 6
ENDMDL
MODEL 5
REMARK VINA RESULT: -6.459823177      3.394      4.955
REMARK  6 active torsions:
REMARK  status: ('A' for Active; 'I' for Inactive)
REMARK    1  A    between atoms: O1_2  and  C2_3 
REMARK    2  A    between atoms: C2_3  and  C3_5 
REMARK    3  A    between atoms: C3_5  and  S1_6 
REMARK    4  A    between atoms: S1_6  and  C4_7 
REMARK    5  A    between atoms: C5_10  and  N2_11 
REMARK    6  A    between atoms: C7_18  and  N4_19 
ROOT
HETATM    1  C4  UNL     1      17.468   8.162  56.201  1.00  0.00     0.122 A 
HETATM    2  N1  UNL     1      18.007   7.001  55.829  1.00  0.00    -0.183 N 
ATOM      3  H1  UNL     1      17.401   6.204  55.633  1.00  0.00     0.185 HD
HETATM    4  C5  UNL     1      19.356   6.864  55.707  1.00  0.00     0.677 A 
HETATM    5  N3  UNL     1      20.168   7.877  55.954  1.00  0.00    -0.179 N 
ATOM      6  H3  UNL     1      21.173   7.736  55.852  1.00  0.00     0.185 HD
HETATM    7  C6  UNL     1      19.721   9.088  56.336  1.00  0.00     0.152 A 
HETATM    8  S2  UNL     1      20.712  10.352  56.646  1.00  0.00    -0.057 SA
HETATM    9  C7  UNL     1      18.341   9.219  56.459  1.00  0.00     0.175 A 
ENDROOT
BRANCH   1  10
HETATM   10  S1  UNL     1      15.731   8.365  56.347  1.00  0.00    -0.099 SA
BRANCH  10  11
HETATM   11  C3  UNL     1      14.912   9.215  55.022  1.00  0.00     0.191 C 
BRANCH  11  12
HETATM   12  C2  UNL     1      13.870   8.383  54.403  1.00  0.00     0.268 C 
HETATM   13  O2  UNL     1      14.147   7.337  53.792  1.00  0.00    -0.264 OA
BRANCH  12  14
HETATM   14  O1  UNL     1      12.545   8.774  54.505  1.00  0.00    -0.326 OA
HETATM   15  C1  UNL     1      12.268  10.103  54.909  1.00  0.00     0.213 C 
ENDBRANCH  12  14
ENDBRANCH  11  12
ENDBRANCH  10  11
ENDBRANCH   1  10
BRANCH   9  16
HETATM   16  N4  UNL     1      17.787  10.440  56.864  1.00  0.00    -0.110 N 
HETATM   17  O3  UNL     1      17.383  11.329  56.099  1.00  0.00    -0.532 OA
HETATM   18  O4  UNL     1      17.669  10.693  58.211  1.00  0.00    -0.532 OA
ENDBRANCH   9  16
BRANCH   4  19
HETATM   19  N2  UNL     1      19.857   5.728  55.342  1.00  0.00    -0.234 N 
ATOM     20  H22 UNL     1      19.305   5.109  54.747  1.00  0.00     0.174 HD
ATOM     21  H21 UNL     1      20.791   5.463  55.651  1.00  0.00     0.174 HD
ENDBRANCH   4  19
TORSDOF 6
ENDMDL
