MODEL 1
REMARK VINA RESULT: -6.287795456      0.000      0.000
REMARK  7 active torsions:
REMARK  status: ('A' for Active; 'I' for Inactive)
REMARK    1  A    between atoms: S1_2  and  C2_3 
REMARK    2  A    between atoms: C3_6  and  N2_7 
REMARK    3  A    between atoms: N2_7  and  N3_8 
REMARK    4  A    between atoms: C5_14  and  C6_15 
REMARK    5  A    between atoms: C6_15  and  C7_16 
REMARK    6  A    between atoms: C7_16  and  O1_17 
REMARK    7  A    between atoms: O1_17  and  C8_18 
ROOT
HETATM    1  C2  UNL     1      15.909  11.296  56.452  1.00  0.00     0.085 A 
HETATM    2  N1  UNL     1      17.204  11.448  56.557  1.00  0.00    -0.321 N 
ATOM      3  H1  UNL     1      17.512  12.400  56.752  1.00  0.00     0.169 HD
HETATM    4  C3  UNL     1      18.198  10.536  56.447  1.00  0.00     0.232 A 
HETATM    5  C4  UNL     1      17.946   9.177  56.181  1.00  0.00     0.132 A 
HETATM    6  S2  UNL     1      19.177   8.111  56.060  1.00  0.00    -0.067 SA
HETATM    7  S3  UNL     1      16.313   8.760  56.007  1.00  0.00    -0.075 SA
HETATM    8  C5  UNL     1      15.281  10.097  56.193  1.00  0.00     0.020 A 
ENDROOT
BRANCH   8   9
HETATM    9  C6  UNL     1      13.806  10.036  56.096  1.00  0.00     0.076 C 
BRANCH   9  10
HETATM   10  C7  UNL     1      13.346   9.726  54.682  1.00  0.00     0.184 C 
BRANCH  10  11
HETATM   11  O1  UNL     1      12.032   9.203  54.817  1.00  0.00    -0.321 OA
BRANCH  11  12
HETATM   12  C8  UNL     1      10.890   9.930  54.611  1.00  0.00     0.254 C 
HETATM   13  C9  UNL     1       9.575   9.251  54.739  1.00  0.00     0.126 C 
HETATM   14  O2  UNL     1      10.951  11.129  54.324  1.00  0.00    -0.266 OA
ENDBRANCH  11  12
ENDBRANCH  10  11
ENDBRANCH   9  10
ENDBRANCH   8   9
BRANCH   1  15
HETATM   15  S1  UNL     1      14.842  12.765  56.657  1.00  0.00    -0.116 SA
HETATM   16  C1  UNL     1      15.213  13.585  58.207  1.00  0.00     0.097 C 
ENDBRANCH   1  15
BRANCH   4  17
HETATM   17  N2  UNL     1      19.364  10.858  56.568  1.00  0.00    -0.312 NA
BRANCH  17  18
HETATM   18  N3  UNL     1      20.557  11.273  56.685  1.00  0.00    -0.278 N 
ATOM     19  H32 UNL     1      20.506  10.865  55.752  1.00  0.00     0.191 HD
ATOM     20  H31 UNL     1      21.502  11.627  56.839  1.00  0.00     0.191 HD
ENDBRANCH  17  18
ENDBRANCH   4  17
TORSDOF 7
ENDMDL
MODEL 2
REMARK VINA RESULT: -6.209249083      3.980      6.604
REMARK  7 active torsions:
REMARK  status: ('A' for Active; 'I' for Inactive)
REMARK    1  A    between atoms: S1_2  and  C2_3 
REMARK    2  A    between atoms: C3_6  and  N2_7 
REMARK    3  A    between atoms: N2_7  and  N3_8 
REMARK    4  A    between atoms: C5_14  and  C6_15 
REMARK    5  A    between atoms: C6_15  and  C7_16 
REMARK    6  A    between atoms: C7_16  and  O1_17 
REMARK    7  A    between atoms: O1_17  and  C8_18 
ROOT
HETATM    1  C2  UNL     1      18.335  10.579  57.036  1.00  0.00     0.085 A 
HETATM    2  N1  UNL     1      17.467  11.558  57.055  1.00  0.00    -0.321 N 
ATOM      3  H1  UNL     1      17.842  12.460  57.348  1.00  0.00     0.169 HD
HETATM    4  C3  UNL     1      16.150  11.559  56.745  1.00  0.00     0.232 A 
HETATM    5  C4  UNL     1      15.476  10.398  56.323  1.00  0.00     0.132 A 
HETATM    6  S2  UNL     1      13.885  10.446  55.956  1.00  0.00    -0.067 SA
HETATM    7  S3  UNL     1      16.426   8.998  56.228  1.00  0.00    -0.075 SA
HETATM    8  C5  UNL     1      18.041   9.282  56.672  1.00  0.00     0.020 A 
ENDROOT
BRANCH   8   9
HETATM    9  C6  UNL     1      19.100   8.250  56.685  1.00  0.00     0.076 C 
BRANCH   9  10
HETATM   10  C7  UNL     1      19.120   7.446  55.396  1.00  0.00     0.184 C 
BRANCH  10  11
HETATM   11  O1  UNL     1      20.062   8.099  54.557  1.00  0.00    -0.321 OA
BRANCH  11  12
HETATM   12  C8  UNL     1      21.286   7.581  54.225  1.00  0.00     0.254 C 
HETATM   13  C9  UNL     1      22.444   8.503  54.101  1.00  0.00     0.126 C 
HETATM   14  O2  UNL     1      21.425   6.370  54.034  1.00  0.00    -0.266 OA
ENDBRANCH  11  12
ENDBRANCH  10  11
ENDBRANCH   9  10
ENDBRANCH   8   9
BRANCH   1  15
HETATM   15  S1  UNL     1      20.058  10.934  57.526  1.00  0.00    -0.116 SA
HETATM   16  C1  UNL     1      21.006  11.470  56.101  1.00  0.00     0.097 C 
ENDBRANCH   1  15
BRANCH   4  17
HETATM   17  N2  UNL     1      15.485  12.573  56.828  1.00  0.00    -0.312 NA
BRANCH  17  18
HETATM   18  N3  UNL     1      14.840  13.656  56.974  1.00  0.00    -0.278 N 
ATOM     19  H32 UNL     1      14.557  13.298  56.062  1.00  0.00     0.191 HD
ATOM     20  H31 UNL     1      14.350  14.534  57.150  1.00  0.00     0.191 HD
ENDBRANCH  17  18
ENDBRANCH   4  17
TORSDOF 7
ENDMDL
MODEL 3
REMARK VINA RESULT: -5.715296201      4.178      6.949
REMARK  7 active torsions:
REMARK  status: ('A' for Active; 'I' for Inactive)
REMARK    1  A    between atoms: S1_2  and  C2_3 
REMARK    2  A    between atoms: C3_6  and  N2_7 
REMARK    3  A    between atoms: N2_7  and  N3_8 
REMARK    4  A    between atoms: C5_14  and  C6_15 
REMARK    5  A    between atoms: C6_15  and  C7_16 
REMARK    6  A    between atoms: C7_16  and  O1_17 
REMARK    7  A    between atoms: O1_17  and  C8_18 
ROOT
HETATM    1  C2  UNL     1      17.943   8.676  56.206  1.00  0.00     0.085 A 
HETATM    2  N1  UNL     1      16.844   8.262  55.631  1.00  0.00    -0.321 N 
ATOM      3  H1  UNL     1      16.911   7.352  55.177  1.00  0.00     0.169 HD
HETATM    4  C3  UNL     1      15.630   8.856  55.545  1.00  0.00     0.232 A 
HETATM    5  C4  UNL     1      15.367  10.114  56.117  1.00  0.00     0.132 A 
HETATM    6  S2  UNL     1      13.886  10.792  55.993  1.00  0.00    -0.067 SA
HETATM    7  S3  UNL     1      16.672  10.837  56.921  1.00  0.00    -0.075 SA
HETATM    8  C5  UNL     1      18.071   9.874  56.875  1.00  0.00     0.020 A 
ENDROOT
BRANCH   8   9
HETATM    9  C6  UNL     1      19.364  10.245  57.492  1.00  0.00     0.076 C 
BRANCH   9  10
HETATM   10  C7  UNL     1      20.019  11.411  56.773  1.00  0.00     0.184 C 
BRANCH  10  11
HETATM   11  O1  UNL     1      21.097  10.847  56.039  1.00  0.00    -0.321 OA
BRANCH  11  12
HETATM   12  C8  UNL     1      20.983  10.340  54.772  1.00  0.00     0.254 C 
HETATM   13  C9  UNL     1      21.994   9.359  54.300  1.00  0.00     0.126 C 
HETATM   14  O2  UNL     1      20.057  10.690  54.036  1.00  0.00    -0.266 OA
ENDBRANCH  11  12
ENDBRANCH  10  11
ENDBRANCH   9  10
ENDBRANCH   8   9
BRANCH   1  15
HETATM   15  S1  UNL     1      19.422   7.607  56.125  1.00  0.00    -0.116 SA
HETATM   16  C1  UNL     1      18.963   5.960  55.585  1.00  0.00     0.097 C 
ENDBRANCH   1  15
BRANCH   4  17
HETATM   17  N2  UNL     1      14.709   8.323  54.957  1.00  0.00    -0.312 NA
BRANCH  17  18
HETATM   18  N3  UNL     1      13.785   7.787  54.273  1.00  0.00    -0.278 N 
ATOM     19  H32 UNL     1      14.475   7.049  54.416  1.00  0.00     0.191 HD
ATOM     20  H31 UNL     1      13.011   7.413  53.725  1.00  0.00     0.191 HD
ENDBRANCH  17  18
ENDBRANCH   4  17
TORSDOF 7
ENDMDL
MODEL 4
REMARK VINA RESULT: -5.402627295      3.970      6.206
REMARK  7 active torsions:
REMARK  status: ('A' for Active; 'I' for Inactive)
REMARK    1  A    between atoms: S1_2  and  C2_3 
REMARK    2  A    between atoms: C3_6  and  N2_7 
REMARK    3  A    between atoms: N2_7  and  N3_8 
REMARK    4  A    between atoms: C5_14  and  C6_15 
REMARK    5  A    between atoms: C6_15  and  C7_16 
REMARK    6  A    between atoms: C7_16  and  O1_17 
REMARK    7  A    between atoms: O1_17  and  C8_18 
ROOT
HETATM    1  C2  UNL     1      15.343  11.019  56.449  1.00  0.00     0.085 A 
HETATM    2  N1  UNL     1      14.110  11.115  56.021  1.00  0.00    -0.321 N 
ATOM      3  H1  UNL     1      13.643  11.993  56.244  1.00  0.00     0.169 HD
HETATM    4  C3  UNL     1      13.359  10.227  55.328  1.00  0.00     0.232 A 
HETATM    5  C4  UNL     1      13.852   8.968  54.939  1.00  0.00     0.132 A 
HETATM    6  S2  UNL     1      12.911   7.930  54.100  1.00  0.00    -0.067 SA
HETATM    7  S3  UNL     1      15.449   8.636  55.398  1.00  0.00    -0.075 SA
HETATM    8  C5  UNL     1      16.154   9.921  56.256  1.00  0.00     0.020 A 
ENDROOT
BRANCH   8   9
HETATM    9  C6  UNL     1      17.536   9.918  56.782  1.00  0.00     0.076 C 
BRANCH   9  10
HETATM   10  C7  UNL     1      18.414   8.913  56.057  1.00  0.00     0.184 C 
BRANCH  10  11
HETATM   11  O1  UNL     1      19.729   9.448  56.112  1.00  0.00    -0.321 OA
BRANCH  11  12
HETATM   12  C8  UNL     1      20.134  10.567  55.435  1.00  0.00     0.254 C 
HETATM   13  C9  UNL     1      20.728  11.692  56.202  1.00  0.00     0.126 C 
HETATM   14  O2  UNL     1      20.007  10.641  54.210  1.00  0.00    -0.266 OA
ENDBRANCH  11  12
ENDBRANCH  10  11
ENDBRANCH   9  10
ENDBRANCH   8   9
BRANCH   1  15
HETATM   15  S1  UNL     1      16.055  12.427  57.370  1.00  0.00    -0.116 SA
HETATM   16  C1  UNL     1      14.850  13.747  57.507  1.00  0.00     0.097 C 
ENDBRANCH   1  15
BRANCH   4  17
HETATM   17  N2  UNL     1      12.213  10.483  55.015  1.00  0.00    -0.312 NA
BRANCH  17  18
HETATM   18  N3  UNL     1      11.030  10.826  54.712  1.00  0.00    -0.278 N 
ATOM     19  H32 UNL     1      11.416  11.620  55.223  1.00  0.00     0.191 HD
ATOM     20  H31 UNL     1      10.071  11.045  54.439  1.00  0.00     0.191 HD
ENDBRANCH  17  18
ENDBRANCH   4  17
TORSDOF 7
ENDMDL
MODEL 5
REMARK VINA RESULT: -5.265724098      2.923      4.246
REMARK  7 active torsions:
REMARK  status: ('A' for Active; 'I' for Inactive)
REMARK    1  A    between atoms: S1_2  and  C2_3 
REMARK    2  A    between atoms: C3_6  and  N2_7 
REMARK    3  A    between atoms: N2_7  and  N3_8 
REMARK    4  A    between atoms: C5_14  and  C6_15 
REMARK    5  A    between atoms: C6_15  and  C7_16 
REMARK    6  A    between atoms: C7_16  and  O1_17 
REMARK    7  A    between atoms: O1_17  and  C8_18 
ROOT
HETATM    1  C2  UNL     1      19.901  10.179  55.821  1.00  0.00     0.085 A 
HETATM    2  N1  UNL     1      20.854   9.592  55.145  1.00  0.00    -0.321 N 
ATOM      3  H1  UNL     1      21.626  10.200  54.871  1.00  0.00     0.169 HD
HETATM    4  C3  UNL     1      20.975   8.302  54.753  1.00  0.00     0.232 A 
HETATM    5  C4  UNL     1      20.000   7.332  55.049  1.00  0.00     0.132 A 
HETATM    6  S2  UNL     1      20.190   5.785  54.560  1.00  0.00    -0.067 SA
HETATM    7  S3  UNL     1      18.663   7.887  55.930  1.00  0.00    -0.075 SA
HETATM    8  C5  UNL     1      18.769   9.545  56.288  1.00  0.00     0.020 A 
ENDROOT
BRANCH   8   9
HETATM    9  C6  UNL     1      17.751  10.305  57.045  1.00  0.00     0.076 C 
BRANCH   9  10
HETATM   10  C7  UNL     1      16.555  10.661  56.180  1.00  0.00     0.184 C 
BRANCH  10  11
HETATM   11  O1  UNL     1      15.654   9.570  56.309  1.00  0.00    -0.321 OA
BRANCH  11  12
HETATM   12  C8  UNL     1      14.449   9.487  55.663  1.00  0.00     0.254 C 
HETATM   13  C9  UNL     1      14.307   8.533  54.532  1.00  0.00     0.126 C 
HETATM   14  O2  UNL     1      13.498  10.190  56.013  1.00  0.00    -0.266 OA
ENDBRANCH  11  12
ENDBRANCH  10  11
ENDBRANCH   9  10
ENDBRANCH   8   9
BRANCH   1  15
HETATM   15  S1  UNL     1      20.059  11.964  56.178  1.00  0.00    -0.116 SA
HETATM   16  C1  UNL     1      21.746  12.351  56.645  1.00  0.00     0.097 C 
ENDBRANCH   1  15
BRANCH   4  17
HETATM   17  N2  UNL     1      21.939   7.926  54.116  1.00  0.00    -0.312 NA
BRANCH  17  18
HETATM   18  N3  UNL     1      22.989   7.595  53.484  1.00  0.00    -0.278 N 
ATOM     19  H32 UNL     1      23.276   7.666  54.460  1.00  0.00     0.191 HD
ATOM     20  H31 UNL     1      23.797   7.328  52.921  1.00  0.00     0.191 HD
ENDBRANCH  17  18
ENDBRANCH   4  17
TORSDOF 7
ENDMDL
