MODEL 1
REMARK VINA RESULT: -7.339802438      0.000      0.000
REMARK  2 active torsions:
REMARK  status: ('A' for Active; 'I' for Inactive)
REMARK    1  A    between atoms: O1_2  and  C2_3 
REMARK    2  A    between atoms: C5_7  and  C6_8 
ROOT
HETATM    1  C2  UNL     1     -23.742 101.788   1.524  1.00  0.00     0.120 A 
HETATM    2  C3  UNL     1     -23.944 102.047   2.849  1.00  0.00     0.070 A 
HETATM    3 CL1  UNL     1     -25.427 101.415   3.574  1.00  0.00    -0.081 Cl
HETATM    4  C4  UNL     1     -23.023 102.770   3.579  1.00  0.00     0.041 A 
HETATM    5  C5  UNL     1     -21.849 103.277   3.037  1.00  0.00    -0.001 A 
HETATM    6  C15 UNL     1     -21.662 103.009   1.712  1.00  0.00     0.098 A 
HETATM    7  N2  UNL     1     -20.670 103.327   0.882  1.00  0.00    -0.239 N 
ATOM      8  H2  UNL     1     -19.836 103.863   1.125  1.00  0.00     0.197 HD
HETATM    9  O2  UNL     1     -20.945 102.838  -0.290  1.00  0.00    -0.156 OA
HETATM   10  N3  UNL     1     -22.079 102.208  -0.276  1.00  0.00    -0.237 N 
ATOM     11  H3  UNL     1     -22.516 101.736  -1.067  1.00  0.00     0.197 HD
HETATM   12  C16 UNL     1     -22.577 102.288   0.976  1.00  0.00     0.121 A 
ENDROOT
BRANCH   5  13
HETATM   13  C6  UNL     1     -21.001 104.068   3.909  1.00  0.00    -0.063 C 
HETATM   14  C7  UNL     1     -21.813 104.425   5.143  1.00  0.00     0.065 C 
HETATM   15  C8  UNL     1     -21.037 104.684   6.392  1.00  0.00     0.022 C 
HETATM   16  C9  UNL     1     -20.726 106.170   6.574  1.00  0.00     0.038 C 
HETATM   17  C10 UNL     1     -22.044 104.438   7.544  1.00  0.00     0.038 C 
HETATM   18  N1  UNL     1     -19.957 103.823   6.658  1.00  0.00    -0.405 N 
HETATM   19  C11 UNL     1     -19.304 103.188   5.588  1.00  0.00     0.022 C 
ATOM     20  H1  UNL     1     -19.651 103.661   7.618  1.00  0.00     0.154 HD
HETATM   21  C12 UNL     1     -17.801 103.496   5.780  1.00  0.00     0.038 C 
HETATM   22  C13 UNL     1     -19.387 101.686   5.601  1.00  0.00     0.038 C 
HETATM   23  C14 UNL     1     -19.630 103.769   4.210  1.00  0.00     0.065 C 
ENDBRANCH   5  13
BRANCH   1  24
HETATM   24  O1  UNL     1     -24.671 101.055   0.768  1.00  0.00    -0.352 OA
HETATM   25  C1  UNL     1     -24.352  99.672   0.574  1.00  0.00     0.210 C 
ENDBRANCH   1  24
TORSDOF 2
ENDMDL
MODEL 2
REMARK VINA RESULT: -7.161466813      2.464      3.060
REMARK  2 active torsions:
REMARK  status: ('A' for Active; 'I' for Inactive)
REMARK    1  A    between atoms: O1_2  and  C2_3 
REMARK    2  A    between atoms: C5_7  and  C6_8 
ROOT
HETATM    1  C2  UNL     1     -23.310 100.665   0.288  1.00  0.00     0.120 A 
HETATM    2  C3  UNL     1     -22.141 101.015   0.899  1.00  0.00     0.070 A 
HETATM    3 CL1  UNL     1     -20.686 100.136   0.412  1.00  0.00    -0.081 Cl
HETATM    4  C4  UNL     1     -22.109 102.013   1.851  1.00  0.00     0.041 A 
HETATM    5  C5  UNL     1     -23.235 102.721   2.251  1.00  0.00    -0.001 A 
HETATM    6  C15 UNL     1     -24.395 102.359   1.631  1.00  0.00     0.098 A 
HETATM    7  N2  UNL     1     -25.640 102.816   1.759  1.00  0.00    -0.239 N 
ATOM      8  H2  UNL     1     -25.942 103.559   2.390  1.00  0.00     0.197 HD
HETATM    9  O2  UNL     1     -26.404 102.153   0.943  1.00  0.00    -0.156 OA
HETATM   10  N3  UNL     1     -25.721 101.274   0.278  1.00  0.00    -0.237 N 
ATOM     11  H3  UNL     1     -26.088 100.630  -0.423  1.00  0.00     0.197 HD
HETATM   12  C16 UNL     1     -24.436 101.363   0.679  1.00  0.00     0.121 A 
ENDROOT
BRANCH   5  13
HETATM   13  C6  UNL     1     -23.063 103.704   3.305  1.00  0.00    -0.063 C 
HETATM   14  C7  UNL     1     -23.644 103.118   4.582  1.00  0.00     0.065 C 
HETATM   15  C8  UNL     1     -23.074 103.633   5.862  1.00  0.00     0.022 C 
HETATM   16  C9  UNL     1     -23.886 104.802   6.422  1.00  0.00     0.038 C 
HETATM   17  C10 UNL     1     -23.374 102.524   6.903  1.00  0.00     0.038 C 
HETATM   18  N1  UNL     1     -21.680 103.813   5.910  1.00  0.00    -0.405 N 
HETATM   19  C11 UNL     1     -20.979 104.069   4.718  1.00  0.00     0.022 C 
ATOM     20  H1  UNL     1     -21.182 103.757   6.799  1.00  0.00     0.154 HD
HETATM   21  C12 UNL     1     -20.142 105.338   4.996  1.00  0.00     0.038 C 
HETATM   22  C13 UNL     1     -19.966 103.022   4.346  1.00  0.00     0.038 C 
HETATM   23  C14 UNL     1     -21.865 104.459   3.532  1.00  0.00     0.065 C 
ENDBRANCH   5  13
BRANCH   1  24
HETATM   24  O1  UNL     1     -23.359  99.651  -0.682  1.00  0.00    -0.352 OA
HETATM   25  C1  UNL     1     -23.510  98.320  -0.174  1.00  0.00     0.210 C 
ENDBRANCH   1  24
TORSDOF 2
ENDMDL
MODEL 3
REMARK VINA RESULT: -7.112665023      3.679      5.558
REMARK  2 active torsions:
REMARK  status: ('A' for Active; 'I' for Inactive)
REMARK    1  A    between atoms: O1_2  and  C2_3 
REMARK    2  A    between atoms: C5_7  and  C6_8 
ROOT
HETATM    1  C2  UNL     1     -22.412 101.876   1.460  1.00  0.00     0.120 A 
HETATM    2  C3  UNL     1     -22.660 102.839   2.396  1.00  0.00     0.070 A 
HETATM    3 CL1  UNL     1     -21.347 103.967   2.755  1.00  0.00    -0.081 Cl
HETATM    4  C4  UNL     1     -23.886 102.918   3.024  1.00  0.00     0.041 A 
HETATM    5  C5  UNL     1     -24.935 102.047   2.760  1.00  0.00    -0.001 A 
HETATM    6  C15 UNL     1     -24.671 101.091   1.824  1.00  0.00     0.098 A 
HETATM    7  N2  UNL     1     -25.428 100.113   1.328  1.00  0.00    -0.239 N 
ATOM      8  H2  UNL     1     -26.391  99.909   1.594  1.00  0.00     0.197 HD
HETATM    9  O2  UNL     1     -24.728  99.462   0.447  1.00  0.00    -0.156 OA
HETATM   10  N3  UNL     1     -23.537  99.966   0.335  1.00  0.00    -0.237 N 
ATOM     11  H3  UNL     1     -22.800  99.636  -0.287  1.00  0.00     0.197 HD
HETATM   12  C16 UNL     1     -23.450 101.005   1.191  1.00  0.00     0.121 A 
ENDROOT
BRANCH   5  13
HETATM   13  C6  UNL     1     -26.149 102.213   3.539  1.00  0.00    -0.063 C 
HETATM   14  C7  UNL     1     -25.821 101.872   4.984  1.00  0.00     0.065 C 
HETATM   15  C8  UNL     1     -26.674 102.518   6.024  1.00  0.00     0.022 C 
HETATM   16  C9  UNL     1     -27.853 101.632   6.430  1.00  0.00     0.038 C 
HETATM   17  C10 UNL     1     -25.814 102.494   7.313  1.00  0.00     0.038 C 
HETATM   18  N1  UNL     1     -27.000 103.872   5.826  1.00  0.00    -0.405 N 
HETATM   19  C11 UNL     1     -27.042 104.385   4.518  1.00  0.00     0.022 C 
ATOM     20  H1  UNL     1     -27.204 104.475   6.623  1.00  0.00     0.154 HD
HETATM   21  C12 UNL     1     -28.420 105.075   4.389  1.00  0.00     0.038 C 
HETATM   22  C13 UNL     1     -26.045 105.476   4.237  1.00  0.00     0.038 C 
HETATM   23  C14 UNL     1     -27.054 103.320   3.418  1.00  0.00     0.065 C 
ENDBRANCH   5  13
BRANCH   1  24
HETATM   24  O1  UNL     1     -21.169 101.782   0.813  1.00  0.00    -0.352 OA
HETATM   25  C1  UNL     1     -21.090 102.424  -0.464  1.00  0.00     0.210 C 
ENDBRANCH   1  24
TORSDOF 2
ENDMDL
MODEL 4
REMARK VINA RESULT: -7.076136467      3.319      5.100
REMARK  2 active torsions:
REMARK  status: ('A' for Active; 'I' for Inactive)
REMARK    1  A    between atoms: O1_2  and  C2_3 
REMARK    2  A    between atoms: C5_7  and  C6_8 
ROOT
HETATM    1  C2  UNL     1     -22.177 101.443   1.220  1.00  0.00     0.120 A 
HETATM    2  C3  UNL     1     -22.021 102.111   2.401  1.00  0.00     0.070 A 
HETATM    3 CL1  UNL     1     -20.467 102.908   2.674  1.00  0.00    -0.081 Cl
HETATM    4  C4  UNL     1     -23.040 102.157   3.330  1.00  0.00     0.041 A 
HETATM    5  C5  UNL     1     -24.271 101.542   3.141  1.00  0.00    -0.001 A 
HETATM    6  C15 UNL     1     -24.411 100.879   1.957  1.00  0.00     0.098 A 
HETATM    7  N2  UNL     1     -25.434 100.194   1.448  1.00  0.00    -0.239 N 
ATOM      8  H2  UNL     1     -26.337 100.045   1.899  1.00  0.00     0.197 HD
HETATM    9  O2  UNL     1     -25.085  99.748   0.278  1.00  0.00    -0.156 OA
HETATM   10  N3  UNL     1     -23.873 100.107  -0.013  1.00  0.00    -0.237 N 
ATOM     11  H3  UNL     1     -23.369  99.885  -0.871  1.00  0.00     0.197 HD
HETATM   12  C16 UNL     1     -23.399 100.828   1.024  1.00  0.00     0.121 A 
ENDROOT
BRANCH   5  13
HETATM   13  C6  UNL     1     -25.229 101.624   4.229  1.00  0.00    -0.063 C 
HETATM   14  C7  UNL     1     -24.449 101.852   5.514  1.00  0.00     0.065 C 
HETATM   15  C8  UNL     1     -25.179 102.549   6.614  1.00  0.00     0.022 C 
HETATM   16  C9  UNL     1     -25.837 101.561   7.580  1.00  0.00     0.038 C 
HETATM   17  C10 UNL     1     -24.067 103.156   7.506  1.00  0.00     0.038 C 
HETATM   18  N1  UNL     1     -25.991 103.637   6.247  1.00  0.00    -0.405 N 
HETATM   19  C11 UNL     1     -26.536 103.683   4.953  1.00  0.00     0.022 C 
ATOM     20  H1  UNL     1     -26.181 104.386   6.914  1.00  0.00     0.154 HD
HETATM   21  C12 UNL     1     -28.052 103.914   5.151  1.00  0.00     0.038 C 
HETATM   22  C13 UNL     1     -26.082 104.849   4.118  1.00  0.00     0.038 C 
HETATM   23  C14 UNL     1     -26.459 102.361   4.184  1.00  0.00     0.065 C 
ENDBRANCH   5  13
BRANCH   1  24
HETATM   24  O1  UNL     1     -21.149 101.387   0.265  1.00  0.00    -0.352 OA
HETATM   25  C1  UNL     1     -21.211 102.380  -0.765  1.00  0.00     0.210 C 
ENDBRANCH   1  24
TORSDOF 2
ENDMDL
MODEL 5
REMARK VINA RESULT: -7.072694850      3.235      6.508
REMARK  2 active torsions:
REMARK  status: ('A' for Active; 'I' for Inactive)
REMARK    1  A    between atoms: O1_2  and  C2_3 
REMARK    2  A    between atoms: C5_7  and  C6_8 
ROOT
HETATM    1  C2  UNL     1     -20.208 104.429   6.081  1.00  0.00     0.120 A 
HETATM    2  C3  UNL     1     -19.533 103.794   5.078  1.00  0.00     0.070 A 
HETATM    3 CL1  UNL     1     -17.841 103.384   5.384  1.00  0.00    -0.081 Cl
HETATM    4  C4  UNL     1     -20.156 103.490   3.886  1.00  0.00     0.041 A 
HETATM    5  C5  UNL     1     -21.484 103.798   3.619  1.00  0.00    -0.001 A 
HETATM    6  C15 UNL     1     -22.145 104.432   4.630  1.00  0.00     0.098 A 
HETATM    7  N2  UNL     1     -23.401 104.865   4.725  1.00  0.00    -0.239 N 
ATOM      8  H2  UNL     1     -24.116 104.786   4.002  1.00  0.00     0.197 HD
HETATM    9  O2  UNL     1     -23.560 105.403   5.897  1.00  0.00    -0.156 OA
HETATM   10  N3  UNL     1     -22.462 105.348   6.587  1.00  0.00    -0.237 N 
ATOM     11  H3  UNL     1     -22.328 105.700   7.534  1.00  0.00     0.197 HD
HETATM   12  C16 UNL     1     -21.530 104.740   5.825  1.00  0.00     0.121 A 
ENDROOT
BRANCH   5  13
HETATM   13  C6  UNL     1     -21.991 103.470   2.299  1.00  0.00    -0.063 C 
HETATM   14  C7  UNL     1     -21.073 102.415   1.702  1.00  0.00     0.065 C 
HETATM   15  C8  UNL     1     -21.683 101.513   0.680  1.00  0.00     0.022 C 
HETATM   16  C9  UNL     1     -21.466 102.030  -0.743  1.00  0.00     0.038 C 
HETATM   17  C10 UNL     1     -20.789 100.247   0.686  1.00  0.00     0.038 C 
HETATM   18  N1  UNL     1     -22.983 101.045   0.942  1.00  0.00    -0.405 N 
HETATM   19  C11 UNL     1     -23.841 101.813   1.748  1.00  0.00     0.022 C 
ATOM     20  H1  UNL     1     -23.300 100.158   0.550  1.00  0.00     0.154 HD
HETATM   21  C12 UNL     1     -25.144 101.970   0.932  1.00  0.00     0.038 C 
HETATM   22  C13 UNL     1     -24.272 101.144   3.024  1.00  0.00     0.038 C 
HETATM   23  C14 UNL     1     -23.373 103.252   1.983  1.00  0.00     0.065 C 
ENDBRANCH   5  13
BRANCH   1  24
HETATM   24  O1  UNL     1     -19.588 104.746   7.300  1.00  0.00    -0.352 OA
HETATM   25  C1  UNL     1     -19.110 106.092   7.416  1.00  0.00     0.210 C 
ENDBRANCH   1  24
TORSDOF 2
ENDMDL
