MODEL 1
REMARK VINA RESULT: -7.700106334      0.000      0.000
REMARK  3 active torsions:
REMARK  status: ('A' for Active; 'I' for Inactive)
REMARK    1  A    between atoms: C4_5  and  N1_6 
REMARK    2  A    between atoms: N2_9  and  C7_10 
REMARK    3  A    between atoms: C10_16  and  C11_17 
ROOT
HETATM    1  N1  UNL     1      21.891  11.430 -13.162  1.00  0.00    -0.354 N 
HETATM    2  C5  UNL     1      20.457  11.421 -13.346  1.00  0.00     0.145 C 
HETATM    3  C6  UNL     1      19.932  11.287 -11.938  1.00  0.00     0.149 C 
HETATM    4  N2  UNL     1      20.908  10.382 -11.378  1.00  0.00    -0.320 N 
HETATM    5  C10 UNL     1      22.186  10.670 -11.996  1.00  0.00     0.224 C 
ENDROOT
BRANCH   5   6
HETATM    6  C11 UNL     1      22.987  11.360 -10.963  1.00  0.00    -0.013 A 
HETATM    7  C12 UNL     1      24.360  11.385 -10.935  1.00  0.00     0.014 A 
HETATM    8  C13 UNL     1      25.011  12.083  -9.929  1.00  0.00     0.040 A 
HETATM    9  C14 UNL     1      24.318  12.755  -8.950  1.00  0.00     0.105 A 
HETATM   10  C15 UNL     1      22.944  12.744  -8.958  1.00  0.00     0.105 A 
HETATM   11  O3  UNL     1      24.715  13.521  -7.842  1.00  0.00    -0.323 OA
HETATM   12  C16 UNL     1      22.317  12.042  -9.970  1.00  0.00     0.050 A 
HETATM   13  O2  UNL     1      22.532  13.490  -7.875  1.00  0.00    -0.323 OA
HETATM   14  C17 UNL     1      23.602  13.540  -6.955  1.00  0.00     0.352 C 
ENDBRANCH   5   6
BRANCH   1  15
HETATM   15  C4  UNL     1      22.782  12.102 -14.040  1.00  0.00     0.032 A 
HETATM   16  C3  UNL     1      22.830  13.495 -14.097  1.00  0.00     0.031 A 
HETATM   17  C2  UNL     1      23.686  14.175 -14.947  1.00  0.00     0.021 A 
HETATM   18  C1  UNL     1      24.525  13.474 -15.771  1.00  0.00     0.011 A 
HETATM   19 BR1  UNL     1      25.716  14.404 -16.955  1.00  0.00    -0.051 Br
HETATM   20  C19 UNL     1      24.510  12.117 -15.746  1.00  0.00     0.021 A 
HETATM   21  C18 UNL     1      23.649  11.466 -14.890  1.00  0.00     0.031 A 
ENDBRANCH   1  15
BRANCH   4  22
HETATM   22  C7  UNL     1      20.661   9.389 -10.401  1.00  0.00     0.228 A 
HETATM   23  N3  UNL     1      21.515   8.706  -9.619  1.00  0.00    -0.330 N 
HETATM   24  C8  UNL     1      20.821   7.848  -8.826  1.00  0.00     0.116 A 
ATOM     25  H3  UNL     1      22.530   8.815  -9.620  1.00  0.00     0.168 HD
HETATM   26  C9  UNL     1      19.502   8.052  -9.173  1.00  0.00     0.162 A 
HETATM   27  O1  UNL     1      19.445   8.965 -10.101  1.00  0.00    -0.290 OA
ENDBRANCH   4  22
TORSDOF 3
ENDMDL
MODEL 2
REMARK VINA RESULT: -7.654322944      3.541      6.449
REMARK  3 active torsions:
REMARK  status: ('A' for Active; 'I' for Inactive)
REMARK    1  A    between atoms: C4_5  and  N1_6 
REMARK    2  A    between atoms: N2_9  and  C7_10 
REMARK    3  A    between atoms: C10_16  and  C11_17 
ROOT
HETATM    1  N1  UNL     1      24.828  13.197 -11.080  1.00  0.00    -0.354 N 
HETATM    2  C5  UNL     1      25.329  14.237 -11.952  1.00  0.00     0.145 C 
HETATM    3  C6  UNL     1      24.599  13.980 -13.247  1.00  0.00     0.149 C 
HETATM    4  N2  UNL     1      24.588  12.536 -13.261  1.00  0.00    -0.320 N 
HETATM    5  C10 UNL     1      24.481  12.080 -11.890  1.00  0.00     0.224 C 
ENDROOT
BRANCH   5   6
HETATM    6  C11 UNL     1      23.099  11.578 -11.740  1.00  0.00    -0.013 A 
HETATM    7  C12 UNL     1      21.979  12.259 -12.149  1.00  0.00     0.014 A 
HETATM    8  C13 UNL     1      20.728  11.684 -11.979  1.00  0.00     0.040 A 
HETATM    9  C14 UNL     1      20.575  10.443 -11.407  1.00  0.00     0.105 A 
HETATM   10  C15 UNL     1      21.682   9.744 -10.990  1.00  0.00     0.105 A 
HETATM   11  O3  UNL     1      19.455   9.647 -11.121  1.00  0.00    -0.323 OA
HETATM   12  C16 UNL     1      22.917  10.336 -11.170  1.00  0.00     0.050 A 
HETATM   13  O2  UNL     1      21.227   8.553 -10.466  1.00  0.00    -0.323 OA
HETATM   14  C17 UNL     1      19.870   8.726 -10.118  1.00  0.00     0.352 C 
ENDBRANCH   5   6
BRANCH   1  15
HETATM   15  C4  UNL     1      24.733  13.343  -9.671  1.00  0.00     0.032 A 
HETATM   16  C3  UNL     1      25.851  13.662  -8.900  1.00  0.00     0.031 A 
HETATM   17  C2  UNL     1      25.789  13.805  -7.524  1.00  0.00     0.021 A 
HETATM   18  C1  UNL     1      24.595  13.632  -6.876  1.00  0.00     0.011 A 
HETATM   19 BR1  UNL     1      24.493  13.827  -4.969  1.00  0.00    -0.051 Br
HETATM   20  C19 UNL     1      23.483  13.321  -7.590  1.00  0.00     0.021 A 
HETATM   21  C18 UNL     1      23.574  13.185  -8.958  1.00  0.00     0.031 A 
ENDBRANCH   1  15
BRANCH   4  22
HETATM   22  C7  UNL     1      24.670  11.712 -14.408  1.00  0.00     0.228 A 
HETATM   23  N3  UNL     1      23.719  11.346 -15.285  1.00  0.00    -0.330 N 
HETATM   24  C8  UNL     1      24.262  10.540 -16.235  1.00  0.00     0.116 A 
ATOM     25  H3  UNL     1      22.740  11.629 -15.245  1.00  0.00     0.168 HD
HETATM   26  C9  UNL     1      25.592  10.441 -15.882  1.00  0.00     0.162 A 
HETATM   27  O1  UNL     1      25.796  11.143 -14.804  1.00  0.00    -0.290 OA
ENDBRANCH   4  22
TORSDOF 3
ENDMDL
MODEL 3
REMARK VINA RESULT: -7.559764905      2.230      4.663
REMARK  3 active torsions:
REMARK  status: ('A' for Active; 'I' for Inactive)
REMARK    1  A    between atoms: C4_5  and  N1_6 
REMARK    2  A    between atoms: N2_9  and  C7_10 
REMARK    3  A    between atoms: C10_16  and  C11_17 
ROOT
HETATM    1  N1  UNL     1      24.439  12.983 -11.844  1.00  0.00    -0.354 N 
HETATM    2  C5  UNL     1      25.815  13.297 -11.531  1.00  0.00     0.145 C 
HETATM    3  C6  UNL     1      26.001  12.697 -10.160  1.00  0.00     0.149 C 
HETATM    4  N2  UNL     1      24.715  12.986  -9.570  1.00  0.00    -0.320 N 
HETATM    5  C10 UNL     1      23.718  12.913 -10.619  1.00  0.00     0.224 C 
ENDROOT
BRANCH   5   6
HETATM    6  C11 UNL     1      22.973  11.660 -10.381  1.00  0.00    -0.013 A 
HETATM    7  C12 UNL     1      23.466  10.586  -9.681  1.00  0.00     0.014 A 
HETATM    8  C13 UNL     1      22.670   9.465  -9.497  1.00  0.00     0.040 A 
HETATM    9  C14 UNL     1      21.392   9.396 -10.000  1.00  0.00     0.105 A 
HETATM   10  C15 UNL     1      20.878  10.458 -10.704  1.00  0.00     0.105 A 
HETATM   11  O3  UNL     1      20.396   8.408  -9.962  1.00  0.00    -0.323 OA
HETATM   12  C16 UNL     1      21.689  11.564 -10.874  1.00  0.00     0.050 A 
HETATM   13  O2  UNL     1      19.599  10.107 -11.077  1.00  0.00    -0.323 OA
HETATM   14  C17 UNL     1      19.509   8.699 -11.038  1.00  0.00     0.352 C 
ENDBRANCH   5   6
BRANCH   1  15
HETATM   15  C4  UNL     1      23.967  12.797 -13.171  1.00  0.00     0.032 A 
HETATM   16  C3  UNL     1      23.093  13.708 -13.763  1.00  0.00     0.031 A 
HETATM   17  C2  UNL     1      22.614  13.549 -15.052  1.00  0.00     0.021 A 
HETATM   18  C1  UNL     1      22.999  12.462 -15.791  1.00  0.00     0.011 A 
HETATM   19 BR1  UNL     1      22.342  12.227 -17.580  1.00  0.00    -0.051 Br
HETATM   20  C19 UNL     1      23.849  11.551 -15.251  1.00  0.00     0.021 A 
HETATM   21  C18 UNL     1      24.310  11.735 -13.966  1.00  0.00     0.031 A 
ENDBRANCH   1  15
BRANCH   4  22
HETATM   22  C7  UNL     1      24.470  13.289  -8.210  1.00  0.00     0.228 A 
HETATM   23  N3  UNL     1      25.308  13.312  -7.159  1.00  0.00    -0.330 N 
HETATM   24  C8  UNL     1      24.623  13.660  -6.038  1.00  0.00     0.116 A 
ATOM     25  H3  UNL     1      26.305  13.102  -7.197  1.00  0.00     0.168 HD
HETATM   26  C9  UNL     1      23.327  13.844  -6.471  1.00  0.00     0.162 A 
HETATM   27  O1  UNL     1      23.273  13.617  -7.753  1.00  0.00    -0.290 OA
ENDBRANCH   4  22
TORSDOF 3
ENDMDL
MODEL 4
REMARK VINA RESULT: -7.491795511      2.005      4.478
REMARK  3 active torsions:
REMARK  status: ('A' for Active; 'I' for Inactive)
REMARK    1  A    between atoms: C4_5  and  N1_6 
REMARK    2  A    between atoms: N2_9  and  C7_10 
REMARK    3  A    between atoms: C10_16  and  C11_17 
ROOT
HETATM    1  N1  UNL     1      23.878  12.532 -12.798  1.00  0.00    -0.354 N 
HETATM    2  C5  UNL     1      25.282  12.368 -12.493  1.00  0.00     0.145 C 
HETATM    3  C6  UNL     1      25.263  11.724 -11.129  1.00  0.00     0.149 C 
HETATM    4  N2  UNL     1      24.149  12.417 -10.526  1.00  0.00    -0.320 N 
HETATM    5  C10 UNL     1      23.180  12.691 -11.568  1.00  0.00     0.224 C 
ENDROOT
BRANCH   5   6
HETATM    6  C11 UNL     1      22.062  11.754 -11.335  1.00  0.00    -0.013 A 
HETATM    7  C12 UNL     1      20.780  11.949 -11.788  1.00  0.00     0.014 A 
HETATM    8  C13 UNL     1      19.810  10.991 -11.531  1.00  0.00     0.040 A 
HETATM    9  C14 UNL     1      20.096   9.843 -10.829  1.00  0.00     0.105 A 
HETATM   10  C15 UNL     1      21.371   9.628 -10.367  1.00  0.00     0.105 A 
HETATM   11  O3  UNL     1      19.324   8.738 -10.437  1.00  0.00    -0.323 OA
HETATM   12  C16 UNL     1      22.320  10.595 -10.635  1.00  0.00     0.050 A 
HETATM   13  O2  UNL     1      21.357   8.415  -9.711  1.00  0.00    -0.323 OA
HETATM   14  C17 UNL     1      20.021   8.135  -9.353  1.00  0.00     0.352 C 
ENDBRANCH   5   6
BRANCH   1  15
HETATM   15  C4  UNL     1      23.365  12.528 -14.122  1.00  0.00     0.032 A 
HETATM   16  C3  UNL     1      22.481  13.514 -14.558  1.00  0.00     0.031 A 
HETATM   17  C2  UNL     1      21.961  13.532 -15.842  1.00  0.00     0.021 A 
HETATM   18  C1  UNL     1      22.316  12.554 -16.732  1.00  0.00     0.011 A 
HETATM   19 BR1  UNL     1      21.604  12.565 -18.515  1.00  0.00    -0.051 Br
HETATM   20  C19 UNL     1      23.175  11.576 -16.347  1.00  0.00     0.021 A 
HETATM   21  C18 UNL     1      23.676  11.583 -15.064  1.00  0.00     0.031 A 
ENDBRANCH   1  15
BRANCH   4  22
HETATM   22  C7  UNL     1      24.025  12.768  -9.161  1.00  0.00     0.228 A 
HETATM   23  N3  UNL     1      24.960  12.878  -8.202  1.00  0.00    -0.330 N 
HETATM   24  C8  UNL     1      24.373  13.242  -7.032  1.00  0.00     0.116 A 
ATOM     25  H3  UNL     1      25.959  12.715  -8.332  1.00  0.00     0.168 HD
HETATM   26  C9  UNL     1      23.032  13.345  -7.339  1.00  0.00     0.162 A 
HETATM   27  O1  UNL     1      22.864  13.059  -8.598  1.00  0.00    -0.290 OA
ENDBRANCH   4  22
TORSDOF 3
ENDMDL
MODEL 5
REMARK VINA RESULT: -7.350937225      0.965      1.576
REMARK  3 active torsions:
REMARK  status: ('A' for Active; 'I' for Inactive)
REMARK    1  A    between atoms: C4_5  and  N1_6 
REMARK    2  A    between atoms: N2_9  and  C7_10 
REMARK    3  A    between atoms: C10_16  and  C11_17 
ROOT
HETATM    1  N1  UNL     1      22.154  11.448 -13.024  1.00  0.00    -0.354 N 
HETATM    2  C5  UNL     1      20.781  11.333 -13.466  1.00  0.00     0.145 C 
HETATM    3  C6  UNL     1      20.015  11.201 -12.173  1.00  0.00     0.149 C 
HETATM    4  N2  UNL     1      20.927  10.383 -11.408  1.00  0.00    -0.320 N 
HETATM    5  C10 UNL     1      22.276  10.743 -11.794  1.00  0.00     0.224 C 
ENDROOT
BRANCH   5   6
HETATM    6  C11 UNL     1      22.827  11.515 -10.661  1.00  0.00    -0.013 A 
HETATM    7  C12 UNL     1      22.081  11.984  -9.608  1.00  0.00     0.014 A 
HETATM    8  C13 UNL     1      22.706  12.680  -8.583  1.00  0.00     0.040 A 
HETATM    9  C14 UNL     1      24.061  12.917  -8.591  1.00  0.00     0.105 A 
HETATM   10  C15 UNL     1      24.826  12.456  -9.635  1.00  0.00     0.105 A 
HETATM   11  O3  UNL     1      24.927  13.577  -7.706  1.00  0.00    -0.323 OA
HETATM   12  C16 UNL     1      24.183  11.766 -10.643  1.00  0.00     0.050 A 
HETATM   13  O2  UNL     1      26.125  12.836  -9.373  1.00  0.00    -0.323 OA
HETATM   14  C17 UNL     1      26.084  13.914  -8.463  1.00  0.00     0.352 C 
ENDBRANCH   5   6
BRANCH   1  15
HETATM   15  C4  UNL     1      23.147  12.156 -13.751  1.00  0.00     0.032 A 
HETATM   16  C3  UNL     1      23.127  13.548 -13.837  1.00  0.00     0.031 A 
HETATM   17  C2  UNL     1      24.079  14.263 -14.543  1.00  0.00     0.021 A 
HETATM   18  C1  UNL     1      25.088  13.599 -15.188  1.00  0.00     0.011 A 
HETATM   19 BR1  UNL     1      26.416  14.577 -16.172  1.00  0.00    -0.051 Br
HETATM   20  C19 UNL     1      25.144  12.244 -15.129  1.00  0.00     0.021 A 
HETATM   21  C18 UNL     1      24.183  11.558 -14.420  1.00  0.00     0.031 A 
ENDBRANCH   1  15
BRANCH   4  22
HETATM   22  C7  UNL     1      20.568   9.403 -10.454  1.00  0.00     0.228 A 
HETATM   23  N3  UNL     1      19.365   8.889 -10.143  1.00  0.00    -0.330 N 
HETATM   24  C8  UNL     1      19.505   7.967  -9.155  1.00  0.00     0.116 A 
ATOM     25  H3  UNL     1      18.483   9.152 -10.582  1.00  0.00     0.168 HD
HETATM   26  C9  UNL     1      20.857   7.953  -8.887  1.00  0.00     0.162 A 
HETATM   27  O1  UNL     1      21.452   8.809  -9.669  1.00  0.00    -0.290 OA
ENDBRANCH   4  22
TORSDOF 3
ENDMDL
