MODEL 1
REMARK VINA RESULT: -7.088808244      0.000      0.000
REMARK  5 active torsions:
REMARK  status: ('A' for Active; 'I' for Inactive)
REMARK    1  A    between atoms: S1_3  and  C3_4 
REMARK    2  A    between atoms: C3_4  and  C4_5 
REMARK    3  A    between atoms: C5_6  and  C6_7 
REMARK    4  A    between atoms: C6_7  and  C8_10 
REMARK    5  A    between atoms: C6_7  and  C14_18 
ROOT
HETATM    1  C1  UNL     1      10.751  13.185  24.306  1.00  0.00     0.025 C 
HETATM    2  C2  UNL     1      11.645  12.370  24.395  1.00  0.00    -0.044 C 
HETATM    3  S1  UNL     1      12.959  11.206  24.540  1.00  0.00    -0.067 SA
ENDROOT
BRANCH   3   4
HETATM    4  C3  UNL     1      13.129  10.299  22.995  1.00  0.00     0.182 C 
BRANCH   4   5
HETATM    5  C4  UNL     1      13.005  11.144  21.824  1.00  0.00    -0.093 C 
HETATM    6  C5  UNL     1      12.913  11.863  20.859  1.00  0.00    -0.070 C 
BRANCH   6   7
HETATM    7  C6  UNL     1      12.807  12.762  19.697  1.00  0.00     0.174 C 
HETATM    8  C7  UNL     1      13.933  12.397  18.801  1.00  0.00     0.093 C 
HETATM    9  N1  UNL     1      14.824  12.105  18.120  1.00  0.00    -0.195 NA
BRANCH   7  10
HETATM   10  C8  UNL     1      12.841  14.166  20.069  1.00  0.00    -0.017 A 
HETATM   11  C9  UNL     1      13.182  15.128  19.155  1.00  0.00     0.012 A 
HETATM   12  C10 UNL     1      13.216  16.481  19.516  1.00  0.00     0.026 A 
HETATM   13  C11 UNL     1      12.901  16.818  20.800  1.00  0.00     0.055 A 
HETATM   14 CL1  UNL     1      12.930  18.488  21.290  1.00  0.00    -0.083 Cl
HETATM   15  C12 UNL     1      12.553  15.872  21.739  1.00  0.00     0.056 A 
HETATM   16 CL2  UNL     1      12.159  16.363  23.375  1.00  0.00    -0.083 Cl
HETATM   17  C13 UNL     1      12.531  14.554  21.347  1.00  0.00     0.035 A 
ENDBRANCH   7  10
BRANCH   7  18
HETATM   18  C14 UNL     1      11.568  12.377  18.971  1.00  0.00     0.049 A 
HETATM   19  S2  UNL     1      11.476  11.867  17.365  1.00  0.00    -0.071 SA
HETATM   20  C15 UNL     1       9.755  11.604  17.244  1.00  0.00     0.090 A 
HETATM   21  N2  UNL     1       9.043  11.181  16.179  1.00  0.00    -0.330 N 
HETATM   22  C18 UNL     1       9.323  11.932  18.486  1.00  0.00     0.051 A 
HETATM   23  C16 UNL     1       7.728  10.984  16.100  1.00  0.00     0.144 A 
ATOM     24  H2  UNL     1       9.577  10.988  15.332  1.00  0.00     0.168 HD
HETATM   25  N3  UNL     1       7.145  10.571  15.012  1.00  0.00    -0.380 N 
HETATM   26  S3  UNL     1       6.921  11.326  17.548  1.00  0.00    -0.042 SA
ATOM     27  H32 UNL     1       7.631  10.365  14.140  1.00  0.00     0.158 HD
ATOM     28  H31 UNL     1       6.138  10.421  14.952  1.00  0.00     0.158 HD
HETATM   29  C17 UNL     1       7.941  11.846  18.794  1.00  0.00     0.090 A 
HETATM   30  S4  UNL     1       7.348  12.229  20.278  1.00  0.00    -0.071 SA
HETATM   31  C19 UNL     1      10.269  12.336  19.391  1.00  0.00     0.077 A 
HETATM   32  N4  UNL     1      10.012  12.736  20.781  1.00  0.00    -0.100 NA
ENDBRANCH   7  18
ENDBRANCH   6   7
ENDBRANCH   4   5
ENDBRANCH   3   4
TORSDOF 5
ENDMDL
MODEL 2
REMARK VINA RESULT: -6.747895530      3.223      4.817
REMARK  5 active torsions:
REMARK  status: ('A' for Active; 'I' for Inactive)
REMARK    1  A    between atoms: S1_3  and  C3_4 
REMARK    2  A    between atoms: C3_4  and  C4_5 
REMARK    3  A    between atoms: C5_6  and  C6_7 
REMARK    4  A    between atoms: C6_7  and  C8_10 
REMARK    5  A    between atoms: C6_7  and  C14_18 
ROOT
HETATM    1  C1  UNL     1      16.720  17.845  19.717  1.00  0.00     0.025 C 
HETATM    2  C2  UNL     1      15.837  17.391  20.413  1.00  0.00    -0.044 C 
HETATM    3  S1  UNL     1      14.574  16.714  21.437  1.00  0.00    -0.067 SA
ENDROOT
BRANCH   3   4
HETATM    4  C3  UNL     1      13.089  16.443  20.457  1.00  0.00     0.182 C 
BRANCH   4   5
HETATM    5  C4  UNL     1      12.881  15.049  20.116  1.00  0.00    -0.093 C 
HETATM    6  C5  UNL     1      12.724  13.891  19.816  1.00  0.00    -0.070 C 
BRANCH   6   7
HETATM    7  C6  UNL     1      12.543  12.481  19.426  1.00  0.00     0.174 C 
HETATM    8  C7  UNL     1      12.820  11.687  20.649  1.00  0.00     0.093 C 
HETATM    9  N1  UNL     1      13.049  11.083  21.611  1.00  0.00    -0.195 NA
BRANCH   7  10
HETATM   10  C8  UNL     1      13.400  12.092  18.319  1.00  0.00    -0.017 A 
HETATM   11  C9  UNL     1      13.512  10.779  17.944  1.00  0.00     0.012 A 
HETATM   12  C10 UNL     1      14.340  10.405  16.878  1.00  0.00     0.026 A 
HETATM   13  C11 UNL     1      15.032  11.381  16.221  1.00  0.00     0.055 A 
HETATM   14 CL1  UNL     1      16.072  10.959  14.890  1.00  0.00    -0.083 Cl
HETATM   15  C12 UNL     1      14.938  12.708  16.576  1.00  0.00     0.056 A 
HETATM   16 CL2  UNL     1      15.852  13.918  15.698  1.00  0.00    -0.083 Cl
HETATM   17  C13 UNL     1      14.115  13.036  17.629  1.00  0.00     0.035 A 
ENDBRANCH   7  10
BRANCH   7  18
HETATM   18  C14 UNL     1      11.096  12.299  19.140  1.00  0.00     0.049 A 
HETATM   19  S2  UNL     1      10.428  11.814  17.669  1.00  0.00    -0.071 SA
HETATM   20  C15 UNL     1       8.737  11.827  18.102  1.00  0.00     0.090 A 
HETATM   21  N2  UNL     1       7.671  11.525  17.332  1.00  0.00    -0.330 N 
HETATM   22  C18 UNL     1       8.773  12.218  19.399  1.00  0.00     0.051 A 
HETATM   23  C16 UNL     1       6.384  11.540  17.676  1.00  0.00     0.144 A 
ATOM     24  H2  UNL     1       7.875  11.251  16.371  1.00  0.00     0.168 HD
HETATM   25  N3  UNL     1       5.432  11.227  16.844  1.00  0.00    -0.380 N 
HETATM   26  S3  UNL     1       6.135  12.003  19.284  1.00  0.00    -0.042 SA
ATOM     27  H32 UNL     1       5.583  10.947  15.874  1.00  0.00     0.158 HD
ATOM     28  H31 UNL     1       4.447  11.239  17.107  1.00  0.00     0.158 HD
HETATM   29  C17 UNL     1       7.561  12.352  20.124  1.00  0.00     0.090 A 
HETATM   30  S4  UNL     1       7.530  12.821  21.700  1.00  0.00    -0.071 SA
HETATM   31  C19 UNL     1      10.005  12.465  19.944  1.00  0.00     0.077 A 
HETATM   32  N4  UNL     1      10.262  12.897  21.325  1.00  0.00    -0.100 NA
ENDBRANCH   7  18
ENDBRANCH   6   7
ENDBRANCH   4   5
ENDBRANCH   3   4
TORSDOF 5
ENDMDL
MODEL 3
REMARK VINA RESULT: -6.682602561      2.932      4.097
REMARK  5 active torsions:
REMARK  status: ('A' for Active; 'I' for Inactive)
REMARK    1  A    between atoms: S1_3  and  C3_4 
REMARK    2  A    between atoms: C3_4  and  C4_5 
REMARK    3  A    between atoms: C5_6  and  C6_7 
REMARK    4  A    between atoms: C6_7  and  C8_10 
REMARK    5  A    between atoms: C6_7  and  C14_18 
ROOT
HETATM    1  C1  UNL     1      12.686  13.504  24.091  1.00  0.00     0.025 C 
HETATM    2  C2  UNL     1      12.963  14.587  23.621  1.00  0.00    -0.044 C 
HETATM    3  S1  UNL     1      13.357  16.173  22.964  1.00  0.00    -0.067 SA
ENDROOT
BRANCH   3   4
HETATM    4  C3  UNL     1      12.892  16.234  21.226  1.00  0.00     0.182 C 
BRANCH   4   5
HETATM    5  C4  UNL     1      12.715  14.920  20.639  1.00  0.00    -0.093 C 
HETATM    6  C5  UNL     1      12.581  13.819  20.167  1.00  0.00    -0.070 C 
BRANCH   6   7
HETATM    7  C6  UNL     1      12.438  12.464  19.604  1.00  0.00     0.174 C 
HETATM    8  C7  UNL     1      12.713  11.531  20.725  1.00  0.00     0.093 C 
HETATM    9  N1  UNL     1      12.940  10.818  21.610  1.00  0.00    -0.195 NA
BRANCH   7  10
HETATM   10  C8  UNL     1      13.320  12.231  18.474  1.00  0.00    -0.017 A 
HETATM   11  C9  UNL     1      13.540  10.963  18.003  1.00  0.00     0.012 A 
HETATM   12  C10 UNL     1      14.393  10.741  16.914  1.00  0.00     0.026 A 
HETATM   13  C11 UNL     1      14.999  11.817  16.334  1.00  0.00     0.055 A 
HETATM   14 CL1  UNL     1      16.066  11.583  14.977  1.00  0.00    -0.083 Cl
HETATM   15  C12 UNL     1      14.796  13.101  16.785  1.00  0.00     0.056 A 
HETATM   16 CL2  UNL     1      15.602  14.445  16.002  1.00  0.00    -0.083 Cl
HETATM   17  C13 UNL     1      13.952  13.281  17.857  1.00  0.00     0.035 A 
ENDBRANCH   7  10
BRANCH   7  18
HETATM   18  C14 UNL     1      10.999  12.289  19.272  1.00  0.00     0.049 A 
HETATM   19  S2  UNL     1      10.375  11.844  17.770  1.00  0.00    -0.071 SA
HETATM   20  C15 UNL     1       8.673  11.845  18.153  1.00  0.00     0.090 A 
HETATM   21  N2  UNL     1       7.629  11.563  17.345  1.00  0.00    -0.330 N 
HETATM   22  C18 UNL     1       8.670  12.200  19.461  1.00  0.00     0.051 A 
HETATM   23  C16 UNL     1       6.333  11.569  17.651  1.00  0.00     0.144 A 
ATOM     24  H2  UNL     1       7.861  11.316  16.383  1.00  0.00     0.168 HD
HETATM   25  N3  UNL     1       5.406  11.277  16.784  1.00  0.00    -0.380 N 
HETATM   26  S3  UNL     1       6.036  11.987  19.264  1.00  0.00    -0.042 SA
ATOM     27  H32 UNL     1       5.585  11.025  15.812  1.00  0.00     0.158 HD
ATOM     28  H31 UNL     1       4.414  11.282  17.019  1.00  0.00     0.158 HD
HETATM   29  C17 UNL     1       7.438  12.314  20.154  1.00  0.00     0.090 A 
HETATM   30  S4  UNL     1       7.361  12.740  21.740  1.00  0.00    -0.071 SA
HETATM   31  C19 UNL     1       9.886  12.432  20.048  1.00  0.00     0.077 A 
HETATM   32  N4  UNL     1      10.102  12.827  21.447  1.00  0.00    -0.100 NA
ENDBRANCH   7  18
ENDBRANCH   6   7
ENDBRANCH   4   5
ENDBRANCH   3   4
TORSDOF 5
ENDMDL
MODEL 4
REMARK VINA RESULT: -6.624673438      4.201      7.040
REMARK  5 active torsions:
REMARK  status: ('A' for Active; 'I' for Inactive)
REMARK    1  A    between atoms: S1_3  and  C3_4 
REMARK    2  A    between atoms: C3_4  and  C4_5 
REMARK    3  A    between atoms: C5_6  and  C6_7 
REMARK    4  A    between atoms: C6_7  and  C8_10 
REMARK    5  A    between atoms: C6_7  and  C14_18 
ROOT
HETATM    1  C1  UNL     1      15.316  14.400  15.967  1.00  0.00     0.025 C 
HETATM    2  C2  UNL     1      15.397  13.210  16.184  1.00  0.00    -0.044 C 
HETATM    3  S1  UNL     1      15.534  11.478  16.477  1.00  0.00    -0.067 SA
ENDROOT
BRANCH   3   4
HETATM    4  C3  UNL     1      13.904  10.797  16.819  1.00  0.00     0.182 C 
BRANCH   4   5
HETATM    5  C4  UNL     1      13.293  11.357  18.009  1.00  0.00    -0.093 C 
HETATM    6  C5  UNL     1      12.792  11.805  19.010  1.00  0.00    -0.070 C 
BRANCH   6   7
HETATM    7  C6  UNL     1      12.183  12.330  20.245  1.00  0.00     0.174 C 
HETATM    8  C7  UNL     1      12.615  11.411  21.329  1.00  0.00     0.093 C 
HETATM    9  N1  UNL     1      12.954  10.678  22.159  1.00  0.00    -0.195 NA
BRANCH   7  10
HETATM   10  C8  UNL     1      10.737  12.427  20.159  1.00  0.00    -0.017 A 
HETATM   11  C9  UNL     1       9.976  12.622  21.282  1.00  0.00     0.012 A 
HETATM   12  C10 UNL     1       8.582  12.714  21.198  1.00  0.00     0.026 A 
HETATM   13  C11 UNL     1       7.997  12.604  19.969  1.00  0.00     0.055 A 
HETATM   14 CL1  UNL     1       6.266  12.712  19.820  1.00  0.00    -0.083 Cl
HETATM   15  C12 UNL     1       8.736  12.408  18.824  1.00  0.00     0.056 A 
HETATM   16 CL2  UNL     1       7.932  12.272  17.273  1.00  0.00    -0.083 Cl
HETATM   17  C13 UNL     1      10.104  12.323  18.947  1.00  0.00     0.035 A 
ENDBRANCH   7  10
BRANCH   7  18
HETATM   18  C14 UNL     1      12.843  13.632  20.528  1.00  0.00     0.049 A 
HETATM   19  S2  UNL     1      13.695  14.573  19.418  1.00  0.00    -0.071 SA
HETATM   20  C15 UNL     1      14.151  15.901  20.456  1.00  0.00     0.090 A 
HETATM   21  N2  UNL     1      14.865  17.003  20.146  1.00  0.00    -0.330 N 
HETATM   22  C18 UNL     1      13.606  15.541  21.644  1.00  0.00     0.051 A 
HETATM   23  C16 UNL     1      15.206  18.009  20.949  1.00  0.00     0.144 A 
ATOM     24  H2  UNL     1      15.182  17.074  19.179  1.00  0.00     0.168 HD
HETATM   25  N3  UNL     1      15.903  19.029  20.538  1.00  0.00    -0.380 N 
HETATM   26  S3  UNL     1      14.640  17.813  22.531  1.00  0.00    -0.042 SA
ATOM     27  H32 UNL     1      16.244  19.148  19.584  1.00  0.00     0.158 HD
ATOM     28  H31 UNL     1      16.165  19.799  21.153  1.00  0.00     0.158 HD
HETATM   29  C17 UNL     1      13.762  16.386  22.772  1.00  0.00     0.090 A 
HETATM   30  S4  UNL     1      13.129  16.012  24.242  1.00  0.00    -0.071 SA
HETATM   31  C19 UNL     1      12.922  14.355  21.683  1.00  0.00     0.077 A 
HETATM   32  N4  UNL     1      12.261  13.784  22.866  1.00  0.00    -0.100 NA
ENDBRANCH   7  18
ENDBRANCH   6   7
ENDBRANCH   4   5
ENDBRANCH   3   4
TORSDOF 5
ENDMDL
MODEL 5
REMARK VINA RESULT: -6.600773752      3.290      4.424
REMARK  5 active torsions:
REMARK  status: ('A' for Active; 'I' for Inactive)
REMARK    1  A    between atoms: S1_3  and  C3_4 
REMARK    2  A    between atoms: C3_4  and  C4_5 
REMARK    3  A    between atoms: C5_6  and  C6_7 
REMARK    4  A    between atoms: C6_7  and  C8_10 
REMARK    5  A    between atoms: C6_7  and  C14_18 
ROOT
HETATM    1  C1  UNL     1      15.578  16.893  19.725  1.00  0.00     0.025 C 
HETATM    2  C2  UNL     1      14.941  16.893  20.757  1.00  0.00    -0.044 C 
HETATM    3  S1  UNL     1      14.040  16.882  22.270  1.00  0.00    -0.067 SA
ENDROOT
BRANCH   3   4
HETATM    4  C3  UNL     1      12.373  16.273  21.971  1.00  0.00     0.182 C 
BRANCH   4   5
HETATM    5  C4  UNL     1      12.348  15.030  21.226  1.00  0.00    -0.093 C 
HETATM    6  C5  UNL     1      12.324  13.985  20.625  1.00  0.00    -0.070 C 
BRANCH   6   7
HETATM    7  C6  UNL     1      12.300  12.694  19.913  1.00  0.00     0.174 C 
HETATM    8  C7  UNL     1      12.663  11.670  20.924  1.00  0.00     0.093 C 
HETATM    9  N1  UNL     1      12.957  10.886  21.725  1.00  0.00    -0.195 NA
BRANCH   7  10
HETATM   10  C8  UNL     1      13.194  12.669  18.768  1.00  0.00    -0.017 A 
HETATM   11  C9  UNL     1      13.726  13.827  18.265  1.00  0.00     0.012 A 
HETATM   12  C10 UNL     1      14.586  13.801  17.160  1.00  0.00     0.026 A 
HETATM   13  C11 UNL     1      14.883  12.594  16.598  1.00  0.00     0.055 A 
HETATM   14 CL1  UNL     1      15.949  12.517  15.223  1.00  0.00    -0.083 Cl
HETATM   15  C12 UNL     1      14.364  11.414  17.083  1.00  0.00     0.056 A 
HETATM   16 CL2  UNL     1      14.780   9.893  16.319  1.00  0.00    -0.083 Cl
HETATM   17  C13 UNL     1      13.522  11.480  18.169  1.00  0.00     0.035 A 
ENDBRANCH   7  10
BRANCH   7  18
HETATM   18  C14 UNL     1      10.881  12.430  19.555  1.00  0.00     0.049 A 
HETATM   19  S2  UNL     1      10.315  11.919  18.051  1.00  0.00    -0.071 SA
HETATM   20  C15 UNL     1       8.608  11.830  18.400  1.00  0.00     0.090 A 
HETATM   21  N2  UNL     1       7.600  11.472  17.578  1.00  0.00    -0.330 N 
HETATM   22  C18 UNL     1       8.557  12.210  19.700  1.00  0.00     0.051 A 
HETATM   23  C16 UNL     1       6.299  11.409  17.858  1.00  0.00     0.144 A 
ATOM     24  H2  UNL     1       7.866  11.219  16.626  1.00  0.00     0.168 HD
HETATM   25  N3  UNL     1       5.409  11.048  16.978  1.00  0.00    -0.380 N 
HETATM   26  S3  UNL     1       5.945  11.842  19.455  1.00  0.00    -0.042 SA
ATOM     27  H32 UNL     1       5.622  10.786  16.016  1.00  0.00     0.158 HD
ATOM     28  H31 UNL     1       4.413  11.000  17.193  1.00  0.00     0.158 HD
HETATM   29  C17 UNL     1       7.306  12.267  20.366  1.00  0.00     0.090 A 
HETATM   30  S4  UNL     1       7.171  12.720  21.940  1.00  0.00    -0.071 SA
HETATM   31  C19 UNL     1       9.745  12.525  20.306  1.00  0.00     0.077 A 
HETATM   32  N4  UNL     1       9.908  12.959  21.700  1.00  0.00    -0.100 NA
ENDBRANCH   7  18
ENDBRANCH   6   7
ENDBRANCH   4   5
ENDBRANCH   3   4
TORSDOF 5
ENDMDL
