MODEL 1
REMARK VINA RESULT: -5.652586633      0.000      0.000
REMARK  3 active torsions:
REMARK  status: ('A' for Active; 'I' for Inactive)
REMARK    1  A    between atoms: C1_2  and  S1_4 
REMARK    2  A    between atoms: S1_4  and  C2_5 
REMARK    3  A    between atoms: C2_5  and  C3_6 
ROOT
HETATM    1  C3  UNL     1     -12.583  11.323  -0.134  1.00  0.00     0.158 C 
HETATM    2  C4  UNL     1     -12.874  12.553   0.755  1.00  0.00     0.204 C 
HETATM    3  O2  UNL     1     -14.270  12.547   0.653  1.00  0.00    -0.352 OA
HETATM    4  C5  UNL     1     -14.613  11.214   0.746  1.00  0.00     0.164 C 
HETATM    5  C6  UNL     1     -15.005  10.928   2.181  1.00  0.00     0.068 C 
HETATM    6  C7  UNL     1     -16.406  10.387   2.128  1.00  0.00     0.006 C 
HETATM    7  C8  UNL     1     -16.595   9.830   0.723  1.00  0.00     0.006 C 
HETATM    8  C9  UNL     1     -15.774  10.828  -0.094  1.00  0.00     0.068 C 
HETATM    9  O3  UNL     1     -13.500  10.443   0.370  1.00  0.00    -0.347 OA
ENDROOT
BRANCH   1  10
HETATM   10  C2  UNL     1     -11.140  10.991  -0.130  1.00  0.00     0.117 C 
BRANCH  10  11
HETATM   11  S1  UNL     1     -10.364  11.126  -1.734  1.00  0.00    -0.070 SA
BRANCH  11  12
HETATM   12  C1  UNL     1     -10.677   9.639  -2.711  1.00  0.00     0.292 C 
HETATM   13  N1  UNL     1      -9.906   9.500  -3.935  1.00  0.00    -0.051 NA
HETATM   14  O1  UNL     1     -11.508   8.819  -2.320  1.00  0.00    -0.264 OA
ENDBRANCH  11  12
ENDBRANCH  10  11
ENDBRANCH   1  10
TORSDOF 3
ENDMDL
MODEL 2
REMARK VINA RESULT: -5.622007097      3.096      5.235
REMARK  3 active torsions:
REMARK  status: ('A' for Active; 'I' for Inactive)
REMARK    1  A    between atoms: C1_2  and  S1_4 
REMARK    2  A    between atoms: S1_4  and  C2_5 
REMARK    3  A    between atoms: C2_5  and  C3_6 
ROOT
HETATM    1  C3  UNL     1     -13.150  12.246   0.956  1.00  0.00     0.158 C 
HETATM    2  C4  UNL     1     -11.836  13.023   1.193  1.00  0.00     0.204 C 
HETATM    3  O2  UNL     1     -10.937  12.001   0.866  1.00  0.00    -0.352 OA
HETATM    4  C5  UNL     1     -11.492  11.404  -0.248  1.00  0.00     0.164 C 
HETATM    5  C6  UNL     1     -10.826  11.989  -1.477  1.00  0.00     0.068 C 
HETATM    6  C7  UNL     1     -10.236  10.825  -2.221  1.00  0.00     0.006 C 
HETATM    7  C8  UNL     1     -11.018   9.595  -1.780  1.00  0.00     0.006 C 
HETATM    8  C9  UNL     1     -11.285   9.936  -0.314  1.00  0.00     0.068 C 
HETATM    9  O3  UNL     1     -12.872  11.672  -0.253  1.00  0.00    -0.347 OA
ENDROOT
BRANCH   1  10
HETATM   10  C2  UNL     1     -14.328  13.130   1.116  1.00  0.00     0.117 C 
BRANCH  10  11
HETATM   11  S1  UNL     1     -15.809  12.270   1.623  1.00  0.00    -0.070 SA
BRANCH  11  12
HETATM   12  C1  UNL     1     -16.609  11.501   0.197  1.00  0.00     0.292 C 
HETATM   13  N1  UNL     1     -15.956  10.323  -0.348  1.00  0.00    -0.051 NA
HETATM   14  O1  UNL     1     -17.648  11.986  -0.252  1.00  0.00    -0.264 OA
ENDBRANCH  11  12
ENDBRANCH  10  11
ENDBRANCH   1  10
TORSDOF 3
ENDMDL
MODEL 3
REMARK VINA RESULT: -5.598147925      2.112      2.677
REMARK  3 active torsions:
REMARK  status: ('A' for Active; 'I' for Inactive)
REMARK    1  A    between atoms: C1_2  and  S1_4 
REMARK    2  A    between atoms: S1_4  and  C2_5 
REMARK    3  A    between atoms: C2_5  and  C3_6 
ROOT
HETATM    1  C3  UNL     1     -13.329  11.884   0.742  1.00  0.00     0.158 C 
HETATM    2  C4  UNL     1     -13.753  13.219   1.393  1.00  0.00     0.204 C 
HETATM    3  O2  UNL     1     -14.549  12.696   2.419  1.00  0.00    -0.352 OA
HETATM    4  C5  UNL     1     -13.839  11.606   2.879  1.00  0.00     0.164 C 
HETATM    5  C6  UNL     1     -13.054  12.037   4.101  1.00  0.00     0.068 C 
HETATM    6  C7  UNL     1     -13.488  11.126   5.214  1.00  0.00     0.006 C 
HETATM    7  C8  UNL     1     -14.035   9.870   4.550  1.00  0.00     0.006 C 
HETATM    8  C9  UNL     1     -14.690  10.466   3.304  1.00  0.00     0.068 C 
HETATM    9  O3  UNL     1     -12.975  11.177   1.857  1.00  0.00    -0.347 OA
ENDROOT
BRANCH   1  10
HETATM   10  C2  UNL     1     -12.350  12.109  -0.347  1.00  0.00     0.117 C 
BRANCH  10  11
HETATM   11  S1  UNL     1     -11.339  10.683  -0.714  1.00  0.00    -0.070 SA
BRANCH  11  12
HETATM   12  C1  UNL     1     -10.131  11.080  -1.998  1.00  0.00     0.292 C 
HETATM   13  N1  UNL     1     -10.117  10.209  -3.160  1.00  0.00    -0.051 NA
HETATM   14  O1  UNL     1      -9.383  12.047  -1.849  1.00  0.00    -0.264 OA
ENDBRANCH  11  12
ENDBRANCH  10  11
ENDBRANCH   1  10
TORSDOF 3
ENDMDL
MODEL 4
REMARK VINA RESULT: -5.581146859      1.370      1.432
REMARK  3 active torsions:
REMARK  status: ('A' for Active; 'I' for Inactive)
REMARK    1  A    between atoms: C1_2  and  S1_4 
REMARK    2  A    between atoms: S1_4  and  C2_5 
REMARK    3  A    between atoms: C2_5  and  C3_6 
ROOT
HETATM    1  C3  UNL     1     -12.087  11.974  -0.511  1.00  0.00     0.158 C 
HETATM    2  C4  UNL     1     -11.683  12.592   0.846  1.00  0.00     0.204 C 
HETATM    3  O2  UNL     1     -12.967  12.879   1.324  1.00  0.00    -0.352 OA
HETATM    4  C5  UNL     1     -13.715  11.772   0.977  1.00  0.00     0.164 C 
HETATM    5  C6  UNL     1     -13.785  10.855   2.181  1.00  0.00     0.068 C 
HETATM    6  C7  UNL     1     -15.247  10.669   2.475  1.00  0.00     0.006 C 
HETATM    7  C8  UNL     1     -15.985  10.963   1.176  1.00  0.00     0.006 C 
HETATM    8  C9  UNL     1     -15.117  12.083   0.601  1.00  0.00     0.068 C 
HETATM    9  O3  UNL     1     -13.083  11.131  -0.102  1.00  0.00    -0.347 OA
ENDROOT
BRANCH   1  10
HETATM   10  C2  UNL     1     -10.904  11.447  -1.230  1.00  0.00     0.117 C 
BRANCH  10  11
HETATM   11  S1  UNL     1     -10.942   9.678  -1.480  1.00  0.00    -0.070 SA
BRANCH  11  12
HETATM   12  C1  UNL     1     -10.605   9.280  -3.210  1.00  0.00     0.292 C 
HETATM   13  N1  UNL     1     -11.337   8.154  -3.765  1.00  0.00    -0.051 NA
HETATM   14  O1  UNL     1      -9.791   9.954  -3.841  1.00  0.00    -0.264 OA
ENDBRANCH  11  12
ENDBRANCH  10  11
ENDBRANCH   1  10
TORSDOF 3
ENDMDL
MODEL 5
REMARK VINA RESULT: -5.579398918      2.443      3.249
REMARK  3 active torsions:
REMARK  status: ('A' for Active; 'I' for Inactive)
REMARK    1  A    between atoms: C1_2  and  S1_4 
REMARK    2  A    between atoms: S1_4  and  C2_5 
REMARK    3  A    between atoms: C2_5  and  C3_6 
ROOT
HETATM    1  C3  UNL     1     -10.908  10.920  -0.972  1.00  0.00     0.158 C 
HETATM    2  C4  UNL     1     -12.026   9.934  -0.564  1.00  0.00     0.204 C 
HETATM    3  O2  UNL     1     -12.317  10.472   0.695  1.00  0.00    -0.352 OA
HETATM    4  C5  UNL     1     -12.291  11.837   0.496  1.00  0.00     0.164 C 
HETATM    5  C6  UNL     1     -13.714  12.311   0.285  1.00  0.00     0.068 C 
HETATM    6  C7  UNL     1     -13.967  13.346   1.344  1.00  0.00     0.006 C 
HETATM    7  C8  UNL     1     -12.602  13.875   1.761  1.00  0.00     0.006 C 
HETATM    8  C9  UNL     1     -11.757  12.605   1.650  1.00  0.00     0.068 C 
HETATM    9  O3  UNL     1     -11.503  12.105  -0.636  1.00  0.00    -0.347 OA
ENDROOT
BRANCH   1  10
HETATM   10  C2  UNL     1     -10.458  10.672  -2.361  1.00  0.00     0.117 C 
BRANCH  10  11
HETATM   11  S1  UNL     1     -10.393   8.941  -2.798  1.00  0.00    -0.070 SA
BRANCH  11  12
HETATM   12  C1  UNL     1     -11.358   8.633  -4.294  1.00  0.00     0.292 C 
HETATM   13  N1  UNL     1     -12.501   7.747  -4.152  1.00  0.00    -0.051 NA
HETATM   14  O1  UNL     1     -11.025   9.167  -5.352  1.00  0.00    -0.264 OA
ENDBRANCH  11  12
ENDBRANCH  10  11
ENDBRANCH   1  10
TORSDOF 3
ENDMDL
