MODEL 1
REMARK VINA RESULT: -9.260138138      0.000      0.000
REMARK  14 active torsions:
REMARK  status: ('A' for Active; 'I' for Inactive)
REMARK    1  A    between atoms: N1_1  and  N2_4 
REMARK    2  A    between atoms: N2_4  and  C1_6 
REMARK    3  A    between atoms: C3_10  and  N4_11 
REMARK    4  A    between atoms: N7_20  and  C6_21 
REMARK    5  A    between atoms: C7_22  and  O1_23 
REMARK    6  A    between atoms: C8_25  and  O2_26 
REMARK    7  A    between atoms: C9_28  and  C10_29 
REMARK    8  A    between atoms: C10_29  and  N8_30 
REMARK       I    between atoms: N8_30  and  C11_31 
REMARK    9  A    between atoms: C11_31  and  C12_33 
REMARK   10  A    between atoms: C16_41  and  N10_42 
REMARK   11  A    between atoms: C17_45  and  N11_46 
REMARK   12  A    between atoms: N11_46  and  O6_47 
REMARK   13  A    between atoms: N11_46  and  O7_49 
REMARK   14  A    between atoms: C19_54  and  O8_55 
ROOT
HETATM    1  C6  UNL     1     -18.730  20.850 -12.519  1.00  0.00     0.170 C 
HETATM    2  C7  UNL     1     -18.472  19.461 -12.982  1.00  0.00     0.174 C 
HETATM    3  C8  UNL     1     -17.034  19.730 -13.575  1.00  0.00     0.161 C 
HETATM    4  C9  UNL     1     -16.419  20.261 -12.316  1.00  0.00     0.100 C 
HETATM    5  C19 UNL     1     -17.410  21.290 -11.847  1.00  0.00     0.157 C 
ENDROOT
BRANCH   4   6
HETATM    6  C10 UNL     1     -15.016  20.643 -12.301  1.00  0.00     0.169 C 
BRANCH   6   7
HETATM    7  N8  UNL     1     -14.284  21.167 -13.299  1.00  0.00    -0.385 NA
HETATM    8  C11 UNL     1     -13.555  21.690 -14.294  1.00  0.00     0.320 C 
HETATM    9  O3  UNL     1     -12.773  21.178 -15.160  1.00  0.00    -0.254 OA
BRANCH   8  10
HETATM   10  C12 UNL     1     -13.630  23.217 -14.495  1.00  0.00     0.242 A 
HETATM   11  N9  UNL     1     -12.340  23.755 -14.586  1.00  0.00    -0.377 N 
HETATM   12  C13 UNL     1     -11.957  24.568 -15.481  1.00  0.00     0.142 A 
ATOM     13  H9  UNL     1     -11.659  23.472 -13.882  1.00  0.00     0.160 HD
HETATM   14  C14 UNL     1     -12.866  25.022 -16.518  1.00  0.00     0.222 A 
HETATM   15  O4  UNL     1     -12.545  25.825 -17.430  1.00  0.00    -0.284 OA
HETATM   16  C15 UNL     1     -14.244  24.502 -16.491  1.00  0.00     0.154 A 
HETATM   17  O5  UNL     1     -15.101  24.902 -17.421  1.00  0.00    -0.285 OA
HETATM   18  C18 UNL     1     -14.584  23.625 -15.495  1.00  0.00     0.082 A 
HETATM   19  C16 UNL     1     -16.326  24.448 -17.397  1.00  0.00     0.185 A 
HETATM   20  C17 UNL     1     -16.717  23.562 -16.414  1.00  0.00     0.187 A 
HETATM   21  N12 UNL     1     -15.874  23.148 -15.473  1.00  0.00    -0.339 N 
ATOM     22  H12 UNL     1     -16.176  22.492 -14.753  1.00  0.00     0.167 HD
BRANCH  19  23
HETATM   23  N10 UNL     1     -17.209  24.805 -18.282  1.00  0.00    -0.377 N 
ATOM     24 2H10 UNL     1     -16.946  25.523 -18.958  1.00  0.00     0.158 HD
ATOM     25 1H10 UNL     1     -18.140  24.390 -18.312  1.00  0.00     0.158 HD
ENDBRANCH  19  23
BRANCH  20  26
HETATM   26  N11 UNL     1     -18.094  23.109 -16.451  1.00  0.00    -0.015 NA
BRANCH  26  27
HETATM   27  O6  UNL     1     -18.593  23.041 -15.170  1.00  0.00    -0.283 OA
ATOM     28  H6  UNL     1     -18.468  22.165 -14.824  1.00  0.00     0.240 HD
ENDBRANCH  26  27
BRANCH  26  29
HETATM   29  O7  UNL     1     -18.136  21.859 -16.939  1.00  0.00    -0.283 OA
ATOM     30  H7  UNL     1     -18.919  21.756 -17.468  1.00  0.00     0.240 HD
ENDBRANCH  26  29
ENDBRANCH  20  26
ENDBRANCH   8  10
ENDBRANCH   6   7
ENDBRANCH   4   6
BRANCH   3  31
HETATM   31  O2  UNL     1     -17.150  20.612 -14.611  1.00  0.00    -0.392 OA
ATOM     32  H2  UNL     1     -16.512  21.305 -14.488  1.00  0.00     0.210 HD
ENDBRANCH   3  31
BRANCH   5  33
HETATM   33  O8  UNL     1     -17.556  21.189 -10.464  1.00  0.00    -0.393 OA
ATOM     34  H8  UNL     1     -17.515  20.272 -10.219  1.00  0.00     0.210 HD
ENDBRANCH   5  33
BRANCH   2  35
HETATM   35  O1  UNL     1     -18.261  18.517 -11.999  1.00  0.00    -0.391 OA
ATOM     36  H1  UNL     1     -17.359  18.256 -11.852  1.00  0.00     0.210 HD
ENDBRANCH   2  35
BRANCH   1  37
HETATM   37  N7  UNL     1     -19.881  21.125 -11.750  1.00  0.00    -0.154 N 
HETATM   38  C1  UNL     1     -20.738  22.114 -12.075  1.00  0.00     0.701 A 
HETATM   39  N3  UNL     1     -21.707  22.125 -11.168  1.00  0.00    -0.183 N 
HETATM   40  C2  UNL     1     -21.511  21.153 -10.238  1.00  0.00     0.137 A 
ATOM     41  H3  UNL     1     -22.492  22.776 -11.169  1.00  0.00     0.184 HD
HETATM   42  C3  UNL     1     -22.181  20.740  -9.132  1.00  0.00     0.131 A 
HETATM   43  C5  UNL     1     -20.349  20.541 -10.636  1.00  0.00     0.156 A 
HETATM   44  N5  UNL     1     -21.729  19.717  -8.390  1.00  0.00    -0.337 N 
HETATM   45  C4  UNL     1     -20.594  19.120  -8.784  1.00  0.00     0.183 A 
ATOM     46  H5  UNL     1     -22.230  19.405  -7.559  1.00  0.00     0.168 HD
HETATM   47  N6  UNL     1     -19.919  19.508  -9.866  1.00  0.00    -0.336 N 
ATOM     48  H6  UNL     1     -19.061  19.019 -10.121  1.00  0.00     0.168 HD
BRANCH  38  49
HETATM   49  N2  UNL     1     -20.661  23.003 -13.211  1.00  0.00    -0.138 N 
ATOM     50  H2  UNL     1     -19.938  22.897 -13.923  1.00  0.00     0.205 HD
BRANCH  49  51
HETATM   51  N1  UNL     1     -21.547  23.937 -13.283  1.00  0.00    -0.331 N 
ATOM     52  H12 UNL     1     -21.280  24.916 -13.179  1.00  0.00     0.177 HD
ATOM     53  H11 UNL     1     -22.511  23.649 -13.448  1.00  0.00     0.177 HD
ENDBRANCH  49  51
ENDBRANCH  38  49
BRANCH  42  54
HETATM   54  N4  UNL     1     -23.265  21.359  -8.803  1.00  0.00    -0.383 N 
ATOM     55  H42 UNL     1     -23.321  22.375  -8.866  1.00  0.00     0.157 HD
ATOM     56  H41 UNL     1     -24.063  20.807  -8.484  1.00  0.00     0.157 HD
ENDBRANCH  42  54
ENDBRANCH   1  37
TORSDOF 14
ENDMDL
MODEL 2
REMARK VINA RESULT: -8.762414835      1.939      2.310
REMARK  14 active torsions:
REMARK  status: ('A' for Active; 'I' for Inactive)
REMARK    1  A    between atoms: N1_1  and  N2_4 
REMARK    2  A    between atoms: N2_4  and  C1_6 
REMARK    3  A    between atoms: C3_10  and  N4_11 
REMARK    4  A    between atoms: N7_20  and  C6_21 
REMARK    5  A    between atoms: C7_22  and  O1_23 
REMARK    6  A    between atoms: C8_25  and  O2_26 
REMARK    7  A    between atoms: C9_28  and  C10_29 
REMARK    8  A    between atoms: C10_29  and  N8_30 
REMARK       I    between atoms: N8_30  and  C11_31 
REMARK    9  A    between atoms: C11_31  and  C12_33 
REMARK   10  A    between atoms: C16_41  and  N10_42 
REMARK   11  A    between atoms: C17_45  and  N11_46 
REMARK   12  A    between atoms: N11_46  and  O6_47 
REMARK   13  A    between atoms: N11_46  and  O7_49 
REMARK   14  A    between atoms: C19_54  and  O8_55 
ROOT
HETATM    1  C6  UNL     1     -20.133  20.368 -12.040  1.00  0.00     0.170 C 
HETATM    2  C7  UNL     1     -19.684  18.984 -11.730  1.00  0.00     0.174 C 
HETATM    3  C8  UNL     1     -18.647  18.859 -12.914  1.00  0.00     0.161 C 
HETATM    4  C9  UNL     1     -17.816  20.051 -12.549  1.00  0.00     0.100 C 
HETATM    5  C19 UNL     1     -18.831  21.141 -12.349  1.00  0.00     0.157 C 
ENDROOT
BRANCH   4   6
HETATM    6  C10 UNL     1     -16.640  20.382 -13.338  1.00  0.00     0.169 C 
BRANCH   6   7
HETATM    7  N8  UNL     1     -16.586  20.822 -14.608  1.00  0.00    -0.385 NA
HETATM    8  C11 UNL     1     -16.531  21.262 -15.871  1.00  0.00     0.320 C 
HETATM    9  O3  UNL     1     -16.898  20.758 -16.983  1.00  0.00    -0.254 OA
BRANCH   8  10
HETATM   10  C12 UNL     1     -15.913  22.654 -16.108  1.00  0.00     0.242 A 
HETATM   11  N9  UNL     1     -14.621  22.526 -16.632  1.00  0.00    -0.377 N 
HETATM   12  C13 UNL     1     -14.182  23.161 -17.638  1.00  0.00     0.142 A 
ATOM     13  H9  UNL     1     -13.986  21.874 -16.171  1.00  0.00     0.160 HD
HETATM   14  C14 UNL     1     -15.021  24.107 -18.350  1.00  0.00     0.222 A 
HETATM   15  O4  UNL     1     -14.644  24.764 -19.353  1.00  0.00    -0.284 OA
HETATM   16  C15 UNL     1     -16.397  24.301 -17.859  1.00  0.00     0.154 A 
HETATM   17  O5  UNL     1     -17.187  25.164 -18.484  1.00  0.00    -0.285 OA
HETATM   18  C18 UNL     1     -16.800  23.579 -16.768  1.00  0.00     0.082 A 
HETATM   19  C16 UNL     1     -18.406  25.343 -18.049  1.00  0.00     0.185 A 
HETATM   20  C17 UNL     1     -18.860  24.638 -16.952  1.00  0.00     0.187 A 
HETATM   21  N12 UNL     1     -18.085  23.768 -16.313  1.00  0.00    -0.339 N 
ATOM     22  H12 UNL     1     -18.434  23.253 -15.504  1.00  0.00     0.167 HD
BRANCH  19  23
HETATM   23  N10 UNL     1     -19.225  26.175 -18.620  1.00  0.00    -0.377 N 
ATOM     24 2H10 UNL     1     -19.049  26.429 -19.592  1.00  0.00     0.158 HD
ATOM     25 1H10 UNL     1     -20.024  26.571 -18.124  1.00  0.00     0.158 HD
ENDBRANCH  19  23
BRANCH  20  26
HETATM   26  N11 UNL     1     -20.222  24.896 -16.526  1.00  0.00    -0.015 NA
BRANCH  26  27
HETATM   27  O6  UNL     1     -20.459  24.265 -15.326  1.00  0.00    -0.283 OA
ATOM     28  H6  UNL     1     -21.291  24.554 -14.971  1.00  0.00     0.240 HD
ENDBRANCH  26  27
BRANCH  26  29
HETATM   29  O7  UNL     1     -21.074  24.357 -17.412  1.00  0.00    -0.283 OA
ATOM     30  H7  UNL     1     -21.924  24.770 -17.320  1.00  0.00     0.240 HD
ENDBRANCH  26  29
ENDBRANCH  20  26
ENDBRANCH   8  10
ENDBRANCH   6   7
ENDBRANCH   4   6
BRANCH   3  31
HETATM   31  O2  UNL     1     -19.328  18.935 -14.096  1.00  0.00    -0.392 OA
ATOM     32  H2  UNL     1     -19.112  18.171 -14.617  1.00  0.00     0.210 HD
ENDBRANCH   3  31
BRANCH   5  33
HETATM   33  O8  UNL     1     -18.481  21.894 -11.228  1.00  0.00    -0.393 OA
ATOM     34  H8  UNL     1     -17.842  21.407 -10.721  1.00  0.00     0.210 HD
ENDBRANCH   5  33
BRANCH   2  35
HETATM   35  O1  UNL     1     -18.919  18.829 -10.594  1.00  0.00    -0.391 OA
ATOM     36  H1  UNL     1     -18.086  18.385 -10.704  1.00  0.00     0.210 HD
ENDBRANCH   2  35
BRANCH   1  37
HETATM   37  N7  UNL     1     -20.995  21.036 -11.144  1.00  0.00    -0.154 N 
HETATM   38  C1  UNL     1     -21.423  22.294 -11.371  1.00  0.00     0.701 A 
HETATM   39  N3  UNL     1     -22.207  22.644 -10.359  1.00  0.00    -0.183 N 
HETATM   40  C2  UNL     1     -22.312  21.634  -9.455  1.00  0.00     0.137 A 
ATOM     41  H3  UNL     1     -22.669  23.550 -10.271  1.00  0.00     0.184 HD
HETATM   42  C3  UNL     1     -22.970  21.468  -8.280  1.00  0.00     0.131 A 
HETATM   43  C5  UNL     1     -21.534  20.634  -9.983  1.00  0.00     0.156 A 
HETATM   44  N5  UNL     1     -22.881  20.318  -7.593  1.00  0.00    -0.337 N 
HETATM   45  C4  UNL     1     -22.121  19.342  -8.113  1.00  0.00     0.183 A 
ATOM     46  H5  UNL     1     -23.373  20.190  -6.709  1.00  0.00     0.168 HD
HETATM   47  N6  UNL     1     -21.466  19.483  -9.265  1.00  0.00    -0.336 N 
ATOM     48  H6  UNL     1     -20.902  18.709  -9.616  1.00  0.00     0.168 HD
BRANCH  38  49
HETATM   49  N2  UNL     1     -21.123  23.131 -12.509  1.00  0.00    -0.138 N 
ATOM     50  H2  UNL     1     -20.236  23.056 -13.008  1.00  0.00     0.205 HD
BRANCH  49  51
HETATM   51  N1  UNL     1     -22.028  23.979 -12.867  1.00  0.00    -0.331 N 
ATOM     52  H12 UNL     1     -23.010  23.815 -12.644  1.00  0.00     0.177 HD
ATOM     53  H11 UNL     1     -21.713  24.805 -13.375  1.00  0.00     0.177 HD
ENDBRANCH  49  51
ENDBRANCH  38  49
BRANCH  42  54
HETATM   54  N4  UNL     1     -23.682  22.446  -7.829  1.00  0.00    -0.383 N 
ATOM     55  H42 UNL     1     -23.253  23.350  -7.631  1.00  0.00     0.157 HD
ATOM     56  H41 UNL     1     -24.680  22.293  -7.682  1.00  0.00     0.157 HD
ENDBRANCH  42  54
ENDBRANCH   1  37
TORSDOF 14
ENDMDL
MODEL 3
REMARK VINA RESULT: -8.480828244      2.525      9.078
REMARK  14 active torsions:
REMARK  status: ('A' for Active; 'I' for Inactive)
REMARK    1  A    between atoms: N1_1  and  N2_4 
REMARK    2  A    between atoms: N2_4  and  C1_6 
REMARK    3  A    between atoms: C3_10  and  N4_11 
REMARK    4  A    between atoms: N7_20  and  C6_21 
REMARK    5  A    between atoms: C7_22  and  O1_23 
REMARK    6  A    between atoms: C8_25  and  O2_26 
REMARK    7  A    between atoms: C9_28  and  C10_29 
REMARK    8  A    between atoms: C10_29  and  N8_30 
REMARK       I    between atoms: N8_30  and  C11_31 
REMARK    9  A    between atoms: C11_31  and  C12_33 
REMARK   10  A    between atoms: C16_41  and  N10_42 
REMARK   11  A    between atoms: C17_45  and  N11_46 
REMARK   12  A    between atoms: N11_46  and  O6_47 
REMARK   13  A    between atoms: N11_46  and  O7_49 
REMARK   14  A    between atoms: C19_54  and  O8_55 
ROOT
HETATM    1  C6  UNL     1     -11.534  23.294 -15.475  1.00  0.00     0.170 C 
HETATM    2  C7  UNL     1     -10.663  22.116 -15.734  1.00  0.00     0.174 C 
HETATM    3  C8  UNL     1     -10.746  21.503 -14.282  1.00  0.00     0.161 C 
HETATM    4  C9  UNL     1     -12.238  21.375 -14.229  1.00  0.00     0.100 C 
HETATM    5  C19 UNL     1     -12.724  22.728 -14.667  1.00  0.00     0.157 C 
ENDROOT
BRANCH   4   6
HETATM    6  C10 UNL     1     -12.873  20.795 -13.056  1.00  0.00     0.169 C 
BRANCH   6   7
HETATM    7  N8  UNL     1     -14.152  20.913 -12.657  1.00  0.00    -0.385 NA
HETATM    8  C11 UNL     1     -15.425  21.029 -12.260  1.00  0.00     0.320 C 
HETATM    9  O3  UNL     1     -16.094  21.990 -11.755  1.00  0.00    -0.254 OA
BRANCH   8  10
HETATM   10  C12 UNL     1     -16.329  19.790 -12.418  1.00  0.00     0.242 A 
HETATM   11  N9  UNL     1     -15.701  18.662 -11.877  1.00  0.00    -0.377 N 
HETATM   12  C13 UNL     1     -16.251  17.838 -11.086  1.00  0.00     0.142 A 
ATOM     13  H9  UNL     1     -14.730  18.491 -12.139  1.00  0.00     0.160 HD
HETATM   14  C14 UNL     1     -17.629  18.009 -10.666  1.00  0.00     0.222 A 
HETATM   15  O4  UNL     1     -18.228  17.227  -9.884  1.00  0.00    -0.284 OA
HETATM   16  C15 UNL     1     -18.362  19.173 -11.194  1.00  0.00     0.154 A 
HETATM   17  O5  UNL     1     -19.627  19.355 -10.834  1.00  0.00    -0.285 OA
HETATM   18  C18 UNL     1     -17.701  20.021 -12.042  1.00  0.00     0.082 A 
HETATM   19  C16 UNL     1     -20.282  20.382 -11.304  1.00  0.00     0.185 A 
HETATM   20  C17 UNL     1     -19.660  21.267 -12.163  1.00  0.00     0.187 A 
HETATM   21  N12 UNL     1     -18.394  21.104 -12.535  1.00  0.00    -0.339 N 
ATOM     22  H12 UNL     1     -17.946  21.766 -13.169  1.00  0.00     0.167 HD
BRANCH  19  23
HETATM   23  N10 UNL     1     -21.521  20.611 -10.988  1.00  0.00    -0.377 N 
ATOM     24 2H10 UNL     1     -21.708  21.215 -10.187  1.00  0.00     0.158 HD
ATOM     25 1H10 UNL     1     -22.295  20.205 -11.514  1.00  0.00     0.158 HD
ENDBRANCH  19  23
BRANCH  20  26
HETATM   26  N11 UNL     1     -20.455  22.379 -12.647  1.00  0.00    -0.015 NA
BRANCH  26  27
HETATM   27  O6  UNL     1     -19.835  22.952 -13.733  1.00  0.00    -0.283 OA
ATOM     28  H6  UNL     1     -20.220  22.618 -14.535  1.00  0.00     0.240 HD
ENDBRANCH  26  27
BRANCH  26  29
HETATM   29  O7  UNL     1     -20.511  23.328 -11.700  1.00  0.00    -0.283 OA
ATOM     30  H7  UNL     1     -20.002  24.080 -11.979  1.00  0.00     0.240 HD
ENDBRANCH  26  29
ENDBRANCH  20  26
ENDBRANCH   8  10
ENDBRANCH   6   7
ENDBRANCH   4   6
BRANCH   3  31
HETATM   31  O2  UNL     1     -10.183  22.386 -13.406  1.00  0.00    -0.392 OA
ATOM     32  H2  UNL     1      -9.450  21.960 -12.978  1.00  0.00     0.210 HD
ENDBRANCH   3  31
BRANCH   5  33
HETATM   33  O8  UNL     1     -13.812  22.569 -15.525  1.00  0.00    -0.393 OA
ATOM     34  H8  UNL     1     -14.613  22.655 -15.021  1.00  0.00     0.210 HD
ENDBRANCH   5  33
BRANCH   2  35
HETATM   35  O1  UNL     1     -11.188  21.133 -16.546  1.00  0.00    -0.391 OA
ATOM     36  H1  UNL     1     -12.135  21.053 -16.553  1.00  0.00     0.210 HD
ENDBRANCH   2  35
BRANCH   1  37
HETATM   37  N7  UNL     1     -11.917  24.126 -16.548  1.00  0.00    -0.154 N 
HETATM   38  C1  UNL     1     -11.994  25.466 -16.420  1.00  0.00     0.701 A 
HETATM   39  N3  UNL     1     -12.380  25.963 -17.588  1.00  0.00    -0.183 N 
HETATM   40  C2  UNL     1     -12.562  24.972 -18.500  1.00  0.00     0.137 A 
ATOM     41  H3  UNL     1     -12.522  26.956 -17.775  1.00  0.00     0.184 HD
HETATM   42  C3  UNL     1     -12.938  24.930 -19.804  1.00  0.00     0.131 A 
HETATM   43  C5  UNL     1     -12.260  23.825 -17.810  1.00  0.00     0.156 A 
HETATM   44  N5  UNL     1     -13.027  23.764 -20.462  1.00  0.00    -0.337 N 
HETATM   45  C4  UNL     1     -12.730  22.645 -19.784  1.00  0.00     0.183 A 
ATOM     46  H5  UNL     1     -13.310  23.729 -21.441  1.00  0.00     0.168 HD
HETATM   47  N6  UNL     1     -12.359  22.662 -18.504  1.00  0.00    -0.336 N 
ATOM     48  H6  UNL     1     -12.143  21.782 -18.035  1.00  0.00     0.168 HD
BRANCH  38  49
HETATM   49  N2  UNL     1     -11.694  26.253 -15.247  1.00  0.00    -0.138 N 
ATOM     50  H2  UNL     1     -10.824  26.129 -14.729  1.00  0.00     0.205 HD
BRANCH  49  51
HETATM   51  N1  UNL     1     -12.576  27.121 -14.883  1.00  0.00    -0.331 N 
ATOM     52  H12 UNL     1     -13.354  27.360 -15.498  1.00  0.00     0.177 HD
ATOM     53  H11 UNL     1     -12.455  27.547 -13.965  1.00  0.00     0.177 HD
ENDBRANCH  49  51
ENDBRANCH  38  49
BRANCH  42  54
HETATM   54  N4  UNL     1     -13.216  26.042 -20.400  1.00  0.00    -0.383 N 
ATOM     55  H42 UNL     1     -13.423  26.881 -19.859  1.00  0.00     0.157 HD
ATOM     56  H41 UNL     1     -13.218  26.059 -21.420  1.00  0.00     0.157 HD
ENDBRANCH  42  54
ENDBRANCH   1  37
TORSDOF 14
ENDMDL
MODEL 4
REMARK VINA RESULT: -8.471371263      3.273      9.849
REMARK  14 active torsions:
REMARK  status: ('A' for Active; 'I' for Inactive)
REMARK    1  A    between atoms: N1_1  and  N2_4 
REMARK    2  A    between atoms: N2_4  and  C1_6 
REMARK    3  A    between atoms: C3_10  and  N4_11 
REMARK    4  A    between atoms: N7_20  and  C6_21 
REMARK    5  A    between atoms: C7_22  and  O1_23 
REMARK    6  A    between atoms: C8_25  and  O2_26 
REMARK    7  A    between atoms: C9_28  and  C10_29 
REMARK    8  A    between atoms: C10_29  and  N8_30 
REMARK       I    between atoms: N8_30  and  C11_31 
REMARK    9  A    between atoms: C11_31  and  C12_33 
REMARK   10  A    between atoms: C16_41  and  N10_42 
REMARK   11  A    between atoms: C17_45  and  N11_46 
REMARK   12  A    between atoms: N11_46  and  O6_47 
REMARK   13  A    between atoms: N11_46  and  O7_49 
REMARK   14  A    between atoms: C19_54  and  O8_55 
ROOT
HETATM    1  C6  UNL     1     -12.215  23.760 -16.539  1.00  0.00     0.170 C 
HETATM    2  C7  UNL     1     -11.654  23.862 -15.166  1.00  0.00     0.174 C 
HETATM    3  C8  UNL     1     -13.028  23.739 -14.397  1.00  0.00     0.161 C 
HETATM    4  C9  UNL     1     -13.439  22.422 -14.978  1.00  0.00     0.100 C 
HETATM    5  C19 UNL     1     -13.245  22.610 -16.456  1.00  0.00     0.157 C 
ENDROOT
BRANCH   4   6
HETATM    6  C10 UNL     1     -14.683  21.799 -14.551  1.00  0.00     0.169 C 
BRANCH   6   7
HETATM    7  N8  UNL     1     -14.923  21.100 -13.428  1.00  0.00    -0.385 NA
HETATM    8  C11 UNL     1     -15.162  20.403 -12.310  1.00  0.00     0.320 C 
HETATM    9  O3  UNL     1     -14.717  20.491 -11.119  1.00  0.00    -0.254 OA
BRANCH   8  10
HETATM   10  C12 UNL     1     -16.173  19.242 -12.405  1.00  0.00     0.242 A 
HETATM   11  N9  UNL     1     -15.636  18.086 -11.825  1.00  0.00    -0.377 N 
HETATM   12  C13 UNL     1     -16.243  17.346 -10.993  1.00  0.00     0.142 A 
ATOM     13  H9  UNL     1     -14.688  17.820 -12.091  1.00  0.00     0.160 HD
HETATM   14  C14 UNL     1     -17.595  17.654 -10.564  1.00  0.00     0.222 A 
HETATM   15  O4  UNL     1     -18.246  16.960  -9.743  1.00  0.00    -0.284 OA
HETATM   16  C15 UNL     1     -18.232  18.856 -11.131  1.00  0.00     0.154 A 
HETATM   17  O5  UNL     1     -19.470  19.162 -10.764  1.00  0.00    -0.285 OA
HETATM   18  C18 UNL     1     -17.513  19.607 -12.022  1.00  0.00     0.082 A 
HETATM   19  C16 UNL     1     -20.040  20.223 -11.268  1.00  0.00     0.185 A 
HETATM   20  C17 UNL     1     -19.357  21.014 -12.170  1.00  0.00     0.187 A 
HETATM   21  N12 UNL     1     -18.116  20.726 -12.551  1.00  0.00    -0.339 N 
ATOM     22  H12 UNL     1     -17.623  21.320 -13.217  1.00  0.00     0.167 HD
BRANCH  19  23
HETATM   23  N10 UNL     1     -21.250  20.572 -10.946  1.00  0.00    -0.377 N 
ATOM     24 2H10 UNL     1     -21.794  19.933 -10.365  1.00  0.00     0.158 HD
ATOM     25 1H10 UNL     1     -21.658  21.454 -11.257  1.00  0.00     0.158 HD
ENDBRANCH  19  23
BRANCH  20  26
HETATM   26  N11 UNL     1     -20.060  22.171 -12.690  1.00  0.00    -0.015 NA
BRANCH  26  27
HETATM   27  O6  UNL     1     -19.332  22.732 -13.715  1.00  0.00    -0.283 OA
ATOM     28  H6  UNL     1     -19.837  23.427 -14.122  1.00  0.00     0.240 HD
ENDBRANCH  26  27
BRANCH  26  29
HETATM   29  O7  UNL     1     -20.145  23.106 -11.731  1.00  0.00    -0.283 OA
ATOM     30  H7  UNL     1     -19.524  23.801 -11.915  1.00  0.00     0.240 HD
ENDBRANCH  26  29
ENDBRANCH  20  26
ENDBRANCH   8  10
ENDBRANCH   6   7
ENDBRANCH   4   6
BRANCH   3  31
HETATM   31  O2  UNL     1     -13.805  24.814 -14.726  1.00  0.00    -0.392 OA
ATOM     32  H2  UNL     1     -14.554  24.504 -15.221  1.00  0.00     0.210 HD
ENDBRANCH   3  31
BRANCH   5  33
HETATM   33  O8  UNL     1     -12.674  21.458 -16.995  1.00  0.00    -0.393 OA
ATOM     34  H8  UNL     1     -13.115  21.252 -17.812  1.00  0.00     0.210 HD
ENDBRANCH   5  33
BRANCH   2  35
HETATM   35  O1  UNL     1     -10.922  22.781 -14.722  1.00  0.00    -0.391 OA
ATOM     36  H1  UNL     1     -10.864  22.670 -13.780  1.00  0.00     0.210 HD
ENDBRANCH   2  35
BRANCH   1  37
HETATM   37  N7  UNL     1     -11.340  23.663 -17.643  1.00  0.00    -0.154 N 
HETATM   38  C1  UNL     1     -11.395  24.530 -18.674  1.00  0.00     0.701 A 
HETATM   39  N3  UNL     1     -10.459  24.179 -19.547  1.00  0.00    -0.183 N 
HETATM   40  C2  UNL     1      -9.775  23.088 -19.113  1.00  0.00     0.137 A 
ATOM     41  H3  UNL     1     -10.278  24.664 -20.427  1.00  0.00     0.184 HD
HETATM   42  C3  UNL     1      -8.750  22.345 -19.602  1.00  0.00     0.131 A 
HETATM   43  C5  UNL     1     -10.357  22.788 -17.907  1.00  0.00     0.156 A 
HETATM   44  N5  UNL     1      -8.271  21.292 -18.922  1.00  0.00    -0.337 N 
HETATM   45  C4  UNL     1      -8.842  21.004 -17.743  1.00  0.00     0.183 A 
ATOM     46  H5  UNL     1      -7.501  20.731 -19.287  1.00  0.00     0.168 HD
HETATM   47  N6  UNL     1      -9.850  21.718 -17.242  1.00  0.00    -0.336 N 
ATOM     48  H6  UNL     1     -10.248  21.457 -16.341  1.00  0.00     0.168 HD
BRANCH  38  49
HETATM   49  N2  UNL     1     -12.281  25.661 -18.824  1.00  0.00    -0.138 N 
ATOM     50  H2  UNL     1     -13.249  25.626 -18.504  1.00  0.00     0.205 HD
BRANCH  49  51
HETATM   51  N1  UNL     1     -11.792  26.716 -19.382  1.00  0.00    -0.331 N 
ATOM     52  H12 UNL     1     -10.827  26.730 -19.712  1.00  0.00     0.177 HD
ATOM     53  H11 UNL     1     -12.413  27.520 -19.473  1.00  0.00     0.177 HD
ENDBRANCH  49  51
ENDBRANCH  38  49
BRANCH  42  54
HETATM   54  N4  UNL     1      -8.245  22.670 -20.746  1.00  0.00    -0.383 N 
ATOM     55  H42 UNL     1      -7.301  22.377 -20.997  1.00  0.00     0.157 HD
ATOM     56  H41 UNL     1      -8.814  23.221 -21.389  1.00  0.00     0.157 HD
ENDBRANCH  42  54
ENDBRANCH   1  37
TORSDOF 14
ENDMDL
MODEL 5
REMARK VINA RESULT: -8.466447781      5.043      8.327
REMARK  14 active torsions:
REMARK  status: ('A' for Active; 'I' for Inactive)
REMARK    1  A    between atoms: N1_1  and  N2_4 
REMARK    2  A    between atoms: N2_4  and  C1_6 
REMARK    3  A    between atoms: C3_10  and  N4_11 
REMARK    4  A    between atoms: N7_20  and  C6_21 
REMARK    5  A    between atoms: C7_22  and  O1_23 
REMARK    6  A    between atoms: C8_25  and  O2_26 
REMARK    7  A    between atoms: C9_28  and  C10_29 
REMARK    8  A    between atoms: C10_29  and  N8_30 
REMARK       I    between atoms: N8_30  and  C11_31 
REMARK    9  A    between atoms: C11_31  and  C12_33 
REMARK   10  A    between atoms: C16_41  and  N10_42 
REMARK   11  A    between atoms: C17_45  and  N11_46 
REMARK   12  A    between atoms: N11_46  and  O6_47 
REMARK   13  A    between atoms: N11_46  and  O7_49 
REMARK   14  A    between atoms: C19_54  and  O8_55 
ROOT
HETATM    1  C6  UNL     1     -14.522  21.961 -17.966  1.00  0.00     0.170 C 
HETATM    2  C7  UNL     1     -14.244  20.877 -18.946  1.00  0.00     0.174 C 
HETATM    3  C8  UNL     1     -14.853  21.609 -20.206  1.00  0.00     0.161 C 
HETATM    4  C9  UNL     1     -13.995  22.834 -20.131  1.00  0.00     0.100 C 
HETATM    5  C19 UNL     1     -14.112  23.261 -18.695  1.00  0.00     0.157 C 
ENDROOT
BRANCH   4   6
HETATM    6  C10 UNL     1     -14.128  23.874 -21.140  1.00  0.00     0.169 C 
BRANCH   6   7
HETATM    7  N8  UNL     1     -15.201  24.170 -21.895  1.00  0.00    -0.385 NA
HETATM    8  C11 UNL     1     -16.269  24.465 -22.646  1.00  0.00     0.320 C 
HETATM    9  O3  UNL     1     -16.694  24.024 -23.764  1.00  0.00    -0.254 OA
BRANCH   8  10
HETATM   10  C12 UNL     1     -17.228  25.549 -22.113  1.00  0.00     0.242 A 
HETATM   11  N9  UNL     1     -17.833  26.225 -23.180  1.00  0.00    -0.377 N 
HETATM   12  C13 UNL     1     -19.075  26.458 -23.277  1.00  0.00     0.142 A 
ATOM     13  H9  UNL     1     -17.230  26.553 -23.934  1.00  0.00     0.160 HD
HETATM   14  C14 UNL     1     -20.001  26.026 -22.246  1.00  0.00     0.222 A 
HETATM   15  O4  UNL     1     -21.241  26.227 -22.286  1.00  0.00    -0.284 OA
HETATM   16  C15 UNL     1     -19.442  25.308 -21.087  1.00  0.00     0.154 A 
HETATM   17  O5  UNL     1     -20.261  24.905 -20.123  1.00  0.00    -0.285 OA
HETATM   18  C18 UNL     1     -18.090  25.091 -21.053  1.00  0.00     0.082 A 
HETATM   19  C16 UNL     1     -19.768  24.273 -19.092  1.00  0.00     0.185 A 
HETATM   20  C17 UNL     1     -18.412  24.029 -19.011  1.00  0.00     0.187 A 
HETATM   21  N12 UNL     1     -17.575  24.423 -19.965  1.00  0.00    -0.339 N 
ATOM     22  H12 UNL     1     -16.575  24.235 -19.893  1.00  0.00     0.167 HD
BRANCH  19  23
HETATM   23  N10 UNL     1     -20.521  23.855 -18.118  1.00  0.00    -0.377 N 
ATOM     24 2H10 UNL     1     -21.525  24.027 -18.181  1.00  0.00     0.158 HD
ATOM     25 1H10 UNL     1     -20.135  23.369 -17.309  1.00  0.00     0.158 HD
ENDBRANCH  19  23
BRANCH  20  26
HETATM   26  N11 UNL     1     -17.941  23.328 -17.832  1.00  0.00    -0.015 NA
BRANCH  26  27
HETATM   27  O6  UNL     1     -18.447  22.048 -17.822  1.00  0.00    -0.283 OA
ATOM     28  H6  UNL     1     -17.934  21.497 -18.401  1.00  0.00     0.240 HD
ENDBRANCH  26  27
BRANCH  26  29
HETATM   29  O7  UNL     1     -18.423  23.933 -16.735  1.00  0.00    -0.283 OA
ATOM     30  H7  UNL     1     -19.336  23.697 -16.622  1.00  0.00     0.240 HD
ENDBRANCH  26  29
ENDBRANCH  20  26
ENDBRANCH   8  10
ENDBRANCH   6   7
ENDBRANCH   4   6
BRANCH   3  31
HETATM   31  O2  UNL     1     -16.190  21.793 -19.995  1.00  0.00    -0.392 OA
ATOM     32  H2  UNL     1     -16.612  21.918 -20.837  1.00  0.00     0.210 HD
ENDBRANCH   3  31
BRANCH   5  33
HETATM   33  O8  UNL     1     -12.859  23.658 -18.230  1.00  0.00    -0.393 OA
ATOM     34  H8  UNL     1     -12.930  23.873 -17.307  1.00  0.00     0.210 HD
ENDBRANCH   5  33
BRANCH   2  35
HETATM   35  O1  UNL     1     -12.921  20.677 -19.279  1.00  0.00    -0.391 OA
ATOM     36  H1  UNL     1     -12.754  20.309 -20.138  1.00  0.00     0.210 HD
ENDBRANCH   2  35
BRANCH   1  37
HETATM   37  N7  UNL     1     -14.015  21.858 -16.653  1.00  0.00    -0.154 N 
HETATM   38  C1  UNL     1     -14.799  22.033 -15.570  1.00  0.00     0.701 A 
HETATM   39  N3  UNL     1     -14.040  21.879 -14.492  1.00  0.00    -0.183 N 
HETATM   40  C2  UNL     1     -12.755  21.601 -14.839  1.00  0.00     0.137 A 
ATOM     41  H3  UNL     1     -14.376  21.960 -13.532  1.00  0.00     0.184 HD
HETATM   42  C3  UNL     1     -11.611  21.359 -14.151  1.00  0.00     0.131 A 
HETATM   43  C5  UNL     1     -12.775  21.595 -16.211  1.00  0.00     0.156 A 
HETATM   44  N5  UNL     1     -10.459  21.104 -14.791  1.00  0.00    -0.337 N 
HETATM   45  C4  UNL     1     -10.484  21.098 -16.133  1.00  0.00     0.183 A 
ATOM     46  H5  UNL     1      -9.597  20.922 -14.277  1.00  0.00     0.168 HD
HETATM   47  N6  UNL     1     -11.595  21.333 -16.829  1.00  0.00    -0.336 N 
ATOM     48  H6  UNL     1     -11.558  21.316 -17.849  1.00  0.00     0.168 HD
BRANCH  38  49
HETATM   49  N2  UNL     1     -16.216  22.313 -15.548  1.00  0.00    -0.138 N 
ATOM     50  H2  UNL     1     -16.572  23.267 -15.619  1.00  0.00     0.205 HD
BRANCH  49  51
HETATM   51  N1  UNL     1     -17.010  21.303 -15.435  1.00  0.00    -0.331 N 
ATOM     52  H12 UNL     1     -16.684  20.360 -15.646  1.00  0.00     0.177 HD
ATOM     53  H11 UNL     1     -17.963  21.497 -15.129  1.00  0.00     0.177 HD
ENDBRANCH  49  51
ENDBRANCH  38  49
BRANCH  42  54
HETATM   54  N4  UNL     1     -11.651  21.384 -12.861  1.00  0.00    -0.383 N 
ATOM     55  H42 UNL     1     -12.512  21.638 -12.375  1.00  0.00     0.157 HD
ATOM     56  H41 UNL     1     -10.807  21.140 -12.343  1.00  0.00     0.157 HD
ENDBRANCH  42  54
ENDBRANCH   1  37
TORSDOF 14
ENDMDL
