MODEL 1
REMARK VINA RESULT: -7.803739125      0.000      0.000
REMARK  11 active torsions:
REMARK  status: ('A' for Active; 'I' for Inactive)
REMARK    1  A    between atoms: N5_15  and  C6_16 
REMARK    2  A    between atoms: C7_18  and  N6_19 
REMARK    3  A    between atoms: C7_18  and  C8_23 
REMARK    4  A    between atoms: C8_23  and  O2_24 
REMARK    5  A    between atoms: O2_24  and  S1_25 
REMARK    6  A    between atoms: S1_25  and  N7_28 
REMARK       I    between atoms: N7_28  and  C9_30 
REMARK       I    between atoms: C9_30  and  N8_32 
REMARK    7  A    between atoms: N8_32  and  N9_33 
REMARK    8  A    between atoms: N8_32  and  C10_36 
REMARK    9  A    between atoms: C11_40  and  O6_41 
REMARK   10  A    between atoms: C12_43  and  O7_44 
REMARK   11  A    between atoms: C13_47  and  O9_48 
ROOT
HETATM    1  C6  UNL     1       6.558   5.002  23.174  1.00  0.00     0.267 C 
HETATM    2  O1  UNL     1       5.905   5.177  21.950  1.00  0.00    -0.322 OA
HETATM    3  C7  UNL     1       6.500   4.019  21.487  1.00  0.00     0.279 C 
HETATM    4  C13 UNL     1       7.631   4.246  22.468  1.00  0.00     0.232 C 
ENDROOT
BRANCH   3   5
HETATM    5  N6  UNL     1       6.971   4.111  20.104  1.00  0.00    -0.042 N 
ATOM      6  H63 UNL     1       6.200   4.335  19.475  1.00  0.00     0.278 HD
ATOM      7  H62 UNL     1       7.545   4.944  19.974  1.00  0.00     0.278 HD
ATOM      8  H61 UNL     1       7.466   3.279  19.782  1.00  0.00     0.278 HD
ENDBRANCH   3   5
BRANCH   3   9
HETATM    9  C8  UNL     1       5.673   2.773  21.721  1.00  0.00     0.263 C 
BRANCH   9  10
HETATM   10  O2  UNL     1       4.939   2.555  20.560  1.00  0.00    -0.254 OA
BRANCH  10  11
HETATM   11  S1  UNL     1       3.316   2.860  20.780  1.00  0.00     0.365 S 
HETATM   12  O3  UNL     1       2.481   2.201  19.700  1.00  0.00    -0.175 OA
HETATM   13  O4  UNL     1       2.861   2.277  22.093  1.00  0.00    -0.175 OA
BRANCH  11  14
HETATM   14  N7  UNL     1       2.998   4.547  20.834  1.00  0.00    -0.211 N 
HETATM   15  C9  UNL     1       1.662   5.017  20.874  1.00  0.00     0.355 C 
HETATM   16  O5  UNL     1       0.708   4.163  20.870  1.00  0.00    -0.244 OA
HETATM   17  N8  UNL     1       1.362   6.389  20.917  1.00  0.00    -0.193 N 
ATOM     18  H7  UNL     1       3.772   5.211  20.837  1.00  0.00     0.185 HD
BRANCH  17  19
HETATM   19  N9  UNL     1       2.427   7.308  20.918  1.00  0.00    -0.335 N 
ATOM     20  H92 UNL     1       3.160   7.277  20.210  1.00  0.00     0.177 HD
ATOM     21  H91 UNL     1       2.456   8.018  21.650  1.00  0.00     0.177 HD
ENDBRANCH  17  19
BRANCH  17  22
HETATM   22  C10 UNL     1      -0.009   6.825  20.956  1.00  0.00     0.459 C 
HETATM   23  N10 UNL     1      -0.704   6.466  19.739  1.00  0.00     0.002 N 
HETATM   24  C11 UNL     1      -1.887   7.296  19.780  1.00  0.00     0.379 C 
ATOM     25 2H10 UNL     1      -0.148   6.559  18.888  1.00  0.00     0.285 HD
ATOM     26 1H10 UNL     1      -0.888   5.468  19.633  1.00  0.00     0.285 HD
HETATM   27  C12 UNL     1      -1.491   8.400  20.712  1.00  0.00     0.318 C 
HETATM   28  O8  UNL     1      -0.111   8.226  20.942  1.00  0.00    -0.307 OA
BRANCH  24  29
HETATM   29  O6  UNL     1      -2.214   7.794  18.519  1.00  0.00    -0.366 OA
ATOM     30  H6  UNL     1      -3.090   7.538  18.256  1.00  0.00     0.212 HD
ENDBRANCH  24  29
BRANCH  27  31
HETATM   31  O7  UNL     1      -2.211   8.236  21.899  1.00  0.00    -0.367 OA
ATOM     32  H7  UNL     1      -2.174   9.057  22.378  1.00  0.00     0.212 HD
ENDBRANCH  27  31
ENDBRANCH  17  22
ENDBRANCH  11  14
ENDBRANCH  10  11
ENDBRANCH   9  10
ENDBRANCH   3   9
BRANCH   4  33
HETATM   33  O9  UNL     1       8.637   4.966  21.855  1.00  0.00    -0.386 OA
ATOM     34  H9  UNL     1       9.537   4.740  22.060  1.00  0.00     0.210 HD
ENDBRANCH   4  33
BRANCH   1  35
HETATM   35  N5  UNL     1       6.925   6.245  23.786  1.00  0.00    -0.297 N 
HETATM   36  C3  UNL     1       7.138   7.475  23.266  1.00  0.00     0.142 A 
HETATM   37  N3  UNL     1       7.068   7.907  21.999  1.00  0.00    -0.336 N 
HETATM   38  C4  UNL     1       7.476   8.347  24.281  1.00  0.00     0.122 A 
HETATM   39  C2  UNL     1       7.329   9.193  21.737  1.00  0.00     0.183 A 
ATOM     40  H3  UNL     1       6.819   7.265  21.246  1.00  0.00     0.168 HD
HETATM   41  N2  UNL     1       7.658  10.042  22.726  1.00  0.00    -0.337 N 
HETATM   42  C1  UNL     1       7.748   9.681  24.017  1.00  0.00     0.131 A 
ATOM     43  H2  UNL     1       7.849  11.014  22.483  1.00  0.00     0.168 HD
HETATM   44  N1  UNL     1       8.058  10.467  24.972  1.00  0.00    -0.383 N 
ATOM     45  H12 UNL     1       8.258  11.449  24.777  1.00  0.00     0.157 HD
ATOM     46  H11 UNL     1       8.126  10.192  25.951  1.00  0.00     0.157 HD
HETATM   47  N4  UNL     1       7.462   7.630  25.410  1.00  0.00    -0.346 N 
HETATM   48  C5  UNL     1       7.134   6.372  25.121  1.00  0.00     0.188 A 
ATOM     49  H4  UNL     1       7.670   7.989  26.341  1.00  0.00     0.167 HD
ENDBRANCH   1  35
TORSDOF 11
ENDMDL
MODEL 2
REMARK VINA RESULT: -7.778676513      2.623      6.914
REMARK  11 active torsions:
REMARK  status: ('A' for Active; 'I' for Inactive)
REMARK    1  A    between atoms: N5_15  and  C6_16 
REMARK    2  A    between atoms: C7_18  and  N6_19 
REMARK    3  A    between atoms: C7_18  and  C8_23 
REMARK    4  A    between atoms: C8_23  and  O2_24 
REMARK    5  A    between atoms: O2_24  and  S1_25 
REMARK    6  A    between atoms: S1_25  and  N7_28 
REMARK       I    between atoms: N7_28  and  C9_30 
REMARK       I    between atoms: C9_30  and  N8_32 
REMARK    7  A    between atoms: N8_32  and  N9_33 
REMARK    8  A    between atoms: N8_32  and  C10_36 
REMARK    9  A    between atoms: C11_40  and  O6_41 
REMARK   10  A    between atoms: C12_43  and  O7_44 
REMARK   11  A    between atoms: C13_47  and  O9_48 
ROOT
HETATM    1  C6  UNL     1       1.608   5.755  21.084  1.00  0.00     0.267 C 
HETATM    2  O1  UNL     1       2.868   6.054  21.609  1.00  0.00    -0.322 OA
HETATM    3  C7  UNL     1       2.887   4.816  22.223  1.00  0.00     0.279 C 
HETATM    4  C13 UNL     1       1.373   4.833  22.231  1.00  0.00     0.232 C 
ENDROOT
BRANCH   3   5
HETATM    5  N6  UNL     1       3.426   4.842  23.585  1.00  0.00    -0.042 N 
ATOM      6  H63 UNL     1       4.382   5.196  23.586  1.00  0.00     0.278 HD
ATOM      7  H62 UNL     1       2.972   5.570  24.137  1.00  0.00     0.278 HD
ATOM      8  H61 UNL     1       3.375   3.942  24.063  1.00  0.00     0.278 HD
ENDBRANCH   3   5
BRANCH   3   9
HETATM    9  C8  UNL     1       3.523   3.729  21.384  1.00  0.00     0.263 C 
BRANCH   9  10
HETATM   10  O2  UNL     1       4.634   3.277  22.087  1.00  0.00    -0.254 OA
BRANCH  10  11
HETATM   11  S1  UNL     1       6.002   3.237  21.136  1.00  0.00     0.365 S 
HETATM   12  O3  UNL     1       7.093   2.402  21.777  1.00  0.00    -0.175 OA
HETATM   13  O4  UNL     1       5.685   2.588  19.814  1.00  0.00    -0.175 OA
BRANCH  11  14
HETATM   14  N7  UNL     1       6.579   4.820  20.802  1.00  0.00    -0.211 N 
HETATM   15  C9  UNL     1       6.673   5.776  21.843  1.00  0.00     0.355 C 
HETATM   16  O5  UNL     1       6.321   5.435  23.026  1.00  0.00    -0.244 OA
HETATM   17  N8  UNL     1       7.139   7.081  21.609  1.00  0.00    -0.193 N 
ATOM     18  H7  UNL     1       6.855   5.071  19.853  1.00  0.00     0.185 HD
BRANCH  17  19
HETATM   19  N9  UNL     1       7.518   7.433  20.301  1.00  0.00    -0.335 N 
ATOM     20  H92 UNL     1       7.066   7.020  19.485  1.00  0.00     0.177 HD
ATOM     21  H91 UNL     1       8.264   8.117  20.178  1.00  0.00     0.177 HD
ENDBRANCH  17  19
BRANCH  17  22
HETATM   22  C10 UNL     1       7.218   8.022  22.695  1.00  0.00     0.459 C 
HETATM   23  N10 UNL     1       5.911   8.269  23.264  1.00  0.00     0.002 N 
HETATM   24  C11 UNL     1       6.111   9.481  24.028  1.00  0.00     0.379 C 
ATOM     25 2H10 UNL     1       5.153   8.316  22.584  1.00  0.00     0.285 HD
ATOM     26 1H10 UNL     1       5.525   7.490  23.796  1.00  0.00     0.285 HD
HETATM   27  C12 UNL     1       7.332  10.079  23.398  1.00  0.00     0.318 C 
HETATM   28  O8  UNL     1       7.584   9.303  22.248  1.00  0.00    -0.307 OA
BRANCH  24  29
HETATM   29  O6  UNL     1       5.019  10.342  23.929  1.00  0.00    -0.366 OA
ATOM     30  H6  UNL     1       4.332   9.978  23.384  1.00  0.00     0.212 HD
ENDBRANCH  24  29
BRANCH  27  31
HETATM   31  O7  UNL     1       8.385   9.961  24.310  1.00  0.00    -0.367 OA
ATOM     32  H7  UNL     1       8.149   9.291  24.942  1.00  0.00     0.212 HD
ENDBRANCH  27  31
ENDBRANCH  17  22
ENDBRANCH  11  14
ENDBRANCH  10  11
ENDBRANCH   9  10
ENDBRANCH   3   9
BRANCH   4  33
HETATM   33  O9  UNL     1       0.923   5.376  23.419  1.00  0.00    -0.386 OA
ATOM     34  H9  UNL     1       0.642   4.781  24.104  1.00  0.00     0.210 HD
ENDBRANCH   4  33
BRANCH   1  35
HETATM   35  N5  UNL     1       0.763   6.909  20.986  1.00  0.00    -0.297 N 
HETATM   36  C3  UNL     1       0.726   8.059  21.696  1.00  0.00     0.142 A 
HETATM   37  N3  UNL     1       1.483   8.472  22.723  1.00  0.00    -0.336 N 
HETATM   38  C4  UNL     1      -0.284   8.863  21.209  1.00  0.00     0.122 A 
HETATM   39  C2  UNL     1       1.244   9.672  23.263  1.00  0.00     0.183 A 
ATOM     40  H3  UNL     1       2.230   7.880  23.086  1.00  0.00     0.168 HD
HETATM   41  N2  UNL     1       0.260  10.455  22.788  1.00  0.00    -0.337 N 
HETATM   42  C1  UNL     1      -0.538  10.108  21.764  1.00  0.00     0.131 A 
ATOM     43  H2  UNL     1       0.112  11.363  23.229  1.00  0.00     0.168 HD
HETATM   44  N1  UNL     1      -1.476  10.834  21.297  1.00  0.00    -0.383 N 
ATOM     45  H12 UNL     1      -1.663  11.750  21.705  1.00  0.00     0.157 HD
ATOM     46  H11 UNL     1      -2.081  10.570  20.519  1.00  0.00     0.157 HD
HETATM   47  N4  UNL     1      -0.849   8.187  20.204  1.00  0.00    -0.346 N 
HETATM   48  C5  UNL     1      -0.228   7.017  20.065  1.00  0.00     0.188 A 
ATOM     49  H4  UNL     1      -1.629   8.514  19.635  1.00  0.00     0.167 HD
ENDBRANCH   1  35
TORSDOF 11
ENDMDL
MODEL 3
REMARK VINA RESULT: -7.653458250      2.798      5.104
REMARK  11 active torsions:
REMARK  status: ('A' for Active; 'I' for Inactive)
REMARK    1  A    between atoms: N5_15  and  C6_16 
REMARK    2  A    between atoms: C7_18  and  N6_19 
REMARK    3  A    between atoms: C7_18  and  C8_23 
REMARK    4  A    between atoms: C8_23  and  O2_24 
REMARK    5  A    between atoms: O2_24  and  S1_25 
REMARK    6  A    between atoms: S1_25  and  N7_28 
REMARK       I    between atoms: N7_28  and  C9_30 
REMARK       I    between atoms: C9_30  and  N8_32 
REMARK    7  A    between atoms: N8_32  and  N9_33 
REMARK    8  A    between atoms: N8_32  and  C10_36 
REMARK    9  A    between atoms: C11_40  and  O6_41 
REMARK   10  A    between atoms: C12_43  and  O7_44 
REMARK   11  A    between atoms: C13_47  and  O9_48 
ROOT
HETATM    1  C6  UNL     1       6.025   7.977  23.389  1.00  0.00     0.267 C 
HETATM    2  O1  UNL     1       5.599   6.911  22.592  1.00  0.00    -0.322 OA
HETATM    3  C7  UNL     1       6.909   6.692  22.213  1.00  0.00     0.279 C 
HETATM    4  C13 UNL     1       7.198   8.153  22.487  1.00  0.00     0.232 C 
ENDROOT
BRANCH   3   5
HETATM    5  N6  UNL     1       7.067   6.377  20.792  1.00  0.00    -0.042 N 
ATOM      6  H63 UNL     1       7.763   6.987  20.363  1.00  0.00     0.278 HD
ATOM      7  H62 UNL     1       7.533   5.477  20.673  1.00  0.00     0.278 HD
ATOM      8  H61 UNL     1       6.194   6.403  20.265  1.00  0.00     0.278 HD
ENDBRANCH   3   5
BRANCH   3   9
HETATM    9  C8  UNL     1       7.643   5.704  23.096  1.00  0.00     0.263 C 
BRANCH   9  10
HETATM   10  O2  UNL     1       8.628   5.118  22.309  1.00  0.00    -0.254 OA
BRANCH  10  11
HETATM   11  S1  UNL     1       8.433   3.467  22.192  1.00  0.00     0.365 S 
HETATM   12  O3  UNL     1       8.736   2.976  20.790  1.00  0.00    -0.175 OA
HETATM   13  O4  UNL     1       9.403   2.772  23.111  1.00  0.00    -0.175 OA
BRANCH  11  14
HETATM   14  N7  UNL     1       6.852   2.989  22.662  1.00  0.00    -0.211 N 
HETATM   15  C9  UNL     1       5.778   3.084  21.743  1.00  0.00     0.355 C 
HETATM   16  O5  UNL     1       6.012   3.530  20.566  1.00  0.00    -0.244 OA
HETATM   17  N8  UNL     1       4.471   2.703  22.092  1.00  0.00    -0.193 N 
ATOM     18  H7  UNL     1       6.686   2.635  23.605  1.00  0.00     0.185 HD
BRANCH  17  19
HETATM   19  N9  UNL     1       4.237   2.219  23.391  1.00  0.00    -0.335 N 
ATOM     20  H92 UNL     1       4.961   1.727  23.916  1.00  0.00     0.177 HD
ATOM     21  H91 UNL     1       3.318   2.368  23.809  1.00  0.00     0.177 HD
ENDBRANCH  17  19
BRANCH  17  22
HETATM   22  C10 UNL     1       3.408   2.817  21.128  1.00  0.00     0.459 C 
HETATM   23  N10 UNL     1       2.847   4.151  21.127  1.00  0.00     0.002 N 
HETATM   24  C11 UNL     1       1.591   3.977  20.431  1.00  0.00     0.379 C 
ATOM     25 2H10 UNL     1       2.766   4.579  22.050  1.00  0.00     0.285 HD
ATOM     26 1H10 UNL     1       3.456   4.867  20.733  1.00  0.00     0.285 HD
HETATM   27  C12 UNL     1       1.323   2.510  20.580  1.00  0.00     0.318 C 
HETATM   28  O8  UNL     1       2.294   2.038  21.487  1.00  0.00    -0.307 OA
BRANCH  24  29
HETATM   29  O6  UNL     1       0.572   4.736  21.005  1.00  0.00    -0.366 OA
ATOM     30  H6  UNL     1       0.066   5.201  20.349  1.00  0.00     0.212 HD
ENDBRANCH  24  29
BRANCH  27  31
HETATM   31  O7  UNL     1       1.492   1.915  19.326  1.00  0.00    -0.367 OA
ATOM     32  H7  UNL     1       1.142   2.510  18.673  1.00  0.00     0.212 HD
ENDBRANCH  27  31
ENDBRANCH  17  22
ENDBRANCH  11  14
ENDBRANCH  10  11
ENDBRANCH   9  10
ENDBRANCH   3   9
BRANCH   4  33
HETATM   33  O9  UNL     1       7.023   8.883  21.328  1.00  0.00    -0.386 OA
ATOM     34  H9  UNL     1       7.225   9.811  21.350  1.00  0.00     0.210 HD
ENDBRANCH   4  33
BRANCH   1  35
HETATM   35  N5  UNL     1       5.071   9.045  23.440  1.00  0.00    -0.297 N 
HETATM   36  C3  UNL     1       3.720   9.046  23.392  1.00  0.00     0.142 A 
HETATM   37  N3  UNL     1       2.853   8.029  23.280  1.00  0.00    -0.336 N 
HETATM   38  C4  UNL     1       3.262  10.345  23.477  1.00  0.00     0.122 A 
HETATM   39  C2  UNL     1       1.542   8.295  23.253  1.00  0.00     0.183 A 
ATOM     40  H3  UNL     1       3.188   7.067  23.216  1.00  0.00     0.168 HD
HETATM   41  N2  UNL     1       1.096   9.560  23.337  1.00  0.00    -0.337 N 
HETATM   42  C1  UNL     1       1.904  10.628  23.450  1.00  0.00     0.131 A 
ATOM     43  H2  UNL     1       0.089   9.718  23.313  1.00  0.00     0.168 HD
HETATM   44  N1  UNL     1       1.505  11.835  23.531  1.00  0.00    -0.383 N 
ATOM     45  H12 UNL     1       0.506  12.043  23.511  1.00  0.00     0.157 HD
ATOM     46  H11 UNL     1       2.118  12.645  23.617  1.00  0.00     0.157 HD
HETATM   47  N4  UNL     1       4.347  11.118  23.577  1.00  0.00    -0.346 N 
HETATM   48  C5  UNL     1       5.433  10.348  23.555  1.00  0.00     0.188 A 
ATOM     49  H4  UNL     1       4.344  12.135  23.657  1.00  0.00     0.167 HD
ENDBRANCH   1  35
TORSDOF 11
ENDMDL
MODEL 4
REMARK VINA RESULT: -7.463464295      2.833      6.374
REMARK  11 active torsions:
REMARK  status: ('A' for Active; 'I' for Inactive)
REMARK    1  A    between atoms: N5_15  and  C6_16 
REMARK    2  A    between atoms: C7_18  and  N6_19 
REMARK    3  A    between atoms: C7_18  and  C8_23 
REMARK    4  A    between atoms: C8_23  and  O2_24 
REMARK    5  A    between atoms: O2_24  and  S1_25 
REMARK    6  A    between atoms: S1_25  and  N7_28 
REMARK       I    between atoms: N7_28  and  C9_30 
REMARK       I    between atoms: C9_30  and  N8_32 
REMARK    7  A    between atoms: N8_32  and  N9_33 
REMARK    8  A    between atoms: N8_32  and  C10_36 
REMARK    9  A    between atoms: C11_40  and  O6_41 
REMARK   10  A    between atoms: C12_43  and  O7_44 
REMARK   11  A    between atoms: C13_47  and  O9_48 
ROOT
HETATM    1  C6  UNL     1       4.639   6.453  23.414  1.00  0.00     0.267 C 
HETATM    2  O1  UNL     1       3.412   7.037  23.088  1.00  0.00    -0.322 OA
HETATM    3  C7  UNL     1       3.342   6.227  21.971  1.00  0.00     0.279 C 
HETATM    4  C13 UNL     1       4.854   6.152  21.970  1.00  0.00     0.232 C 
ENDROOT
BRANCH   3   5
HETATM    5  N6  UNL     1       2.843   6.911  20.776  1.00  0.00    -0.042 N 
ATOM      6  H63 UNL     1       2.390   7.789  21.027  1.00  0.00     0.278 HD
ATOM      7  H62 UNL     1       3.618   7.271  20.219  1.00  0.00     0.278 HD
ATOM      8  H61 UNL     1       2.224   6.338  20.203  1.00  0.00     0.278 HD
ENDBRANCH   3   5
BRANCH   3   9
HETATM    9  C8  UNL     1       2.623   4.916  22.213  1.00  0.00     0.263 C 
BRANCH   9  10
HETATM   10  O2  UNL     1       2.316   4.390  20.964  1.00  0.00    -0.254 OA
BRANCH  10  11
HETATM   11  S1  UNL     1       2.894   2.838  20.780  1.00  0.00     0.365 S 
HETATM   12  O3  UNL     1       2.385   1.928  21.880  1.00  0.00    -0.175 OA
HETATM   13  O4  UNL     1       2.399   2.260  19.479  1.00  0.00    -0.175 OA
BRANCH  11  14
HETATM   14  N7  UNL     1       4.611   2.811  20.730  1.00  0.00    -0.211 N 
HETATM   15  C9  UNL     1       5.354   2.654  21.925  1.00  0.00     0.355 C 
HETATM   16  O5  UNL     1       4.722   2.532  23.032  1.00  0.00    -0.244 OA
HETATM   17  N8  UNL     1       6.759   2.628  21.924  1.00  0.00    -0.193 N 
ATOM     18  H7  UNL     1       5.096   2.909  19.837  1.00  0.00     0.185 HD
BRANCH  17  19
HETATM   19  N9  UNL     1       7.431   2.766  20.697  1.00  0.00    -0.335 N 
ATOM     20  H92 UNL     1       6.984   3.196  19.888  1.00  0.00     0.177 HD
ATOM     21  H91 UNL     1       8.389   2.421  20.625  1.00  0.00     0.177 HD
ENDBRANCH  17  19
BRANCH  17  22
HETATM   22  C10 UNL     1       7.476   2.467  23.162  1.00  0.00     0.459 C 
HETATM   23  N10 UNL     1       8.852   2.893  23.025  1.00  0.00     0.002 N 
HETATM   24  C11 UNL     1       9.492   2.308  24.182  1.00  0.00     0.379 C 
ATOM     25 2H10 UNL     1       9.285   2.653  22.133  1.00  0.00     0.285 HD
ATOM     26 1H10 UNL     1       8.978   3.900  22.933  1.00  0.00     0.285 HD
HETATM   27  C12 UNL     1       8.561   1.195  24.556  1.00  0.00     0.318 C 
HETATM   28  O8  UNL     1       7.628   1.112  23.503  1.00  0.00    -0.307 OA
BRANCH  24  29
HETATM   29  O6  UNL     1      10.764   1.821  23.881  1.00  0.00    -0.366 OA
ATOM     30  H6  UNL     1      11.402   2.071  24.538  1.00  0.00     0.212 HD
ENDBRANCH  24  29
BRANCH  27  31
HETATM   31  O7  UNL     1       7.925   1.552  25.749  1.00  0.00    -0.367 OA
ATOM     32  H7  UNL     1       6.987   1.540  25.594  1.00  0.00     0.212 HD
ENDBRANCH  27  31
ENDBRANCH  17  22
ENDBRANCH  11  14
ENDBRANCH  10  11
ENDBRANCH   9  10
ENDBRANCH   3   9
BRANCH   4  33
HETATM   33  O9  UNL     1       5.366   7.152  21.167  1.00  0.00    -0.386 OA
ATOM     34  H9  UNL     1       5.628   6.926  20.283  1.00  0.00     0.210 HD
ENDBRANCH   4  33
BRANCH   1  35
HETATM   35  N5  UNL     1       5.543   7.376  24.033  1.00  0.00    -0.297 N 
HETATM   36  C3  UNL     1       5.731   8.704  23.859  1.00  0.00     0.142 A 
HETATM   37  N3  UNL     1       5.116   9.570  23.041  1.00  0.00    -0.336 N 
HETATM   38  C4  UNL     1       6.735   9.137  24.702  1.00  0.00     0.122 A 
HETATM   39  C2  UNL     1       5.490  10.854  23.056  1.00  0.00     0.183 A 
ATOM     40  H3  UNL     1       4.374   9.253  22.416  1.00  0.00     0.168 HD
HETATM   41  N2  UNL     1       6.467  11.275  23.877  1.00  0.00    -0.337 N 
HETATM   42  C1  UNL     1       7.128  10.466  24.723  1.00  0.00     0.131 A 
ATOM     43  H2  UNL     1       6.721  12.263  23.856  1.00  0.00     0.168 HD
HETATM   44  N1  UNL     1       8.057  10.843  25.510  1.00  0.00    -0.383 N 
ATOM     45  H12 UNL     1       8.346  11.821  25.526  1.00  0.00     0.157 HD
ATOM     46  H11 UNL     1       8.558  10.229  26.152  1.00  0.00     0.157 HD
HETATM   47  N4  UNL     1       7.144   8.060  25.380  1.00  0.00    -0.346 N 
HETATM   48  C5  UNL     1       6.436   7.003  24.985  1.00  0.00     0.188 A 
ATOM     49  H4  UNL     1       7.880   8.049  26.086  1.00  0.00     0.167 HD
ENDBRANCH   1  35
TORSDOF 11
ENDMDL
MODEL 5
REMARK VINA RESULT: -7.429144862      2.726      6.191
REMARK  11 active torsions:
REMARK  status: ('A' for Active; 'I' for Inactive)
REMARK    1  A    between atoms: N5_15  and  C6_16 
REMARK    2  A    between atoms: C7_18  and  N6_19 
REMARK    3  A    between atoms: C7_18  and  C8_23 
REMARK    4  A    between atoms: C8_23  and  O2_24 
REMARK    5  A    between atoms: O2_24  and  S1_25 
REMARK    6  A    between atoms: S1_25  and  N7_28 
REMARK       I    between atoms: N7_28  and  C9_30 
REMARK       I    between atoms: C9_30  and  N8_32 
REMARK    7  A    between atoms: N8_32  and  N9_33 
REMARK    8  A    between atoms: N8_32  and  C10_36 
REMARK    9  A    between atoms: C11_40  and  O6_41 
REMARK   10  A    between atoms: C12_43  and  O7_44 
REMARK   11  A    between atoms: C13_47  and  O9_48 
ROOT
HETATM    1  C6  UNL     1       4.512   7.029  23.358  1.00  0.00     0.267 C 
HETATM    2  O1  UNL     1       3.206   7.319  22.954  1.00  0.00    -0.322 OA
HETATM    3  C7  UNL     1       3.308   6.343  21.981  1.00  0.00     0.279 C 
HETATM    4  C13 UNL     1       4.808   6.548  21.979  1.00  0.00     0.232 C 
ENDROOT
BRANCH   3   5
HETATM    5  N6  UNL     1       2.718   6.727  20.697  1.00  0.00    -0.042 N 
ATOM      6  H63 UNL     1       3.032   7.656  20.420  1.00  0.00     0.278 HD
ATOM      7  H62 UNL     1       3.121   6.177  19.938  1.00  0.00     0.278 HD
ATOM      8  H61 UNL     1       1.700   6.672  20.680  1.00  0.00     0.278 HD
ENDBRANCH   3   5
BRANCH   3   9
HETATM    9  C8  UNL     1       2.836   4.978  22.435  1.00  0.00     0.263 C 
BRANCH   9  10
HETATM   10  O2  UNL     1       2.361   4.322  21.305  1.00  0.00    -0.254 OA
BRANCH  10  11
HETATM   11  S1  UNL     1       3.269   2.973  20.939  1.00  0.00     0.365 S 
HETATM   12  O3  UNL     1       3.241   1.967  22.073  1.00  0.00    -0.175 OA
HETATM   13  O4  UNL     1       2.688   2.278  19.734  1.00  0.00    -0.175 OA
BRANCH  11  14
HETATM   14  N7  UNL     1       4.889   3.394  20.554  1.00  0.00    -0.211 N 
HETATM   15  C9  UNL     1       5.885   3.378  21.561  1.00  0.00     0.355 C 
HETATM   16  O5  UNL     1       5.553   3.046  22.751  1.00  0.00    -0.244 OA
HETATM   17  N8  UNL     1       7.221   3.718  21.284  1.00  0.00    -0.193 N 
ATOM     18  H7  UNL     1       5.134   3.655  19.598  1.00  0.00     0.185 HD
BRANCH  17  19
HETATM   19  N9  UNL     1       7.562   4.081  19.969  1.00  0.00    -0.335 N 
ATOM     20  H92 UNL     1       8.514   4.348  19.719  1.00  0.00     0.177 HD
ATOM     21  H91 UNL     1       6.831   4.076  19.257  1.00  0.00     0.177 HD
ENDBRANCH  17  19
BRANCH  17  22
HETATM   22  C10 UNL     1       8.202   3.690  22.337  1.00  0.00     0.459 C 
HETATM   23  N10 UNL     1       8.232   2.397  22.985  1.00  0.00     0.002 N 
HETATM   24  C11 UNL     1       8.944   2.665  24.215  1.00  0.00     0.379 C 
ATOM     25 2H10 UNL     1       7.318   1.962  23.109  1.00  0.00     0.285 HD
ATOM     26 1H10 UNL     1       8.628   1.647  22.419  1.00  0.00     0.285 HD
HETATM   27  C12 UNL     1       8.776   4.144  24.387  1.00  0.00     0.318 C 
HETATM   28  O8  UNL     1       7.849   4.537  23.401  1.00  0.00    -0.307 OA
BRANCH  24  29
HETATM   29  O6  UNL     1       8.397   1.967  25.292  1.00  0.00    -0.366 OA
ATOM     30  H6  UNL     1       8.799   2.218  26.115  1.00  0.00     0.212 HD
ENDBRANCH  24  29
BRANCH  27  31
HETATM   31  O7  UNL     1      10.019   4.744  24.159  1.00  0.00    -0.367 OA
ATOM     32  H7  UNL     1      10.151   5.403  24.831  1.00  0.00     0.212 HD
ENDBRANCH  27  31
ENDBRANCH  17  22
ENDBRANCH  11  14
ENDBRANCH  10  11
ENDBRANCH   9  10
ENDBRANCH   3   9
BRANCH   4  33
HETATM   33  O9  UNL     1       5.145   7.486  21.023  1.00  0.00    -0.386 OA
ATOM     34  H9  UNL     1       4.446   7.996  20.631  1.00  0.00     0.210 HD
ENDBRANCH   4  33
BRANCH   1  35
HETATM   35  N5  UNL     1       5.219   8.188  23.815  1.00  0.00    -0.297 N 
HETATM   36  C3  UNL     1       6.440   8.332  24.380  1.00  0.00     0.142 A 
HETATM   37  N3  UNL     1       7.369   7.416  24.688  1.00  0.00    -0.336 N 
HETATM   38  C4  UNL     1       6.665   9.668  24.643  1.00  0.00     0.122 A 
HETATM   39  C2  UNL     1       8.514   7.818  25.251  1.00  0.00     0.183 A 
ATOM     40  H3  UNL     1       7.205   6.427  24.495  1.00  0.00     0.168 HD
HETATM   41  N2  UNL     1       8.734   9.119  25.507  1.00  0.00    -0.337 N 
HETATM   42  C1  UNL     1       7.850  10.092  25.226  1.00  0.00     0.131 A 
ATOM     43  H2  UNL     1       9.620   9.382  25.937  1.00  0.00     0.168 HD
HETATM   44  N1  UNL     1       8.036  11.331  25.459  1.00  0.00    -0.383 N 
ATOM     45  H12 UNL     1       8.908  11.643  25.889  1.00  0.00     0.157 HD
ATOM     46  H11 UNL     1       7.365  12.069  25.247  1.00  0.00     0.157 HD
HETATM   47  N4  UNL     1       5.574  10.320  24.230  1.00  0.00    -0.346 N 
HETATM   48  C5  UNL     1       4.705   9.442  23.734  1.00  0.00     0.188 A 
ATOM     49  H4  UNL     1       5.430  11.328  24.287  1.00  0.00     0.167 HD
ENDBRANCH   1  35
TORSDOF 11
ENDMDL
