MODEL 1
REMARK VINA RESULT: -9.103593248      0.000      0.000
REMARK  9 active torsions:
REMARK  status: ('A' for Active; 'I' for Inactive)
REMARK    1  A    between atoms: N1_4  and  C4_5 
REMARK    2  A    between atoms: C4_5  and  C5_6 
REMARK    3  A    between atoms: C10_15  and  N3_16 
REMARK    4  A    between atoms: N3_16  and  C11_18 
REMARK    5  A    between atoms: C11_18  and  O3_30 
REMARK       I    between atoms: N4_19  and  C12_21 
REMARK    6  A    between atoms: C12_21  and  O2_23 
REMARK    7  A    between atoms: O2_23  and  C13_24 
REMARK    8  A    between atoms: C13_24  and  C14_25 
REMARK    9  A    between atoms: O3_30  and  C19_31 
ROOT
HETATM    1  N3  UNL     1      17.257  18.384 -18.211  1.00  0.00    -0.351 N 
ATOM      2  H3  UNL     1      18.207  18.389 -18.580  1.00  0.00     0.163 HD
ENDROOT
BRANCH   1   3
HETATM    3  C10 UNL     1      16.831  19.525 -17.426  1.00  0.00     0.092 C 
HETATM    4  C2  UNL     1      17.604  19.679 -16.146  1.00  0.00     0.033 C 
HETATM    5  C1  UNL     1      16.876  19.031 -14.978  1.00  0.00     0.014 C 
HETATM    6  C3  UNL     1      17.859  21.136 -15.896  1.00  0.00     0.279 C 
HETATM    7  N1  UNL     1      18.728  21.688 -16.910  1.00  0.00     0.093 N 
HETATM    8  C8  UNL     1      18.275  21.423 -18.233  1.00  0.00     0.275 C 
HETATM    9  C9  UNL     1      16.874  20.800 -18.192  1.00  0.00     0.056 C 
BRANCH   7  10
HETATM   10  C4  UNL     1      20.070  21.353 -16.613  1.00  0.00     0.321 C 
BRANCH  10  11
HETATM   11  C5  UNL     1      20.724  22.384 -15.763  1.00  0.00     0.050 A 
HETATM   12  S1  UNL     1      20.092  23.707 -14.887  1.00  0.00    -0.084 SA
HETATM   13  C6  UNL     1      21.551  24.307 -14.230  1.00  0.00     0.139 A 
HETATM   14  N2  UNL     1      22.443  23.459 -14.719  1.00  0.00    -0.350 N 
HETATM   15  C7  UNL     1      22.064  22.488 -15.487  1.00  0.00     0.118 A 
ATOM     16  H2  UNL     1      23.431  23.570 -14.489  1.00  0.00     0.166 HD
HETATM   17 CL1  UNL     1      23.240  21.322 -16.167  1.00  0.00    -0.063 Cl
ENDBRANCH  10  11
ENDBRANCH   7  10
ENDBRANCH   1   3
BRANCH   1  18
HETATM   18  C11 UNL     1      16.438  17.262 -18.500  1.00  0.00     0.224 C 
HETATM   19  N4  UNL     1      16.268  16.853 -19.711  1.00  0.00    -0.268 N 
HETATM   20  C12 UNL     1      16.931  17.565 -20.746  1.00  0.00     0.367 C 
ATOM     21  H4  UNL     1      15.679  16.047 -19.918  1.00  0.00     0.174 HD
HETATM   22  O1  UNL     1      16.545  18.729 -21.043  1.00  0.00    -0.238 OA
BRANCH  20  23
HETATM   23  O2  UNL     1      17.987  17.049 -21.459  1.00  0.00    -0.303 OA
BRANCH  23  24
HETATM   24  C13 UNL     1      18.072  15.781 -22.028  1.00  0.00     0.185 C 
BRANCH  24  25
HETATM   25  C14 UNL     1      18.638  14.724 -21.137  1.00  0.00     0.010 C 
HETATM   26  C15 UNL     1      17.658  13.567 -21.046  1.00  0.00     0.007 C 
HETATM   27  C16 UNL     1      17.770  12.902 -22.411  1.00  0.00     0.000 C 
HETATM   28  C17 UNL     1      19.223  13.011 -22.746  1.00  0.00     0.000 C 
HETATM   29  C18 UNL     1      19.831  14.021 -21.799  1.00  0.00     0.007 C 
ENDBRANCH  24  25
ENDBRANCH  23  24
ENDBRANCH  20  23
BRANCH  18  30
HETATM   30  O3  UNL     1      15.776  16.542 -17.514  1.00  0.00    -0.312 OA
BRANCH  30  31
HETATM   31  C19 UNL     1      16.139  15.254 -17.128  1.00  0.00     0.060 C 
HETATM   32  C20 UNL     1      15.251  14.154 -17.601  1.00  0.00     0.046 C 
HETATM   33  C21 UNL     1      16.118  15.259 -15.590  1.00  0.00     0.046 C 
HETATM   34  C22 UNL     1      17.571  14.915 -17.500  1.00  0.00     0.046 C 
ENDBRANCH  30  31
ENDBRANCH  18  30
ENDBRANCH   1  18
TORSDOF 9
ENDMDL
MODEL 2
REMARK VINA RESULT: -8.743581698      1.123      1.158
REMARK  9 active torsions:
REMARK  status: ('A' for Active; 'I' for Inactive)
REMARK    1  A    between atoms: N1_4  and  C4_5 
REMARK    2  A    between atoms: C4_5  and  C5_6 
REMARK    3  A    between atoms: C10_15  and  N3_16 
REMARK    4  A    between atoms: N3_16  and  C11_18 
REMARK    5  A    between atoms: C11_18  and  O3_30 
REMARK       I    between atoms: N4_19  and  C12_21 
REMARK    6  A    between atoms: C12_21  and  O2_23 
REMARK    7  A    between atoms: O2_23  and  C13_24 
REMARK    8  A    between atoms: C13_24  and  C14_25 
REMARK    9  A    between atoms: O3_30  and  C19_31 
ROOT
HETATM    1  N3  UNL     1      17.201  18.341 -18.138  1.00  0.00    -0.351 N 
ATOM      2  H3  UNL     1      18.149  18.371 -18.513  1.00  0.00     0.163 HD
ENDROOT
BRANCH   1   3
HETATM    3  C10 UNL     1      16.763  19.452 -17.317  1.00  0.00     0.092 C 
HETATM    4  C2  UNL     1      17.599  19.635 -16.081  1.00  0.00     0.033 C 
HETATM    5  C1  UNL     1      16.975  18.941 -14.881  1.00  0.00     0.014 C 
HETATM    6  C3  UNL     1      17.793  21.102 -15.830  1.00  0.00     0.279 C 
HETATM    7  N1  UNL     1      18.573  21.706 -16.886  1.00  0.00     0.093 N 
HETATM    8  C8  UNL     1      18.058  21.428 -18.184  1.00  0.00     0.275 C 
HETATM    9  C9  UNL     1      16.696  20.733 -18.070  1.00  0.00     0.056 C 
BRANCH   7  10
HETATM   10  C4  UNL     1      19.945  21.440 -16.670  1.00  0.00     0.321 C 
BRANCH  10  11
HETATM   11  C5  UNL     1      20.555  22.408 -15.719  1.00  0.00     0.050 A 
HETATM   12  S1  UNL     1      21.725  22.215 -14.490  1.00  0.00    -0.084 SA
HETATM   13  C6  UNL     1      21.799  23.832 -13.943  1.00  0.00     0.139 A 
HETATM   14  N2  UNL     1      20.922  24.432 -14.735  1.00  0.00    -0.350 N 
HETATM   15  C7  UNL     1      20.284  23.750 -15.631  1.00  0.00     0.118 A 
ATOM     16  H2  UNL     1      20.750  25.433 -14.637  1.00  0.00     0.166 HD
HETATM   17 CL1  UNL     1      19.092  24.525 -16.719  1.00  0.00    -0.063 Cl
ENDBRANCH  10  11
ENDBRANCH   7  10
ENDBRANCH   1   3
BRANCH   1  18
HETATM   18  C11 UNL     1      16.398  17.215 -18.454  1.00  0.00     0.224 C 
HETATM   19  N4  UNL     1      16.247  16.823 -19.673  1.00  0.00    -0.268 N 
HETATM   20  C12 UNL     1      16.914  17.558 -20.689  1.00  0.00     0.367 C 
ATOM     21  H4  UNL     1      15.670  16.013 -19.899  1.00  0.00     0.174 HD
HETATM   22  O1  UNL     1      16.520  18.722 -20.972  1.00  0.00    -0.238 OA
BRANCH  20  23
HETATM   23  O2  UNL     1      17.984  17.065 -21.397  1.00  0.00    -0.303 OA
BRANCH  23  24
HETATM   24  C13 UNL     1      18.086  15.811 -21.993  1.00  0.00     0.185 C 
BRANCH  24  25
HETATM   25  C14 UNL     1      18.646  14.738 -21.117  1.00  0.00     0.010 C 
HETATM   26  C15 UNL     1      17.648  13.597 -21.020  1.00  0.00     0.007 C 
HETATM   27  C16 UNL     1      17.729  12.940 -22.392  1.00  0.00     0.000 C 
HETATM   28  C17 UNL     1      19.179  13.026 -22.746  1.00  0.00     0.000 C 
HETATM   29  C18 UNL     1      19.817  14.019 -21.801  1.00  0.00     0.007 C 
ENDBRANCH  24  25
ENDBRANCH  23  24
ENDBRANCH  20  23
BRANCH  18  30
HETATM   30  O3  UNL     1      15.733  16.472 -17.487  1.00  0.00    -0.312 OA
BRANCH  30  31
HETATM   31  C19 UNL     1      16.099  15.179 -17.124  1.00  0.00     0.060 C 
HETATM   32  C20 UNL     1      15.215  14.085 -17.618  1.00  0.00     0.046 C 
HETATM   33  C21 UNL     1      16.077  15.156 -15.586  1.00  0.00     0.046 C 
HETATM   34  C22 UNL     1      17.533  14.850 -17.500  1.00  0.00     0.046 C 
ENDBRANCH  30  31
ENDBRANCH  18  30
ENDBRANCH   1  18
TORSDOF 9
ENDMDL
MODEL 3
REMARK VINA RESULT: -7.757263087      4.471      9.240
REMARK  9 active torsions:
REMARK  status: ('A' for Active; 'I' for Inactive)
REMARK    1  A    between atoms: N1_4  and  C4_5 
REMARK    2  A    between atoms: C4_5  and  C5_6 
REMARK    3  A    between atoms: C10_15  and  N3_16 
REMARK    4  A    between atoms: N3_16  and  C11_18 
REMARK    5  A    between atoms: C11_18  and  O3_30 
REMARK       I    between atoms: N4_19  and  C12_21 
REMARK    6  A    between atoms: C12_21  and  O2_23 
REMARK    7  A    between atoms: O2_23  and  C13_24 
REMARK    8  A    between atoms: C13_24  and  C14_25 
REMARK    9  A    between atoms: O3_30  and  C19_31 
ROOT
HETATM    1  N3  UNL     1      18.426  22.348 -15.992  1.00  0.00    -0.351 N 
ATOM      2  H3  UNL     1      19.063  21.865 -16.625  1.00  0.00     0.163 HD
ENDROOT
BRANCH   1   3
HETATM    3  C10 UNL     1      17.147  21.727 -15.716  1.00  0.00     0.092 C 
HETATM    4  C2  UNL     1      16.300  21.554 -16.946  1.00  0.00     0.033 C 
HETATM    5  C1  UNL     1      15.323  22.707 -17.114  1.00  0.00     0.014 C 
HETATM    6  C3  UNL     1      15.588  20.235 -16.873  1.00  0.00     0.279 C 
HETATM    7  N1  UNL     1      16.529  19.139 -16.926  1.00  0.00     0.093 N 
HETATM    8  C8  UNL     1      17.574  19.259 -15.967  1.00  0.00     0.275 C 
HETATM    9  C9  UNL     1      17.279  20.422 -15.012  1.00  0.00     0.056 C 
BRANCH   7  10
HETATM   10  C4  UNL     1      16.913  18.911 -18.268  1.00  0.00     0.321 C 
BRANCH  10  11
HETATM   11  C5  UNL     1      16.680  17.501 -18.680  1.00  0.00     0.050 A 
HETATM   12  S1  UNL     1      16.217  16.116 -17.794  1.00  0.00    -0.084 SA
HETATM   13  C6  UNL     1      16.198  14.982 -19.072  1.00  0.00     0.139 A 
HETATM   14  N2  UNL     1      16.549  15.728 -20.109  1.00  0.00    -0.350 N 
HETATM   15  C7  UNL     1      16.796  16.989 -19.948  1.00  0.00     0.118 A 
ATOM     16  H2  UNL     1      16.623  15.309 -21.036  1.00  0.00     0.166 HD
HETATM   17 CL1  UNL     1      17.272  18.030 -21.324  1.00  0.00    -0.063 Cl
ENDBRANCH  10  11
ENDBRANCH   7  10
ENDBRANCH   1   3
BRANCH   1  18
HETATM   18  C11 UNL     1      18.852  23.583 -15.438  1.00  0.00     0.224 C 
HETATM   19  N4  UNL     1      19.029  24.623 -16.179  1.00  0.00    -0.268 N 
HETATM   20  C12 UNL     1      18.782  24.488 -17.572  1.00  0.00     0.367 C 
ATOM     21  H4  UNL     1      19.335  25.510 -15.780  1.00  0.00     0.174 HD
HETATM   22  O1  UNL     1      19.570  23.801 -18.278  1.00  0.00    -0.238 OA
BRANCH  20  23
HETATM   23  O2  UNL     1      17.715  25.077 -18.208  1.00  0.00    -0.303 OA
BRANCH  23  24
HETATM   24  C13 UNL     1      17.522  26.437 -18.433  1.00  0.00     0.185 C 
BRANCH  24  25
HETATM   25  C14 UNL     1      16.766  27.155 -17.363  1.00  0.00     0.010 C 
HETATM   26  C15 UNL     1      15.932  28.258 -17.992  1.00  0.00     0.007 C 
HETATM   27  C16 UNL     1      14.813  27.497 -18.693  1.00  0.00     0.000 C 
HETATM   28  C17 UNL     1      14.512  26.365 -17.764  1.00  0.00     0.000 C 
HETATM   29  C18 UNL     1      15.656  26.270 -16.780  1.00  0.00     0.007 C 
ENDBRANCH  24  25
ENDBRANCH  23  24
ENDBRANCH  20  23
BRANCH  18  30
HETATM   30  O3  UNL     1      19.101  23.751 -14.082  1.00  0.00    -0.312 OA
BRANCH  30  31
HETATM   31  C19 UNL     1      20.298  23.390 -13.469  1.00  0.00     0.060 C 
HETATM   32  C20 UNL     1      21.009  22.219 -14.059  1.00  0.00     0.046 C 
HETATM   33  C21 UNL     1      19.936  23.047 -12.015  1.00  0.00     0.046 C 
HETATM   34  C22 UNL     1      21.275  24.548 -13.368  1.00  0.00     0.046 C 
ENDBRANCH  30  31
ENDBRANCH  18  30
ENDBRANCH   1  18
TORSDOF 9
ENDMDL
MODEL 4
REMARK VINA RESULT: -7.653577306      4.177      9.052
REMARK  9 active torsions:
REMARK  status: ('A' for Active; 'I' for Inactive)
REMARK    1  A    between atoms: N1_4  and  C4_5 
REMARK    2  A    between atoms: C4_5  and  C5_6 
REMARK    3  A    between atoms: C10_15  and  N3_16 
REMARK    4  A    between atoms: N3_16  and  C11_18 
REMARK    5  A    between atoms: C11_18  and  O3_30 
REMARK       I    between atoms: N4_19  and  C12_21 
REMARK    6  A    between atoms: C12_21  and  O2_23 
REMARK    7  A    between atoms: O2_23  and  C13_24 
REMARK    8  A    between atoms: C13_24  and  C14_25 
REMARK    9  A    between atoms: O3_30  and  C19_31 
ROOT
HETATM    1  N3  UNL     1      18.897  21.242 -16.353  1.00  0.00    -0.351 N 
ATOM      2  H3  UNL     1      19.282  20.564 -17.009  1.00  0.00     0.163 HD
ENDROOT
BRANCH   1   3
HETATM    3  C10 UNL     1      17.555  21.018 -15.857  1.00  0.00     0.092 C 
HETATM    4  C2  UNL     1      16.554  20.783 -16.954  1.00  0.00     0.033 C 
HETATM    5  C1  UNL     1      15.836  22.068 -17.334  1.00  0.00     0.014 C 
HETATM    6  C3  UNL     1      15.588  19.719 -16.522  1.00  0.00     0.279 C 
HETATM    7  N1  UNL     1      16.259  18.448 -16.366  1.00  0.00     0.093 N 
HETATM    8  C8  UNL     1      17.409  18.526 -15.531  1.00  0.00     0.275 C 
HETATM    9  C9  UNL     1      17.484  19.907 -14.869  1.00  0.00     0.056 C 
BRANCH   7  10
HETATM   10  C4  UNL     1      16.427  17.846 -17.635  1.00  0.00     0.321 C 
BRANCH  10  11
HETATM   11  C5  UNL     1      16.097  16.395 -17.609  1.00  0.00     0.050 A 
HETATM   12  S1  UNL     1      15.671  15.346 -16.331  1.00  0.00    -0.084 SA
HETATM   13  C6  UNL     1      15.477  13.905 -17.229  1.00  0.00     0.139 A 
HETATM   14  N2  UNL     1      15.749  14.309 -18.461  1.00  0.00    -0.350 N 
HETATM   15  C7  UNL     1      16.062  15.544 -18.685  1.00  0.00     0.118 A 
ATOM     16  H2  UNL     1      15.712  13.644 -19.234  1.00  0.00     0.166 HD
HETATM   17 CL1  UNL     1      16.436  16.128 -20.336  1.00  0.00    -0.063 Cl
ENDBRANCH  10  11
ENDBRANCH   7  10
ENDBRANCH   1   3
BRANCH   1  18
HETATM   18  C11 UNL     1      19.712  22.344 -15.985  1.00  0.00     0.224 C 
HETATM   19  N4  UNL     1      19.955  23.302 -16.813  1.00  0.00    -0.268 N 
HETATM   20  C12 UNL     1      19.377  23.215 -18.109  1.00  0.00     0.367 C 
ATOM     21  H4  UNL     1      20.541  24.093 -16.548  1.00  0.00     0.174 HD
HETATM   22  O1  UNL     1      19.804  22.350 -18.921  1.00  0.00    -0.238 OA
BRANCH  20  23
HETATM   23  O2  UNL     1      18.362  24.037 -18.537  1.00  0.00    -0.303 OA
BRANCH  23  24
HETATM   24  C13 UNL     1      18.343  25.429 -18.506  1.00  0.00     0.185 C 
BRANCH  24  25
HETATM   25  C14 UNL     1      17.879  26.027 -17.219  1.00  0.00     0.010 C 
HETATM   26  C15 UNL     1      17.527  27.488 -17.443  1.00  0.00     0.007 C 
HETATM   27  C16 UNL     1      16.226  27.421 -18.231  1.00  0.00     0.000 C 
HETATM   28  C17 UNL     1      15.503  26.256 -17.633  1.00  0.00     0.000 C 
HETATM   29  C18 UNL     1      16.505  25.474 -16.814  1.00  0.00     0.007 C 
ENDBRANCH  24  25
ENDBRANCH  23  24
ENDBRANCH  20  23
BRANCH  18  30
HETATM   30  O3  UNL     1      20.291  22.462 -14.728  1.00  0.00    -0.312 OA
BRANCH  30  31
HETATM   31  C19 UNL     1      19.884  23.394 -13.777  1.00  0.00     0.060 C 
HETATM   32  C20 UNL     1      20.556  24.724 -13.833  1.00  0.00     0.046 C 
HETATM   33  C21 UNL     1      20.192  22.758 -12.412  1.00  0.00     0.046 C 
HETATM   34  C22 UNL     1      18.381  23.611 -13.779  1.00  0.00     0.046 C 
ENDBRANCH  30  31
ENDBRANCH  18  30
ENDBRANCH   1  18
TORSDOF 9
ENDMDL
MODEL 5
REMARK VINA RESULT: -7.393731674      4.608      8.797
REMARK  9 active torsions:
REMARK  status: ('A' for Active; 'I' for Inactive)
REMARK    1  A    between atoms: N1_4  and  C4_5 
REMARK    2  A    between atoms: C4_5  and  C5_6 
REMARK    3  A    between atoms: C10_15  and  N3_16 
REMARK    4  A    between atoms: N3_16  and  C11_18 
REMARK    5  A    between atoms: C11_18  and  O3_30 
REMARK       I    between atoms: N4_19  and  C12_21 
REMARK    6  A    between atoms: C12_21  and  O2_23 
REMARK    7  A    between atoms: O2_23  and  C13_24 
REMARK    8  A    between atoms: C13_24  and  C14_25 
REMARK    9  A    between atoms: O3_30  and  C19_31 
ROOT
HETATM    1  N3  UNL     1      19.253  21.012 -16.515  1.00  0.00    -0.351 N 
ATOM      2  H3  UNL     1      19.837  20.217 -16.772  1.00  0.00     0.163 HD
ENDROOT
BRANCH   1   3
HETATM    3  C10 UNL     1      17.817  20.869 -16.654  1.00  0.00     0.092 C 
HETATM    4  C2  UNL     1      17.425  19.771 -17.603  1.00  0.00     0.033 C 
HETATM    5  C1  UNL     1      17.167  20.312 -19.001  1.00  0.00     0.014 C 
HETATM    6  C3  UNL     1      16.224  19.056 -17.059  1.00  0.00     0.279 C 
HETATM    7  N1  UNL     1      16.547  18.370 -15.828  1.00  0.00     0.093 N 
HETATM    8  C8  UNL     1      17.170  19.218 -14.868  1.00  0.00     0.275 C 
HETATM    9  C9  UNL     1      17.129  20.673 -15.350  1.00  0.00     0.056 C 
BRANCH   7  10
HETATM   10  C4  UNL     1      17.199  17.150 -16.125  1.00  0.00     0.321 C 
BRANCH  10  11
HETATM   11  C5  UNL     1      16.946  16.118 -15.084  1.00  0.00     0.050 A 
HETATM   12  S1  UNL     1      17.525  15.945 -13.486  1.00  0.00    -0.084 SA
HETATM   13  C6  UNL     1      16.713  14.501 -13.069  1.00  0.00     0.139 A 
HETATM   14  N2  UNL     1      16.042  14.231 -14.178  1.00  0.00    -0.350 N 
HETATM   15  C7  UNL     1      16.136  15.017 -15.202  1.00  0.00     0.118 A 
ATOM     16  H2  UNL     1      15.449  13.401 -14.226  1.00  0.00     0.166 HD
HETATM   17 CL1  UNL     1      15.244  14.686 -16.719  1.00  0.00    -0.063 Cl
ENDBRANCH  10  11
ENDBRANCH   7  10
ENDBRANCH   1   3
BRANCH   1  18
HETATM   18  C11 UNL     1      19.898  22.185 -16.046  1.00  0.00     0.224 C 
HETATM   19  N4  UNL     1      20.043  23.218 -16.804  1.00  0.00    -0.268 N 
HETATM   20  C12 UNL     1      19.532  23.140 -18.128  1.00  0.00     0.367 C 
ATOM     21  H4  UNL     1      20.507  24.060 -16.466  1.00  0.00     0.174 HD
HETATM   22  O1  UNL     1      20.101  22.392 -18.969  1.00  0.00    -0.238 OA
BRANCH  20  23
HETATM   23  O2  UNL     1      18.433  23.847 -18.554  1.00  0.00    -0.303 OA
BRANCH  23  24
HETATM   24  C13 UNL     1      18.222  25.218 -18.430  1.00  0.00     0.185 C 
BRANCH  24  25
HETATM   25  C14 UNL     1      17.738  25.666 -17.090  1.00  0.00     0.010 C 
HETATM   26  C15 UNL     1      17.151  27.062 -17.209  1.00  0.00     0.007 C 
HETATM   27  C16 UNL     1      15.837  26.831 -17.942  1.00  0.00     0.000 C 
HETATM   28  C17 UNL     1      15.337  25.536 -17.385  1.00  0.00     0.000 C 
HETATM   29  C18 UNL     1      16.491  24.881 -16.660  1.00  0.00     0.007 C 
ENDBRANCH  24  25
ENDBRANCH  23  24
ENDBRANCH  20  23
BRANCH  18  30
HETATM   30  O3  UNL     1      20.408  22.297 -14.759  1.00  0.00    -0.312 OA
BRANCH  30  31
HETATM   31  C19 UNL     1      19.962  23.236 -13.833  1.00  0.00     0.060 C 
HETATM   32  C20 UNL     1      20.668  24.548 -13.839  1.00  0.00     0.046 C 
HETATM   33  C21 UNL     1      20.164  22.589 -12.452  1.00  0.00     0.046 C 
HETATM   34  C22 UNL     1      18.468  23.489 -13.933  1.00  0.00     0.046 C 
ENDBRANCH  30  31
ENDBRANCH  18  30
ENDBRANCH   1  18
TORSDOF 9
ENDMDL
