MODEL 1
REMARK VINA RESULT: -1.952070310      0.000      0.000
REMARK  3 active torsions:
REMARK  status: ('A' for Active; 'I' for Inactive)
REMARK    1  A    between atoms: C6_7  and  N2_8 
REMARK    2  A    between atoms: C18_29  and  N8_30 
REMARK    3  A    between atoms: N8_30  and  C19_32 
ROOT
HETATM    1  C1  UNL     1      25.395  38.864  20.680  1.00  0.00     0.052 C 
HETATM    2  C2  UNL     1      24.584  39.830  19.874  1.00  0.00    -0.014 A 
HETATM    3  C3  UNL     1      24.752  41.180  20.092  1.00  0.00     0.054 A 
HETATM    4  C4  UNL     1      25.707  41.602  21.093  1.00  0.00     0.100 C 
HETATM    5  N1  UNL     1      26.477  41.956  21.882  1.00  0.00    -0.191 NA
HETATM    6  C5  UNL     1      24.011  42.077  19.355  1.00  0.00     0.052 A 
HETATM    7  C6  UNL     1      23.097  41.689  18.397  1.00  0.00     0.037 A 
HETATM    8  C17 UNL     1      22.934  40.339  18.186  1.00  0.00     0.059 A 
HETATM    9  C18 UNL     1      23.670  39.401  18.916  1.00  0.00     0.043 A 
ENDROOT
BRANCH   9  10
HETATM   10  N8  UNL     1      23.527  38.030  18.717  1.00  0.00    -0.339 N 
ATOM     11  H8  UNL     1      24.273  37.594  18.175  1.00  0.00     0.167 HD
BRANCH  10  12
HETATM   12  C19 UNL     1      22.615  37.241  19.104  1.00  0.00     0.145 A 
HETATM   13  N9  UNL     1      22.515  36.073  18.393  1.00  0.00    -0.350 N 
HETATM   14  C20 UNL     1      21.579  35.174  18.727  1.00  0.00     0.090 A 
ATOM     15  H9  UNL     1      23.149  35.890  17.615  1.00  0.00     0.166 HD
HETATM   16  C21 UNL     1      20.711  35.414  19.784  1.00  0.00     0.020 A 
HETATM   17  C22 UNL     1      20.819  36.588  20.494  1.00  0.00     0.047 A 
HETATM   18  C23 UNL     1      21.786  37.522  20.151  1.00  0.00     0.160 A 
HETATM   19  F1  UNL     1      21.901  38.690  20.848  1.00  0.00    -0.202 F 
ENDBRANCH  10  12
ENDBRANCH   9  10
BRANCH   7  20
HETATM   20  N2  UNL     1      22.379  42.686  17.688  1.00  0.00    -0.340 N 
HETATM   21  C7  UNL     1      21.405  42.496  16.921  1.00  0.00     0.136 A 
HETATM   22  N3  UNL     1      20.950  41.221  16.714  1.00  0.00    -0.337 N 
HETATM   23  C14 UNL     1      20.779  43.522  16.283  1.00  0.00     0.108 A 
HETATM   24  C8  UNL     1      19.910  40.966  15.903  1.00  0.00     0.182 A 
ATOM     25  H3  UNL     1      21.413  40.445  17.189  1.00  0.00     0.168 HD
HETATM   26  N4  UNL     1      19.262  41.947  15.252  1.00  0.00    -0.348 N 
HETATM   27  C9  UNL     1      19.708  43.215  15.452  1.00  0.00     0.093 A 
ATOM     28  H4  UNL     1      18.473  41.749  14.637  1.00  0.00     0.167 HD
HETATM   29  C10 UNL     1      19.036  44.197  14.782  1.00  0.00     0.092 A 
HETATM   30  C11 UNL     1      19.462  45.491  14.963  1.00  0.00     0.078 A 
HETATM   31  N7  UNL     1      17.985  44.165  13.933  1.00  0.00    -0.344 N 
HETATM   32  C12 UNL     1      20.526  45.753  15.793  1.00  0.00     0.122 A 
HETATM   33  N6  UNL     1      18.651  46.254  14.207  1.00  0.00    -0.349 N 
HETATM   34  N5  UNL     1      21.215  44.794  16.475  1.00  0.00    -0.354 N 
HETATM   35  C13 UNL     1      22.317  45.116  17.328  1.00  0.00     0.156 C 
HETATM   36  C15 UNL     1      17.751  45.439  13.581  1.00  0.00     0.183 A 
ATOM     37  H6  UNL     1      18.700  47.268  14.117  1.00  0.00     0.166 HD
HETATM   38  C16 UNL     1      17.254  42.972  13.492  1.00  0.00     0.157 C 
ATOM     39  H2  UNL     1      22.685  43.651  17.814  1.00  0.00     0.167 HD
ENDBRANCH   7  20
TORSDOF 3
ENDMDL
MODEL 2
REMARK VINA RESULT: -1.836144071      2.649      7.889
REMARK  3 active torsions:
REMARK  status: ('A' for Active; 'I' for Inactive)
REMARK    1  A    between atoms: C6_7  and  N2_8 
REMARK    2  A    between atoms: C18_29  and  N8_30 
REMARK    3  A    between atoms: N8_30  and  C19_32 
ROOT
HETATM    1  C1  UNL     1      23.438  46.628  17.561  1.00  0.00     0.052 C 
HETATM    2  C2  UNL     1      23.313  45.139  17.484  1.00  0.00    -0.014 A 
HETATM    3  C3  UNL     1      24.159  44.362  18.245  1.00  0.00     0.054 A 
HETATM    4  C4  UNL     1      25.134  45.024  19.084  1.00  0.00     0.100 C 
HETATM    5  N1  UNL     1      25.911  45.540  19.769  1.00  0.00    -0.191 NA
HETATM    6  C5  UNL     1      24.051  42.990  18.182  1.00  0.00     0.052 A 
HETATM    7  C6  UNL     1      23.127  42.345  17.388  1.00  0.00     0.037 A 
HETATM    8  C17 UNL     1      22.284  43.127  16.630  1.00  0.00     0.059 A 
HETATM    9  C18 UNL     1      22.367  44.522  16.670  1.00  0.00     0.043 A 
ENDROOT
BRANCH   9  10
HETATM   10  N8  UNL     1      21.523  45.335  15.918  1.00  0.00    -0.339 N 
ATOM     11  H8  UNL     1      21.822  46.307  15.835  1.00  0.00     0.167 HD
BRANCH  10  12
HETATM   12  C19 UNL     1      20.441  45.056  15.321  1.00  0.00     0.145 A 
HETATM   13  N9  UNL     1      19.322  45.062  16.112  1.00  0.00    -0.350 N 
HETATM   14  C20 UNL     1      18.129  44.778  15.572  1.00  0.00     0.090 A 
ATOM     15  H9  UNL     1      19.396  45.282  17.106  1.00  0.00     0.166 HD
HETATM   16  C21 UNL     1      18.016  44.478  14.220  1.00  0.00     0.020 A 
HETATM   17  C22 UNL     1      19.145  44.475  13.432  1.00  0.00     0.047 A 
HETATM   18  C23 UNL     1      20.382  44.768  13.989  1.00  0.00     0.160 A 
HETATM   19  F1  UNL     1      21.508  44.767  13.216  1.00  0.00    -0.202 F 
ENDBRANCH  10  12
ENDBRANCH   9  10
BRANCH   7  20
HETATM   20  N2  UNL     1      23.090  40.927  17.388  1.00  0.00    -0.340 N 
HETATM   21  C7  UNL     1      22.500  40.199  18.223  1.00  0.00     0.136 A 
HETATM   22  N3  UNL     1      21.809  40.780  19.252  1.00  0.00    -0.337 N 
HETATM   23  C14 UNL     1      22.523  38.841  18.138  1.00  0.00     0.108 A 
HETATM   24  C8  UNL     1      21.160  40.044  20.170  1.00  0.00     0.182 A 
ATOM     25  H3  UNL     1      21.785  41.798  19.324  1.00  0.00     0.168 HD
HETATM   26  N4  UNL     1      21.156  38.701  20.127  1.00  0.00    -0.348 N 
HETATM   27  C9  UNL     1      21.839  38.117  19.108  1.00  0.00     0.093 A 
ATOM     28  H4  UNL     1      20.662  38.146  20.826  1.00  0.00     0.167 HD
HETATM   29  C10 UNL     1      21.822  36.752  19.083  1.00  0.00     0.092 A 
HETATM   30  C11 UNL     1      22.505  36.130  18.064  1.00  0.00     0.078 A 
HETATM   31  N7  UNL     1      21.246  35.833  19.888  1.00  0.00    -0.344 N 
HETATM   32  C12 UNL     1      23.168  36.883  17.125  1.00  0.00     0.122 A 
HETATM   33  N6  UNL     1      22.336  34.810  18.261  1.00  0.00    -0.349 N 
HETATM   34  N5  UNL     1      23.203  38.245  17.124  1.00  0.00    -0.354 N 
HETATM   35  C13 UNL     1      23.908  38.985  16.124  1.00  0.00     0.156 C 
HETATM   36  C15 UNL     1      21.567  34.635  19.376  1.00  0.00     0.183 A 
ATOM     37  H6  UNL     1      22.719  34.066  17.677  1.00  0.00     0.166 HD
HETATM   38  C16 UNL     1      20.435  36.102  21.081  1.00  0.00     0.157 C 
ATOM     39  H2  UNL     1      23.592  40.453  16.638  1.00  0.00     0.167 HD
ENDBRANCH   7  20
TORSDOF 3
ENDMDL
MODEL 3
REMARK VINA RESULT: -1.825595156      0.950      1.165
REMARK  3 active torsions:
REMARK  status: ('A' for Active; 'I' for Inactive)
REMARK    1  A    between atoms: C6_7  and  N2_8 
REMARK    2  A    between atoms: C18_29  and  N8_30 
REMARK    3  A    between atoms: N8_30  and  C19_32 
ROOT
HETATM    1  C1  UNL     1      25.460  39.012  20.658  1.00  0.00     0.052 C 
HETATM    2  C2  UNL     1      24.624  39.959  19.855  1.00  0.00    -0.014 A 
HETATM    3  C3  UNL     1      24.771  41.313  20.061  1.00  0.00     0.054 A 
HETATM    4  C4  UNL     1      25.729  41.759  21.049  1.00  0.00     0.100 C 
HETATM    5  N1  UNL     1      26.500  42.131  21.828  1.00  0.00    -0.191 NA
HETATM    6  C5  UNL     1      24.007  42.192  19.326  1.00  0.00     0.052 A 
HETATM    7  C6  UNL     1      23.090  41.782  18.381  1.00  0.00     0.037 A 
HETATM    8  C17 UNL     1      22.948  40.427  18.180  1.00  0.00     0.059 A 
HETATM    9  C18 UNL     1      23.708  39.508  18.909  1.00  0.00     0.043 A 
ENDROOT
BRANCH   9  10
HETATM   10  N8  UNL     1      23.587  38.133  18.720  1.00  0.00    -0.339 N 
ATOM     11  H8  UNL     1      24.372  37.693  18.241  1.00  0.00     0.167 HD
BRANCH  10  12
HETATM   12  C19 UNL     1      22.652  37.344  19.051  1.00  0.00     0.145 A 
HETATM   13  N9  UNL     1      22.145  37.538  20.310  1.00  0.00    -0.350 N 
HETATM   14  C20 UNL     1      21.153  36.753  20.751  1.00  0.00     0.090 A 
ATOM     15  H9  UNL     1      22.520  38.276  20.906  1.00  0.00     0.166 HD
HETATM   16  C21 UNL     1      20.636  35.746  19.947  1.00  0.00     0.020 A 
HETATM   17  C22 UNL     1      21.149  35.558  18.684  1.00  0.00     0.047 A 
HETATM   18  C23 UNL     1      22.177  36.369  18.224  1.00  0.00     0.160 A 
HETATM   19  F1  UNL     1      22.694  36.191  16.973  1.00  0.00    -0.202 F 
ENDBRANCH  10  12
ENDBRANCH   9  10
BRANCH   7  20
HETATM   20  N2  UNL     1      22.348  42.761  17.673  1.00  0.00    -0.340 N 
HETATM   21  C7  UNL     1      21.397  42.545  16.882  1.00  0.00     0.136 A 
HETATM   22  N3  UNL     1      20.998  41.257  16.646  1.00  0.00    -0.337 N 
HETATM   23  C14 UNL     1      20.744  43.557  16.248  1.00  0.00     0.108 A 
HETATM   24  C8  UNL     1      19.986  40.975  15.809  1.00  0.00     0.182 A 
ATOM     25  H3  UNL     1      21.481  40.492  17.117  1.00  0.00     0.168 HD
HETATM   26  N4  UNL     1      19.313  41.940  15.160  1.00  0.00    -0.348 N 
HETATM   27  C9  UNL     1      19.703  43.221  15.390  1.00  0.00     0.093 A 
ATOM     28  H4  UNL     1      18.545  41.722  14.526  1.00  0.00     0.167 HD
HETATM   29  C10 UNL     1      19.006  44.187  14.721  1.00  0.00     0.092 A 
HETATM   30  C11 UNL     1      19.377  45.494  14.931  1.00  0.00     0.078 A 
HETATM   31  N7  UNL     1      17.975  44.128  13.850  1.00  0.00    -0.344 N 
HETATM   32  C12 UNL     1      20.412  45.783  15.788  1.00  0.00     0.122 A 
HETATM   33  N6  UNL     1      18.552  46.236  14.171  1.00  0.00    -0.349 N 
HETATM   34  N5  UNL     1      21.125  44.842  16.468  1.00  0.00    -0.354 N 
HETATM   35  C13 UNL     1      22.195  45.192  17.350  1.00  0.00     0.156 C 
HETATM   36  C15 UNL     1      17.698  45.397  13.513  1.00  0.00     0.183 A 
ATOM     37  H6  UNL     1      18.562  47.253  14.098  1.00  0.00     0.166 HD
HETATM   38  C16 UNL     1      17.301  42.914  13.374  1.00  0.00     0.157 C 
ATOM     39  H2  UNL     1      22.612  43.735  17.820  1.00  0.00     0.167 HD
ENDBRANCH   7  20
TORSDOF 3
ENDMDL
MODEL 4
REMARK VINA RESULT: -1.784750343      2.683      7.918
REMARK  3 active torsions:
REMARK  status: ('A' for Active; 'I' for Inactive)
REMARK    1  A    between atoms: C6_7  and  N2_8 
REMARK    2  A    between atoms: C18_29  and  N8_30 
REMARK    3  A    between atoms: N8_30  and  C19_32 
ROOT
HETATM    1  C1  UNL     1      23.390  46.475  17.138  1.00  0.00     0.052 C 
HETATM    2  C2  UNL     1      23.278  44.982  17.123  1.00  0.00    -0.014 A 
HETATM    3  C3  UNL     1      24.025  44.253  18.022  1.00  0.00     0.054 A 
HETATM    4  C4  UNL     1      24.886  44.964  18.940  1.00  0.00     0.100 C 
HETATM    5  N1  UNL     1      25.570  45.521  19.690  1.00  0.00    -0.191 NA
HETATM    6  C5  UNL     1      23.928  42.879  18.017  1.00  0.00     0.052 A 
HETATM    7  C6  UNL     1      23.112  42.186  17.147  1.00  0.00     0.037 A 
HETATM    8  C17 UNL     1      22.368  42.922  16.252  1.00  0.00     0.059 A 
HETATM    9  C18 UNL     1      22.443  44.318  16.230  1.00  0.00     0.043 A 
ENDROOT
BRANCH   9  10
HETATM   10  N8  UNL     1      21.697  45.085  15.338  1.00  0.00    -0.339 N 
ATOM     11  H8  UNL     1      22.178  45.905  14.969  1.00  0.00     0.167 HD
BRANCH  10  12
HETATM   12  C19 UNL     1      20.514  44.921  14.914  1.00  0.00     0.145 A 
HETATM   13  N9  UNL     1      20.287  43.736  14.264  1.00  0.00    -0.350 N 
HETATM   14  C20 UNL     1      19.067  43.472  13.778  1.00  0.00     0.090 A 
ATOM     15  H9  UNL     1      21.043  43.060  14.150  1.00  0.00     0.166 HD
HETATM   16  C21 UNL     1      18.032  44.385  13.928  1.00  0.00     0.020 A 
HETATM   17  C22 UNL     1      18.267  45.573  14.583  1.00  0.00     0.047 A 
HETATM   18  C23 UNL     1      19.530  45.850  15.086  1.00  0.00     0.160 A 
HETATM   19  F1  UNL     1      19.774  47.025  15.738  1.00  0.00    -0.202 F 
ENDBRANCH  10  12
ENDBRANCH   9  10
BRANCH   7  20
HETATM   20  N2  UNL     1      23.078  40.769  17.216  1.00  0.00    -0.340 N 
HETATM   21  C7  UNL     1      22.491  40.081  18.086  1.00  0.00     0.136 A 
HETATM   22  N3  UNL     1      21.800  40.709  19.087  1.00  0.00    -0.337 N 
HETATM   23  C14 UNL     1      22.517  38.721  18.066  1.00  0.00     0.108 A 
HETATM   24  C8  UNL     1      21.155  40.016  20.040  1.00  0.00     0.182 A 
ATOM     25  H3  UNL     1      21.774  41.729  19.110  1.00  0.00     0.168 HD
HETATM   26  N4  UNL     1      21.154  38.673  20.061  1.00  0.00    -0.348 N 
HETATM   27  C9  UNL     1      21.837  38.043  19.071  1.00  0.00     0.093 A 
ATOM     28  H4  UNL     1      20.662  38.151  20.787  1.00  0.00     0.167 HD
HETATM   29  C10 UNL     1      21.823  36.678  19.111  1.00  0.00     0.092 A 
HETATM   30  C11 UNL     1      22.506  36.009  18.122  1.00  0.00     0.078 A 
HETATM   31  N7  UNL     1      21.250  35.797  19.961  1.00  0.00    -0.344 N 
HETATM   32  C12 UNL     1      23.165  36.718  17.146  1.00  0.00     0.122 A 
HETATM   33  N6  UNL     1      22.340  34.700  18.383  1.00  0.00    -0.349 N 
HETATM   34  N5  UNL     1      23.197  38.079  17.081  1.00  0.00    -0.354 N 
HETATM   35  C13 UNL     1      23.898  38.771  16.045  1.00  0.00     0.156 C 
HETATM   36  C15 UNL     1      21.573  34.576  19.506  1.00  0.00     0.183 A 
ATOM     37  H6  UNL     1      22.723  33.930  17.835  1.00  0.00     0.166 HD
HETATM   38  C16 UNL     1      20.441  36.121  21.141  1.00  0.00     0.157 C 
ATOM     39  H2  UNL     1      23.580  40.261  16.488  1.00  0.00     0.167 HD
ENDBRANCH   7  20
TORSDOF 3
ENDMDL
MODEL 5
REMARK VINA RESULT: -0.933327538      1.335      1.777
REMARK  3 active torsions:
REMARK  status: ('A' for Active; 'I' for Inactive)
REMARK    1  A    between atoms: C6_7  and  N2_8 
REMARK    2  A    between atoms: C18_29  and  N8_30 
REMARK    3  A    between atoms: N8_30  and  C19_32 
ROOT
HETATM    1  C1  UNL     1      25.894  41.578  21.122  1.00  0.00     0.052 C 
HETATM    2  C2  UNL     1      24.851  42.082  20.174  1.00  0.00    -0.014 A 
HETATM    3  C3  UNL     1      24.935  43.382  19.725  1.00  0.00     0.054 A 
HETATM    4  C4  UNL     1      26.030  44.202  20.193  1.00  0.00     0.100 C 
HETATM    5  N1  UNL     1      26.909  44.867  20.548  1.00  0.00    -0.191 NA
HETATM    6  C5  UNL     1      23.980  43.854  18.852  1.00  0.00     0.052 A 
HETATM    7  C6  UNL     1      22.930  43.084  18.397  1.00  0.00     0.037 A 
HETATM    8  C17 UNL     1      22.852  41.786  18.851  1.00  0.00     0.059 A 
HETATM    9  C18 UNL     1      23.804  41.275  19.738  1.00  0.00     0.043 A 
ENDROOT
BRANCH   9  10
HETATM   10  N8  UNL     1      23.751  39.964  20.206  1.00  0.00    -0.339 N 
ATOM     11  H8  UNL     1      24.202  39.810  21.107  1.00  0.00     0.167 HD
BRANCH  10  12
HETATM   12  C19 UNL     1      23.228  38.934  19.686  1.00  0.00     0.145 A 
HETATM   13  N9  UNL     1      23.685  38.619  18.432  1.00  0.00    -0.350 N 
HETATM   14  C20 UNL     1      23.192  37.546  17.799  1.00  0.00     0.090 A 
ATOM     15  H9  UNL     1      24.396  39.198  17.985  1.00  0.00     0.166 HD
HETATM   16  C21 UNL     1      22.225  36.751  18.400  1.00  0.00     0.020 A 
HETATM   17  C22 UNL     1      21.772  37.073  19.659  1.00  0.00     0.047 A 
HETATM   18  C23 UNL     1      22.279  38.184  20.317  1.00  0.00     0.160 A 
HETATM   19  F1  UNL     1      21.837  38.512  21.567  1.00  0.00    -0.202 F 
ENDBRANCH  10  12
ENDBRANCH   9  10
BRANCH   7  20
HETATM   20  N2  UNL     1      21.994  43.658  17.499  1.00  0.00    -0.340 N 
HETATM   21  C7  UNL     1      21.168  43.035  16.790  1.00  0.00     0.136 A 
HETATM   22  N3  UNL     1      21.123  41.668  16.852  1.00  0.00    -0.337 N 
HETATM   23  C14 UNL     1      20.307  43.678  15.955  1.00  0.00     0.108 A 
HETATM   24  C8  UNL     1      20.255  40.958  16.112  1.00  0.00     0.182 A 
ATOM     25  H3  UNL     1      21.764  41.177  17.475  1.00  0.00     0.168 HD
HETATM   26  N4  UNL     1      19.387  41.549  15.274  1.00  0.00    -0.348 N 
HETATM   27  C9  UNL     1      19.426  42.905  15.207  1.00  0.00     0.093 A 
ATOM     28  H4  UNL     1      18.730  41.006  14.715  1.00  0.00     0.167 HD
HETATM   29  C10 UNL     1      18.536  43.487  14.350  1.00  0.00     0.092 A 
HETATM   30  C11 UNL     1      18.550  44.859  14.259  1.00  0.00     0.078 A 
HETATM   31  N7  UNL     1      17.594  42.973  13.528  1.00  0.00    -0.344 N 
HETATM   32  C12 UNL     1      19.437  45.586  15.015  1.00  0.00     0.122 A 
HETATM   33  N6  UNL     1      17.597  45.177  13.363  1.00  0.00    -0.349 N 
HETATM   34  N5  UNL     1      20.336  45.035  15.879  1.00  0.00    -0.354 N 
HETATM   35  C13 UNL     1      21.240  45.835  16.645  1.00  0.00     0.156 C 
HETATM   36  C15 UNL     1      17.017  44.022  12.921  1.00  0.00     0.183 A 
ATOM     37  H6  UNL     1      17.350  46.120  13.066  1.00  0.00     0.166 HD
HETATM   38  C16 UNL     1      17.276  41.553  13.344  1.00  0.00     0.157 C 
ATOM     39  H2  UNL     1      21.994  44.675  17.423  1.00  0.00     0.167 HD
ENDBRANCH   7  20
TORSDOF 3
ENDMDL
