MODEL 1
REMARK VINA RESULT: -7.675414762      0.000      0.000
REMARK  7 active torsions:
REMARK  status: ('A' for Active; 'I' for Inactive)
REMARK    1  A    between atoms: C2_2  and  O1_3 
REMARK    2  A    between atoms: O1_3  and  N1_4 
REMARK    3  A    between atoms: C3_6  and  C5_8 
REMARK       I    between atoms: N2_11  and  C8_12 
REMARK    4  A    between atoms: C8_12  and  O3_14 
REMARK    5  A    between atoms: O3_14  and  C9_15 
REMARK    6  A    between atoms: C15_21  and  N3_22 
REMARK       I    between atoms: N3_22  and  C16_24 
REMARK    7  A    between atoms: C16_24  and  O5_26 
ROOT
HETATM    1  C9  UNL     1      -2.834  -7.805  24.014  1.00  0.00     0.135 C 
HETATM    2  C10 UNL     1      -1.762  -8.737  23.419  1.00  0.00     0.051 C 
HETATM    3  C11 UNL     1      -0.390  -8.336  23.850  1.00  0.00    -0.008 C 
HETATM    4  C12 UNL     1      -0.290  -8.435  25.337  1.00  0.00     0.017 C 
HETATM    5  C13 UNL     1      -1.279  -7.484  25.970  1.00  0.00     0.061 C 
HETATM    6  C14 UNL     1      -1.016  -6.069  25.483  1.00  0.00     0.043 C 
HETATM    7  C15 UNL     1      -1.133  -6.022  23.997  1.00  0.00     0.039 C 
HETATM    8  C18 UNL     1      -0.149  -6.930  23.342  1.00  0.00     0.036 C 
HETATM    9  C19 UNL     1      -2.541  -6.429  23.535  1.00  0.00     0.078 C 
HETATM   10  C20 UNL     1      -2.629  -7.860  25.469  1.00  0.00     0.166 C 
HETATM   11  O6  UNL     1      -3.448  -8.181  26.307  1.00  0.00    -0.294 OA
ENDROOT
BRANCH   1  12
HETATM   12  O3  UNL     1      -4.044  -8.336  23.577  1.00  0.00    -0.285 OA
BRANCH  12  13
HETATM   13  C8  UNL     1      -4.246  -9.650  23.203  1.00  0.00     0.363 C 
HETATM   14  N2  UNL     1      -4.192 -10.023  21.846  1.00  0.00    -0.328 N 
HETATM   15  C7  UNL     1      -3.925  -9.032  20.848  1.00  0.00     0.129 C 
HETATM   16  C21 UNL     1      -4.408 -11.394  21.492  1.00  0.00     0.129 C 
HETATM   17  C6  UNL     1      -2.933  -9.477  19.804  1.00  0.00     0.030 C 
HETATM   18  C5  UNL     1      -2.857 -10.970  19.635  1.00  0.00     0.036 C 
HETATM   19  C22 UNL     1      -4.105 -11.682  20.039  1.00  0.00     0.030 C 
HETATM   20  O2  UNL     1      -4.475 -10.454  24.143  1.00  0.00    -0.238 OA
BRANCH  18  21
HETATM   21  C3  UNL     1      -2.571 -11.257  18.213  1.00  0.00     0.010 C 
HETATM   22  N1  UNL     1      -3.112 -10.544  17.303  1.00  0.00    -0.275 N 
ATOM     23  H1  UNL     1      -3.734  -9.788  17.593  1.00  0.00     0.193 HD
HETATM   24  C4  UNL     1      -1.665 -12.357  17.785  1.00  0.00     0.066 C 
BRANCH  22  25
HETATM   25  O1  UNL     1      -2.909 -10.732  15.962  1.00  0.00    -0.281 OA
BRANCH  25  26
HETATM   26  C2  UNL     1      -3.936 -11.106  15.059  1.00  0.00     0.196 C 
HETATM   27  C1  UNL     1      -4.679 -12.272  15.664  1.00  0.00     0.036 C 
ENDBRANCH  25  26
ENDBRANCH  22  25
ENDBRANCH  18  21
ENDBRANCH  12  13
ENDBRANCH   1  12
BRANCH   7  28
HETATM   28  N3  UNL     1      -0.867  -4.662  23.550  1.00  0.00    -0.328 N 
HETATM   29  C16 UNL     1      -0.858  -4.252  22.198  1.00  0.00     0.360 C 
HETATM   30  O4  UNL     1      -1.079  -4.994  21.206  1.00  0.00    -0.239 OA
ATOM     31  H3  UNL     1      -0.674  -3.957  24.262  1.00  0.00     0.165 HD
BRANCH  29  32
HETATM   32  O5  UNL     1      -0.587  -2.910  21.851  1.00  0.00    -0.309 OA
HETATM   33  C17 UNL     1      -0.366  -2.515  20.515  1.00  0.00     0.215 C 
ENDBRANCH  29  32
ENDBRANCH   7  28
TORSDOF 7
ENDMDL
MODEL 2
REMARK VINA RESULT: -7.383681893      2.414      6.032
REMARK  7 active torsions:
REMARK  status: ('A' for Active; 'I' for Inactive)
REMARK    1  A    between atoms: C2_2  and  O1_3 
REMARK    2  A    between atoms: O1_3  and  N1_4 
REMARK    3  A    between atoms: C3_6  and  C5_8 
REMARK       I    between atoms: N2_11  and  C8_12 
REMARK    4  A    between atoms: C8_12  and  O3_14 
REMARK    5  A    between atoms: O3_14  and  C9_15 
REMARK    6  A    between atoms: C15_21  and  N3_22 
REMARK       I    between atoms: N3_22  and  C16_24 
REMARK    7  A    between atoms: C16_24  and  O5_26 
ROOT
HETATM    1  C9  UNL     1      -0.862  -4.920  20.982  1.00  0.00     0.135 C 
HETATM    2  C10 UNL     1       0.343  -4.045  20.592  1.00  0.00     0.051 C 
HETATM    3  C11 UNL     1       0.327  -3.712  19.137  1.00  0.00    -0.008 C 
HETATM    4  C12 UNL     1      -0.909  -2.934  18.821  1.00  0.00     0.017 C 
HETATM    5  C13 UNL     1      -2.124  -3.780  19.123  1.00  0.00     0.061 C 
HETATM    6  C14 UNL     1      -2.059  -5.076  18.334  1.00  0.00     0.043 C 
HETATM    7  C15 UNL     1      -0.814  -5.815  18.688  1.00  0.00     0.039 C 
HETATM    8  C18 UNL     1       0.406  -5.017  18.373  1.00  0.00     0.036 C 
HETATM    9  C19 UNL     1      -0.781  -6.169  20.183  1.00  0.00     0.078 C 
HETATM   10  C20 UNL     1      -2.046  -4.157  20.562  1.00  0.00     0.166 C 
HETATM   11  O6  UNL     1      -2.970  -3.801  21.266  1.00  0.00    -0.294 OA
ENDROOT
BRANCH   1  12
HETATM   12  O3  UNL     1      -0.741  -5.091  22.358  1.00  0.00    -0.285 OA
BRANCH  12  13
HETATM   13  C8  UNL     1      -0.464  -6.288  22.989  1.00  0.00     0.363 C 
HETATM   14  N2  UNL     1      -1.509  -7.143  23.391  1.00  0.00    -0.328 N 
HETATM   15  C7  UNL     1      -2.868  -6.766  23.144  1.00  0.00     0.129 C 
HETATM   16  C21 UNL     1      -1.188  -8.377  24.044  1.00  0.00     0.129 C 
HETATM   17  C6  UNL     1      -3.720  -7.891  22.611  1.00  0.00     0.030 C 
HETATM   18  C5  UNL     1      -3.216  -9.261  22.977  1.00  0.00     0.036 C 
HETATM   19  C22 UNL     1      -2.386  -9.281  24.217  1.00  0.00     0.030 C 
HETATM   20  O2  UNL     1       0.755  -6.540  23.167  1.00  0.00    -0.238 OA
BRANCH  18  21
HETATM   21  C3  UNL     1      -4.385 -10.147  23.158  1.00  0.00     0.010 C 
HETATM   22  N1  UNL     1      -4.910 -10.716  22.142  1.00  0.00    -0.275 N 
ATOM     23  H1  UNL     1      -4.498 -10.536  21.226  1.00  0.00     0.193 HD
HETATM   24  C4  UNL     1      -4.989 -10.413  24.491  1.00  0.00     0.066 C 
BRANCH  22  25
HETATM   25  O1  UNL     1      -5.992 -11.553  22.209  1.00  0.00    -0.281 OA
BRANCH  25  26
HETATM   26  C2  UNL     1      -6.170 -12.672  21.357  1.00  0.00     0.196 C 
HETATM   27  C1  UNL     1      -6.829 -13.764  22.163  1.00  0.00     0.036 C 
ENDBRANCH  25  26
ENDBRANCH  22  25
ENDBRANCH  18  21
ENDBRANCH  12  13
ENDBRANCH   1  12
BRANCH   7  28
HETATM   28  N3  UNL     1      -0.765  -7.047  17.912  1.00  0.00    -0.328 N 
HETATM   29  C16 UNL     1      -1.780  -8.030  17.907  1.00  0.00     0.360 C 
HETATM   30  O4  UNL     1      -2.854  -7.976  18.560  1.00  0.00    -0.239 OA
ATOM     31  H3  UNL     1       0.059  -7.211  17.333  1.00  0.00     0.165 HD
BRANCH  29  32
HETATM   32  O5  UNL     1      -1.651  -9.199  17.126  1.00  0.00    -0.309 OA
HETATM   33  C17 UNL     1      -1.718 -10.488  17.696  1.00  0.00     0.215 C 
ENDBRANCH  29  32
ENDBRANCH   7  28
TORSDOF 7
ENDMDL
MODEL 3
REMARK VINA RESULT: -7.382901388      2.382      8.301
REMARK  7 active torsions:
REMARK  status: ('A' for Active; 'I' for Inactive)
REMARK    1  A    between atoms: C2_2  and  O1_3 
REMARK    2  A    between atoms: O1_3  and  N1_4 
REMARK    3  A    between atoms: C3_6  and  C5_8 
REMARK       I    between atoms: N2_11  and  C8_12 
REMARK    4  A    between atoms: C8_12  and  O3_14 
REMARK    5  A    between atoms: O3_14  and  C9_15 
REMARK    6  A    between atoms: C15_21  and  N3_22 
REMARK       I    between atoms: N3_22  and  C16_24 
REMARK    7  A    between atoms: C16_24  and  O5_26 
ROOT
HETATM    1  C9  UNL     1      -2.783  -9.787  17.901  1.00  0.00     0.135 C 
HETATM    2  C10 UNL     1      -1.430 -10.299  18.430  1.00  0.00     0.051 C 
HETATM    3  C11 UNL     1      -1.427 -11.785  18.568  1.00  0.00    -0.008 C 
HETATM    4  C12 UNL     1      -1.643 -12.406  17.227  1.00  0.00     0.017 C 
HETATM    5  C13 UNL     1      -2.994 -11.988  16.694  1.00  0.00     0.061 C 
HETATM    6  C14 UNL     1      -4.081 -12.382  17.679  1.00  0.00     0.043 C 
HETATM    7  C15 UNL     1      -3.822 -11.734  18.996  1.00  0.00     0.039 C 
HETATM    8  C18 UNL     1      -2.508 -12.151  19.562  1.00  0.00     0.036 C 
HETATM    9  C19 UNL     1      -3.826 -10.201  18.873  1.00  0.00     0.078 C 
HETATM   10  C20 UNL     1      -2.997 -10.500  16.634  1.00  0.00     0.166 C 
HETATM   11  O6  UNL     1      -3.177 -10.003  15.539  1.00  0.00    -0.294 OA
ENDROOT
BRANCH   1  12
HETATM   12  O3  UNL     1      -2.612  -8.412  17.771  1.00  0.00    -0.285 OA
BRANCH  12  13
HETATM   13  C8  UNL     1      -1.510  -7.703  18.208  1.00  0.00     0.363 C 
HETATM   14  N2  UNL     1      -1.407  -7.302  19.554  1.00  0.00    -0.328 N 
HETATM   15  C7  UNL     1      -2.451  -7.633  20.475  1.00  0.00     0.129 C 
HETATM   16  C21 UNL     1      -0.251  -6.567  19.975  1.00  0.00     0.129 C 
HETATM   17  C6  UNL     1      -1.948  -8.140  21.803  1.00  0.00     0.030 C 
HETATM   18  C5  UNL     1      -0.559  -7.676  22.145  1.00  0.00     0.036 C 
HETATM   19  C22 UNL     1      -0.174  -6.399  21.475  1.00  0.00     0.030 C 
HETATM   20  O2  UNL     1      -0.641  -7.454  17.334  1.00  0.00    -0.238 OA
BRANCH  18  21
HETATM   21  C3  UNL     1      -0.481  -7.499  23.611  1.00  0.00     0.010 C 
HETATM   22  N1  UNL     1      -0.441  -6.323  24.104  1.00  0.00    -0.275 N 
ATOM     23  H1  UNL     1      -0.464  -5.532  23.460  1.00  0.00     0.193 HD
HETATM   24  C4  UNL     1      -0.448  -8.650  24.554  1.00  0.00     0.066 C 
BRANCH  22  25
HETATM   25  O1  UNL     1      -0.369  -6.059  25.447  1.00  0.00    -0.281 OA
BRANCH  25  26
HETATM   26  C2  UNL     1      -1.262  -5.190  26.123  1.00  0.00     0.196 C 
HETATM   27  C1  UNL     1      -2.636  -5.814  26.075  1.00  0.00     0.036 C 
ENDBRANCH  25  26
ENDBRANCH  22  25
ENDBRANCH  18  21
ENDBRANCH  12  13
ENDBRANCH   1  12
BRANCH   7  28
HETATM   28  N3  UNL     1      -4.868 -12.133  19.927  1.00  0.00    -0.328 N 
HETATM   29  C16 UNL     1      -5.155 -11.468  21.140  1.00  0.00     0.360 C 
HETATM   30  O4  UNL     1      -4.558 -10.450  21.576  1.00  0.00    -0.239 OA
ATOM     31  H3  UNL     1      -5.431 -12.949  19.687  1.00  0.00     0.165 HD
BRANCH  29  32
HETATM   32  O5  UNL     1      -6.188 -11.925  21.988  1.00  0.00    -0.309 OA
HETATM   33  C17 UNL     1      -6.657 -13.255  21.942  1.00  0.00     0.215 C 
ENDBRANCH  29  32
ENDBRANCH   7  28
TORSDOF 7
ENDMDL
MODEL 4
REMARK VINA RESULT: -7.313076696      1.908      4.467
REMARK  7 active torsions:
REMARK  status: ('A' for Active; 'I' for Inactive)
REMARK    1  A    between atoms: C2_2  and  O1_3 
REMARK    2  A    between atoms: O1_3  and  N1_4 
REMARK    3  A    between atoms: C3_6  and  C5_8 
REMARK       I    between atoms: N2_11  and  C8_12 
REMARK    4  A    between atoms: C8_12  and  O3_14 
REMARK    5  A    between atoms: O3_14  and  C9_15 
REMARK    6  A    between atoms: C15_21  and  N3_22 
REMARK       I    between atoms: N3_22  and  C16_24 
REMARK    7  A    between atoms: C16_24  and  O5_26 
ROOT
HETATM    1  C9  UNL     1      -1.166  -5.885  23.052  1.00  0.00     0.135 C 
HETATM    2  C10 UNL     1      -1.524  -4.843  24.127  1.00  0.00     0.051 C 
HETATM    3  C11 UNL     1      -1.818  -5.492  25.439  1.00  0.00    -0.008 C 
HETATM    4  C12 UNL     1      -0.604  -6.221  25.914  1.00  0.00     0.017 C 
HETATM    5  C13 UNL     1      -0.251  -7.305  24.922  1.00  0.00     0.061 C 
HETATM    6  C14 UNL     1      -1.433  -8.241  24.740  1.00  0.00     0.043 C 
HETATM    7  C15 UNL     1      -2.615  -7.468  24.262  1.00  0.00     0.039 C 
HETATM    8  C18 UNL     1      -3.006  -6.408  25.235  1.00  0.00     0.036 C 
HETATM    9  C19 UNL     1      -2.331  -6.795  22.910  1.00  0.00     0.078 C 
HETATM   10  C20 UNL     1      -0.033  -6.640  23.608  1.00  0.00     0.166 C 
HETATM   11  O6  UNL     1       1.065  -6.778  23.106  1.00  0.00    -0.294 OA
ENDROOT
BRANCH   1  12
HETATM   12  O3  UNL     1      -0.863  -5.134  21.921  1.00  0.00    -0.285 OA
BRANCH  12  13
HETATM   13  C8  UNL     1      -1.608  -5.113  20.758  1.00  0.00     0.363 C 
HETATM   14  N2  UNL     1      -1.439  -6.116  19.783  1.00  0.00    -0.328 N 
HETATM   15  C7  UNL     1      -0.490  -7.164  20.001  1.00  0.00     0.129 C 
HETATM   16  C21 UNL     1      -2.227  -6.064  18.588  1.00  0.00     0.129 C 
HETATM   17  C6  UNL     1      -1.008  -8.534  19.641  1.00  0.00     0.030 C 
HETATM   18  C5  UNL     1      -2.114  -8.517  18.622  1.00  0.00     0.036 C 
HETATM   19  C22 UNL     1      -2.099  -7.311  17.743  1.00  0.00     0.030 C 
HETATM   20  O2  UNL     1      -2.417  -4.157  20.648  1.00  0.00    -0.238 OA
BRANCH  18  21
HETATM   21  C3  UNL     1      -1.987  -9.730  17.787  1.00  0.00     0.010 C 
HETATM   22  N1  UNL     1      -2.285  -9.677  16.547  1.00  0.00    -0.275 N 
ATOM     23  H1  UNL     1      -2.605  -8.785  16.168  1.00  0.00     0.193 HD
HETATM   24  C4  UNL     1      -1.520 -11.033  18.334  1.00  0.00     0.066 C 
BRANCH  22  25
HETATM   25  O1  UNL     1      -2.200 -10.745  15.693  1.00  0.00    -0.281 OA
BRANCH  25  26
HETATM   26  C2  UNL     1      -3.302 -11.251  14.960  1.00  0.00     0.196 C 
HETATM   27  C1  UNL     1      -4.020 -12.249  15.836  1.00  0.00     0.036 C 
ENDBRANCH  25  26
ENDBRANCH  22  25
ENDBRANCH  18  21
ENDBRANCH  12  13
ENDBRANCH   1  12
BRANCH   7  28
HETATM   28  N3  UNL     1      -3.739  -8.381  24.106  1.00  0.00    -0.328 N 
HETATM   29  C16 UNL     1      -3.939  -9.218  22.985  1.00  0.00     0.360 C 
HETATM   30  O4  UNL     1      -3.184  -9.293  21.983  1.00  0.00    -0.239 OA
ATOM     31  H3  UNL     1      -4.428  -8.419  24.857  1.00  0.00     0.165 HD
BRANCH  29  32
HETATM   32  O5  UNL     1      -5.061 -10.073  22.914  1.00  0.00    -0.309 OA
HETATM   33  C17 UNL     1      -5.252 -11.131  23.828  1.00  0.00     0.215 C 
ENDBRANCH  29  32
ENDBRANCH   7  28
TORSDOF 7
ENDMDL
MODEL 5
REMARK VINA RESULT: -7.247781366      3.098      5.629
REMARK  7 active torsions:
REMARK  status: ('A' for Active; 'I' for Inactive)
REMARK    1  A    between atoms: C2_2  and  O1_3 
REMARK    2  A    between atoms: O1_3  and  N1_4 
REMARK    3  A    between atoms: C3_6  and  C5_8 
REMARK       I    between atoms: N2_11  and  C8_12 
REMARK    4  A    between atoms: C8_12  and  O3_14 
REMARK    5  A    between atoms: O3_14  and  C9_15 
REMARK    6  A    between atoms: C15_21  and  N3_22 
REMARK       I    between atoms: N3_22  and  C16_24 
REMARK    7  A    between atoms: C16_24  and  O5_26 
ROOT
HETATM    1  C9  UNL     1      -1.139  -4.763  20.038  1.00  0.00     0.135 C 
HETATM    2  C10 UNL     1      -0.872  -3.691  18.966  1.00  0.00     0.051 C 
HETATM    3  C11 UNL     1      -1.289  -2.336  19.434  1.00  0.00    -0.008 C 
HETATM    4  C12 UNL     1      -0.493  -1.965  20.642  1.00  0.00     0.017 C 
HETATM    5  C13 UNL     1      -0.775  -2.952  21.751  1.00  0.00     0.061 C 
HETATM    6  C14 UNL     1      -2.264  -2.982  22.046  1.00  0.00     0.043 C 
HETATM    7  C15 UNL     1      -3.011  -3.362  20.814  1.00  0.00     0.039 C 
HETATM    8  C18 UNL     1      -2.777  -2.389  19.709  1.00  0.00     0.036 C 
HETATM    9  C19 UNL     1      -2.598  -4.758  20.319  1.00  0.00     0.078 C 
HETATM   10  C20 UNL     1      -0.419  -4.302  21.234  1.00  0.00     0.166 C 
HETATM   11  O6  UNL     1       0.439  -4.908  21.846  1.00  0.00    -0.294 OA
ENDROOT
BRANCH   1  12
HETATM   12  O3  UNL     1      -0.650  -5.943  19.485  1.00  0.00    -0.285 OA
BRANCH  12  13
HETATM   13  C8  UNL     1      -1.419  -6.911  18.869  1.00  0.00     0.363 C 
HETATM   14  N2  UNL     1      -1.910  -8.008  19.603  1.00  0.00    -0.328 N 
HETATM   15  C7  UNL     1      -1.610  -8.120  20.998  1.00  0.00     0.129 C 
HETATM   16  C21 UNL     1      -2.704  -8.995  18.933  1.00  0.00     0.129 C 
HETATM   17  C6  UNL     1      -2.795  -8.517  21.842  1.00  0.00     0.030 C 
HETATM   18  C5  UNL     1      -3.856  -9.268  21.085  1.00  0.00     0.036 C 
HETATM   19  C22 UNL     1      -3.338  -9.985  19.882  1.00  0.00     0.030 C 
HETATM   20  O2  UNL     1      -1.633  -6.735  17.642  1.00  0.00    -0.238 OA
BRANCH  18  21
HETATM   21  C3  UNL     1      -4.473 -10.246  22.007  1.00  0.00     0.010 C 
HETATM   22  N1  UNL     1      -5.313 -11.095  21.557  1.00  0.00    -0.275 N 
ATOM     23  H1  UNL     1      -5.534 -11.070  20.561  1.00  0.00     0.193 HD
HETATM   24  C4  UNL     1      -4.153 -10.287  23.460  1.00  0.00     0.066 C 
BRANCH  22  25
HETATM   25  O1  UNL     1      -5.936 -12.038  22.331  1.00  0.00    -0.281 OA
BRANCH  25  26
HETATM   26  C2  UNL     1      -7.001 -12.851  21.869  1.00  0.00     0.196 C 
HETATM   27  C1  UNL     1      -6.685 -14.280  22.240  1.00  0.00     0.036 C 
ENDBRANCH  25  26
ENDBRANCH  22  25
ENDBRANCH  18  21
ENDBRANCH  12  13
ENDBRANCH   1  12
BRANCH   7  28
HETATM   28  N3  UNL     1      -4.436  -3.374  21.115  1.00  0.00    -0.328 N 
HETATM   29  C16 UNL     1      -5.053  -4.261  22.026  1.00  0.00     0.360 C 
HETATM   30  O4  UNL     1      -4.466  -5.148  22.696  1.00  0.00    -0.239 OA
ATOM     31  H3  UNL     1      -5.029  -2.696  20.636  1.00  0.00     0.165 HD
BRANCH  29  32
HETATM   32  O5  UNL     1      -6.445  -4.205  22.258  1.00  0.00    -0.309 OA
HETATM   33  C17 UNL     1      -6.982  -3.678  23.451  1.00  0.00     0.215 C 
ENDBRANCH  29  32
ENDBRANCH   7  28
TORSDOF 7
ENDMDL
