MODEL 1
REMARK VINA RESULT: -8.903350092      0.000      0.000
REMARK  11 active torsions:
REMARK  status: ('A' for Active; 'I' for Inactive)
REMARK    1  A    between atoms: C2_2  and  N1_4 
REMARK    2  A    between atoms: N1_4  and  C4_7 
REMARK    3  A    between atoms: C4_7  and  C5_8 
REMARK    4  A    between atoms: C4_7  and  C20_35 
REMARK       I    between atoms: C5_8  and  N2_10 
REMARK    5  A    between atoms: C8_14  and  C9_15 
REMARK       I    between atoms: C9_15  and  N3_17 
REMARK    6  A    between atoms: N3_17  and  C10_19 
REMARK    7  A    between atoms: C10_19  and  C12_21 
REMARK    8  A    between atoms: C12_21  and  N4_22 
REMARK    9  A    between atoms: C12_21  and  C13_26 
REMARK   10  A    between atoms: C13_26  and  S2_27 
REMARK   11  A    between atoms: S2_27  and  C14_28 
ROOT
HETATM    1  C9  UNL     1      13.259  -2.758  53.626  1.00  0.00     0.241 C 
HETATM    2  O2  UNL     1      13.221  -3.413  54.706  1.00  0.00    -0.271 OA
HETATM    3  N3  UNL     1      14.176  -1.676  53.560  1.00  0.00    -0.353 N 
ATOM      4  H3  UNL     1      14.230  -1.124  52.705  1.00  0.00     0.163 HD
ENDROOT
BRANCH   1   5
HETATM    5  C8  UNL     1      12.358  -3.142  52.498  1.00  0.00     0.189 C 
HETATM    6  N2  UNL     1      12.999  -3.093  51.215  1.00  0.00    -0.327 N 
HETATM    7  C5  UNL     1      12.742  -2.126  50.209  1.00  0.00     0.252 C 
HETATM    8  C6  UNL     1      13.945  -4.173  51.085  1.00  0.00     0.200 C 
HETATM    9  O1  UNL     1      11.904  -1.173  50.422  1.00  0.00    -0.271 OA
HETATM   10  S1  UNL     1      12.849  -5.537  51.676  1.00  0.00    -0.147 SA
HETATM   11  C7  UNL     1      11.820  -4.519  52.769  1.00  0.00     0.110 C 
BRANCH   7  12
HETATM   12  C4  UNL     1      13.375  -2.099  48.868  1.00  0.00     0.280 C 
BRANCH  12  13
HETATM   13  N1  UNL     1      13.627  -0.697  48.571  1.00  0.00    -0.059 N 
ATOM     14  H12 UNL     1      13.103  -0.086  49.197  1.00  0.00     0.278 HD
ATOM     15  H11 UNL     1      13.201  -0.424  47.685  1.00  0.00     0.278 HD
BRANCH  13  16
HETATM   16  C2  UNL     1      15.040  -0.386  48.593  1.00  0.00     0.178 C 
HETATM   17  C1  UNL     1      15.364   0.910  47.897  1.00  0.00     0.039 C 
HETATM   18  C3  UNL     1      15.446  -0.227  50.042  1.00  0.00     0.039 C 
ENDBRANCH  13  16
ENDBRANCH  12  13
BRANCH  12  19
HETATM   19  C20 UNL     1      12.359  -2.577  47.863  1.00  0.00     0.017 C 
HETATM   20  C21 UNL     1      11.248  -1.608  47.587  1.00  0.00     0.012 C 
HETATM   21  C22 UNL     1      11.702  -3.888  48.226  1.00  0.00     0.012 C 
ENDBRANCH  12  19
ENDBRANCH   7  12
ENDBRANCH   1   5
BRANCH   3  22
HETATM   22  C10 UNL     1      15.036  -1.336  54.676  1.00  0.00     0.111 C 
HETATM   23  C11 UNL     1      16.350  -2.092  54.616  1.00  0.00     0.034 C 
BRANCH  22  24
HETATM   24  C12 UNL     1      15.265   0.158  54.709  1.00  0.00     0.215 C 
BRANCH  24  25
HETATM   25  N4  UNL     1      15.897   0.598  55.914  1.00  0.00    -0.072 N 
ATOM     26  H43 UNL     1      15.256   0.537  56.705  1.00  0.00     0.274 HD
ATOM     27  H42 UNL     1      16.603  -0.071  56.221  1.00  0.00     0.274 HD
ATOM     28  H41 UNL     1      16.292   1.535  55.836  1.00  0.00     0.274 HD
ENDBRANCH  24  25
BRANCH  24  29
HETATM   29  C13 UNL     1      13.936   0.867  54.448  1.00  0.00     0.114 C 
BRANCH  29  30
HETATM   30  S2  UNL     1      14.030   1.851  52.930  1.00  0.00    -0.128 SA
BRANCH  30  31
HETATM   31  C14 UNL     1      14.819   3.402  53.328  1.00  0.00     0.002 A 
HETATM   32  C15 UNL     1      16.190   3.448  53.449  1.00  0.00     0.018 A 
HETATM   33  C16 UNL     1      16.858   4.634  53.760  1.00  0.00     0.003 A 
HETATM   34  C17 UNL     1      16.121   5.779  53.946  1.00  0.00     0.024 A 
HETATM   35  C18 UNL     1      14.741   5.748  53.828  1.00  0.00     0.035 A 
HETATM   36 CL1  UNL     1      13.880   7.244  54.081  1.00  0.00    -0.084 Cl
HETATM   37  C19 UNL     1      14.084   4.559  53.518  1.00  0.00     0.042 A 
ENDBRANCH  30  31
ENDBRANCH  29  30
ENDBRANCH  24  29
ENDBRANCH  22  24
ENDBRANCH   3  22
TORSDOF 11
ENDMDL
MODEL 2
REMARK VINA RESULT: -8.446907220      1.335      1.698
REMARK  11 active torsions:
REMARK  status: ('A' for Active; 'I' for Inactive)
REMARK    1  A    between atoms: C2_2  and  N1_4 
REMARK    2  A    between atoms: N1_4  and  C4_7 
REMARK    3  A    between atoms: C4_7  and  C5_8 
REMARK    4  A    between atoms: C4_7  and  C20_35 
REMARK       I    between atoms: C5_8  and  N2_10 
REMARK    5  A    between atoms: C8_14  and  C9_15 
REMARK       I    between atoms: C9_15  and  N3_17 
REMARK    6  A    between atoms: N3_17  and  C10_19 
REMARK    7  A    between atoms: C10_19  and  C12_21 
REMARK    8  A    between atoms: C12_21  and  N4_22 
REMARK    9  A    between atoms: C12_21  and  C13_26 
REMARK   10  A    between atoms: C13_26  and  S2_27 
REMARK   11  A    between atoms: S2_27  and  C14_28 
ROOT
HETATM    1  C9  UNL     1      13.876  -3.030  54.011  1.00  0.00     0.241 C 
HETATM    2  O2  UNL     1      14.237  -3.685  55.029  1.00  0.00    -0.271 OA
HETATM    3  N3  UNL     1      14.477  -1.759  53.815  1.00  0.00    -0.353 N 
ATOM      4  H3  UNL     1      14.206  -1.201  53.006  1.00  0.00     0.163 HD
ENDROOT
BRANCH   1   5
HETATM    5  C8  UNL     1      12.854  -3.607  53.086  1.00  0.00     0.189 C 
HETATM    6  N2  UNL     1      13.213  -3.497  51.701  1.00  0.00    -0.327 N 
HETATM    7  C5  UNL     1      12.597  -2.628  50.763  1.00  0.00     0.252 C 
HETATM    8  C6  UNL     1      14.292  -4.401  51.389  1.00  0.00     0.200 C 
HETATM    9  O1  UNL     1      11.661  -1.828  51.136  1.00  0.00    -0.271 OA
HETATM   10  S1  UNL     1      13.593  -5.910  52.190  1.00  0.00    -0.147 SA
HETATM   11  C7  UNL     1      12.632  -5.045  53.463  1.00  0.00     0.110 C 
BRANCH   7  12
HETATM   12  C4  UNL     1      12.942  -2.543  49.323  1.00  0.00     0.280 C 
BRANCH  12  13
HETATM   13  N1  UNL     1      13.097  -1.126  49.030  1.00  0.00    -0.059 N 
ATOM     14  H12 UNL     1      12.404  -0.568  49.528  1.00  0.00     0.278 HD
ATOM     15  H11 UNL     1      12.817  -0.913  48.073  1.00  0.00     0.278 HD
BRANCH  13  16
HETATM   16  C2  UNL     1      14.440  -0.662  49.302  1.00  0.00     0.178 C 
HETATM   17  C1  UNL     1      15.105  -0.059  48.092  1.00  0.00     0.039 C 
HETATM   18  C3  UNL     1      14.339   0.429  50.346  1.00  0.00     0.039 C 
ENDBRANCH  13  16
ENDBRANCH  12  13
BRANCH  12  19
HETATM   19  C20 UNL     1      11.752  -3.020  48.530  1.00  0.00     0.017 C 
HETATM   20  C21 UNL     1      11.859  -4.429  48.027  1.00  0.00     0.012 C 
HETATM   21  C22 UNL     1      11.426  -2.161  47.332  1.00  0.00     0.012 C 
ENDBRANCH  12  19
ENDBRANCH   7  12
ENDBRANCH   1   5
BRANCH   3  22
HETATM   22  C10 UNL     1      15.468  -1.234  54.735  1.00  0.00     0.111 C 
HETATM   23  C11 UNL     1      16.879  -1.498  54.243  1.00  0.00     0.034 C 
BRANCH  22  24
HETATM   24  C12 UNL     1      15.231   0.243  54.954  1.00  0.00     0.215 C 
BRANCH  24  25
HETATM   25  N4  UNL     1      13.878   0.545  55.303  1.00  0.00    -0.072 N 
ATOM     26  H43 UNL     1      13.450   1.158  54.609  1.00  0.00     0.274 HD
ATOM     27  H42 UNL     1      13.281  -0.275  55.190  1.00  0.00     0.274 HD
ATOM     28  H41 UNL     1      13.787   0.936  56.240  1.00  0.00     0.274 HD
ENDBRANCH  24  25
BRANCH  24  29
HETATM   29  C13 UNL     1      15.705   1.007  53.718  1.00  0.00     0.114 C 
BRANCH  29  30
HETATM   30  S2  UNL     1      16.337   2.640  54.185  1.00  0.00    -0.128 SA
BRANCH  30  31
HETATM   31  C14 UNL     1      15.191   3.867  53.576  1.00  0.00     0.002 A 
HETATM   32  C15 UNL     1      15.560   5.194  53.584  1.00  0.00     0.018 A 
HETATM   33  C16 UNL     1      14.702   6.194  53.120  1.00  0.00     0.003 A 
HETATM   34  C17 UNL     1      13.463   5.835  52.646  1.00  0.00     0.024 A 
HETATM   35  C18 UNL     1      13.079   4.504  52.632  1.00  0.00     0.035 A 
HETATM   36 CL1  UNL     1      11.490   4.134  52.014  1.00  0.00    -0.084 Cl
HETATM   37  C19 UNL     1      13.942   3.514  53.097  1.00  0.00     0.042 A 
ENDBRANCH  30  31
ENDBRANCH  29  30
ENDBRANCH  24  29
ENDBRANCH  22  24
ENDBRANCH   3  22
TORSDOF 11
ENDMDL
MODEL 3
REMARK VINA RESULT: -8.414245771      1.009      2.294
REMARK  11 active torsions:
REMARK  status: ('A' for Active; 'I' for Inactive)
REMARK    1  A    between atoms: C2_2  and  N1_4 
REMARK    2  A    between atoms: N1_4  and  C4_7 
REMARK    3  A    between atoms: C4_7  and  C5_8 
REMARK    4  A    between atoms: C4_7  and  C20_35 
REMARK       I    between atoms: C5_8  and  N2_10 
REMARK    5  A    between atoms: C8_14  and  C9_15 
REMARK       I    between atoms: C9_15  and  N3_17 
REMARK    6  A    between atoms: N3_17  and  C10_19 
REMARK    7  A    between atoms: C10_19  and  C12_21 
REMARK    8  A    between atoms: C12_21  and  N4_22 
REMARK    9  A    between atoms: C12_21  and  C13_26 
REMARK   10  A    between atoms: C13_26  and  S2_27 
REMARK   11  A    between atoms: S2_27  and  C14_28 
ROOT
HETATM    1  C9  UNL     1      13.418  -2.487  53.785  1.00  0.00     0.241 C 
HETATM    2  O2  UNL     1      13.520  -3.256  54.782  1.00  0.00    -0.271 OA
HETATM    3  N3  UNL     1      14.395  -1.465  53.657  1.00  0.00    -0.353 N 
ATOM      4  H3  UNL     1      14.341  -0.824  52.866  1.00  0.00     0.163 HD
ENDROOT
BRANCH   1   5
HETATM    5  C8  UNL     1      12.301  -2.683  52.812  1.00  0.00     0.189 C 
HETATM    6  N2  UNL     1      12.714  -2.578  51.441  1.00  0.00    -0.327 N 
HETATM    7  C5  UNL     1      12.393  -1.504  50.571  1.00  0.00     0.252 C 
HETATM    8  C6  UNL     1      13.503  -3.725  51.066  1.00  0.00     0.200 C 
HETATM    9  O1  UNL     1      11.711  -0.502  50.999  1.00  0.00    -0.271 OA
HETATM   10  S1  UNL     1      12.385  -5.029  51.744  1.00  0.00    -0.147 SA
HETATM   11  C7  UNL     1      11.674  -4.023  53.075  1.00  0.00     0.110 C 
BRANCH   7  12
HETATM   12  C4  UNL     1      12.787  -1.416  49.143  1.00  0.00     0.280 C 
BRANCH  12  13
HETATM   13  N1  UNL     1      12.472  -2.711  48.560  1.00  0.00    -0.059 N 
ATOM     14  H12 UNL     1      12.825  -3.473  49.137  1.00  0.00     0.278 HD
ATOM     15  H11 UNL     1      13.020  -2.881  47.716  1.00  0.00     0.278 HD
BRANCH  13  16
HETATM   16  C2  UNL     1      11.055  -2.858  48.305  1.00  0.00     0.178 C 
HETATM   17  C1  UNL     1      10.586  -2.041  47.129  1.00  0.00     0.039 C 
HETATM   18  C3  UNL     1      10.804  -4.311  47.966  1.00  0.00     0.039 C 
ENDBRANCH  13  16
ENDBRANCH  12  13
BRANCH  12  19
HETATM   19  C20 UNL     1      14.286  -1.269  49.082  1.00  0.00     0.017 C 
HETATM   20  C21 UNL     1      14.813   0.013  49.656  1.00  0.00     0.012 C 
HETATM   21  C22 UNL     1      14.859  -1.382  47.689  1.00  0.00     0.012 C 
ENDBRANCH  12  19
ENDBRANCH   7  12
ENDBRANCH   1   5
BRANCH   3  22
HETATM   22  C10 UNL     1      15.467  -1.309  54.621  1.00  0.00     0.111 C 
HETATM   23  C11 UNL     1      16.814  -1.659  54.017  1.00  0.00     0.034 C 
BRANCH  22  24
HETATM   24  C12 UNL     1      15.461   0.100  55.168  1.00  0.00     0.215 C 
BRANCH  24  25
HETATM   25  N4  UNL     1      14.159   0.542  55.558  1.00  0.00    -0.072 N 
ATOM     26  H43 UNL     1      14.027   1.529  55.335  1.00  0.00     0.274 HD
ATOM     27  H42 UNL     1      13.442   0.138  54.956  1.00  0.00     0.274 HD
ATOM     28  H41 UNL     1      13.955   0.360  56.541  1.00  0.00     0.274 HD
ENDBRANCH  24  25
BRANCH  24  29
HETATM   29  C13 UNL     1      16.118   1.029  54.147  1.00  0.00     0.114 C 
BRANCH  29  30
HETATM   30  S2  UNL     1      14.874   2.080  53.354  1.00  0.00    -0.128 SA
BRANCH  30  31
HETATM   31  C14 UNL     1      15.414   3.777  53.500  1.00  0.00     0.002 A 
HETATM   32  C15 UNL     1      16.761   4.048  53.585  1.00  0.00     0.018 A 
HETATM   33  C16 UNL     1      17.237   5.356  53.701  1.00  0.00     0.003 A 
HETATM   34  C17 UNL     1      16.332   6.390  53.730  1.00  0.00     0.024 A 
HETATM   35  C18 UNL     1      14.974   6.131  53.646  1.00  0.00     0.035 A 
HETATM   36 CL1  UNL     1      13.892   7.499  53.690  1.00  0.00    -0.084 Cl
HETATM   37  C19 UNL     1      14.509   4.823  53.530  1.00  0.00     0.042 A 
ENDBRANCH  30  31
ENDBRANCH  29  30
ENDBRANCH  24  29
ENDBRANCH  22  24
ENDBRANCH   3  22
TORSDOF 11
ENDMDL
MODEL 4
REMARK VINA RESULT: -8.354907736      2.146      4.101
REMARK  11 active torsions:
REMARK  status: ('A' for Active; 'I' for Inactive)
REMARK    1  A    between atoms: C2_2  and  N1_4 
REMARK    2  A    between atoms: N1_4  and  C4_7 
REMARK    3  A    between atoms: C4_7  and  C5_8 
REMARK    4  A    between atoms: C4_7  and  C20_35 
REMARK       I    between atoms: C5_8  and  N2_10 
REMARK    5  A    between atoms: C8_14  and  C9_15 
REMARK       I    between atoms: C9_15  and  N3_17 
REMARK    6  A    between atoms: N3_17  and  C10_19 
REMARK    7  A    between atoms: C10_19  and  C12_21 
REMARK    8  A    between atoms: C12_21  and  N4_22 
REMARK    9  A    between atoms: C12_21  and  C13_26 
REMARK   10  A    between atoms: C13_26  and  S2_27 
REMARK   11  A    between atoms: S2_27  and  C14_28 
ROOT
HETATM    1  C9  UNL     1      14.076  -0.958  50.425  1.00  0.00     0.241 C 
HETATM    2  O2  UNL     1      14.352   0.212  50.037  1.00  0.00    -0.271 OA
HETATM    3  N3  UNL     1      13.870  -1.144  51.817  1.00  0.00    -0.353 N 
ATOM      4  H3  UNL     1      13.649  -2.077  52.165  1.00  0.00     0.163 HD
ENDROOT
BRANCH   1   5
HETATM    5  C8  UNL     1      13.982  -2.064  49.425  1.00  0.00     0.189 C 
HETATM    6  N2  UNL     1      12.985  -3.044  49.749  1.00  0.00    -0.327 N 
HETATM    7  C5  UNL     1      13.251  -4.365  50.192  1.00  0.00     0.252 C 
HETATM    8  C6  UNL     1      11.665  -2.497  49.559  1.00  0.00     0.200 C 
HETATM    9  O1  UNL     1      14.462  -4.761  50.368  1.00  0.00    -0.271 OA
HETATM   10  S1  UNL     1      11.935  -1.769  47.885  1.00  0.00    -0.147 SA
HETATM   11  C7  UNL     1      13.713  -1.461  48.075  1.00  0.00     0.110 C 
BRANCH   7  12
HETATM   12  C4  UNL     1      12.219  -5.389  50.490  1.00  0.00     0.280 C 
BRANCH  12  13
HETATM   13  N1  UNL     1      12.739  -6.170  51.602  1.00  0.00    -0.059 N 
ATOM     14  H12 UNL     1      13.741  -6.026  51.720  1.00  0.00     0.278 HD
ATOM     15  H11 UNL     1      12.745  -7.167  51.384  1.00  0.00     0.278 HD
BRANCH  13  16
HETATM   16  C2  UNL     1      12.021  -5.904  52.830  1.00  0.00     0.178 C 
HETATM   17  C1  UNL     1      12.676  -4.840  53.671  1.00  0.00     0.039 C 
HETATM   18  C3  UNL     1      10.649  -5.391  52.450  1.00  0.00     0.039 C 
ENDBRANCH  13  16
ENDBRANCH  12  13
BRANCH  12  19
HETATM   19  C20 UNL     1      12.136  -6.323  49.309  1.00  0.00     0.017 C 
HETATM   20  C21 UNL     1      11.129  -5.930  48.269  1.00  0.00     0.012 C 
HETATM   21  C22 UNL     1      11.834  -7.756  49.677  1.00  0.00     0.012 C 
ENDBRANCH  12  19
ENDBRANCH   7  12
ENDBRANCH   1   5
BRANCH   3  22
HETATM   22  C10 UNL     1      13.967  -0.044  52.756  1.00  0.00     0.111 C 
HETATM   23  C11 UNL     1      12.633   0.659  52.929  1.00  0.00     0.034 C 
BRANCH  22  24
HETATM   24  C12 UNL     1      14.497  -0.546  54.080  1.00  0.00     0.215 C 
BRANCH  24  25
HETATM   25  N4  UNL     1      13.479  -1.115  54.908  1.00  0.00    -0.072 N 
ATOM     26  H43 UNL     1      12.895  -1.760  54.376  1.00  0.00     0.274 HD
ATOM     27  H42 UNL     1      13.879  -1.770  55.580  1.00  0.00     0.274 HD
ATOM     28  H41 UNL     1      12.910  -0.411  55.379  1.00  0.00     0.274 HD
ENDBRANCH  24  25
BRANCH  24  29
HETATM   29  C13 UNL     1      15.253   0.588  54.772  1.00  0.00     0.114 C 
BRANCH  29  30
HETATM   30  S2  UNL     1      16.391   1.391  53.614  1.00  0.00    -0.128 SA
BRANCH  30  31
HETATM   31  C14 UNL     1      16.075   3.148  53.661  1.00  0.00     0.002 A 
HETATM   32  C15 UNL     1      17.137   4.024  53.627  1.00  0.00     0.018 A 
HETATM   33  C16 UNL     1      16.946   5.407  53.663  1.00  0.00     0.003 A 
HETATM   34  C17 UNL     1      15.664   5.896  53.733  1.00  0.00     0.024 A 
HETATM   35  C18 UNL     1      14.585   5.027  53.769  1.00  0.00     0.035 A 
HETATM   36 CL1  UNL     1      12.991   5.729  53.859  1.00  0.00    -0.084 Cl
HETATM   37  C19 UNL     1      14.787   3.648  53.733  1.00  0.00     0.042 A 
ENDBRANCH  30  31
ENDBRANCH  29  30
ENDBRANCH  24  29
ENDBRANCH  22  24
ENDBRANCH   3  22
TORSDOF 11
ENDMDL
MODEL 5
REMARK VINA RESULT: -8.330160379      1.873      3.052
REMARK  11 active torsions:
REMARK  status: ('A' for Active; 'I' for Inactive)
REMARK    1  A    between atoms: C2_2  and  N1_4 
REMARK    2  A    between atoms: N1_4  and  C4_7 
REMARK    3  A    between atoms: C4_7  and  C5_8 
REMARK    4  A    between atoms: C4_7  and  C20_35 
REMARK       I    between atoms: C5_8  and  N2_10 
REMARK    5  A    between atoms: C8_14  and  C9_15 
REMARK       I    between atoms: C9_15  and  N3_17 
REMARK    6  A    between atoms: N3_17  and  C10_19 
REMARK    7  A    between atoms: C10_19  and  C12_21 
REMARK    8  A    between atoms: C12_21  and  N4_22 
REMARK    9  A    between atoms: C12_21  and  C13_26 
REMARK   10  A    between atoms: C13_26  and  S2_27 
REMARK   11  A    between atoms: S2_27  and  C14_28 
ROOT
HETATM    1  C9  UNL     1      14.955  -1.944  51.862  1.00  0.00     0.241 C 
HETATM    2  O2  UNL     1      16.011  -2.279  52.469  1.00  0.00    -0.271 OA
HETATM    3  N3  UNL     1      15.032  -0.809  51.012  1.00  0.00    -0.353 N 
ATOM      4  H3  UNL     1      14.198  -0.508  50.509  1.00  0.00     0.163 HD
ENDROOT
BRANCH   1   5
HETATM    5  C8  UNL     1      13.704  -2.737  52.063  1.00  0.00     0.189 C 
HETATM    6  N2  UNL     1      13.124  -3.207  50.838  1.00  0.00    -0.327 N 
HETATM    7  C5  UNL     1      11.925  -2.716  50.259  1.00  0.00     0.252 C 
HETATM    8  C6  UNL     1      13.933  -4.258  50.272  1.00  0.00     0.200 C 
HETATM    9  O1  UNL     1      11.283  -1.750  50.815  1.00  0.00    -0.271 OA
HETATM   10  S1  UNL     1      14.142  -5.265  51.805  1.00  0.00    -0.147 SA
HETATM   11  C7  UNL     1      14.015  -3.887  52.978  1.00  0.00     0.110 C 
BRANCH   7  12
HETATM   12  C4  UNL     1      11.305  -3.231  49.013  1.00  0.00     0.280 C 
BRANCH  12  13
HETATM   13  N1  UNL     1      10.009  -2.578  48.911  1.00  0.00    -0.059 N 
ATOM     14  H12 UNL     1       9.769  -2.094  49.776  1.00  0.00     0.278 HD
ATOM     15  H11 UNL     1       9.251  -3.260  48.893  1.00  0.00     0.278 HD
BRANCH  13  16
HETATM   16  C2  UNL     1       9.942  -1.686  47.773  1.00  0.00     0.178 C 
HETATM   17  C1  UNL     1      11.220  -1.660  46.976  1.00  0.00     0.039 C 
HETATM   18  C3  UNL     1       8.855  -2.204  46.856  1.00  0.00     0.039 C 
ENDBRANCH  13  16
ENDBRANCH  12  13
BRANCH  12  19
HETATM   19  C20 UNL     1      11.034  -4.702  49.201  1.00  0.00     0.017 C 
HETATM   20  C21 UNL     1      10.990  -5.497  47.930  1.00  0.00     0.012 C 
HETATM   21  C22 UNL     1       9.750  -5.002  49.939  1.00  0.00     0.012 C 
ENDBRANCH  12  19
ENDBRANCH   7  12
ENDBRANCH   1   5
BRANCH   3  22
HETATM   22  C10 UNL     1      16.266  -0.068  50.841  1.00  0.00     0.111 C 
HETATM   23  C11 UNL     1      16.366   0.533  49.451  1.00  0.00     0.034 C 
BRANCH  22  24
HETATM   24  C12 UNL     1      16.375   0.999  51.907  1.00  0.00     0.215 C 
BRANCH  24  25
HETATM   25  N4  UNL     1      17.106   0.565  53.056  1.00  0.00    -0.072 N 
ATOM     26  H43 UNL     1      16.489   0.119  53.734  1.00  0.00     0.274 HD
ATOM     27  H42 UNL     1      17.705  -0.229  52.829  1.00  0.00     0.274 HD
ATOM     28  H41 UNL     1      17.645   1.315  53.491  1.00  0.00     0.274 HD
ENDBRANCH  24  25
BRANCH  24  29
HETATM   29  C13 UNL     1      14.971   1.494  52.255  1.00  0.00     0.114 C 
BRANCH  29  30
HETATM   30  S2  UNL     1      14.947   2.220  53.914  1.00  0.00    -0.128 SA
BRANCH  30  31
HETATM   31  C14 UNL     1      15.452   3.927  53.775  1.00  0.00     0.002 A 
HETATM   32  C15 UNL     1      16.793   4.227  53.694  1.00  0.00     0.018 A 
HETATM   33  C16 UNL     1      17.243   5.545  53.585  1.00  0.00     0.003 A 
HETATM   34  C17 UNL     1      16.316   6.560  53.558  1.00  0.00     0.024 A 
HETATM   35  C18 UNL     1      14.963   6.273  53.639  1.00  0.00     0.035 A 
HETATM   36 CL1  UNL     1      13.854   7.618  53.599  1.00  0.00    -0.084 Cl
HETATM   37  C19 UNL     1      14.525   4.955  53.748  1.00  0.00     0.042 A 
ENDBRANCH  30  31
ENDBRANCH  29  30
ENDBRANCH  24  29
ENDBRANCH  22  24
ENDBRANCH   3  22
TORSDOF 11
ENDMDL
