MODEL 1
REMARK VINA RESULT: -8.174564892      0.000      0.000
REMARK  12 active torsions:
REMARK  status: ('A' for Active; 'I' for Inactive)
REMARK    1  A    between atoms: C4_4  and  S1_5 
REMARK    2  A    between atoms: S1_5  and  C5_8 
REMARK    3  A    between atoms: C7_10  and  O3_11 
REMARK    4  A    between atoms: O3_11  and  C8_12 
REMARK    5  A    between atoms: C8_12  and  C9_13 
REMARK    6  A    between atoms: C9_13  and  C10_14 
REMARK    7  A    between atoms: C10_14  and  O4_15 
REMARK    8  A    between atoms: O4_15  and  N1_16 
REMARK    9  A    between atoms: C12_21  and  C13_22 
REMARK   10  A    between atoms: C13_22  and  O5_23 
REMARK   11  A    between atoms: C13_22  and  N4_25 
REMARK   12  A    between atoms: N4_25  and  C14_27 
ROOT
HETATM    1  C5  UNL     1      14.023  -2.402  50.068  1.00  0.00     0.088 A 
HETATM    2  C6  UNL     1      14.187  -2.473  51.431  1.00  0.00     0.063 A 
HETATM    3  C7  UNL     1      14.956  -1.557  52.098  1.00  0.00     0.085 A 
HETATM    4  C12 UNL     1      15.598  -0.519  51.389  1.00  0.00     0.055 A 
HETATM    5  C18 UNL     1      15.455  -0.421  50.045  1.00  0.00    -0.021 A 
HETATM    6  C19 UNL     1      16.061   0.665  49.239  1.00  0.00     0.051 C 
HETATM    7  C20 UNL     1      14.657  -1.384  49.409  1.00  0.00     0.062 A 
HETATM    8 CL1  UNL     1      14.504  -1.220  47.655  1.00  0.00    -0.082 Cl
ENDROOT
BRANCH   3   9
HETATM    9  O3  UNL     1      15.097  -1.662  53.474  1.00  0.00    -0.350 OA
BRANCH   9  10
HETATM   10  C8  UNL     1      13.974  -2.046  54.225  1.00  0.00     0.178 C 
BRANCH  10  11
HETATM   11  C9  UNL     1      14.178  -3.257  55.069  1.00  0.00     0.055 C 
BRANCH  11  12
HETATM   12  C10 UNL     1      13.054  -4.231  54.804  1.00  0.00     0.203 C 
BRANCH  12  13
HETATM   13  O4  UNL     1      13.524  -5.524  55.111  1.00  0.00    -0.278 OA
BRANCH  13  14
HETATM   14  N1  UNL     1      14.670  -5.802  55.782  1.00  0.00    -0.241 N 
HETATM   15  C11 UNL     1      14.943  -6.990  56.206  1.00  0.00     0.221 C 
HETATM   16  N2  UNL     1      16.176  -7.157  56.897  1.00  0.00    -0.065 NA
HETATM   17  N3  UNL     1      14.090  -8.099  56.017  1.00  0.00    -0.065 NA
ATOM     18  H1  UNL     1      15.336  -5.050  55.956  1.00  0.00     0.196 HD
ENDBRANCH  13  14
ENDBRANCH  12  13
ENDBRANCH  11  12
ENDBRANCH  10  11
ENDBRANCH   9  10
ENDBRANCH   3   9
BRANCH   4  19
HETATM   19  C13 UNL     1      16.354   0.390  52.192  1.00  0.00     0.150 C 
BRANCH  19  20
HETATM   20  O5  UNL     1      17.385  -0.086  52.847  1.00  0.00    -0.346 OA
ATOM     21  H5  UNL     1      18.240   0.281  52.653  1.00  0.00     0.219 HD
ENDBRANCH  19  20
BRANCH  19  22
HETATM   22  N4  UNL     1      16.196   1.761  52.420  1.00  0.00    -0.362 N 
ATOM     23  H4  UNL     1      16.946   2.392  52.138  1.00  0.00     0.162 HD
BRANCH  22  24
HETATM   24  C14 UNL     1      14.994   2.329  53.051  1.00  0.00     0.021 C 
HETATM   25  C15 UNL     1      14.595   1.547  54.280  1.00  0.00     0.037 C 
HETATM   26  C16 UNL     1      15.275   3.758  53.511  1.00  0.00     0.037 C 
HETATM   27  C17 UNL     1      13.857   2.410  52.067  1.00  0.00     0.037 C 
ENDBRANCH  22  24
ENDBRANCH  19  22
ENDBRANCH   4  19
BRANCH   1  28
HETATM   28  S1  UNL     1      13.054  -3.550  49.202  1.00  0.00     0.198 S 
HETATM   29  O1  UNL     1      12.545  -4.587  50.171  1.00  0.00    -0.218 OA
HETATM   30  O2  UNL     1      13.811  -4.260  48.137  1.00  0.00    -0.218 OA
BRANCH  28  31
HETATM   31  C4  UNL     1      11.652  -2.799  48.466  1.00  0.00     0.116 C 
HETATM   32  C2  UNL     1      10.662  -3.476  47.942  1.00  0.00    -0.076 C 
HETATM   33  C1  UNL     1       9.515  -2.750  47.341  1.00  0.00     0.043 C 
HETATM   34  C3  UNL     1      10.601  -4.965  47.907  1.00  0.00     0.043 C 
ENDBRANCH  28  31
ENDBRANCH   1  28
TORSDOF 12
ENDMDL
MODEL 2
REMARK VINA RESULT: -8.135639621      1.617      2.022
REMARK  12 active torsions:
REMARK  status: ('A' for Active; 'I' for Inactive)
REMARK    1  A    between atoms: C4_4  and  S1_5 
REMARK    2  A    between atoms: S1_5  and  C5_8 
REMARK    3  A    between atoms: C7_10  and  O3_11 
REMARK    4  A    between atoms: O3_11  and  C8_12 
REMARK    5  A    between atoms: C8_12  and  C9_13 
REMARK    6  A    between atoms: C9_13  and  C10_14 
REMARK    7  A    between atoms: C10_14  and  O4_15 
REMARK    8  A    between atoms: O4_15  and  N1_16 
REMARK    9  A    between atoms: C12_21  and  C13_22 
REMARK   10  A    between atoms: C13_22  and  O5_23 
REMARK   11  A    between atoms: C13_22  and  N4_25 
REMARK   12  A    between atoms: N4_25  and  C14_27 
ROOT
HETATM    1  C5  UNL     1      14.008  -2.361  50.068  1.00  0.00     0.088 A 
HETATM    2  C6  UNL     1      14.154  -2.419  51.434  1.00  0.00     0.063 A 
HETATM    3  C7  UNL     1      14.927  -1.506  52.100  1.00  0.00     0.085 A 
HETATM    4  C12 UNL     1      15.592  -0.484  51.387  1.00  0.00     0.055 A 
HETATM    5  C18 UNL     1      15.466  -0.400  50.041  1.00  0.00    -0.021 A 
HETATM    6  C19 UNL     1      16.097   0.670  49.231  1.00  0.00     0.051 C 
HETATM    7  C20 UNL     1      14.663  -1.358  49.405  1.00  0.00     0.062 A 
HETATM    8 CL1  UNL     1      14.533  -1.212  47.649  1.00  0.00    -0.082 Cl
ENDROOT
BRANCH   3   9
HETATM    9  O3  UNL     1      15.050  -1.598  53.478  1.00  0.00    -0.350 OA
BRANCH   9  10
HETATM   10  C8  UNL     1      13.929  -2.016  54.215  1.00  0.00     0.178 C 
BRANCH  10  11
HETATM   11  C9  UNL     1      14.195  -3.135  55.163  1.00  0.00     0.055 C 
BRANCH  11  12
HETATM   12  C10 UNL     1      13.658  -4.416  54.568  1.00  0.00     0.203 C 
BRANCH  12  13
HETATM   13  O4  UNL     1      12.323  -4.562  54.993  1.00  0.00    -0.278 OA
BRANCH  13  14
HETATM   14  N1  UNL     1      11.230  -4.427  54.203  1.00  0.00    -0.241 N 
HETATM   15  C11 UNL     1      10.703  -5.429  53.584  1.00  0.00     0.221 C 
HETATM   16  N2  UNL     1       9.557  -5.161  52.784  1.00  0.00    -0.065 NA
HETATM   17  N3  UNL     1      11.207  -6.746  53.668  1.00  0.00    -0.065 NA
ATOM     18  H1  UNL     1      10.810  -3.503  54.094  1.00  0.00     0.196 HD
ENDBRANCH  13  14
ENDBRANCH  12  13
ENDBRANCH  11  12
ENDBRANCH  10  11
ENDBRANCH   9  10
ENDBRANCH   3   9
BRANCH   4  19
HETATM   19  C13 UNL     1      16.350   0.423  52.190  1.00  0.00     0.150 C 
BRANCH  19  20
HETATM   20  O5  UNL     1      17.388  -0.052  52.835  1.00  0.00    -0.346 OA
ATOM     21  H5  UNL     1      17.704   0.436  53.585  1.00  0.00     0.219 HD
ENDBRANCH  19  20
BRANCH  19  22
HETATM   22  N4  UNL     1      16.190   1.792  52.426  1.00  0.00    -0.362 N 
ATOM     23  H4  UNL     1      16.939   2.426  52.151  1.00  0.00     0.162 HD
BRANCH  22  24
HETATM   24  C14 UNL     1      14.983   2.355  53.054  1.00  0.00     0.021 C 
HETATM   25  C15 UNL     1      14.600   1.584  54.296  1.00  0.00     0.037 C 
HETATM   26  C16 UNL     1      15.250   3.793  53.495  1.00  0.00     0.037 C 
HETATM   27  C17 UNL     1      13.841   2.409  52.075  1.00  0.00     0.037 C 
ENDBRANCH  22  24
ENDBRANCH  19  22
ENDBRANCH   4  19
BRANCH   1  28
HETATM   28  S1  UNL     1      13.033  -3.505  49.203  1.00  0.00     0.198 S 
HETATM   29  O1  UNL     1      12.512  -4.534  50.175  1.00  0.00    -0.218 OA
HETATM   30  O2  UNL     1      13.790  -4.226  48.144  1.00  0.00    -0.218 OA
BRANCH  28  31
HETATM   31  C4  UNL     1      11.641  -2.747  48.456  1.00  0.00     0.116 C 
HETATM   32  C2  UNL     1      10.647  -3.418  47.933  1.00  0.00    -0.076 C 
HETATM   33  C1  UNL     1       9.509  -2.686  47.322  1.00  0.00     0.043 C 
HETATM   34  C3  UNL     1      10.574  -4.907  47.906  1.00  0.00     0.043 C 
ENDBRANCH  28  31
ENDBRANCH   1  28
TORSDOF 12
ENDMDL
MODEL 3
REMARK VINA RESULT: -7.955895712      1.380      1.441
REMARK  12 active torsions:
REMARK  status: ('A' for Active; 'I' for Inactive)
REMARK    1  A    between atoms: C4_4  and  S1_5 
REMARK    2  A    between atoms: S1_5  and  C5_8 
REMARK    3  A    between atoms: C7_10  and  O3_11 
REMARK    4  A    between atoms: O3_11  and  C8_12 
REMARK    5  A    between atoms: C8_12  and  C9_13 
REMARK    6  A    between atoms: C9_13  and  C10_14 
REMARK    7  A    between atoms: C10_14  and  O4_15 
REMARK    8  A    between atoms: O4_15  and  N1_16 
REMARK    9  A    between atoms: C12_21  and  C13_22 
REMARK   10  A    between atoms: C13_22  and  O5_23 
REMARK   11  A    between atoms: C13_22  and  N4_25 
REMARK   12  A    between atoms: N4_25  and  C14_27 
ROOT
HETATM    1  C5  UNL     1      14.061  -2.336  50.061  1.00  0.00     0.088 A 
HETATM    2  C6  UNL     1      14.211  -2.378  51.426  1.00  0.00     0.063 A 
HETATM    3  C7  UNL     1      14.970  -1.446  52.082  1.00  0.00     0.085 A 
HETATM    4  C12 UNL     1      15.615  -0.420  51.359  1.00  0.00     0.055 A 
HETATM    5  C18 UNL     1      15.486  -0.350  50.012  1.00  0.00    -0.021 A 
HETATM    6  C19 UNL     1      16.096   0.722  49.190  1.00  0.00     0.051 C 
HETATM    7  C20 UNL     1      14.698  -1.329  49.387  1.00  0.00     0.062 A 
HETATM    8 CL1  UNL     1      14.562  -1.202  47.629  1.00  0.00    -0.082 Cl
ENDROOT
BRANCH   3   9
HETATM    9  O3  UNL     1      15.096  -1.523  53.461  1.00  0.00    -0.350 OA
BRANCH   9  10
HETATM   10  C8  UNL     1      14.030  -2.072  54.193  1.00  0.00     0.178 C 
BRANCH  10  11
HETATM   11  C9  UNL     1      14.412  -3.198  55.091  1.00  0.00     0.055 C 
BRANCH  11  12
HETATM   12  C10 UNL     1      13.272  -4.189  55.142  1.00  0.00     0.203 C 
BRANCH  12  13
HETATM   13  O4  UNL     1      12.940  -4.530  53.816  1.00  0.00    -0.278 OA
BRANCH  13  14
HETATM   14  N1  UNL     1      13.564  -5.475  53.070  1.00  0.00    -0.241 N 
HETATM   15  C11 UNL     1      13.130  -6.688  52.998  1.00  0.00     0.221 C 
HETATM   16  N2  UNL     1      13.872  -7.589  52.182  1.00  0.00    -0.065 NA
HETATM   17  N3  UNL     1      11.980  -7.144  53.678  1.00  0.00    -0.065 NA
ATOM     18  H1  UNL     1      14.403  -5.219  52.550  1.00  0.00     0.196 HD
ENDBRANCH  13  14
ENDBRANCH  12  13
ENDBRANCH  11  12
ENDBRANCH  10  11
ENDBRANCH   9  10
ENDBRANCH   3   9
BRANCH   4  19
HETATM   19  C13 UNL     1      16.359   0.508  52.151  1.00  0.00     0.150 C 
BRANCH  19  20
HETATM   20  O5  UNL     1      17.419   0.062  52.780  1.00  0.00    -0.346 OA
ATOM     21  H5  UNL     1      17.354  -0.070  53.719  1.00  0.00     0.219 HD
ENDBRANCH  19  20
BRANCH  19  22
HETATM   22  N4  UNL     1      16.163   1.872  52.391  1.00  0.00    -0.362 N 
ATOM     23  H4  UNL     1      16.905   2.524  52.137  1.00  0.00     0.162 HD
BRANCH  22  24
HETATM   24  C14 UNL     1      14.931   2.405  52.995  1.00  0.00     0.021 C 
HETATM   25  C15 UNL     1      14.539   1.622  54.227  1.00  0.00     0.037 C 
HETATM   26  C16 UNL     1      15.154   3.848  53.443  1.00  0.00     0.037 C 
HETATM   27  C17 UNL     1      13.809   2.434  51.992  1.00  0.00     0.037 C 
ENDBRANCH  22  24
ENDBRANCH  19  22
ENDBRANCH   4  19
BRANCH   1  28
HETATM   28  S1  UNL     1      13.105  -3.505  49.208  1.00  0.00     0.198 S 
HETATM   29  O1  UNL     1      12.617  -4.542  50.188  1.00  0.00    -0.218 OA
HETATM   30  O2  UNL     1      13.868  -4.212  48.145  1.00  0.00    -0.218 OA
BRANCH  28  31
HETATM   31  C4  UNL     1      11.688  -2.782  48.473  1.00  0.00     0.116 C 
HETATM   32  C2  UNL     1      10.709  -3.477  47.955  1.00  0.00    -0.076 C 
HETATM   33  C1  UNL     1       9.548  -2.773  47.353  1.00  0.00     0.043 C 
HETATM   34  C3  UNL     1      10.674  -4.967  47.925  1.00  0.00     0.043 C 
ENDBRANCH  28  31
ENDBRANCH   1  28
TORSDOF 12
ENDMDL
MODEL 4
REMARK VINA RESULT: -7.874185080      0.928      1.172
REMARK  12 active torsions:
REMARK  status: ('A' for Active; 'I' for Inactive)
REMARK    1  A    between atoms: C4_4  and  S1_5 
REMARK    2  A    between atoms: S1_5  and  C5_8 
REMARK    3  A    between atoms: C7_10  and  O3_11 
REMARK    4  A    between atoms: O3_11  and  C8_12 
REMARK    5  A    between atoms: C8_12  and  C9_13 
REMARK    6  A    between atoms: C9_13  and  C10_14 
REMARK    7  A    between atoms: C10_14  and  O4_15 
REMARK    8  A    between atoms: O4_15  and  N1_16 
REMARK    9  A    between atoms: C12_21  and  C13_22 
REMARK   10  A    between atoms: C13_22  and  O5_23 
REMARK   11  A    between atoms: C13_22  and  N4_25 
REMARK   12  A    between atoms: N4_25  and  C14_27 
ROOT
HETATM    1  C5  UNL     1      13.913  -2.051  49.868  1.00  0.00     0.088 A 
HETATM    2  C6  UNL     1      13.946  -2.155  51.238  1.00  0.00     0.063 A 
HETATM    3  C7  UNL     1      14.766  -1.354  51.987  1.00  0.00     0.085 A 
HETATM    4  C12 UNL     1      15.596  -0.401  51.356  1.00  0.00     0.055 A 
HETATM    5  C18 UNL     1      15.585  -0.273  50.007  1.00  0.00    -0.021 A 
HETATM    6  C19 UNL     1      16.394   0.732  49.279  1.00  0.00     0.051 C 
HETATM    7  C20 UNL     1      14.729  -1.118  49.286  1.00  0.00     0.062 A 
HETATM    8 CL1  UNL     1      14.751  -0.920  47.529  1.00  0.00    -0.082 Cl
ENDROOT
BRANCH   3   9
HETATM    9  O3  UNL     1      14.771  -1.489  53.367  1.00  0.00    -0.350 OA
BRANCH   9  10
HETATM   10  C8  UNL     1      15.028  -2.761  53.905  1.00  0.00     0.178 C 
BRANCH  10  11
HETATM   11  C9  UNL     1      13.964  -3.275  54.813  1.00  0.00     0.055 C 
BRANCH  11  12
HETATM   12  C10 UNL     1      13.370  -4.526  54.208  1.00  0.00     0.203 C 
BRANCH  12  13
HETATM   13  O4  UNL     1      13.537  -5.573  55.136  1.00  0.00    -0.278 OA
BRANCH  13  14
HETATM   14  N1  UNL     1      14.681  -5.848  55.810  1.00  0.00    -0.241 N 
HETATM   15  C11 UNL     1      14.950  -7.032  56.247  1.00  0.00     0.221 C 
HETATM   16  N2  UNL     1      16.183  -7.196  56.940  1.00  0.00    -0.065 NA
HETATM   17  N3  UNL     1      14.094  -8.141  56.068  1.00  0.00    -0.065 NA
ATOM     18  H1  UNL     1      15.349  -5.096  55.977  1.00  0.00     0.196 HD
ENDBRANCH  13  14
ENDBRANCH  12  13
ENDBRANCH  11  12
ENDBRANCH  10  11
ENDBRANCH   9  10
ENDBRANCH   3   9
BRANCH   4  19
HETATM   19  C13 UNL     1      16.389   0.394  52.240  1.00  0.00     0.150 C 
BRANCH  19  20
HETATM   20  O5  UNL     1      17.374  -0.195  52.874  1.00  0.00    -0.346 OA
ATOM     21  H5  UNL     1      17.694  -1.019  52.526  1.00  0.00     0.219 HD
ENDBRANCH  19  20
BRANCH  19  22
HETATM   22  N4  UNL     1      16.314   1.751  52.569  1.00  0.00    -0.362 N 
ATOM     23  H4  UNL     1      17.105   2.353  52.344  1.00  0.00     0.162 HD
BRANCH  22  24
HETATM   24  C14 UNL     1      15.139   2.345  53.229  1.00  0.00     0.021 C 
HETATM   25  C15 UNL     1      14.730   1.548  54.446  1.00  0.00     0.037 C 
HETATM   26  C16 UNL     1      15.474   3.753  53.717  1.00  0.00     0.037 C 
HETATM   27  C17 UNL     1      13.993   2.485  52.263  1.00  0.00     0.037 C 
ENDBRANCH  22  24
ENDBRANCH  19  22
ENDBRANCH   4  19
BRANCH   1  28
HETATM   28  S1  UNL     1      12.884  -3.055  48.898  1.00  0.00     0.198 S 
HETATM   29  O1  UNL     1      13.738  -4.042  48.143  1.00  0.00    -0.218 OA
HETATM   30  O2  UNL     1      12.095  -2.283  47.901  1.00  0.00    -0.218 OA
BRANCH  28  31
HETATM   31  C4  UNL     1      11.764  -3.984  49.877  1.00  0.00     0.116 C 
HETATM   32  C2  UNL     1      11.007  -4.936  49.399  1.00  0.00    -0.076 C 
HETATM   33  C1  UNL     1      10.089  -5.668  50.308  1.00  0.00     0.043 C 
HETATM   34  C3  UNL     1      10.999  -5.352  47.967  1.00  0.00     0.043 C 
ENDBRANCH  28  31
ENDBRANCH   1  28
TORSDOF 12
ENDMDL
MODEL 5
REMARK VINA RESULT: -7.824633302      3.236      6.437
REMARK  12 active torsions:
REMARK  status: ('A' for Active; 'I' for Inactive)
REMARK    1  A    between atoms: C4_4  and  S1_5 
REMARK    2  A    between atoms: S1_5  and  C5_8 
REMARK    3  A    between atoms: C7_10  and  O3_11 
REMARK    4  A    between atoms: O3_11  and  C8_12 
REMARK    5  A    between atoms: C8_12  and  C9_13 
REMARK    6  A    between atoms: C9_13  and  C10_14 
REMARK    7  A    between atoms: C10_14  and  O4_15 
REMARK    8  A    between atoms: O4_15  and  N1_16 
REMARK    9  A    between atoms: C12_21  and  C13_22 
REMARK   10  A    between atoms: C13_22  and  O5_23 
REMARK   11  A    between atoms: C13_22  and  N4_25 
REMARK   12  A    between atoms: N4_25  and  C14_27 
ROOT
HETATM    1  C5  UNL     1      13.528  -2.063  49.833  1.00  0.00     0.088 A 
HETATM    2  C6  UNL     1      13.209  -0.784  50.222  1.00  0.00     0.063 A 
HETATM    3  C7  UNL     1      13.234  -0.420  51.542  1.00  0.00     0.085 A 
HETATM    4  C12 UNL     1      13.591  -1.362  52.531  1.00  0.00     0.055 A 
HETATM    5  C18 UNL     1      13.912  -2.630  52.180  1.00  0.00    -0.021 A 
HETATM    6  C19 UNL     1      14.339  -3.661  53.156  1.00  0.00     0.051 C 
HETATM    7  C20 UNL     1      13.871  -2.953  50.815  1.00  0.00     0.062 A 
HETATM    8 CL1  UNL     1      14.293  -4.620  50.405  1.00  0.00    -0.082 Cl
ENDROOT
BRANCH   3   9
HETATM    9  O3  UNL     1      12.905   0.881  51.893  1.00  0.00    -0.350 OA
BRANCH   9  10
HETATM   10  C8  UNL     1      13.758   1.914  51.474  1.00  0.00     0.178 C 
BRANCH  10  11
HETATM   11  C9  UNL     1      13.463   3.244  52.079  1.00  0.00     0.055 C 
BRANCH  11  12
HETATM   12  C10 UNL     1      14.425   3.486  53.219  1.00  0.00     0.203 C 
BRANCH  12  13
HETATM   13  O4  UNL     1      14.037   4.677  53.863  1.00  0.00    -0.278 OA
BRANCH  13  14
HETATM   14  N1  UNL     1      14.822   5.771  54.027  1.00  0.00    -0.241 N 
HETATM   15  C11 UNL     1      14.726   6.804  53.260  1.00  0.00     0.221 C 
HETATM   16  N2  UNL     1      15.605   7.891  53.532  1.00  0.00    -0.065 NA
HETATM   17  N3  UNL     1      13.809   6.896  52.190  1.00  0.00    -0.065 NA
ATOM     18  H1  UNL     1      15.509   5.777  54.781  1.00  0.00     0.196 HD
ENDBRANCH  13  14
ENDBRANCH  12  13
ENDBRANCH  11  12
ENDBRANCH  10  11
ENDBRANCH   9  10
ENDBRANCH   3   9
BRANCH   4  19
HETATM   19  C13 UNL     1      13.605  -0.862  53.870  1.00  0.00     0.150 C 
BRANCH  19  20
HETATM   20  O5  UNL     1      12.788  -1.412  54.735  1.00  0.00    -0.346 OA
ATOM     21  H5  UNL     1      12.261  -0.835  55.275  1.00  0.00     0.219 HD
ENDBRANCH  19  20
BRANCH  19  22
HETATM   22  N4  UNL     1      14.367   0.149  54.463  1.00  0.00    -0.362 N 
ATOM     23  H4  UNL     1      13.885   0.957  54.856  1.00  0.00     0.162 HD
BRANCH  22  24
HETATM   24  C14 UNL     1      15.836   0.095  54.542  1.00  0.00     0.021 C 
HETATM   25  C15 UNL     1      16.472   0.454  53.219  1.00  0.00     0.037 C 
HETATM   26  C16 UNL     1      16.339   1.115  55.562  1.00  0.00     0.037 C 
HETATM   27  C17 UNL     1      16.301  -1.255  55.018  1.00  0.00     0.037 C 
ENDBRANCH  22  24
ENDBRANCH  19  22
ENDBRANCH   4  19
BRANCH   1  28
HETATM   28  S1  UNL     1      13.504  -2.547  48.168  1.00  0.00     0.198 S 
HETATM   29  O1  UNL     1      13.639  -4.047  48.096  1.00  0.00    -0.218 OA
HETATM   30  O2  UNL     1      14.614  -1.954  47.377  1.00  0.00    -0.218 OA
BRANCH  28  31
HETATM   31  C4  UNL     1      11.992  -2.127  47.386  1.00  0.00     0.116 C 
HETATM   32  C2  UNL     1      10.840  -2.652  47.713  1.00  0.00    -0.076 C 
HETATM   33  C1  UNL     1       9.612  -2.231  46.992  1.00  0.00     0.043 C 
HETATM   34  C3  UNL     1      10.667  -3.669  48.789  1.00  0.00     0.043 C 
ENDBRANCH  28  31
ENDBRANCH   1  28
TORSDOF 12
ENDMDL
