MODEL 1
REMARK VINA RESULT: -6.936299869      0.000      0.000
REMARK  8 active torsions:
REMARK  status: ('A' for Active; 'I' for Inactive)
REMARK    1  A    between atoms: C2_2  and  C4_4 
REMARK    2  A    between atoms: C6_6  and  O1_7 
REMARK    3  A    between atoms: C8_11  and  O2_12 
REMARK    4  A    between atoms: C11_16  and  C12_17 
REMARK    5  A    between atoms: C12_17  and  C14_19 
REMARK    6  A    between atoms: C14_19  and  C15_20 
REMARK    7  A    between atoms: C15_20  and  C16_21 
REMARK    8  A    between atoms: C16_21  and  C18_23 
ROOT
HETATM    1  C4  UNL     1      13.701  -6.000  -5.315  1.00  0.00     0.032 C 
HETATM    2  C5  UNL     1      15.132  -5.353  -5.381  1.00  0.00     0.045 C 
HETATM    3  C6  UNL     1      16.046  -6.559  -5.523  1.00  0.00     0.162 C 
HETATM    4  C7  UNL     1      15.353  -7.712  -4.901  1.00  0.00     0.166 C 
HETATM    5  F1  UNL     1      16.129  -8.062  -3.772  1.00  0.00    -0.236 F 
HETATM    6  C8  UNL     1      15.271  -8.967  -5.668  1.00  0.00     0.162 C 
HETATM    7  C9  UNL     1      14.350  -9.952  -5.043  1.00  0.00     0.039 C 
HETATM    8  C10 UNL     1      13.671  -9.464  -3.765  1.00  0.00     0.038 C 
HETATM    9  C11 UNL     1      13.019  -8.155  -4.106  1.00  0.00    -0.062 C 
HETATM   10  C21 UNL     1      13.997  -7.127  -4.448  1.00  0.00     0.029 C 
HETATM   11  C22 UNL     1      14.444  -6.443  -3.105  1.00  0.00     0.024 C 
ENDROOT
BRANCH   9  12
HETATM   12  C12 UNL     1      11.886  -7.885  -3.240  1.00  0.00    -0.064 C 
HETATM   13  C13 UNL     1      11.724  -8.051  -1.946  1.00  0.00     0.019 C 
BRANCH  12  14
HETATM   14  C14 UNL     1      10.663  -7.263  -3.885  1.00  0.00     0.039 C 
BRANCH  14  15
HETATM   15  C15 UNL     1       9.699  -8.345  -4.197  1.00  0.00     0.015 C 
BRANCH  15  16
HETATM   16  C16 UNL     1       9.274  -8.362  -5.653  1.00  0.00     0.034 C 
HETATM   17  C17 UNL     1      10.099  -9.441  -6.335  1.00  0.00     0.016 C 
BRANCH  16  18
HETATM   18  C18 UNL     1       7.846  -8.747  -5.808  1.00  0.00     0.036 A 
HETATM   19  C19 UNL     1       7.207  -9.220  -6.927  1.00  0.00     0.168 A 
HETATM   20  O3  UNL     1       5.947  -9.438  -6.642  1.00  0.00    -0.316 OA
HETATM   21  C20 UNL     1       5.731  -9.133  -5.401  1.00  0.00     0.233 A 
HETATM   22  N1  UNL     1       6.881  -8.700  -4.847  1.00  0.00    -0.348 N 
ATOM     23  H1  UNL     1       7.006  -8.393  -3.883  1.00  0.00     0.167 HD
ENDBRANCH  16  18
ENDBRANCH  15  16
ENDBRANCH  14  15
ENDBRANCH  12  14
ENDBRANCH   9  12
BRANCH   1  24
HETATM   24  C2  UNL     1      13.113  -5.979  -6.603  1.00  0.00    -0.088 C 
HETATM   25  C1  UNL     1      12.796  -6.904  -7.440  1.00  0.00     0.014 C 
HETATM   26  C3  UNL     1      12.757  -4.572  -7.109  1.00  0.00     0.043 C 
ENDBRANCH   1  24
BRANCH   6  27
HETATM   27  O2  UNL     1      16.552  -9.571  -5.621  1.00  0.00    -0.392 OA
ATOM     28  H2  UNL     1      16.577 -10.117  -4.844  1.00  0.00     0.210 HD
ENDBRANCH   6  27
BRANCH   3  29
HETATM   29  O1  UNL     1      16.476  -6.753  -6.824  1.00  0.00    -0.392 OA
ATOM     30  H1  UNL     1      17.286  -6.294  -7.015  1.00  0.00     0.210 HD
ENDBRANCH   3  29
TORSDOF 8
ENDMDL
MODEL 2
REMARK VINA RESULT: -6.882140186      2.897      4.090
REMARK  8 active torsions:
REMARK  status: ('A' for Active; 'I' for Inactive)
REMARK    1  A    between atoms: C2_2  and  C4_4 
REMARK    2  A    between atoms: C6_6  and  O1_7 
REMARK    3  A    between atoms: C8_11  and  O2_12 
REMARK    4  A    between atoms: C11_16  and  C12_17 
REMARK    5  A    between atoms: C12_17  and  C14_19 
REMARK    6  A    between atoms: C14_19  and  C15_20 
REMARK    7  A    between atoms: C15_20  and  C16_21 
REMARK    8  A    between atoms: C16_21  and  C18_23 
ROOT
HETATM    1  C4  UNL     1      13.895  -5.945  -5.590  1.00  0.00     0.032 C 
HETATM    2  C5  UNL     1      15.318  -5.291  -5.454  1.00  0.00     0.045 C 
HETATM    3  C6  UNL     1      16.250  -6.491  -5.466  1.00  0.00     0.162 C 
HETATM    4  C7  UNL     1      15.482  -7.648  -4.948  1.00  0.00     0.166 C 
HETATM    5  F1  UNL     1      16.093  -7.996  -3.721  1.00  0.00    -0.236 F 
HETATM    6  C8  UNL     1      15.516  -8.903  -5.719  1.00  0.00     0.162 C 
HETATM    7  C9  UNL     1      14.522  -9.894  -5.231  1.00  0.00     0.039 C 
HETATM    8  C10 UNL     1      13.667  -9.411  -4.060  1.00  0.00     0.038 C 
HETATM    9  C11 UNL     1      13.062  -8.105  -4.490  1.00  0.00    -0.062 C 
HETATM   10  C21 UNL     1      14.072  -7.072  -4.690  1.00  0.00     0.029 C 
HETATM   11  C22 UNL     1      14.322  -6.386  -3.298  1.00  0.00     0.024 C 
ENDROOT
BRANCH   9  12
HETATM   12  C12 UNL     1      11.817  -7.842  -3.792  1.00  0.00    -0.064 C 
HETATM   13  C13 UNL     1      10.621  -7.526  -4.240  1.00  0.00     0.019 C 
BRANCH  12  14
HETATM   14  C14 UNL     1      11.835  -7.980  -2.283  1.00  0.00     0.039 C 
BRANCH  14  15
HETATM   15  C15 UNL     1      10.752  -7.136  -1.724  1.00  0.00     0.015 C 
BRANCH  15  16
HETATM   16  C16 UNL     1      11.027  -6.677  -0.305  1.00  0.00     0.034 C 
HETATM   17  C17 UNL     1      12.467  -6.188  -0.277  1.00  0.00     0.016 C 
BRANCH  16  18
HETATM   18  C18 UNL     1      10.171  -5.523   0.080  1.00  0.00     0.036 A 
HETATM   19  C19 UNL     1       9.177  -4.919  -0.648  1.00  0.00     0.168 A 
HETATM   20  O3  UNL     1       8.668  -3.936   0.054  1.00  0.00    -0.316 OA
HETATM   21  C20 UNL     1       9.276  -3.868   1.196  1.00  0.00     0.233 A 
HETATM   22  N1  UNL     1      10.215  -4.833   1.254  1.00  0.00    -0.348 N 
ATOM     23  H1  UNL     1      10.846  -5.013   2.035  1.00  0.00     0.167 HD
ENDBRANCH  16  18
ENDBRANCH  15  16
ENDBRANCH  14  15
ENDBRANCH  12  14
ENDBRANCH   9  12
BRANCH   1  24
HETATM   24  C2  UNL     1      13.495  -5.926  -6.949  1.00  0.00    -0.088 C 
HETATM   25  C1  UNL     1      13.560  -6.794  -7.896  1.00  0.00     0.014 C 
HETATM   26  C3  UNL     1      12.826  -4.614  -7.388  1.00  0.00     0.043 C 
ENDBRANCH   1  24
BRANCH   6  27
HETATM   27  O2  UNL     1      16.781  -9.500  -5.492  1.00  0.00    -0.392 OA
ATOM     28  H2  UNL     1      16.625 -10.402  -5.241  1.00  0.00     0.210 HD
ENDBRANCH   6  27
BRANCH   3  29
HETATM   29  O1  UNL     1      16.859  -6.682  -6.693  1.00  0.00    -0.392 OA
ATOM     30  H1  UNL     1      17.777  -6.433  -6.690  1.00  0.00     0.210 HD
ENDBRANCH   3  29
TORSDOF 8
ENDMDL
MODEL 3
REMARK VINA RESULT: -6.782919042      3.073      4.915
REMARK  8 active torsions:
REMARK  status: ('A' for Active; 'I' for Inactive)
REMARK    1  A    between atoms: C2_2  and  C4_4 
REMARK    2  A    between atoms: C6_6  and  O1_7 
REMARK    3  A    between atoms: C8_11  and  O2_12 
REMARK    4  A    between atoms: C11_16  and  C12_17 
REMARK    5  A    between atoms: C12_17  and  C14_19 
REMARK    6  A    between atoms: C14_19  and  C15_20 
REMARK    7  A    between atoms: C15_20  and  C16_21 
REMARK    8  A    between atoms: C16_21  and  C18_23 
ROOT
HETATM    1  C4  UNL     1      14.737  -7.890  -4.577  1.00  0.00     0.032 C 
HETATM    2  C5  UNL     1      15.758  -8.540  -5.580  1.00  0.00     0.045 C 
HETATM    3  C6  UNL     1      15.553  -7.732  -6.850  1.00  0.00     0.162 C 
HETATM    4  C7  UNL     1      14.162  -7.219  -6.824  1.00  0.00     0.166 C 
HETATM    5  F1  UNL     1      13.496  -7.864  -7.893  1.00  0.00    -0.236 F 
HETATM    6  C8  UNL     1      13.947  -5.787  -7.097  1.00  0.00     0.162 C 
HETATM    7  C9  UNL     1      12.555  -5.358  -6.801  1.00  0.00     0.039 C 
HETATM    8  C10 UNL     1      11.650  -6.466  -6.266  1.00  0.00     0.038 C 
HETATM    9  C11 UNL     1      12.365  -7.062  -5.087  1.00  0.00    -0.062 C 
HETATM   10  C21 UNL     1      13.606  -7.724  -5.475  1.00  0.00     0.029 C 
HETATM   11  C22 UNL     1      13.245  -9.199  -5.878  1.00  0.00     0.024 C 
ENDROOT
BRANCH   9  12
HETATM   12  C12 UNL     1      11.433  -7.660  -4.148  1.00  0.00    -0.064 C 
HETATM   13  C13 UNL     1      10.158  -7.961  -4.263  1.00  0.00     0.019 C 
BRANCH  12  14
HETATM   14  C14 UNL     1      11.988  -8.064  -2.796  1.00  0.00     0.039 C 
BRANCH  14  15
HETATM   15  C15 UNL     1      10.953  -7.798  -1.768  1.00  0.00     0.015 C 
BRANCH  15  16
HETATM   16  C16 UNL     1      11.481  -7.018  -0.580  1.00  0.00     0.034 C 
HETATM   17  C17 UNL     1      12.829  -6.450  -0.995  1.00  0.00     0.016 C 
BRANCH  16  18
HETATM   18  C18 UNL     1      10.609  -5.861  -0.245  1.00  0.00     0.036 A 
HETATM   19  C19 UNL     1       9.604  -5.306  -0.996  1.00  0.00     0.168 A 
HETATM   20  O3  UNL     1       9.082  -4.300  -0.338  1.00  0.00    -0.316 OA
HETATM   21  C20 UNL     1       9.692  -4.171   0.798  1.00  0.00     0.233 A 
HETATM   22  N1  UNL     1      10.646  -5.118   0.896  1.00  0.00    -0.348 N 
ATOM     23  H1  UNL     1      11.281  -5.254   1.683  1.00  0.00     0.167 HD
ENDBRANCH  16  18
ENDBRANCH  15  16
ENDBRANCH  14  15
ENDBRANCH  12  14
ENDBRANCH   9  12
BRANCH   1  24
HETATM   24  C2  UNL     1      15.406  -6.932  -3.777  1.00  0.00    -0.088 C 
HETATM   25  C1  UNL     1      15.534  -5.655  -3.859  1.00  0.00     0.014 C 
HETATM   26  C3  UNL     1      16.109  -7.523  -2.545  1.00  0.00     0.043 C 
ENDBRANCH   1  24
BRANCH   6  27
HETATM   27  O2  UNL     1      14.109  -5.597  -8.492  1.00  0.00    -0.392 OA
ATOM     28  H2  UNL     1      13.310  -5.198  -8.815  1.00  0.00     0.210 HD
ENDBRANCH   6  27
BRANCH   3  29
HETATM   29  O1  UNL     1      16.536  -6.777  -7.041  1.00  0.00    -0.392 OA
ATOM     30  H1  UNL     1      16.436  -6.306  -7.860  1.00  0.00     0.210 HD
ENDBRANCH   3  29
TORSDOF 8
ENDMDL
MODEL 4
REMARK VINA RESULT: -6.675452166      3.054      5.146
REMARK  8 active torsions:
REMARK  status: ('A' for Active; 'I' for Inactive)
REMARK    1  A    between atoms: C2_2  and  C4_4 
REMARK    2  A    between atoms: C6_6  and  O1_7 
REMARK    3  A    between atoms: C8_11  and  O2_12 
REMARK    4  A    between atoms: C11_16  and  C12_17 
REMARK    5  A    between atoms: C12_17  and  C14_19 
REMARK    6  A    between atoms: C14_19  and  C15_20 
REMARK    7  A    between atoms: C15_20  and  C16_21 
REMARK    8  A    between atoms: C16_21  and  C18_23 
ROOT
HETATM    1  C4  UNL     1      13.578  -9.532  -5.345  1.00  0.00     0.032 C 
HETATM    2  C5  UNL     1      14.314 -10.185  -6.570  1.00  0.00     0.045 C 
HETATM    3  C6  UNL     1      14.740  -8.983  -7.396  1.00  0.00     0.162 C 
HETATM    4  C7  UNL     1      13.786  -7.888  -7.101  1.00  0.00     0.166 C 
HETATM    5  F1  UNL     1      13.083  -7.657  -8.307  1.00  0.00    -0.236 F 
HETATM    6  C8  UNL     1      14.334  -6.563  -6.762  1.00  0.00     0.162 C 
HETATM    7  C9  UNL     1      13.293  -5.632  -6.255  1.00  0.00     0.039 C 
HETATM    8  C10 UNL     1      11.891  -6.234  -6.172  1.00  0.00     0.038 C 
HETATM    9  C11 UNL     1      12.021  -7.496  -5.368  1.00  0.00    -0.062 C 
HETATM   10  C21 UNL     1      12.837  -8.497  -6.046  1.00  0.00     0.029 C 
HETATM   11  C22 UNL     1      11.885  -9.314  -6.993  1.00  0.00     0.024 C 
ENDROOT
BRANCH   9  12
HETATM   12  C12 UNL     1      10.773  -7.836  -4.709  1.00  0.00    -0.064 C 
HETATM   13  C13 UNL     1       9.547  -7.945  -5.174  1.00  0.00     0.019 C 
BRANCH  12  14
HETATM   14  C14 UNL     1      10.847  -8.173  -3.233  1.00  0.00     0.039 C 
BRANCH  14  15
HETATM   15  C15 UNL     1      11.562  -7.076  -2.539  1.00  0.00     0.015 C 
BRANCH  15  16
HETATM   16  C16 UNL     1      11.378  -7.104  -1.033  1.00  0.00     0.034 C 
HETATM   17  C17 UNL     1      12.768  -7.025  -0.423  1.00  0.00     0.016 C 
BRANCH  16  18
HETATM   18  C18 UNL     1      10.623  -5.919  -0.546  1.00  0.00     0.036 A 
HETATM   19  C19 UNL     1      10.930  -5.083   0.498  1.00  0.00     0.168 A 
HETATM   20  O3  UNL     1      10.005  -4.161   0.596  1.00  0.00    -0.316 OA
HETATM   21  C20 UNL     1       9.114  -4.351  -0.326  1.00  0.00     0.233 A 
HETATM   22  N1  UNL     1       9.458  -5.430  -1.056  1.00  0.00    -0.348 N 
ATOM     23  H1  UNL     1       8.940  -5.812  -1.847  1.00  0.00     0.167 HD
ENDBRANCH  16  18
ENDBRANCH  15  16
ENDBRANCH  14  15
ENDBRANCH  12  14
ENDBRANCH   9  12
BRANCH   1  24
HETATM   24  C2  UNL     1      14.479  -9.421  -4.257  1.00  0.00    -0.088 C 
HETATM   25  C1  UNL     1      14.706  -8.492  -3.397  1.00  0.00     0.014 C 
HETATM   26  C3  UNL     1      15.353 -10.665  -4.037  1.00  0.00     0.043 C 
ENDBRANCH   1  24
BRANCH   6  27
HETATM   27  O2  UNL     1      14.801  -5.981  -7.967  1.00  0.00    -0.392 OA
ATOM     28  H2  UNL     1      14.037  -5.759  -8.486  1.00  0.00     0.210 HD
ENDBRANCH   6  27
BRANCH   3  29
HETATM   29  O1  UNL     1      16.078  -8.668  -7.229  1.00  0.00    -0.392 OA
ATOM     30  H1  UNL     1      16.470  -9.113  -6.487  1.00  0.00     0.210 HD
ENDBRANCH   3  29
TORSDOF 8
ENDMDL
MODEL 5
REMARK VINA RESULT: -6.549184987      3.377      4.773
REMARK  8 active torsions:
REMARK  status: ('A' for Active; 'I' for Inactive)
REMARK    1  A    between atoms: C2_2  and  C4_4 
REMARK    2  A    between atoms: C6_6  and  O1_7 
REMARK    3  A    between atoms: C8_11  and  O2_12 
REMARK    4  A    between atoms: C11_16  and  C12_17 
REMARK    5  A    between atoms: C12_17  and  C14_19 
REMARK    6  A    between atoms: C14_19  and  C15_20 
REMARK    7  A    between atoms: C15_20  and  C16_21 
REMARK    8  A    between atoms: C16_21  and  C18_23 
ROOT
HETATM    1  C4  UNL     1      11.679  -7.429  -5.311  1.00  0.00     0.032 C 
HETATM    2  C5  UNL     1      12.073  -6.783  -6.688  1.00  0.00     0.045 C 
HETATM    3  C6  UNL     1      13.227  -7.653  -7.158  1.00  0.00     0.162 C 
HETATM    4  C7  UNL     1      13.869  -8.221  -5.949  1.00  0.00     0.166 C 
HETATM    5  F1  UNL     1      15.163  -7.650  -5.898  1.00  0.00    -0.236 F 
HETATM    6  C8  UNL     1      14.129  -9.670  -5.918  1.00  0.00     0.162 C 
HETATM    7  C9  UNL     1      14.544 -10.142  -4.571  1.00  0.00     0.039 C 
HETATM    8  C10 UNL     1      14.598  -9.049  -3.505  1.00  0.00     0.038 C 
HETATM    9  C11 UNL     1      13.256  -8.374  -3.525  1.00  0.00    -0.062 C 
HETATM   10  C21 UNL     1      13.010  -7.681  -4.784  1.00  0.00     0.029 C 
HETATM   11  C22 UNL     1      13.624  -6.240  -4.654  1.00  0.00     0.024 C 
ENDROOT
BRANCH   9  12
HETATM   12  C12 UNL     1      12.945  -7.774  -2.240  1.00  0.00    -0.064 C 
HETATM   13  C13 UNL     1      13.695  -7.109  -1.388  1.00  0.00     0.019 C 
BRANCH  12  14
HETATM   14  C14 UNL     1      11.506  -7.868  -1.771  1.00  0.00     0.039 C 
BRANCH  14  15
HETATM   15  C15 UNL     1      11.313  -6.902  -0.663  1.00  0.00     0.015 C 
BRANCH  15  16
HETATM   16  C16 UNL     1      10.521  -5.675  -1.075  1.00  0.00     0.034 C 
HETATM   17  C17 UNL     1       9.358  -6.171  -1.919  1.00  0.00     0.016 C 
BRANCH  16  18
HETATM   18  C18 UNL     1       9.935  -4.975   0.099  1.00  0.00     0.036 A 
HETATM   19  C19 UNL     1      10.572  -4.521   1.226  1.00  0.00     0.168 A 
HETATM   20  O3  UNL     1       9.693  -3.960   2.020  1.00  0.00    -0.316 OA
HETATM   21  C20 UNL     1       8.521  -4.024   1.471  1.00  0.00     0.233 A 
HETATM   22  N1  UNL     1       8.625  -4.646   0.280  1.00  0.00    -0.348 N 
ATOM     23  H1  UNL     1       7.862  -4.836  -0.368  1.00  0.00     0.167 HD
ENDBRANCH  16  18
ENDBRANCH  15  16
ENDBRANCH  14  15
ENDBRANCH  12  14
ENDBRANCH   9  12
BRANCH   1  24
HETATM   24  C2  UNL     1      10.597  -8.324  -5.501  1.00  0.00    -0.088 C 
HETATM   25  C1  UNL     1      10.433  -9.358  -6.249  1.00  0.00     0.014 C 
HETATM   26  C3  UNL     1       9.370  -8.021  -4.627  1.00  0.00     0.043 C 
ENDBRANCH   1  24
BRANCH   6  27
HETATM   27  O2  UNL     1      15.243  -9.915  -6.759  1.00  0.00    -0.392 OA
ATOM     28  H2  UNL     1      16.015  -9.609  -6.299  1.00  0.00     0.210 HD
ENDBRANCH   6  27
BRANCH   3  29
HETATM   29  O1  UNL     1      12.845  -8.574  -8.117  1.00  0.00    -0.392 OA
ATOM     30  H1  UNL     1      13.294  -8.449  -8.945  1.00  0.00     0.210 HD
ENDBRANCH   3  29
TORSDOF 8
ENDMDL
