MODEL 1
REMARK VINA RESULT: -7.323359172      0.000      0.000
REMARK  11 active torsions:
REMARK  status: ('A' for Active; 'I' for Inactive)
REMARK    1  A    between atoms: C2_2  and  O1_3 
REMARK    2  A    between atoms: C2_2  and  C8_27 
REMARK    3  A    between atoms: C2_2  and  C9_30 
REMARK    4  A    between atoms: O1_3  and  N1_4 
REMARK    5  A    between atoms: N1_4  and  C3_6 
REMARK    6  A    between atoms: C3_6  and  N2_7 
REMARK    7  A    between atoms: C3_6  and  C6_20 
REMARK       I    between atoms: N2_7  and  C4_9 
REMARK    8  A    between atoms: C4_9  and  C5_11 
REMARK    9  A    between atoms: C5_11  and  N3_12 
REMARK   10  A    between atoms: C5_11  and  N4_16 
REMARK   11  A    between atoms: C7_22  and  S1_23 
REMARK       I    between atoms: C9_30  and  N5_32 
ROOT
HETATM    1  C3  UNL     1      -1.524   0.197  25.714  1.00  0.00     0.252 C 
ENDROOT
BRANCH   1   2
HETATM    2  N1  UNL     1      -0.925   0.887  26.750  1.00  0.00    -0.272 N 
ATOM      3  H1  UNL     1      -0.406   0.273  27.377  1.00  0.00     0.190 HD
BRANCH   2   4
HETATM    4  O1  UNL     1      -0.869   2.069  27.097  1.00  0.00    -0.251 OA
BRANCH   4   5
HETATM    5  C2  UNL     1      -1.661   2.787  27.953  1.00  0.00     0.251 C 
HETATM    6  C1  UNL     1      -2.426   3.873  27.276  1.00  0.00     0.071 C 
BRANCH   5   7
HETATM    7  C8  UNL     1      -2.430   1.865  28.804  1.00  0.00     0.221 C 
HETATM    8  O6  UNL     1      -3.683   1.734  28.528  1.00  0.00    -0.645 OA
HETATM    9  O7  UNL     1      -1.909   1.139  29.869  1.00  0.00    -0.645 OA
ENDBRANCH   5   7
BRANCH   5  10
HETATM   10  C9  UNL     1      -0.733   3.498  28.934  1.00  0.00     0.268 C 
HETATM   11  O8  UNL     1       0.517   3.207  28.750  1.00  0.00    -0.269 OA
HETATM   12  N5  UNL     1      -1.078   4.379  29.948  1.00  0.00    -0.342 N 
HETATM   13  C10 UNL     1      -2.359   4.868  30.342  1.00  0.00     0.127 C 
HETATM   14  C14 UNL     1       0.035   4.934  30.800  1.00  0.00     0.204 C 
HETATM   15  C11 UNL     1      -2.257   6.308  30.913  1.00  0.00     0.027 C 
HETATM   16  C12 UNL     1      -1.630   6.139  32.299  1.00  0.00     0.081 C 
HETATM   17  C13 UNL     1      -0.544   5.119  32.153  1.00  0.00     0.144 C 
HETATM   18  O9  UNL     1      -0.181   4.489  33.128  1.00  0.00    -0.296 OA
ENDBRANCH   5  10
ENDBRANCH   4   5
ENDBRANCH   2   4
ENDBRANCH   1   2
BRANCH   1  19
HETATM   19  N2  UNL     1      -2.940  -0.088  25.779  1.00  0.00    -0.330 N 
HETATM   20  C4  UNL     1      -3.453  -1.052  26.705  1.00  0.00     0.277 C 
HETATM   21  O2  UNL     1      -2.648  -1.647  27.461  1.00  0.00    -0.269 OA
ATOM     22  H2  UNL     1      -3.582   0.405  25.158  1.00  0.00     0.165 HD
BRANCH  20  23
HETATM   23  C5  UNL     1      -4.878  -1.380  26.815  1.00  0.00     0.468 C 
BRANCH  23  24
HETATM   24  N3  UNL     1      -5.463  -1.213  25.481  1.00  0.00    -0.042 N 
ATOM     25  H33 UNL     1      -6.052  -0.385  25.404  1.00  0.00     0.277 HD
ATOM     26  H32 UNL     1      -4.777  -0.951  24.772  1.00  0.00     0.277 HD
ATOM     27  H31 UNL     1      -5.957  -2.077  25.260  1.00  0.00     0.277 HD
ENDBRANCH  23  24
BRANCH  23  28
HETATM   28  N4  UNL     1      -5.572  -0.523  27.780  1.00  0.00    -0.042 N 
ATOM     29  H43 UNL     1      -4.970   0.234  28.102  1.00  0.00     0.277 HD
ATOM     30  H42 UNL     1      -6.300   0.029  27.326  1.00  0.00     0.277 HD
ATOM     31  H41 UNL     1      -5.949  -1.053  28.566  1.00  0.00     0.277 HD
ENDBRANCH  23  28
ENDBRANCH  20  23
ENDBRANCH   1  19
BRANCH   1  32
HETATM   32  C6  UNL     1      -1.371   1.076  24.455  1.00  0.00     0.069 C 
HETATM   33 CL1  UNL     1      -2.628   2.246  24.114  1.00  0.00    -0.084 Cl
HETATM   34  C7  UNL     1      -0.339   0.953  23.670  1.00  0.00     0.157 C 
BRANCH  34  35
HETATM   35  S1  UNL     1      -0.097   1.913  22.228  1.00  0.00     0.128 S 
HETATM   36  O3  UNL     1       1.105   1.381  21.492  1.00  0.00    -0.592 OA
HETATM   37  O4  UNL     1       0.125   3.343  22.633  1.00  0.00    -0.592 OA
HETATM   38  O5  UNL     1      -1.489   1.774  21.287  1.00  0.00    -0.592 OA
ENDBRANCH  34  35
ENDBRANCH   1  32
TORSDOF 11
ENDMDL
MODEL 2
REMARK VINA RESULT: -7.306124523      4.418      7.607
REMARK  11 active torsions:
REMARK  status: ('A' for Active; 'I' for Inactive)
REMARK    1  A    between atoms: C2_2  and  O1_3 
REMARK    2  A    between atoms: C2_2  and  C8_27 
REMARK    3  A    between atoms: C2_2  and  C9_30 
REMARK    4  A    between atoms: O1_3  and  N1_4 
REMARK    5  A    between atoms: N1_4  and  C3_6 
REMARK    6  A    between atoms: C3_6  and  N2_7 
REMARK    7  A    between atoms: C3_6  and  C6_20 
REMARK       I    between atoms: N2_7  and  C4_9 
REMARK    8  A    between atoms: C4_9  and  C5_11 
REMARK    9  A    between atoms: C5_11  and  N3_12 
REMARK   10  A    between atoms: C5_11  and  N4_16 
REMARK   11  A    between atoms: C7_22  and  S1_23 
REMARK       I    between atoms: C9_30  and  N5_32 
ROOT
HETATM    1  C3  UNL     1      -4.300   0.246  25.321  1.00  0.00     0.252 C 
ENDROOT
BRANCH   1   2
HETATM    2  N1  UNL     1      -4.307  -1.123  25.504  1.00  0.00    -0.272 N 
ATOM      3  H1  UNL     1      -3.436  -1.560  25.204  1.00  0.00     0.190 HD
BRANCH   2   4
HETATM    4  O1  UNL     1      -5.116  -1.943  25.944  1.00  0.00    -0.251 OA
BRANCH   4   5
HETATM    5  C2  UNL     1      -5.259  -2.471  27.200  1.00  0.00     0.251 C 
HETATM    6  C1  UNL     1      -4.093  -2.202  28.089  1.00  0.00     0.071 C 
BRANCH   5   7
HETATM    7  C8  UNL     1      -6.590  -2.129  27.729  1.00  0.00     0.221 C 
HETATM    8  O6  UNL     1      -6.618  -1.381  28.779  1.00  0.00    -0.645 OA
HETATM    9  O7  UNL     1      -7.797  -2.550  27.186  1.00  0.00    -0.645 OA
ENDBRANCH   5   7
BRANCH   5  10
HETATM   10  C9  UNL     1      -5.309  -3.988  27.047  1.00  0.00     0.268 C 
HETATM   11  O8  UNL     1      -5.062  -4.383  25.837  1.00  0.00    -0.269 OA
HETATM   12  N5  UNL     1      -5.576  -4.936  28.024  1.00  0.00    -0.342 N 
HETATM   13  C10 UNL     1      -5.858  -4.767  29.412  1.00  0.00     0.127 C 
HETATM   14  C14 UNL     1      -5.586  -6.384  27.608  1.00  0.00     0.204 C 
HETATM   15  C11 UNL     1      -5.338  -5.974  30.239  1.00  0.00     0.027 C 
HETATM   16  C12 UNL     1      -6.316  -7.111  29.934  1.00  0.00     0.081 C 
HETATM   17  C13 UNL     1      -6.599  -7.045  28.465  1.00  0.00     0.144 C 
HETATM   18  O9  UNL     1      -7.631  -7.525  28.034  1.00  0.00    -0.296 OA
ENDBRANCH   5  10
ENDBRANCH   4   5
ENDBRANCH   2   4
ENDBRANCH   1   2
BRANCH   1  19
HETATM   19  N2  UNL     1      -4.748   1.105  26.394  1.00  0.00    -0.330 N 
HETATM   20  C4  UNL     1      -6.139   1.384  26.580  1.00  0.00     0.277 C 
HETATM   21  O2  UNL     1      -6.967   0.866  25.791  1.00  0.00    -0.269 OA
ATOM     22  H2  UNL     1      -4.063   1.518  27.028  1.00  0.00     0.165 HD
BRANCH  20  23
HETATM   23  C5  UNL     1      -6.650   2.246  27.650  1.00  0.00     0.468 C 
BRANCH  23  24
HETATM   24  N3  UNL     1      -6.463   1.523  28.912  1.00  0.00    -0.042 N 
ATOM     25  H33 UNL     1      -6.188   0.551  28.779  1.00  0.00     0.277 HD
ATOM     26  H32 UNL     1      -5.635   1.824  29.427  1.00  0.00     0.277 HD
ATOM     27  H31 UNL     1      -7.325   1.625  29.448  1.00  0.00     0.277 HD
ENDBRANCH  23  24
BRANCH  23  28
HETATM   28  N4  UNL     1      -8.066   2.579  27.467  1.00  0.00    -0.042 N 
ATOM     29  H43 UNL     1      -8.461   2.084  26.668  1.00  0.00     0.277 HD
ATOM     30  H42 UNL     1      -8.638   2.174  28.208  1.00  0.00     0.277 HD
ATOM     31  H41 UNL     1      -8.219   3.585  27.390  1.00  0.00     0.277 HD
ENDBRANCH  23  28
ENDBRANCH  20  23
ENDBRANCH   1  19
BRANCH   1  32
HETATM   32  C6  UNL     1      -2.827   0.652  25.099  1.00  0.00     0.069 C 
HETATM   33 CL1  UNL     1      -1.659   0.198  26.320  1.00  0.00    -0.084 Cl
HETATM   34  C7  UNL     1      -2.465   1.311  24.036  1.00  0.00     0.157 C 
BRANCH  34  35
HETATM   35  S1  UNL     1      -0.817   1.804  23.715  1.00  0.00     0.128 S 
HETATM   36  O3  UNL     1       0.044   0.572  23.619  1.00  0.00    -0.592 OA
HETATM   37  O4  UNL     1      -0.351   2.687  24.839  1.00  0.00    -0.592 OA
HETATM   38  O5  UNL     1      -0.817   2.654  22.258  1.00  0.00    -0.592 OA
ENDBRANCH  34  35
ENDBRANCH   1  32
TORSDOF 11
ENDMDL
MODEL 3
REMARK VINA RESULT: -7.290427285      2.783      5.315
REMARK  11 active torsions:
REMARK  status: ('A' for Active; 'I' for Inactive)
REMARK    1  A    between atoms: C2_2  and  O1_3 
REMARK    2  A    between atoms: C2_2  and  C8_27 
REMARK    3  A    between atoms: C2_2  and  C9_30 
REMARK    4  A    between atoms: O1_3  and  N1_4 
REMARK    5  A    between atoms: N1_4  and  C3_6 
REMARK    6  A    between atoms: C3_6  and  N2_7 
REMARK    7  A    between atoms: C3_6  and  C6_20 
REMARK       I    between atoms: N2_7  and  C4_9 
REMARK    8  A    between atoms: C4_9  and  C5_11 
REMARK    9  A    between atoms: C5_11  and  N3_12 
REMARK   10  A    between atoms: C5_11  and  N4_16 
REMARK   11  A    between atoms: C7_22  and  S1_23 
REMARK       I    between atoms: C9_30  and  N5_32 
ROOT
HETATM    1  C3  UNL     1      -3.386   2.501  25.241  1.00  0.00     0.252 C 
ENDROOT
BRANCH   1   2
HETATM    2  N1  UNL     1      -4.439   1.699  24.844  1.00  0.00    -0.272 N 
ATOM      3  H1  UNL     1      -4.357   1.403  23.871  1.00  0.00     0.190 HD
BRANCH   2   4
HETATM    4  O1  UNL     1      -5.455   1.257  25.385  1.00  0.00    -0.251 OA
BRANCH   4   5
HETATM    5  C2  UNL     1      -5.667   0.088  26.067  1.00  0.00     0.251 C 
HETATM    6  C1  UNL     1      -6.983  -0.543  25.760  1.00  0.00     0.071 C 
BRANCH   5   7
HETATM    7  C8  UNL     1      -4.477  -0.771  25.955  1.00  0.00     0.221 C 
HETATM    8  O6  UNL     1      -4.540  -1.735  25.102  1.00  0.00    -0.645 OA
HETATM    9  O7  UNL     1      -3.310  -0.618  26.694  1.00  0.00    -0.645 OA
ENDBRANCH   5   7
BRANCH   5  10
HETATM   10  C9  UNL     1      -5.724   0.438  27.551  1.00  0.00     0.268 C 
HETATM   11  O8  UNL     1      -5.766   1.716  27.769  1.00  0.00    -0.269 OA
HETATM   12  N5  UNL     1      -5.734  -0.430  28.632  1.00  0.00    -0.342 N 
HETATM   13  C10 UNL     1      -5.712  -1.857  28.663  1.00  0.00     0.127 C 
HETATM   14  C14 UNL     1      -5.773   0.173  30.013  1.00  0.00     0.204 C 
HETATM   15  C11 UNL     1      -6.485  -2.402  29.893  1.00  0.00     0.027 C 
HETATM   16  C12 UNL     1      -5.572  -2.123  31.089  1.00  0.00     0.081 C 
HETATM   17  C13 UNL     1      -5.006  -0.753  30.881  1.00  0.00     0.144 C 
HETATM   18  O9  UNL     1      -3.957  -0.452  31.420  1.00  0.00    -0.296 OA
ENDBRANCH   5  10
ENDBRANCH   4   5
ENDBRANCH   2   4
ENDBRANCH   1   2
BRANCH   1  19
HETATM   19  N2  UNL     1      -2.474   2.018  26.254  1.00  0.00    -0.330 N 
HETATM   20  C4  UNL     1      -2.429   2.624  27.550  1.00  0.00     0.277 C 
HETATM   21  O2  UNL     1      -3.199   3.584  27.792  1.00  0.00    -0.269 OA
ATOM     22  H2  UNL     1      -1.854   1.236  26.042  1.00  0.00     0.165 HD
BRANCH  20  23
HETATM   23  C5  UNL     1      -1.525   2.176  28.614  1.00  0.00     0.468 C 
BRANCH  23  24
HETATM   24  N3  UNL     1      -0.214   1.949  27.999  1.00  0.00    -0.042 N 
ATOM     25  H33 UNL     1       0.132   2.759  27.485  1.00  0.00     0.277 HD
ATOM     26  H32 UNL     1       0.544   1.893  28.680  1.00  0.00     0.277 HD
ATOM     27  H31 UNL     1      -0.294   1.113  27.421  1.00  0.00     0.277 HD
ENDBRANCH  23  24
BRANCH  23  28
HETATM   28  N4  UNL     1      -1.996   0.949  29.264  1.00  0.00    -0.042 N 
ATOM     29  H43 UNL     1      -1.420   0.716  30.072  1.00  0.00     0.277 HD
ATOM     30  H42 UNL     1      -2.887   1.101  29.737  1.00  0.00     0.277 HD
ATOM     31  H41 UNL     1      -2.053   0.165  28.613  1.00  0.00     0.277 HD
ENDBRANCH  23  28
ENDBRANCH  20  23
ENDBRANCH   1  19
BRANCH   1  32
HETATM   32  C6  UNL     1      -2.497   2.706  23.996  1.00  0.00     0.069 C 
HETATM   33 CL1  UNL     1      -2.756   4.144  23.032  1.00  0.00    -0.084 Cl
HETATM   34  C7  UNL     1      -1.583   1.837  23.673  1.00  0.00     0.157 C 
BRANCH  34  35
HETATM   35  S1  UNL     1      -0.538   2.002  22.279  1.00  0.00     0.128 S 
HETATM   36  O3  UNL     1       0.277   0.742  22.137  1.00  0.00    -0.592 OA
HETATM   37  O4  UNL     1       0.360   3.189  22.487  1.00  0.00    -0.592 OA
HETATM   38  O5  UNL     1      -1.524   2.237  20.931  1.00  0.00    -0.592 OA
ENDBRANCH  34  35
ENDBRANCH   1  32
TORSDOF 11
ENDMDL
MODEL 4
REMARK VINA RESULT: -7.249201905      3.347      6.928
REMARK  11 active torsions:
REMARK  status: ('A' for Active; 'I' for Inactive)
REMARK    1  A    between atoms: C2_2  and  O1_3 
REMARK    2  A    between atoms: C2_2  and  C8_27 
REMARK    3  A    between atoms: C2_2  and  C9_30 
REMARK    4  A    between atoms: O1_3  and  N1_4 
REMARK    5  A    between atoms: N1_4  and  C3_6 
REMARK    6  A    between atoms: C3_6  and  N2_7 
REMARK    7  A    between atoms: C3_6  and  C6_20 
REMARK       I    between atoms: N2_7  and  C4_9 
REMARK    8  A    between atoms: C4_9  and  C5_11 
REMARK    9  A    between atoms: C5_11  and  N3_12 
REMARK   10  A    between atoms: C5_11  and  N4_16 
REMARK   11  A    between atoms: C7_22  and  S1_23 
REMARK       I    between atoms: C9_30  and  N5_32 
ROOT
HETATM    1  C3  UNL     1      -2.052   2.275  25.877  1.00  0.00     0.252 C 
ENDROOT
BRANCH   1   2
HETATM    2  N1  UNL     1      -3.398   2.473  26.119  1.00  0.00    -0.272 N 
ATOM      3  H1  UNL     1      -3.587   3.379  26.547  1.00  0.00     0.190 HD
BRANCH   2   4
HETATM    4  O1  UNL     1      -4.425   1.815  25.941  1.00  0.00    -0.251 OA
BRANCH   4   5
HETATM    5  C2  UNL     1      -5.151   1.039  26.806  1.00  0.00     0.251 C 
HETATM    6  C1  UNL     1      -4.892   1.356  28.240  1.00  0.00     0.071 C 
BRANCH   5   7
HETATM    7  C8  UNL     1      -6.559   1.008  26.377  1.00  0.00     0.221 C 
HETATM    8  O6  UNL     1      -7.418   1.543  27.176  1.00  0.00    -0.645 OA
HETATM    9  O7  UNL     1      -7.020   0.450  25.190  1.00  0.00    -0.645 OA
ENDBRANCH   5   7
BRANCH   5  10
HETATM   10  C9  UNL     1      -4.683  -0.401  26.619  1.00  0.00     0.268 C 
HETATM   11  O8  UNL     1      -3.819  -0.532  25.662  1.00  0.00    -0.269 OA
HETATM   12  N5  UNL     1      -5.071  -1.523  27.336  1.00  0.00    -0.342 N 
HETATM   13  C10 UNL     1      -5.978  -1.644  28.430  1.00  0.00     0.127 C 
HETATM   14  C14 UNL     1      -4.471  -2.848  26.938  1.00  0.00     0.204 C 
HETATM   15  C11 UNL     1      -5.557  -2.796  29.381  1.00  0.00     0.027 C 
HETATM   16  C12 UNL     1      -5.917  -4.080  28.630  1.00  0.00     0.081 C 
HETATM   17  C13 UNL     1      -5.520  -3.862  27.203  1.00  0.00     0.144 C 
HETATM   18  O9  UNL     1      -6.060  -4.512  26.327  1.00  0.00    -0.296 OA
ENDBRANCH   5  10
ENDBRANCH   4   5
ENDBRANCH   2   4
ENDBRANCH   1   2
BRANCH   1  19
HETATM   19  N2  UNL     1      -1.515   2.592  24.572  1.00  0.00    -0.330 N 
HETATM   20  C4  UNL     1      -0.838   1.598  23.796  1.00  0.00     0.277 C 
HETATM   21  O2  UNL     1      -0.720   0.442  24.270  1.00  0.00    -0.269 OA
ATOM     22  H2  UNL     1      -1.619   3.536  24.201  1.00  0.00     0.165 HD
BRANCH  20  23
HETATM   23  C5  UNL     1      -0.274   1.862  22.469  1.00  0.00     0.468 C 
BRANCH  23  24
HETATM   24  N3  UNL     1      -1.394   2.204  21.585  1.00  0.00    -0.042 N 
ATOM     25  H33 UNL     1      -1.418   1.641  20.735  1.00  0.00     0.277 HD
ATOM     26  H32 UNL     1      -2.300   1.917  21.957  1.00  0.00     0.277 HD
ATOM     27  H31 UNL     1      -1.336   3.205  21.401  1.00  0.00     0.277 HD
ENDBRANCH  23  24
BRANCH  23  28
HETATM   28  N4  UNL     1       0.454   0.707  21.935  1.00  0.00    -0.042 N 
ATOM     29  H43 UNL     1       0.871   0.921  21.029  1.00  0.00     0.277 HD
ATOM     30  H42 UNL     1       1.305   0.530  22.468  1.00  0.00     0.277 HD
ATOM     31  H41 UNL     1      -0.130  -0.128  21.883  1.00  0.00     0.277 HD
ENDBRANCH  23  28
ENDBRANCH  20  23
ENDBRANCH   1  19
BRANCH   1  32
HETATM   32  C6  UNL     1      -1.291   3.212  26.839  1.00  0.00     0.069 C 
HETATM   33 CL1  UNL     1      -2.030   4.746  27.246  1.00  0.00    -0.084 Cl
HETATM   34  C7  UNL     1      -0.136   2.872  27.333  1.00  0.00     0.157 C 
BRANCH  34  35
HETATM   35  S1  UNL     1       0.785   3.879  28.429  1.00  0.00     0.128 S 
HETATM   36  O3  UNL     1       1.115   5.173  27.731  1.00  0.00    -0.592 OA
HETATM   37  O4  UNL     1       2.043   3.151  28.810  1.00  0.00    -0.592 OA
HETATM   38  O5  UNL     1      -0.173   4.156  29.789  1.00  0.00    -0.592 OA
ENDBRANCH  34  35
ENDBRANCH   1  32
TORSDOF 11
ENDMDL
MODEL 5
REMARK VINA RESULT: -7.237540599      3.411      6.891
REMARK  11 active torsions:
REMARK  status: ('A' for Active; 'I' for Inactive)
REMARK    1  A    between atoms: C2_2  and  O1_3 
REMARK    2  A    between atoms: C2_2  and  C8_27 
REMARK    3  A    between atoms: C2_2  and  C9_30 
REMARK    4  A    between atoms: O1_3  and  N1_4 
REMARK    5  A    between atoms: N1_4  and  C3_6 
REMARK    6  A    between atoms: C3_6  and  N2_7 
REMARK    7  A    between atoms: C3_6  and  C6_20 
REMARK       I    between atoms: N2_7  and  C4_9 
REMARK    8  A    between atoms: C4_9  and  C5_11 
REMARK    9  A    between atoms: C5_11  and  N3_12 
REMARK   10  A    between atoms: C5_11  and  N4_16 
REMARK   11  A    between atoms: C7_22  and  S1_23 
REMARK       I    between atoms: C9_30  and  N5_32 
ROOT
HETATM    1  C3  UNL     1      -3.615  -0.475  27.876  1.00  0.00     0.252 C 
ENDROOT
BRANCH   1   2
HETATM    2  N1  UNL     1      -3.382  -0.002  26.599  1.00  0.00    -0.272 N 
ATOM      3  H1  UNL     1      -3.960  -0.469  25.901  1.00  0.00     0.190 HD
BRANCH   2   4
HETATM    4  O1  UNL     1      -2.641   0.849  26.104  1.00  0.00    -0.251 OA
BRANCH   4   5
HETATM    5  C2  UNL     1      -2.615   2.210  26.256  1.00  0.00     0.251 C 
HETATM    6  C1  UNL     1      -3.968   2.834  26.201  1.00  0.00     0.071 C 
BRANCH   5   7
HETATM    7  C8  UNL     1      -1.769   2.561  27.408  1.00  0.00     0.221 C 
HETATM    8  O6  UNL     1      -0.698   1.862  27.571  1.00  0.00    -0.645 OA
HETATM    9  O7  UNL     1      -2.040   3.575  28.318  1.00  0.00    -0.645 OA
ENDBRANCH   5   7
BRANCH   5  10
HETATM   10  C9  UNL     1      -1.858   2.782  25.061  1.00  0.00     0.268 C 
HETATM   11  O8  UNL     1      -2.001   4.064  24.938  1.00  0.00    -0.269 OA
HETATM   12  N5  UNL     1      -1.072   2.100  24.144  1.00  0.00    -0.342 N 
HETATM   13  C10 UNL     1      -0.745   0.713  24.068  1.00  0.00     0.127 C 
HETATM   14  C14 UNL     1      -0.443   2.900  23.032  1.00  0.00     0.204 C 
HETATM   15  C11 UNL     1       0.666   0.503  23.458  1.00  0.00     0.027 C 
HETATM   16  C12 UNL     1       0.497   0.791  21.964  1.00  0.00     0.081 C 
HETATM   17  C13 UNL     1      -0.390   1.992  21.861  1.00  0.00     0.144 C 
HETATM   18  O9  UNL     1      -1.025   2.179  20.840  1.00  0.00    -0.296 OA
ENDBRANCH   5  10
ENDBRANCH   4   5
ENDBRANCH   2   4
ENDBRANCH   1   2
BRANCH   1  19
HETATM   19  N2  UNL     1      -4.146   0.424  28.877  1.00  0.00    -0.330 N 
HETATM   20  C4  UNL     1      -3.364   0.800  30.015  1.00  0.00     0.277 C 
HETATM   21  O2  UNL     1      -2.204   0.334  30.128  1.00  0.00    -0.269 OA
ATOM     22  H2  UNL     1      -5.090   0.795  28.770  1.00  0.00     0.165 HD
BRANCH  20  23
HETATM   23  C5  UNL     1      -3.849   1.707  31.059  1.00  0.00     0.468 C 
BRANCH  23  24
HETATM   24  N3  UNL     1      -5.137   2.241  30.602  1.00  0.00    -0.042 N 
ATOM     25  H33 UNL     1      -5.590   2.837  31.293  1.00  0.00     0.277 HD
ATOM     26  H32 UNL     1      -5.042   2.942  29.867  1.00  0.00     0.277 HD
ATOM     27  H31 UNL     1      -5.709   1.444  30.323  1.00  0.00     0.277 HD
ENDBRANCH  23  24
BRANCH  23  28
HETATM   28  N4  UNL     1      -2.914   2.806  31.321  1.00  0.00    -0.042 N 
ATOM     29  H43 UNL     1      -1.947   2.487  31.268  1.00  0.00     0.277 HD
ATOM     30  H42 UNL     1      -2.907   3.474  30.550  1.00  0.00     0.277 HD
ATOM     31  H41 UNL     1      -3.102   3.269  32.209  1.00  0.00     0.277 HD
ENDBRANCH  23  28
ENDBRANCH  20  23
ENDBRANCH   1  19
BRANCH   1  32
HETATM   32  C6  UNL     1      -4.689  -1.576  27.747  1.00  0.00     0.069 C 
HETATM   33 CL1  UNL     1      -4.665  -2.886  28.909  1.00  0.00    -0.084 Cl
HETATM   34  C7  UNL     1      -5.586  -1.532  26.804  1.00  0.00     0.157 C 
BRANCH  34  35
HETATM   35  S1  UNL     1      -6.834  -2.741  26.595  1.00  0.00     0.128 S 
HETATM   36  O3  UNL     1      -7.690  -2.350  25.419  1.00  0.00    -0.592 OA
HETATM   37  O4  UNL     1      -7.659  -2.804  27.849  1.00  0.00    -0.592 OA
HETATM   38  O5  UNL     1      -6.067  -4.218  26.318  1.00  0.00    -0.592 OA
ENDBRANCH  34  35
ENDBRANCH   1  32
TORSDOF 11
ENDMDL
