MODEL 1
REMARK VINA RESULT: -7.857071619      0.000      0.000
REMARK  11 active torsions:
REMARK  status: ('A' for Active; 'I' for Inactive)
REMARK    1  A    between atoms: O1_2  and  N1_3 
REMARK    2  A    between atoms: C2_5  and  C3_6 
REMARK    3  A    between atoms: C2_5  and  C7_22 
REMARK    4  A    between atoms: C3_6  and  N2_7 
REMARK    5  A    between atoms: N2_7  and  C4_9 
REMARK    6  A    between atoms: C4_9  and  C6_11 
REMARK    7  A    between atoms: C4_9  and  S2_16 
REMARK    8  A    between atoms: C6_11  and  S1_12 
REMARK    9  A    between atoms: S2_16  and  N3_17 
REMARK   10  A    between atoms: C7_22  and  N5_26 
REMARK   11  A    between atoms: C10_29  and  C11_31 
ROOT
HETATM    1  N1  UNL     1      -0.400   1.962  27.946  1.00  0.00    -0.262 N 
ATOM      2  H1  UNL     1      -0.044   1.051  28.237  1.00  0.00     0.194 HD
HETATM    3  C2  UNL     1      -1.301   1.931  27.048  1.00  0.00     0.112 C 
ENDROOT
BRANCH   3   4
HETATM    4  C3  UNL     1      -1.969   3.122  26.464  1.00  0.00     0.120 C 
BRANCH   4   5
HETATM    5  N2  UNL     1      -1.325   3.489  25.267  1.00  0.00    -0.373 N 
ATOM      6  H2  UNL     1      -0.314   3.611  25.207  1.00  0.00     0.160 HD
BRANCH   5   7
HETATM    7  C4  UNL     1      -2.219   3.686  24.101  1.00  0.00     0.165 C 
HETATM    8  C5  UNL     1      -3.621   3.267  24.371  1.00  0.00     0.059 C 
BRANCH   7   9
HETATM    9  C6  UNL     1      -2.138   5.103  23.711  1.00  0.00     0.214 C 
BRANCH   9  10
HETATM   10  S1  UNL     1      -0.823   6.102  24.235  1.00  0.00     0.105 S 
HETATM   11  O2  UNL     1      -0.867   7.390  23.396  1.00  0.00    -0.595 OA
HETATM   12  O3  UNL     1       0.533   5.500  23.824  1.00  0.00    -0.595 OA
HETATM   13  O4  UNL     1      -0.763   6.573  25.801  1.00  0.00    -0.595 OA
ENDBRANCH   9  10
ENDBRANCH   7   9
BRANCH   7  14
HETATM   14  S2  UNL     1      -1.537   2.583  22.898  1.00  0.00     0.252 S 
HETATM   15  O5  UNL     1      -1.706   1.141  23.336  1.00  0.00    -0.203 OA
HETATM   16  O6  UNL     1      -2.342   2.658  21.597  1.00  0.00    -0.203 OA
BRANCH  14  17
HETATM   17  N3  UNL     1       0.075   2.821  22.476  1.00  0.00    -0.326 N 
ATOM     18  H32 UNL     1       0.747   3.161  23.162  1.00  0.00     0.168 HD
ATOM     19  H31 UNL     1       0.335   2.609  21.513  1.00  0.00     0.168 HD
ENDBRANCH  14  17
ENDBRANCH   7  14
ENDBRANCH   5   7
ENDBRANCH   4   5
ENDBRANCH   3   4
BRANCH   3  20
HETATM   20  C7  UNL     1      -1.695   0.588  26.598  1.00  0.00     0.127 C 
HETATM   21  N4  UNL     1      -0.959  -0.169  25.888  1.00  0.00    -0.384 N 
ATOM     22  H42 UNL     1      -0.042   0.184  25.617  1.00  0.00     0.157 HD
ATOM     23  H41 UNL     1      -1.233  -1.101  25.575  1.00  0.00     0.157 HD
BRANCH  20  24
HETATM   24  N5  UNL     1      -2.969   0.098  26.975  1.00  0.00    -0.365 N 
HETATM   25  C8  UNL     1      -3.279  -0.189  28.343  1.00  0.00     0.128 C 
HETATM   26  C9  UNL     1      -3.894  -1.583  28.498  1.00  0.00     0.067 C 
HETATM   27  C10 UNL     1      -5.031  -1.664  27.499  1.00  0.00     0.160 C 
HETATM   28  F1  UNL     1      -5.871  -0.609  27.695  1.00  0.00    -0.239 F 
HETATM   29  C14 UNL     1      -4.440  -1.560  26.119  1.00  0.00     0.067 C 
HETATM   30  C15 UNL     1      -3.957  -0.113  25.948  1.00  0.00     0.128 C 
BRANCH  27  31
HETATM   31  C11 UNL     1      -5.782  -2.975  27.628  1.00  0.00     0.421 C 
HETATM   32  N6  UNL     1      -5.172  -3.732  28.699  1.00  0.00    -0.041 N 
HETATM   33  C12 UNL     1      -5.703  -5.065  28.477  1.00  0.00     0.262 C 
ATOM     34  H62 UNL     1      -4.155  -3.677  28.740  1.00  0.00     0.279 HD
ATOM     35  H61 UNL     1      -5.329  -3.357  29.634  1.00  0.00     0.279 HD
HETATM   36  C13 UNL     1      -5.663  -5.185  26.971  1.00  0.00     0.262 C 
HETATM   37  N7  UNL     1      -5.600  -3.812  26.469  1.00  0.00    -0.041 N 
ATOM     38  H72 UNL     1      -6.259  -3.620  25.715  1.00  0.00     0.279 HD
ATOM     39  H71 UNL     1      -4.751  -3.606  25.941  1.00  0.00     0.279 HD
ENDBRANCH  27  31
ENDBRANCH  20  24
ENDBRANCH   3  20
BRANCH   1  40
HETATM   40  O1  UNL     1       0.155   3.023  28.570  1.00  0.00    -0.285 OA
HETATM   41  C1  UNL     1       1.283   3.647  27.985  1.00  0.00     0.237 C 
ENDBRANCH   1  40
TORSDOF 11
ENDMDL
MODEL 2
REMARK VINA RESULT: -7.622017750      1.645      2.085
REMARK  11 active torsions:
REMARK  status: ('A' for Active; 'I' for Inactive)
REMARK    1  A    between atoms: O1_2  and  N1_3 
REMARK    2  A    between atoms: C2_5  and  C3_6 
REMARK    3  A    between atoms: C2_5  and  C7_22 
REMARK    4  A    between atoms: C3_6  and  N2_7 
REMARK    5  A    between atoms: N2_7  and  C4_9 
REMARK    6  A    between atoms: C4_9  and  C6_11 
REMARK    7  A    between atoms: C4_9  and  S2_16 
REMARK    8  A    between atoms: C6_11  and  S1_12 
REMARK    9  A    between atoms: S2_16  and  N3_17 
REMARK   10  A    between atoms: C7_22  and  N5_26 
REMARK   11  A    between atoms: C10_29  and  C11_31 
ROOT
HETATM    1  N1  UNL     1      -1.148   2.577  27.895  1.00  0.00    -0.262 N 
ATOM      2  H1  UNL     1      -1.760   3.105  28.519  1.00  0.00     0.194 HD
HETATM    3  C2  UNL     1      -1.737   1.966  26.947  1.00  0.00     0.112 C 
ENDROOT
BRANCH   3   4
HETATM    4  C3  UNL     1      -1.065   1.135  25.917  1.00  0.00     0.120 C 
BRANCH   4   5
HETATM    5  N2  UNL     1      -0.271   1.951  25.090  1.00  0.00    -0.373 N 
ATOM      6  H2  UNL     1       0.540   2.459  25.442  1.00  0.00     0.160 HD
BRANCH   5   7
HETATM    7  C4  UNL     1      -0.695   2.020  23.671  1.00  0.00     0.165 C 
HETATM    8  C5  UNL     1      -2.042   1.432  23.442  1.00  0.00     0.059 C 
BRANCH   7   9
HETATM    9  C6  UNL     1      -0.638   3.431  23.257  1.00  0.00     0.214 C 
BRANCH   9  10
HETATM   10  S1  UNL     1      -0.140   4.669  24.361  1.00  0.00     0.105 S 
HETATM   11  O2  UNL     1       0.051   5.958  23.545  1.00  0.00    -0.595 OA
HETATM   12  O3  UNL     1       1.283   4.410  24.886  1.00  0.00    -0.595 OA
HETATM   13  O4  UNL     1      -1.124   5.056  25.611  1.00  0.00    -0.595 OA
ENDBRANCH   9  10
ENDBRANCH   7   9
BRANCH   7  14
HETATM   14  S2  UNL     1       0.497   0.996  22.858  1.00  0.00     0.252 S 
HETATM   15  O5  UNL     1       0.415   1.170  21.354  1.00  0.00    -0.203 OA
HETATM   16  O6  UNL     1       1.915   1.466  23.196  1.00  0.00    -0.203 OA
BRANCH  14  17
HETATM   17  N3  UNL     1       0.446  -0.651  23.203  1.00  0.00    -0.326 N 
ATOM     18  H32 UNL     1      -0.060  -1.293  22.594  1.00  0.00     0.168 HD
ATOM     19  H31 UNL     1       0.940  -0.962  24.039  1.00  0.00     0.168 HD
ENDBRANCH  14  17
ENDBRANCH   7  14
ENDBRANCH   5   7
ENDBRANCH   4   5
ENDBRANCH   3   4
BRANCH   3  20
HETATM   20  C7  UNL     1      -3.196   2.143  26.894  1.00  0.00     0.127 C 
HETATM   21  N4  UNL     1      -3.770   3.246  26.623  1.00  0.00    -0.384 N 
ATOM     22  H42 UNL     1      -3.175   4.053  26.435  1.00  0.00     0.157 HD
ATOM     23  H41 UNL     1      -4.782   3.369  26.587  1.00  0.00     0.157 HD
BRANCH  20  24
HETATM   24  N5  UNL     1      -4.021   1.022  27.155  1.00  0.00    -0.365 N 
HETATM   25  C8  UNL     1      -4.221   0.542  28.488  1.00  0.00     0.128 C 
HETATM   26  C9  UNL     1      -3.987  -0.969  28.582  1.00  0.00     0.067 C 
HETATM   27  C10 UNL     1      -4.823  -1.600  27.487  1.00  0.00     0.160 C 
HETATM   28  F1  UNL     1      -6.114  -1.180  27.613  1.00  0.00    -0.239 F 
HETATM   29  C14 UNL     1      -4.288  -1.121  26.164  1.00  0.00     0.067 C 
HETATM   30  C15 UNL     1      -4.659   0.364  26.043  1.00  0.00     0.128 C 
BRANCH  27  31
HETATM   31  C11 UNL     1      -4.747  -3.113  27.542  1.00  0.00     0.421 C 
HETATM   32  N6  UNL     1      -5.665  -3.640  26.557  1.00  0.00    -0.041 N 
HETATM   33  C12 UNL     1      -5.785  -5.030  26.957  1.00  0.00     0.262 C 
ATOM     34  H62 UNL     1      -6.549  -3.137  26.480  1.00  0.00     0.279 HD
ATOM     35  H61 UNL     1      -5.385  -3.494  25.587  1.00  0.00     0.279 HD
HETATM   36  C13 UNL     1      -5.829  -4.933  28.465  1.00  0.00     0.262 C 
HETATM   37  N7  UNL     1      -5.251  -3.629  28.791  1.00  0.00    -0.041 N 
ATOM     38  H72 UNL     1      -4.552  -3.663  29.533  1.00  0.00     0.279 HD
ATOM     39  H71 UNL     1      -5.898  -2.998  29.265  1.00  0.00     0.279 HD
ENDBRANCH  27  31
ENDBRANCH  20  24
ENDBRANCH   3  20
BRANCH   1  40
HETATM   40  O1  UNL     1       0.166   2.629  28.199  1.00  0.00    -0.285 OA
HETATM   41  C1  UNL     1       0.761   3.891  28.445  1.00  0.00     0.237 C 
ENDBRANCH   1  40
TORSDOF 11
ENDMDL
MODEL 3
REMARK VINA RESULT: -7.616788778      1.969      2.671
REMARK  11 active torsions:
REMARK  status: ('A' for Active; 'I' for Inactive)
REMARK    1  A    between atoms: O1_2  and  N1_3 
REMARK    2  A    between atoms: C2_5  and  C3_6 
REMARK    3  A    between atoms: C2_5  and  C7_22 
REMARK    4  A    between atoms: C3_6  and  N2_7 
REMARK    5  A    between atoms: N2_7  and  C4_9 
REMARK    6  A    between atoms: C4_9  and  C6_11 
REMARK    7  A    between atoms: C4_9  and  S2_16 
REMARK    8  A    between atoms: C6_11  and  S1_12 
REMARK    9  A    between atoms: S2_16  and  N3_17 
REMARK   10  A    between atoms: C7_22  and  N5_26 
REMARK   11  A    between atoms: C10_29  and  C11_31 
ROOT
HETATM    1  N1  UNL     1      -1.252   2.276  28.177  1.00  0.00    -0.262 N 
ATOM      2  H1  UNL     1      -1.850   2.783  28.831  1.00  0.00     0.194 HD
HETATM    3  C2  UNL     1      -1.865   1.653  27.253  1.00  0.00     0.112 C 
ENDROOT
BRANCH   3   4
HETATM    4  C3  UNL     1      -1.217   0.846  26.189  1.00  0.00     0.120 C 
BRANCH   4   5
HETATM    5  N2  UNL     1      -0.581   1.697  25.266  1.00  0.00    -0.373 N 
ATOM      6  H2  UNL     1      -0.123   2.564  25.549  1.00  0.00     0.160 HD
BRANCH   5   7
HETATM    7  C4  UNL     1      -0.622   1.247  23.854  1.00  0.00     0.165 C 
HETATM    8  C5  UNL     1      -0.004  -0.092  23.657  1.00  0.00     0.059 C 
BRANCH   7   9
HETATM    9  C6  UNL     1      -2.029   1.268  23.420  1.00  0.00     0.214 C 
BRANCH   9  10
HETATM   10  S1  UNL     1      -2.969   2.721  23.502  1.00  0.00     0.105 S 
HETATM   11  O2  UNL     1      -4.386   2.322  23.946  1.00  0.00    -0.595 OA
HETATM   12  O3  UNL     1      -3.226   3.298  22.098  1.00  0.00    -0.595 OA
HETATM   13  O4  UNL     1      -2.489   3.919  24.508  1.00  0.00    -0.595 OA
ENDBRANCH   9  10
ENDBRANCH   7   9
BRANCH   7  14
HETATM   14  S2  UNL     1       0.388   2.445  23.034  1.00  0.00     0.252 S 
HETATM   15  O5  UNL     1       1.855   2.077  23.148  1.00  0.00    -0.203 OA
HETATM   16  O6  UNL     1       0.127   2.411  21.525  1.00  0.00    -0.203 OA
BRANCH  14  17
HETATM   17  N3  UNL     1       0.207   4.048  23.513  1.00  0.00    -0.326 N 
ATOM     18  H32 UNL     1      -0.686   4.527  23.398  1.00  0.00     0.168 HD
ATOM     19  H31 UNL     1       1.025   4.504  23.916  1.00  0.00     0.168 HD
ENDBRANCH  14  17
ENDBRANCH   7  14
ENDBRANCH   5   7
ENDBRANCH   4   5
ENDBRANCH   3   4
BRANCH   3  20
HETATM   20  C7  UNL     1      -3.329   1.787  27.267  1.00  0.00     0.127 C 
HETATM   21  N4  UNL     1      -3.947   2.875  27.036  1.00  0.00    -0.384 N 
ATOM     22  H42 UNL     1      -3.385   3.702  26.831  1.00  0.00     0.157 HD
ATOM     23  H41 UNL     1      -4.963   2.968  27.046  1.00  0.00     0.157 HD
BRANCH  20  24
HETATM   24  N5  UNL     1      -4.109   0.639  27.551  1.00  0.00    -0.365 N 
HETATM   25  C8  UNL     1      -4.112   0.048  28.854  1.00  0.00     0.128 C 
HETATM   26  C9  UNL     1      -3.870  -1.463  28.786  1.00  0.00     0.067 C 
HETATM   27  C10 UNL     1      -4.857  -2.011  27.776  1.00  0.00     0.160 C 
HETATM   28  F1  UNL     1      -6.115  -1.616  28.123  1.00  0.00    -0.239 F 
HETATM   29  C14 UNL     1      -4.520  -1.418  26.434  1.00  0.00     0.067 C 
HETATM   30  C15 UNL     1      -4.903   0.068  26.493  1.00  0.00     0.128 C 
BRANCH  27  31
HETATM   31  C11 UNL     1      -4.775  -3.522  27.693  1.00  0.00     0.421 C 
HETATM   32  N6  UNL     1      -5.667  -3.958  26.641  1.00  0.00    -0.041 N 
HETATM   33  C12 UNL     1      -5.790  -5.379  26.909  1.00  0.00     0.262 C 
ATOM     34  H62 UNL     1      -6.552  -3.452  26.591  1.00  0.00     0.279 HD
ATOM     35  H61 UNL     1      -5.365  -3.722  25.696  1.00  0.00     0.279 HD
HETATM   36  C13 UNL     1      -5.870  -5.422  28.417  1.00  0.00     0.262 C 
HETATM   37  N7  UNL     1      -5.306  -4.152  28.876  1.00  0.00    -0.041 N 
ATOM     38  H72 UNL     1      -4.626  -4.253  29.629  1.00  0.00     0.279 HD
ATOM     39  H71 UNL     1      -5.968  -3.570  29.391  1.00  0.00     0.279 HD
ENDBRANCH  27  31
ENDBRANCH  20  24
ENDBRANCH   3  20
BRANCH   1  40
HETATM   40  O1  UNL     1       0.073   2.366  28.421  1.00  0.00    -0.285 OA
HETATM   41  C1  UNL     1       0.733   3.593  28.167  1.00  0.00     0.237 C 
ENDBRANCH   1  40
TORSDOF 11
ENDMDL
MODEL 4
REMARK VINA RESULT: -7.448903839      1.474      2.650
REMARK  11 active torsions:
REMARK  status: ('A' for Active; 'I' for Inactive)
REMARK    1  A    between atoms: O1_2  and  N1_3 
REMARK    2  A    between atoms: C2_5  and  C3_6 
REMARK    3  A    between atoms: C2_5  and  C7_22 
REMARK    4  A    between atoms: C3_6  and  N2_7 
REMARK    5  A    between atoms: N2_7  and  C4_9 
REMARK    6  A    between atoms: C4_9  and  C6_11 
REMARK    7  A    between atoms: C4_9  and  S2_16 
REMARK    8  A    between atoms: C6_11  and  S1_12 
REMARK    9  A    between atoms: S2_16  and  N3_17 
REMARK   10  A    between atoms: C7_22  and  N5_26 
REMARK   11  A    between atoms: C10_29  and  C11_31 
ROOT
HETATM    1  N1  UNL     1      -0.316   1.884  27.962  1.00  0.00    -0.262 N 
ATOM      2  H1  UNL     1       0.082   0.958  28.118  1.00  0.00     0.194 HD
HETATM    3  C2  UNL     1      -1.304   1.922  27.162  1.00  0.00     0.112 C 
ENDROOT
BRANCH   3   4
HETATM    4  C3  UNL     1      -2.048   3.148  26.777  1.00  0.00     0.120 C 
BRANCH   4   5
HETATM    5  N2  UNL     1      -2.318   3.127  25.396  1.00  0.00    -0.373 N 
ATOM      6  H2  UNL     1      -2.765   2.332  24.939  1.00  0.00     0.160 HD
BRANCH   5   7
HETATM    7  C4  UNL     1      -1.909   4.342  24.652  1.00  0.00     0.165 C 
HETATM    8  C5  UNL     1      -0.971   5.203  25.422  1.00  0.00     0.059 C 
BRANCH   7   9
HETATM    9  C6  UNL     1      -1.324   3.906  23.373  1.00  0.00     0.214 C 
BRANCH   9  10
HETATM   10  S1  UNL     1      -1.958   2.538  22.519  1.00  0.00     0.105 S 
HETATM   11  O2  UNL     1      -3.490   2.604  22.625  1.00  0.00    -0.595 OA
HETATM   12  O3  UNL     1      -1.644   1.225  23.259  1.00  0.00    -0.595 OA
HETATM   13  O4  UNL     1      -1.611   2.368  20.929  1.00  0.00    -0.595 OA
ENDBRANCH   9  10
ENDBRANCH   7   9
BRANCH   7  14
HETATM   14  S2  UNL     1      -3.434   5.219  24.468  1.00  0.00     0.252 S 
HETATM   15  O5  UNL     1      -4.569   4.464  25.133  1.00  0.00    -0.203 OA
HETATM   16  O6  UNL     1      -3.381   6.539  25.242  1.00  0.00    -0.203 OA
BRANCH  14  17
HETATM   17  N3  UNL     1      -3.905   5.605  22.899  1.00  0.00    -0.326 N 
ATOM     18  H32 UNL     1      -4.875   5.837  22.690  1.00  0.00     0.168 HD
ATOM     19  H31 UNL     1      -3.178   5.593  22.183  1.00  0.00     0.168 HD
ENDBRANCH  14  17
ENDBRANCH   7  14
ENDBRANCH   5   7
ENDBRANCH   4   5
ENDBRANCH   3   4
BRANCH   3  20
HETATM   20  C7  UNL     1      -1.722   0.623  26.614  1.00  0.00     0.127 C 
HETATM   21  N4  UNL     1      -0.997  -0.094  25.852  1.00  0.00    -0.384 N 
ATOM     22  H42 UNL     1      -0.073   0.261  25.608  1.00  0.00     0.157 HD
ATOM     23  H41 UNL     1      -1.287  -0.995  25.472  1.00  0.00     0.157 HD
BRANCH  20  24
HETATM   24  N5  UNL     1      -3.005   0.129  26.953  1.00  0.00    -0.365 N 
HETATM   25  C8  UNL     1      -3.373  -0.109  28.315  1.00  0.00     0.128 C 
HETATM   26  C9  UNL     1      -3.976  -1.504  28.499  1.00  0.00     0.067 C 
HETATM   27  C10 UNL     1      -5.065  -1.641  27.454  1.00  0.00     0.160 C 
HETATM   28  F1  UNL     1      -5.927  -0.591  27.570  1.00  0.00    -0.239 F 
HETATM   29  C14 UNL     1      -4.414  -1.583  26.099  1.00  0.00     0.067 C 
HETATM   30  C15 UNL     1      -3.943  -0.137  25.891  1.00  0.00     0.128 C 
BRANCH  27  31
HETATM   31  C11 UNL     1      -5.805  -2.956  27.602  1.00  0.00     0.421 C 
HETATM   32  N6  UNL     1      -5.197  -3.687  28.692  1.00  0.00    -0.041 N 
HETATM   33  C12 UNL     1      -5.713  -5.029  28.490  1.00  0.00     0.262 C 
ATOM     34  H62 UNL     1      -4.180  -3.621  28.740  1.00  0.00     0.279 HD
ATOM     35  H61 UNL     1      -5.366  -3.296  29.618  1.00  0.00     0.279 HD
HETATM   36  C13 UNL     1      -5.659  -5.177  26.987  1.00  0.00     0.262 C 
HETATM   37  N7  UNL     1      -5.605  -3.814  26.460  1.00  0.00    -0.041 N 
ATOM     38  H72 UNL     1      -6.260  -3.642  25.697  1.00  0.00     0.279 HD
ATOM     39  H71 UNL     1      -4.754  -3.609  25.935  1.00  0.00     0.279 HD
ENDBRANCH  27  31
ENDBRANCH  20  24
ENDBRANCH   3  20
BRANCH   1  40
HETATM   40  O1  UNL     1       0.283   2.889  28.636  1.00  0.00    -0.285 OA
HETATM   41  C1  UNL     1       1.276   3.656  27.979  1.00  0.00     0.237 C 
ENDBRANCH   1  40
TORSDOF 11
ENDMDL
MODEL 5
REMARK VINA RESULT: -7.410025385      1.391      2.789
REMARK  11 active torsions:
REMARK  status: ('A' for Active; 'I' for Inactive)
REMARK    1  A    between atoms: O1_2  and  N1_3 
REMARK    2  A    between atoms: C2_5  and  C3_6 
REMARK    3  A    between atoms: C2_5  and  C7_22 
REMARK    4  A    between atoms: C3_6  and  N2_7 
REMARK    5  A    between atoms: N2_7  and  C4_9 
REMARK    6  A    between atoms: C4_9  and  C6_11 
REMARK    7  A    between atoms: C4_9  and  S2_16 
REMARK    8  A    between atoms: C6_11  and  S1_12 
REMARK    9  A    between atoms: S2_16  and  N3_17 
REMARK   10  A    between atoms: C7_22  and  N5_26 
REMARK   11  A    between atoms: C10_29  and  C11_31 
ROOT
HETATM    1  N1  UNL     1      -0.869   1.998  28.324  1.00  0.00    -0.262 N 
ATOM      2  H1  UNL     1      -0.708   1.104  28.788  1.00  0.00     0.194 HD
HETATM    3  C2  UNL     1      -1.434   1.924  27.186  1.00  0.00     0.112 C 
ENDROOT
BRANCH   3   4
HETATM    4  C3  UNL     1      -1.771   3.083  26.321  1.00  0.00     0.120 C 
BRANCH   4   5
HETATM    5  N2  UNL     1      -1.189   2.915  25.050  1.00  0.00    -0.373 N 
ATOM      6  H2  UNL     1      -1.511   2.206  24.392  1.00  0.00     0.160 HD
BRANCH   5   7
HETATM    7  C4  UNL     1      -0.074   3.840  24.736  1.00  0.00     0.165 C 
HETATM    8  C5  UNL     1       0.717   4.221  25.938  1.00  0.00     0.059 C 
BRANCH   7   9
HETATM    9  C6  UNL     1       0.764   3.197  23.712  1.00  0.00     0.214 C 
BRANCH   9  10
HETATM   10  S1  UNL     1       0.126   1.962  22.678  1.00  0.00     0.105 S 
HETATM   11  O2  UNL     1       1.170   1.703  21.579  1.00  0.00    -0.595 OA
HETATM   12  O3  UNL     1      -1.072   2.482  21.863  1.00  0.00    -0.595 OA
HETATM   13  O4  UNL     1      -0.239   0.502  23.322  1.00  0.00    -0.595 OA
ENDBRANCH   9  10
ENDBRANCH   7   9
BRANCH   7  14
HETATM   14  S2  UNL     1      -0.918   5.282  24.155  1.00  0.00     0.252 S 
HETATM   15  O5  UNL     1      -1.213   6.229  25.301  1.00  0.00    -0.203 OA
HETATM   16  O6  UNL     1       0.001   6.100  23.242  1.00  0.00    -0.203 OA
BRANCH  14  17
HETATM   17  N3  UNL     1      -2.344   5.033  23.295  1.00  0.00    -0.326 N 
ATOM     18  H32 UNL     1      -2.641   5.696  22.580  1.00  0.00     0.168 HD
ATOM     19  H31 UNL     1      -2.882   4.198  23.526  1.00  0.00     0.168 HD
ENDBRANCH  14  17
ENDBRANCH   7  14
ENDBRANCH   5   7
ENDBRANCH   4   5
ENDBRANCH   3   4
BRANCH   3  20
HETATM   20  C7  UNL     1      -1.780   0.566  26.741  1.00  0.00     0.127 C 
HETATM   21  N4  UNL     1      -1.000  -0.184  26.072  1.00  0.00    -0.384 N 
ATOM     22  H42 UNL     1      -0.081   0.187  25.830  1.00  0.00     0.157 HD
ATOM     23  H41 UNL     1      -1.240  -1.126  25.762  1.00  0.00     0.157 HD
BRANCH  20  24
HETATM   24  N5  UNL     1      -3.056   0.052  27.077  1.00  0.00    -0.365 N 
HETATM   25  C8  UNL     1      -3.396  -0.264  28.430  1.00  0.00     0.128 C 
HETATM   26  C9  UNL     1      -3.995  -1.669  28.545  1.00  0.00     0.067 C 
HETATM   27  C10 UNL     1      -5.104  -1.748  27.516  1.00  0.00     0.160 C 
HETATM   28  F1  UNL     1      -5.964  -0.708  27.709  1.00  0.00    -0.239 F 
HETATM   29  C14 UNL     1      -4.481  -1.611  26.154  1.00  0.00     0.067 C 
HETATM   30  C15 UNL     1      -4.014  -0.154  26.020  1.00  0.00     0.128 C 
BRANCH  27  31
HETATM   31  C11 UNL     1      -5.839  -3.071  27.603  1.00  0.00     0.421 C 
HETATM   32  N6  UNL     1      -5.266  -3.827  28.694  1.00  0.00    -0.041 N 
HETATM   33  C12 UNL     1      -5.766  -5.166  28.439  1.00  0.00     0.262 C 
ATOM     34  H62 UNL     1      -4.252  -3.756  28.780  1.00  0.00     0.279 HD
ATOM     35  H61 UNL     1      -5.470  -3.462  29.624  1.00  0.00     0.279 HD
HETATM   36  C13 UNL     1      -5.657  -5.274  26.936  1.00  0.00     0.262 C 
HETATM   37  N7  UNL     1      -5.594  -3.896  26.446  1.00  0.00    -0.041 N 
ATOM     38  H72 UNL     1      -6.223  -3.708  25.666  1.00  0.00     0.279 HD
ATOM     39  H71 UNL     1      -4.726  -3.673  25.958  1.00  0.00     0.279 HD
ENDBRANCH  27  31
ENDBRANCH  20  24
ENDBRANCH   3  20
BRANCH   1  40
HETATM   40  O1  UNL     1      -0.453   3.085  29.008  1.00  0.00    -0.285 OA
HETATM   41  C1  UNL     1      -1.388   3.794  29.800  1.00  0.00     0.237 C 
ENDBRANCH   1  40
TORSDOF 11
ENDMDL
