MODEL 1
REMARK VINA RESULT: -7.007974230      0.000      0.000
REMARK  9 active torsions:
REMARK  status: ('A' for Active; 'I' for Inactive)
REMARK    1  A    between atoms: C1_2  and  C2_4 
REMARK    2  A    between atoms: C4_7  and  O4_8 
REMARK    3  A    between atoms: O4_8  and  C5_9 
REMARK    4  A    between atoms: C6_10  and  O5_11 
REMARK    5  A    between atoms: C7_13  and  O6_14 
REMARK    6  A    between atoms: C8_16  and  O7_17 
REMARK    7  A    between atoms: O7_17  and  C9_18 
REMARK    8  A    between atoms: C14_23  and  O8_24 
REMARK    9  A    between atoms: C15_26  and  O9_27 
ROOT
HETATM    1  C5  UNL     1      29.336  -1.484 164.829  1.00  0.00     0.189 C 
HETATM    2  C6  UNL     1      28.016  -1.710 165.530  1.00  0.00     0.181 C 
HETATM    3  C7  UNL     1      27.808  -0.811 166.703  1.00  0.00     0.181 C 
HETATM    4  C8  UNL     1      29.107  -0.641 167.458  1.00  0.00     0.184 C 
HETATM    5  C14 UNL     1      30.124   0.053 166.582  1.00  0.00     0.181 C 
HETATM    6  C15 UNL     1      29.807  -0.078 165.120  1.00  0.00     0.181 C 
ENDROOT
BRANCH   1   7
HETATM    7  O4  UNL     1      29.257  -1.712 163.468  1.00  0.00    -0.328 OA
BRANCH   7   8
HETATM    8  C4  UNL     1      30.121  -2.752 163.063  1.00  0.00     0.418 C 
HETATM    9  O3  UNL     1      31.439  -2.300 163.076  1.00  0.00    -0.308 OA
HETATM   10  C3  UNL     1      32.294  -2.668 162.045  1.00  0.00     0.156 C 
HETATM   11  C2  UNL     1      31.749  -2.750 160.835  1.00  0.00     0.064 C 
HETATM   12  C16 UNL     1      30.280  -2.427 160.781  1.00  0.00     0.221 C 
HETATM   13  O10 UNL     1      29.686  -3.154 161.807  1.00  0.00    -0.334 OA
BRANCH  11  14
HETATM   14  C1  UNL     1      32.502  -3.117 159.672  1.00  0.00     0.209 C 
HETATM   15  O1  UNL     1      31.960  -3.117 158.548  1.00  0.00    -0.644 OA
HETATM   16  O2  UNL     1      33.829  -3.474 159.771  1.00  0.00    -0.644 OA
ENDBRANCH  11  14
ENDBRANCH   7   8
ENDBRANCH   1   7
BRANCH   2  17
HETATM   17  O5  UNL     1      26.932  -1.516 164.652  1.00  0.00    -0.390 OA
ATOM     18  H5  UNL     1      26.159  -1.224 165.119  1.00  0.00     0.210 HD
ENDBRANCH   2  17
BRANCH   6  19
HETATM   19  O9  UNL     1      31.018   0.125 164.421  1.00  0.00    -0.390 OA
ATOM     20  H9  UNL     1      31.473   0.851 164.833  1.00  0.00     0.210 HD
ENDBRANCH   6  19
BRANCH   3  21
HETATM   21  O6  UNL     1      27.213   0.380 166.361  1.00  0.00    -0.390 OA
ATOM     22  H6  UNL     1      26.303   0.277 166.105  1.00  0.00     0.210 HD
ENDBRANCH   3  21
BRANCH   5  23
HETATM   23  O8  UNL     1      31.380  -0.502 166.798  1.00  0.00    -0.390 OA
ATOM     24  H8  UNL     1      31.646  -0.350 167.698  1.00  0.00     0.210 HD
ENDBRANCH   5  23
BRANCH   4  25
HETATM   25  O7  UNL     1      28.940   0.141 168.594  1.00  0.00    -0.375 OA
BRANCH  25  26
HETATM   26  C9  UNL     1      29.335  -0.514 169.753  1.00  0.00     0.122 C 
HETATM   27  C10 UNL     1      29.400   0.413 170.950  1.00  0.00     0.032 C 
HETATM   28  C11 UNL     1      29.088  -0.455 172.166  1.00  0.00     0.002 C 
HETATM   29  C12 UNL     1      28.701  -1.812 171.603  1.00  0.00     0.002 C 
HETATM   30  C13 UNL     1      28.241  -1.488 170.203  1.00  0.00     0.032 C 
ENDBRANCH  25  26
ENDBRANCH   4  25
TORSDOF 9
ENDMDL
MODEL 2
REMARK VINA RESULT: -6.701868973      2.177      3.056
REMARK  9 active torsions:
REMARK  status: ('A' for Active; 'I' for Inactive)
REMARK    1  A    between atoms: C1_2  and  C2_4 
REMARK    2  A    between atoms: C4_7  and  O4_8 
REMARK    3  A    between atoms: O4_8  and  C5_9 
REMARK    4  A    between atoms: C6_10  and  O5_11 
REMARK    5  A    between atoms: C7_13  and  O6_14 
REMARK    6  A    between atoms: C8_16  and  O7_17 
REMARK    7  A    between atoms: O7_17  and  C9_18 
REMARK    8  A    between atoms: C14_23  and  O8_24 
REMARK    9  A    between atoms: C15_26  and  O9_27 
ROOT
HETATM    1  C5  UNL     1      29.286  -1.626 165.303  1.00  0.00     0.189 C 
HETATM    2  C6  UNL     1      30.047  -2.412 166.346  1.00  0.00     0.181 C 
HETATM    3  C7  UNL     1      29.274  -2.630 167.604  1.00  0.00     0.181 C 
HETATM    4  C8  UNL     1      28.485  -1.385 167.945  1.00  0.00     0.184 C 
HETATM    5  C14 UNL     1      27.457  -1.118 166.870  1.00  0.00     0.181 C 
HETATM    6  C15 UNL     1      27.805  -1.777 165.566  1.00  0.00     0.181 C 
ENDROOT
BRANCH   1   7
HETATM    7  O4  UNL     1      29.606  -2.009 164.014  1.00  0.00    -0.328 OA
BRANCH   7   8
HETATM    8  C4  UNL     1      30.321  -1.002 163.333  1.00  0.00     0.418 C 
HETATM    9  O3  UNL     1      29.490   0.095 163.109  1.00  0.00    -0.308 OA
HETATM   10  C3  UNL     1      29.549   0.755 161.889  1.00  0.00     0.156 C 
HETATM   11  C2  UNL     1      29.756  -0.010 160.821  1.00  0.00     0.064 C 
HETATM   12  C16 UNL     1      29.893  -1.480 161.114  1.00  0.00     0.221 C 
HETATM   13  O10 UNL     1      30.797  -1.582 162.166  1.00  0.00    -0.334 OA
BRANCH  11  14
HETATM   14  C1  UNL     1      29.841   0.524 159.493  1.00  0.00     0.209 C 
HETATM   15  O1  UNL     1      30.928   0.511 158.881  1.00  0.00    -0.644 OA
HETATM   16  O2  UNL     1      28.733   1.056 158.872  1.00  0.00    -0.644 OA
ENDBRANCH  11  14
ENDBRANCH   7   8
ENDBRANCH   1   7
BRANCH   2  17
HETATM   17  O5  UNL     1      30.423  -3.678 165.857  1.00  0.00    -0.390 OA
ATOM     18  H5  UNL     1      31.266  -3.944 166.203  1.00  0.00     0.210 HD
ENDBRANCH   2  17
BRANCH   6  19
HETATM   19  O9  UNL     1      27.114  -1.071 164.557  1.00  0.00    -0.390 OA
ATOM     20  H9  UNL     1      27.619  -1.140 163.755  1.00  0.00     0.210 HD
ENDBRANCH   6  19
BRANCH   3  21
HETATM   21  O6  UNL     1      28.510  -3.771 167.567  1.00  0.00    -0.390 OA
ATOM     22  H6  UNL     1      27.693  -3.683 168.046  1.00  0.00     0.210 HD
ENDBRANCH   3  21
BRANCH   5  23
HETATM   23  O8  UNL     1      27.362   0.250 166.646  1.00  0.00    -0.390 OA
ATOM     24  H8  UNL     1      26.464   0.533 166.777  1.00  0.00     0.210 HD
ENDBRANCH   5  23
BRANCH   4  25
HETATM   25  O7  UNL     1      27.799  -1.528 169.145  1.00  0.00    -0.375 OA
BRANCH  25  26
HETATM   26  C9  UNL     1      28.620  -1.346 170.251  1.00  0.00     0.122 C 
HETATM   27  C10 UNL     1      29.178   0.060 170.334  1.00  0.00     0.032 C 
HETATM   28  C11 UNL     1      29.371   0.343 171.821  1.00  0.00     0.002 C 
HETATM   29  C12 UNL     1      28.770  -0.852 172.540  1.00  0.00     0.002 C 
HETATM   30  C13 UNL     1      27.787  -1.402 171.536  1.00  0.00     0.032 C 
ENDBRANCH  25  26
ENDBRANCH   4  25
TORSDOF 9
ENDMDL
MODEL 3
REMARK VINA RESULT: -6.660904728      2.077      8.339
REMARK  9 active torsions:
REMARK  status: ('A' for Active; 'I' for Inactive)
REMARK    1  A    between atoms: C1_2  and  C2_4 
REMARK    2  A    between atoms: C4_7  and  O4_8 
REMARK    3  A    between atoms: O4_8  and  C5_9 
REMARK    4  A    between atoms: C6_10  and  O5_11 
REMARK    5  A    between atoms: C7_13  and  O6_14 
REMARK    6  A    between atoms: C8_16  and  O7_17 
REMARK    7  A    between atoms: O7_17  and  C9_18 
REMARK    8  A    between atoms: C14_23  and  O8_24 
REMARK    9  A    between atoms: C15_26  and  O9_27 
ROOT
HETATM    1  C5  UNL     1      29.700  -0.768 165.084  1.00  0.00     0.189 C 
HETATM    2  C6  UNL     1      29.556  -2.214 164.667  1.00  0.00     0.181 C 
HETATM    3  C7  UNL     1      29.720  -2.426 163.199  1.00  0.00     0.181 C 
HETATM    4  C8  UNL     1      29.062  -1.296 162.440  1.00  0.00     0.184 C 
HETATM    5  C14 UNL     1      29.762   0.008 162.749  1.00  0.00     0.181 C 
HETATM    6  C15 UNL     1      30.521  -0.042 164.044  1.00  0.00     0.181 C 
ENDROOT
BRANCH   1   7
HETATM    7  O4  UNL     1      30.256  -0.634 166.343  1.00  0.00    -0.328 OA
BRANCH   7   8
HETATM    8  C4  UNL     1      29.333  -0.097 167.265  1.00  0.00     0.418 C 
HETATM    9  O3  UNL     1      29.979   0.817 168.098  1.00  0.00    -0.308 OA
HETATM   10  C3  UNL     1      29.677   0.833 169.453  1.00  0.00     0.156 C 
HETATM   11  C2  UNL     1      29.433  -0.349 170.011  1.00  0.00     0.064 C 
HETATM   12  C16 UNL     1      29.527  -1.522 169.073  1.00  0.00     0.221 C 
HETATM   13  O10 UNL     1      28.789  -1.177 167.946  1.00  0.00    -0.334 OA
BRANCH  11  14
HETATM   14  C1  UNL     1      29.108  -0.496 171.400  1.00  0.00     0.209 C 
HETATM   15  O1  UNL     1      28.641  -1.573 171.824  1.00  0.00    -0.644 OA
HETATM   16  O2  UNL     1      29.302   0.541 172.285  1.00  0.00    -0.644 OA
ENDBRANCH  11  14
ENDBRANCH   7   8
ENDBRANCH   1   7
BRANCH   2  17
HETATM   17  O5  UNL     1      30.502  -3.029 165.319  1.00  0.00    -0.390 OA
ATOM     18  H5  UNL     1      31.389  -2.779 165.089  1.00  0.00     0.210 HD
ENDBRANCH   2  17
BRANCH   6  19
HETATM   19  O9  UNL     1      30.679   1.294 164.475  1.00  0.00    -0.390 OA
ATOM     20  H9  UNL     1      31.371   1.687 163.956  1.00  0.00     0.210 HD
ENDBRANCH   6  19
BRANCH   3  21
HETATM   21  O6  UNL     1      31.027  -2.642 162.836  1.00  0.00    -0.390 OA
ATOM     22  H6  UNL     1      31.333  -2.028 162.178  1.00  0.00     0.210 HD
ENDBRANCH   3  21
BRANCH   5  23
HETATM   23  O8  UNL     1      28.824   1.029 162.843  1.00  0.00    -0.390 OA
ATOM     24  H8  UNL     1      28.894   1.449 163.692  1.00  0.00     0.210 HD
ENDBRANCH   5  23
BRANCH   4  25
HETATM   25  O7  UNL     1      29.140  -1.489 161.066  1.00  0.00    -0.375 OA
BRANCH  25  26
HETATM   26  C9  UNL     1      30.025  -0.609 160.456  1.00  0.00     0.122 C 
HETATM   27  C10 UNL     1      31.030  -1.319 159.571  1.00  0.00     0.032 C 
HETATM   28  C11 UNL     1      31.378  -0.331 158.462  1.00  0.00     0.002 C 
HETATM   29  C12 UNL     1      30.441   0.848 158.664  1.00  0.00     0.002 C 
HETATM   30  C13 UNL     1      29.284   0.245 159.422  1.00  0.00     0.032 C 
ENDBRANCH  25  26
ENDBRANCH   4  25
TORSDOF 9
ENDMDL
MODEL 4
REMARK VINA RESULT: -6.645345325      2.716      4.278
REMARK  9 active torsions:
REMARK  status: ('A' for Active; 'I' for Inactive)
REMARK    1  A    between atoms: C1_2  and  C2_4 
REMARK    2  A    between atoms: C4_7  and  O4_8 
REMARK    3  A    between atoms: O4_8  and  C5_9 
REMARK    4  A    between atoms: C6_10  and  O5_11 
REMARK    5  A    between atoms: C7_13  and  O6_14 
REMARK    6  A    between atoms: C8_16  and  O7_17 
REMARK    7  A    between atoms: O7_17  and  C9_18 
REMARK    8  A    between atoms: C14_23  and  O8_24 
REMARK    9  A    between atoms: C15_26  and  O9_27 
ROOT
HETATM    1  C5  UNL     1      30.208   0.367 164.747  1.00  0.00     0.189 C 
HETATM    2  C6  UNL     1      31.383   1.141 165.299  1.00  0.00     0.181 C 
HETATM    3  C7  UNL     1      31.448   1.136 166.790  1.00  0.00     0.181 C 
HETATM    4  C8  UNL     1      30.055   1.262 167.365  1.00  0.00     0.184 C 
HETATM    5  C14 UNL     1      29.231   0.053 166.985  1.00  0.00     0.181 C 
HETATM    6  C15 UNL     1      29.772  -0.653 165.774  1.00  0.00     0.181 C 
ENDROOT
BRANCH   1   7
HETATM    7  O4  UNL     1      30.492  -0.235 163.536  1.00  0.00    -0.328 OA
BRANCH   7   8
HETATM    8  C4  UNL     1      29.788   0.372 162.474  1.00  0.00     0.418 C 
HETATM    9  O3  UNL     1      28.422   0.372 162.755  1.00  0.00    -0.308 OA
HETATM   10  C3  UNL     1      27.519   0.083 161.741  1.00  0.00     0.156 C 
HETATM   11  C2  UNL     1      27.904  -0.837 160.861  1.00  0.00     0.064 C 
HETATM   12  C16 UNL     1      29.268  -1.421 161.113  1.00  0.00     0.221 C 
HETATM   13  O10 UNL     1      30.117  -0.341 161.329  1.00  0.00    -0.334 OA
BRANCH  11  14
HETATM   14  C1  UNL     1      27.082  -1.243 159.758  1.00  0.00     0.209 C 
HETATM   15  O1  UNL     1      27.136  -2.415 159.334  1.00  0.00    -0.644 OA
HETATM   16  O2  UNL     1      26.224  -0.353 159.150  1.00  0.00    -0.644 OA
ENDBRANCH  11  14
ENDBRANCH   7   8
ENDBRANCH   1   7
BRANCH   2  17
HETATM   17  O5  UNL     1      32.603   0.624 164.821  1.00  0.00    -0.390 OA
ATOM     18  H5  UNL     1      33.215   0.474 165.532  1.00  0.00     0.210 HD
ENDBRANCH   2  17
BRANCH   6  19
HETATM   19  O9  UNL     1      28.702  -1.392 165.222  1.00  0.00    -0.390 OA
ATOM     20  H9  UNL     1      28.918  -1.583 164.317  1.00  0.00     0.210 HD
ENDBRANCH   6  19
BRANCH   3  21
HETATM   21  O6  UNL     1      32.153   0.067 167.288  1.00  0.00    -0.390 OA
ATOM     22  H6  UNL     1      32.263   0.106 168.231  1.00  0.00     0.210 HD
ENDBRANCH   3  21
BRANCH   5  23
HETATM   23  O8  UNL     1      27.929   0.448 166.702  1.00  0.00    -0.390 OA
ATOM     24  H8  UNL     1      27.883   1.396 166.668  1.00  0.00     0.210 HD
ENDBRANCH   5  23
BRANCH   4  25
HETATM   25  O7  UNL     1      30.079   1.323 168.753  1.00  0.00    -0.375 OA
BRANCH  25  26
HETATM   26  C9  UNL     1      30.602   2.521 169.223  1.00  0.00     0.122 C 
HETATM   27  C10 UNL     1      30.066   3.722 168.468  1.00  0.00     0.032 C 
HETATM   28  C11 UNL     1      30.072   4.876 169.466  1.00  0.00     0.002 C 
HETATM   29  C12 UNL     1      30.461   4.256 170.798  1.00  0.00     0.002 C 
HETATM   30  C13 UNL     1      30.072   2.807 170.632  1.00  0.00     0.032 C 
ENDBRANCH  25  26
ENDBRANCH   4  25
TORSDOF 9
ENDMDL
MODEL 5
REMARK VINA RESULT: -6.428081495      2.163      8.346
REMARK  9 active torsions:
REMARK  status: ('A' for Active; 'I' for Inactive)
REMARK    1  A    between atoms: C1_2  and  C2_4 
REMARK    2  A    between atoms: C4_7  and  O4_8 
REMARK    3  A    between atoms: O4_8  and  C5_9 
REMARK    4  A    between atoms: C6_10  and  O5_11 
REMARK    5  A    between atoms: C7_13  and  O6_14 
REMARK    6  A    between atoms: C8_16  and  O7_17 
REMARK    7  A    between atoms: O7_17  and  C9_18 
REMARK    8  A    between atoms: C14_23  and  O8_24 
REMARK    9  A    between atoms: C15_26  and  O9_27 
ROOT
HETATM    1  C5  UNL     1      29.198  -1.695 166.225  1.00  0.00     0.189 C 
HETATM    2  C6  UNL     1      29.433  -3.067 165.638  1.00  0.00     0.181 C 
HETATM    3  C7  UNL     1      29.571  -3.060 164.152  1.00  0.00     0.181 C 
HETATM    4  C8  UNL     1      28.591  -2.079 163.549  1.00  0.00     0.184 C 
HETATM    5  C14 UNL     1      28.923  -0.676 164.001  1.00  0.00     0.181 C 
HETATM    6  C15 UNL     1      29.734  -0.657 165.266  1.00  0.00     0.181 C 
ENDROOT
BRANCH   1   7
HETATM    7  O4  UNL     1      29.761  -1.552 167.480  1.00  0.00    -0.328 OA
BRANCH   7   8
HETATM    8  C4  UNL     1      28.930  -0.808 168.343  1.00  0.00     0.418 C 
HETATM    9  O3  UNL     1      29.682   0.172 168.990  1.00  0.00    -0.308 OA
HETATM   10  C3  UNL     1      29.456   0.423 170.337  1.00  0.00     0.156 C 
HETATM   11  C2  UNL     1      29.161  -0.634 171.087  1.00  0.00     0.064 C 
HETATM   12  C16 UNL     1      29.121  -1.944 170.346  1.00  0.00     0.221 C 
HETATM   13  O10 UNL     1      28.349  -1.722 169.211  1.00  0.00    -0.334 OA
BRANCH  11  14
HETATM   14  C1  UNL     1      28.901  -0.536 172.494  1.00  0.00     0.209 C 
HETATM   15  O1  UNL     1      28.301  -1.455 173.086  1.00  0.00    -0.644 OA
HETATM   16  O2  UNL     1      29.308   0.567 173.213  1.00  0.00    -0.644 OA
ENDBRANCH  11  14
ENDBRANCH   7   8
ENDBRANCH   1   7
BRANCH   2  17
HETATM   17  O5  UNL     1      30.598  -3.656 166.167  1.00  0.00    -0.390 OA
ATOM     18  H5  UNL     1      30.916  -4.353 165.607  1.00  0.00     0.210 HD
ENDBRANCH   2  17
BRANCH   6  19
HETATM   19  O9  UNL     1      29.543   0.613 165.853  1.00  0.00    -0.390 OA
ATOM     20  H9  UNL     1      29.690   1.269 165.181  1.00  0.00     0.210 HD
ENDBRANCH   6  19
BRANCH   3  21
HETATM   21  O6  UNL     1      30.868  -2.863 163.740  1.00  0.00    -0.390 OA
ATOM     22  H6  UNL     1      31.072  -3.326 162.936  1.00  0.00     0.210 HD
ENDBRANCH   3  21
BRANCH   5  23
HETATM   23  O8  UNL     1      27.748   0.029 164.237  1.00  0.00    -0.390 OA
ATOM     24  H8  UNL     1      27.423  -0.176 165.106  1.00  0.00     0.210 HD
ENDBRANCH   5  23
BRANCH   4  25
HETATM   25  O7  UNL     1      28.646  -2.088 162.161  1.00  0.00    -0.375 OA
BRANCH  25  26
HETATM   26  C9  UNL     1      29.255  -0.950 161.647  1.00  0.00     0.122 C 
HETATM   27  C10 UNL     1      30.464  -1.276 160.792  1.00  0.00     0.032 C 
HETATM   28  C11 UNL     1      30.550  -0.161 159.753  1.00  0.00     0.002 C 
HETATM   29  C12 UNL     1      29.296   0.674 159.953  1.00  0.00     0.002 C 
HETATM   30  C13 UNL     1      28.339  -0.289 160.611  1.00  0.00     0.032 C 
ENDBRANCH  25  26
ENDBRANCH   4  25
TORSDOF 9
ENDMDL
