MODEL 1
REMARK VINA RESULT: -6.294563133      0.000      0.000
REMARK  8 active torsions:
REMARK  status: ('A' for Active; 'I' for Inactive)
REMARK    1  A    between atoms: C2_2  and  O2_4 
REMARK    2  A    between atoms: O2_4  and  C3_5 
REMARK    3  A    between atoms: C4_7  and  O4_8 
REMARK    4  A    between atoms: C9_14  and  O5_16 
REMARK    5  A    between atoms: C17_24  and  O6_25 
REMARK    6  A    between atoms: C20_29  and  C21_30 
REMARK    7  A    between atoms: C21_30  and  O7_33 
REMARK    8  A    between atoms: C26_37  and  O8_38 
ROOT
HETATM    1  C3  UNL     1       3.017   5.734 -14.226  1.00  0.00     0.206 C 
HETATM    2  O3  UNL     1       2.364   6.694 -13.512  1.00  0.00    -0.321 OA
HETATM    3  C4  UNL     1       1.012   6.642 -13.436  1.00  0.00     0.266 C 
HETATM    4  C5  UNL     1       0.324   6.393 -14.750  1.00  0.00     0.064 C 
HETATM    5  C6  UNL     1      -1.099   6.069 -14.475  1.00  0.00    -0.008 C 
HETATM    6  C7  UNL     1      -1.361   5.106 -13.338  1.00  0.00     0.018 C 
HETATM    7  C8  UNL     1      -1.753   7.354 -13.899  1.00  0.00     0.018 C 
HETATM    8  C9  UNL     1      -1.920   5.780 -15.708  1.00  0.00     0.062 C 
HETATM    9  C10 UNL     1      -2.943   4.677 -15.490  1.00  0.00     0.046 C 
HETATM   10  C11 UNL     1      -1.088   5.517 -16.920  1.00  0.00     0.043 C 
HETATM   11  C12 UNL     1       0.219   4.759 -16.616  1.00  0.00    -0.003 C 
HETATM   12  C13 UNL     1      -0.141   3.368 -16.351  1.00  0.00     0.011 C 
HETATM   13  C14 UNL     1       1.123   5.579 -15.754  1.00  0.00     0.012 C 
HETATM   14  C15 UNL     1       2.262   4.841 -15.118  1.00  0.00     0.060 C 
HETATM   15  C16 UNL     1       2.122   3.518 -14.534  1.00  0.00     0.016 C 
HETATM   16  C17 UNL     1       1.808   6.589 -16.705  1.00  0.00     0.077 C 
HETATM   17  C18 UNL     1       2.072   6.078 -18.086  1.00  0.00     0.040 C 
HETATM   18  C19 UNL     1       3.031   7.126 -18.646  1.00  0.00     0.011 C 
HETATM   19  C20 UNL     1       4.029   7.073 -17.508  1.00  0.00     0.033 C 
HETATM   20  C24 UNL     1       3.117   7.179 -16.307  1.00  0.00     0.025 C 
HETATM   21  C25 UNL     1       2.965   8.681 -15.996  1.00  0.00     0.022 C 
HETATM   22  C26 UNL     1       3.876   6.590 -15.205  1.00  0.00     0.193 C 
ENDROOT
BRANCH  19  23
HETATM   23  C21 UNL     1       5.164   7.856 -17.792  1.00  0.00     0.055 C 
HETATM   24  C22 UNL     1       5.800   8.783 -16.815  1.00  0.00     0.045 C 
HETATM   25  C23 UNL     1       5.126   8.612 -19.110  1.00  0.00     0.045 C 
BRANCH  23  26
HETATM   26  O7  UNL     1       6.230   6.923 -18.045  1.00  0.00    -0.390 OA
ATOM     27  H7  UNL     1       6.967   7.445 -18.340  1.00  0.00     0.210 HD
ENDBRANCH  23  26
ENDBRANCH  19  23
BRANCH  16  28
HETATM   28  O6  UNL     1       0.938   7.659 -16.923  1.00  0.00    -0.388 OA
ATOM     29  H6  UNL     1       0.974   7.899 -17.842  1.00  0.00     0.210 HD
ENDBRANCH  16  28
BRANCH  22  30
HETATM   30  O8  UNL     1       4.845   5.637 -15.610  1.00  0.00    -0.389 OA
ATOM     31  H8  UNL     1       5.250   5.429 -14.776  1.00  0.00     0.210 HD
ENDBRANCH  22  30
BRANCH   1  32
HETATM   32  O2  UNL     1       4.006   5.221 -13.388  1.00  0.00    -0.280 OA
BRANCH  32  33
HETATM   33  C2  UNL     1       4.440   5.603 -12.171  1.00  0.00     0.257 C 
HETATM   34  C1  UNL     1       3.704   5.269 -10.912  1.00  0.00     0.126 C 
HETATM   35  O1  UNL     1       5.502   6.266 -12.089  1.00  0.00    -0.266 OA
ENDBRANCH  32  33
ENDBRANCH   1  32
BRANCH   3  36
HETATM   36  O4  UNL     1       0.688   7.951 -12.949  1.00  0.00    -0.371 OA
ATOM     37  H4  UNL     1      -0.119   7.793 -12.474  1.00  0.00     0.212 HD
ENDBRANCH   3  36
BRANCH   8  38
HETATM   38  O5  UNL     1      -2.703   6.901 -16.104  1.00  0.00    -0.389 OA
ATOM     39  H5  UNL     1      -3.180   6.735 -16.908  1.00  0.00     0.210 HD
ENDBRANCH   8  38
TORSDOF 8
ENDMDL
MODEL 2
REMARK VINA RESULT: -6.242570712     11.070     14.930
REMARK  8 active torsions:
REMARK  status: ('A' for Active; 'I' for Inactive)
REMARK    1  A    between atoms: C2_2  and  O2_4 
REMARK    2  A    between atoms: O2_4  and  C3_5 
REMARK    3  A    between atoms: C4_7  and  O4_8 
REMARK    4  A    between atoms: C9_14  and  O5_16 
REMARK    5  A    between atoms: C17_24  and  O6_25 
REMARK    6  A    between atoms: C20_29  and  C21_30 
REMARK    7  A    between atoms: C21_30  and  O7_33 
REMARK    8  A    between atoms: C26_37  and  O8_38 
ROOT
HETATM    1  C3  UNL     1     -12.374   5.641 -17.822  1.00  0.00     0.206 C 
HETATM    2  O3  UNL     1     -12.283   6.853 -17.205  1.00  0.00    -0.321 OA
HETATM    3  C4  UNL     1     -13.123   7.845 -17.591  1.00  0.00     0.266 C 
HETATM    4  C5  UNL     1     -13.246   8.011 -19.081  1.00  0.00     0.064 C 
HETATM    5  C6  UNL     1     -14.398   8.908 -19.354  1.00  0.00    -0.008 C 
HETATM    6  C7  UNL     1     -15.658   8.646 -18.557  1.00  0.00     0.018 C 
HETATM    7  C8  UNL     1     -14.018  10.310 -18.808  1.00  0.00     0.018 C 
HETATM    8  C9  UNL     1     -14.656   9.159 -20.819  1.00  0.00     0.062 C 
HETATM    9  C10 UNL     1     -16.137   9.246 -21.151  1.00  0.00     0.046 C 
HETATM   10  C11 UNL     1     -13.955   8.192 -21.714  1.00  0.00     0.043 C 
HETATM   11  C12 UNL     1     -13.874   6.765 -21.135  1.00  0.00    -0.003 C 
HETATM   12  C13 UNL     1     -15.205   6.175 -21.255  1.00  0.00     0.011 C 
HETATM   13  C14 UNL     1     -13.045   6.741 -19.892  1.00  0.00     0.012 C 
HETATM   14  C15 UNL     1     -13.161   5.502 -19.057  1.00  0.00     0.060 C 
HETATM   15  C16 UNL     1     -14.426   4.837 -18.796  1.00  0.00     0.016 C 
HETATM   16  C17 UNL     1     -11.574   6.744 -20.367  1.00  0.00     0.077 C 
HETATM   17  C18 UNL     1     -11.322   6.017 -21.651  1.00  0.00     0.040 C 
HETATM   18  C19 UNL     1      -9.801   5.894 -21.667  1.00  0.00     0.011 C 
HETATM   19  C20 UNL     1      -9.662   5.276 -20.291  1.00  0.00     0.033 C 
HETATM   20  C24 UNL     1     -10.522   6.200 -19.461  1.00  0.00     0.025 C 
HETATM   21  C25 UNL     1      -9.603   7.329 -18.956  1.00  0.00     0.022 C 
HETATM   22  C26 UNL     1     -10.907   5.409 -18.293  1.00  0.00     0.193 C 
ENDROOT
BRANCH  19  23
HETATM   23  C21 UNL     1      -8.331   4.889 -20.040  1.00  0.00     0.055 C 
HETATM   24  C22 UNL     1      -7.491   5.463 -18.954  1.00  0.00     0.045 C 
HETATM   25  C23 UNL     1      -7.430   4.815 -21.262  1.00  0.00     0.045 C 
BRANCH  23  26
HETATM   26  O7  UNL     1      -8.391   3.502 -19.662  1.00  0.00    -0.390 OA
ATOM     27  H7  UNL     1      -7.772   3.402 -18.948  1.00  0.00     0.210 HD
ENDBRANCH  23  26
ENDBRANCH  19  23
BRANCH  16  28
HETATM   28  O6  UNL     1     -11.202   8.056 -20.668  1.00  0.00    -0.388 OA
ATOM     29  H6  UNL     1     -10.841   8.457 -19.886  1.00  0.00     0.210 HD
ENDBRANCH  16  28
BRANCH  22  30
HETATM   30  O8  UNL     1     -10.919   4.009 -18.518  1.00  0.00    -0.389 OA
ATOM     31  H8  UNL     1     -10.505   3.962 -19.372  1.00  0.00     0.210 HD
ENDBRANCH  22  30
BRANCH   1  32
HETATM   32  O2  UNL     1     -12.478   4.689 -16.809  1.00  0.00    -0.280 OA
BRANCH  32  33
HETATM   33  C2  UNL     1     -12.796   4.795 -15.504  1.00  0.00     0.257 C 
HETATM   34  C1  UNL     1     -14.209   4.905 -15.026  1.00  0.00     0.126 C 
HETATM   35  O1  UNL     1     -11.871   4.804 -14.655  1.00  0.00    -0.266 OA
ENDBRANCH  32  33
ENDBRANCH   1  32
BRANCH   3  36
HETATM   36  O4  UNL     1     -12.506   9.003 -17.015  1.00  0.00    -0.371 OA
ATOM     37  H4  UNL     1     -12.725   9.680 -17.644  1.00  0.00     0.212 HD
ENDBRANCH   3  36
BRANCH   8  38
HETATM   38  O5  UNL     1     -14.135  10.413 -21.246  1.00  0.00    -0.389 OA
ATOM     39  H5  UNL     1     -13.186  10.412 -21.276  1.00  0.00     0.210 HD
ENDBRANCH   8  38
TORSDOF 8
ENDMDL
MODEL 3
REMARK VINA RESULT: -6.117029778     10.534     14.865
REMARK  8 active torsions:
REMARK  status: ('A' for Active; 'I' for Inactive)
REMARK    1  A    between atoms: C2_2  and  O2_4 
REMARK    2  A    between atoms: O2_4  and  C3_5 
REMARK    3  A    between atoms: C4_7  and  O4_8 
REMARK    4  A    between atoms: C9_14  and  O5_16 
REMARK    5  A    between atoms: C17_24  and  O6_25 
REMARK    6  A    between atoms: C20_29  and  C21_30 
REMARK    7  A    between atoms: C21_30  and  O7_33 
REMARK    8  A    between atoms: C26_37  and  O8_38 
ROOT
HETATM    1  C3  UNL     1      -9.242   4.512 -21.535  1.00  0.00     0.206 C 
HETATM    2  O3  UNL     1      -9.128   5.692 -22.207  1.00  0.00    -0.321 OA
HETATM    3  C4  UNL     1      -9.515   6.834 -21.589  1.00  0.00     0.266 C 
HETATM    4  C5  UNL     1     -10.844   6.744 -20.890  1.00  0.00     0.064 C 
HETATM    5  C6  UNL     1     -10.996   7.942 -20.025  1.00  0.00    -0.008 C 
HETATM    6  C7  UNL     1      -9.785   8.339 -19.209  1.00  0.00     0.018 C 
HETATM    7  C8  UNL     1     -11.103   9.170 -20.968  1.00  0.00     0.018 C 
HETATM    8  C9  UNL     1     -12.287   7.984 -19.245  1.00  0.00     0.062 C 
HETATM    9  C10 UNL     1     -12.114   8.564 -17.850  1.00  0.00     0.046 C 
HETATM   10  C11 UNL     1     -12.993   6.669 -19.203  1.00  0.00     0.043 C 
HETATM   11  C12 UNL     1     -12.038   5.461 -19.132  1.00  0.00    -0.003 C 
HETATM   12  C13 UNL     1     -11.505   5.412 -17.772  1.00  0.00     0.011 C 
HETATM   13  C14 UNL     1     -11.209   5.363 -20.370  1.00  0.00     0.012 C 
HETATM   14  C15 UNL     1     -10.024   4.448 -20.290  1.00  0.00     0.060 C 
HETATM   15  C16 UNL     1      -9.152   4.380 -19.130  1.00  0.00     0.016 C 
HETATM   16  C17 UNL     1     -12.121   4.712 -21.436  1.00  0.00     0.077 C 
HETATM   17  C18 UNL     1     -13.099   3.711 -20.906  1.00  0.00     0.040 C 
HETATM   18  C19 UNL     1     -13.581   3.016 -22.177  1.00  0.00     0.011 C 
HETATM   19  C20 UNL     1     -12.208   2.670 -22.716  1.00  0.00     0.033 C 
HETATM   20  C24 UNL     1     -11.492   3.994 -22.582  1.00  0.00     0.025 C 
HETATM   21  C25 UNL     1     -11.726   4.761 -23.898  1.00  0.00     0.022 C 
HETATM   22  C26 UNL     1     -10.072   3.651 -22.534  1.00  0.00     0.193 C 
ENDROOT
BRANCH  19  23
HETATM   23  C21 UNL     1     -12.303   1.861 -23.865  1.00  0.00     0.055 C 
HETATM   24  C22 UNL     1     -11.601   2.151 -25.146  1.00  0.00     0.045 C 
HETATM   25  C23 UNL     1     -13.711   1.439 -24.254  1.00  0.00     0.045 C 
BRANCH  23  26
HETATM   26  O7  UNL     1     -11.731   0.592 -23.499  1.00  0.00    -0.390 OA
ATOM     27  H7  UNL     1     -12.201  -0.059 -24.007  1.00  0.00     0.210 HD
ENDBRANCH  23  26
ENDBRANCH  19  23
BRANCH  16  28
HETATM   28  O6  UNL     1     -12.943   5.698 -21.986  1.00  0.00    -0.388 OA
ATOM     29  H6  UNL     1     -13.612   5.278 -22.514  1.00  0.00     0.210 HD
ENDBRANCH  16  28
BRANCH  22  30
HETATM   30  O8  UNL     1      -9.805   2.346 -22.046  1.00  0.00    -0.389 OA
ATOM     31  H8  UNL     1     -10.389   1.830 -22.590  1.00  0.00     0.210 HD
ENDBRANCH  22  30
BRANCH   1  32
HETATM   32  O2  UNL     1      -7.999   3.886 -21.618  1.00  0.00    -0.280 OA
BRANCH  32  33
HETATM   33  C2  UNL     1      -6.746   4.380 -21.665  1.00  0.00     0.257 C 
HETATM   34  C1  UNL     1      -5.932   4.627 -20.434  1.00  0.00     0.126 C 
HETATM   35  O1  UNL     1      -6.241   4.643 -22.783  1.00  0.00    -0.266 OA
ENDBRANCH  32  33
ENDBRANCH   1  32
BRANCH   3  36
HETATM   36  O4  UNL     1      -9.594   7.757 -22.682  1.00  0.00    -0.371 OA
ATOM     37  H4  UNL     1     -10.078   8.479 -22.300  1.00  0.00     0.212 HD
ENDBRANCH   3  36
BRANCH   8  38
HETATM   38  O5  UNL     1     -13.251   8.837 -19.853  1.00  0.00    -0.389 OA
ATOM     39  H5  UNL     1     -13.635   8.444 -20.628  1.00  0.00     0.210 HD
ENDBRANCH   8  38
TORSDOF 8
ENDMDL
MODEL 4
REMARK VINA RESULT: -5.991867696      1.770      4.753
REMARK  8 active torsions:
REMARK  status: ('A' for Active; 'I' for Inactive)
REMARK    1  A    between atoms: C2_2  and  O2_4 
REMARK    2  A    between atoms: O2_4  and  C3_5 
REMARK    3  A    between atoms: C4_7  and  O4_8 
REMARK    4  A    between atoms: C9_14  and  O5_16 
REMARK    5  A    between atoms: C17_24  and  O6_25 
REMARK    6  A    between atoms: C20_29  and  C21_30 
REMARK    7  A    between atoms: C21_30  and  O7_33 
REMARK    8  A    between atoms: C26_37  and  O8_38 
ROOT
HETATM    1  C3  UNL     1       3.262   6.572 -15.911  1.00  0.00     0.206 C 
HETATM    2  O3  UNL     1       2.842   5.431 -16.526  1.00  0.00    -0.321 OA
HETATM    3  C4  UNL     1       1.529   5.100 -16.459  1.00  0.00     0.266 C 
HETATM    4  C5  UNL     1       0.927   5.220 -15.086  1.00  0.00     0.064 C 
HETATM    5  C6  UNL     1      -0.550   5.120 -15.216  1.00  0.00    -0.008 C 
HETATM    6  C7  UNL     1      -1.179   5.909 -16.344  1.00  0.00     0.018 C 
HETATM    7  C8  UNL     1      -0.865   3.675 -15.685  1.00  0.00     0.018 C 
HETATM    8  C9  UNL     1      -1.298   5.238 -13.911  1.00  0.00     0.062 C 
HETATM    9  C10 UNL     1      -2.607   5.998 -14.048  1.00  0.00     0.046 C 
HETATM   10  C11 UNL     1      -0.463   5.788 -12.802  1.00  0.00     0.043 C 
HETATM   11  C12 UNL     1       0.542   6.862 -13.263  1.00  0.00    -0.003 C 
HETATM   12  C13 UNL     1      -0.219   8.081 -13.525  1.00  0.00     0.011 C 
HETATM   13  C14 UNL     1       1.555   6.279 -14.194  1.00  0.00     0.012 C 
HETATM   14  C15 UNL     1       2.373   7.268 -14.967  1.00  0.00     0.060 C 
HETATM   15  C16 UNL     1       1.811   8.466 -15.568  1.00  0.00     0.016 C 
HETATM   16  C17 UNL     1       2.583   5.553 -13.296  1.00  0.00     0.077 C 
HETATM   17  C18 UNL     1       2.823   6.193 -11.965  1.00  0.00     0.040 C 
HETATM   18  C19 UNL     1       4.087   5.486 -11.483  1.00  0.00     0.011 C 
HETATM   19  C20 UNL     1       4.917   5.750 -12.722  1.00  0.00     0.033 C 
HETATM   20  C24 UNL     1       3.963   5.329 -13.816  1.00  0.00     0.025 C 
HETATM   21  C25 UNL     1       4.212   3.830 -14.069  1.00  0.00     0.022 C 
HETATM   22  C26 UNL     1       4.417   6.045 -15.007  1.00  0.00     0.193 C 
ENDROOT
BRANCH  19  23
HETATM   23  C21 UNL     1       6.249   5.331 -12.539  1.00  0.00     0.055 C 
HETATM   24  C22 UNL     1       7.045   4.620 -13.578  1.00  0.00     0.045 C 
HETATM   25  C23 UNL     1       6.535   4.606 -11.235  1.00  0.00     0.045 C 
BRANCH  23  26
HETATM   26  O7  UNL     1       7.017   6.535 -12.355  1.00  0.00    -0.390 OA
ATOM     27  H7  UNL     1       7.927   6.262 -12.352  1.00  0.00     0.210 HD
ENDBRANCH  23  26
ENDBRANCH  19  23
BRANCH  16  28
HETATM   28  O6  UNL     1       2.076   4.297 -12.958  1.00  0.00    -0.388 OA
ATOM     29  H6  UNL     1       2.529   3.983 -12.184  1.00  0.00     0.210 HD
ENDBRANCH  16  28
BRANCH  22  30
HETATM   30  O8  UNL     1       5.111   7.250 -14.732  1.00  0.00    -0.389 OA
ATOM     31  H8  UNL     1       5.840   7.177 -15.338  1.00  0.00     0.210 HD
ENDBRANCH  22  30
BRANCH   1  32
HETATM   32  O2  UNL     1       3.982   7.293 -16.863  1.00  0.00    -0.280 OA
BRANCH  32  33
HETATM   33  C2  UNL     1       4.049   7.192 -18.205  1.00  0.00     0.257 C 
HETATM   34  C1  UNL     1       2.912   7.574 -19.099  1.00  0.00     0.126 C 
HETATM   35  O1  UNL     1       5.106   6.762 -18.726  1.00  0.00    -0.266 OA
ENDBRANCH  32  33
ENDBRANCH   1  32
BRANCH   3  36
HETATM   36  O4  UNL     1       1.543   3.729 -16.874  1.00  0.00    -0.371 OA
ATOM     37  H4  UNL     1       0.717   3.408 -16.530  1.00  0.00     0.212 HD
ENDBRANCH   3  36
BRANCH   8  38
HETATM   38  O5  UNL     1      -1.691   3.967 -13.405  1.00  0.00    -0.389 OA
ATOM     39  H5  UNL     1      -0.981   3.529 -12.952  1.00  0.00     0.210 HD
ENDBRANCH   8  38
TORSDOF 8
ENDMDL
MODEL 5
REMARK VINA RESULT: -5.845957024     10.825     14.930
REMARK  8 active torsions:
REMARK  status: ('A' for Active; 'I' for Inactive)
REMARK    1  A    between atoms: C2_2  and  O2_4 
REMARK    2  A    between atoms: O2_4  and  C3_5 
REMARK    3  A    between atoms: C4_7  and  O4_8 
REMARK    4  A    between atoms: C9_14  and  O5_16 
REMARK    5  A    between atoms: C17_24  and  O6_25 
REMARK    6  A    between atoms: C20_29  and  C21_30 
REMARK    7  A    between atoms: C21_30  and  O7_33 
REMARK    8  A    between atoms: C26_37  and  O8_38 
ROOT
HETATM    1  C3  UNL     1     -12.387   5.733 -18.593  1.00  0.00     0.206 C 
HETATM    2  O3  UNL     1     -12.429   6.998 -18.087  1.00  0.00    -0.321 OA
HETATM    3  C4  UNL     1     -13.178   7.931 -18.725  1.00  0.00     0.266 C 
HETATM    4  C5  UNL     1     -12.998   7.957 -20.218  1.00  0.00     0.064 C 
HETATM    5  C6  UNL     1     -14.075   8.799 -20.800  1.00  0.00    -0.008 C 
HETATM    6  C7  UNL     1     -15.469   8.580 -20.251  1.00  0.00     0.018 C 
HETATM    7  C8  UNL     1     -13.820  10.254 -20.323  1.00  0.00     0.018 C 
HETATM    8  C9  UNL     1     -14.033   8.909 -22.304  1.00  0.00     0.062 C 
HETATM    9  C10 UNL     1     -15.416   8.931 -22.934  1.00  0.00     0.046 C 
HETATM   10  C11 UNL     1     -13.161   7.881 -22.945  1.00  0.00     0.043 C 
HETATM   11  C12 UNL     1     -13.192   6.516 -22.231  1.00  0.00    -0.003 C 
HETATM   12  C13 UNL     1     -14.468   5.886 -22.559  1.00  0.00     0.011 C 
HETATM   13  C14 UNL     1     -12.632   6.624 -20.850  1.00  0.00     0.012 C 
HETATM   14  C15 UNL     1     -12.908   5.464 -19.942  1.00  0.00     0.060 C 
HETATM   15  C16 UNL     1     -14.196   4.796 -19.880  1.00  0.00     0.016 C 
HETATM   16  C17 UNL     1     -11.094   6.618 -21.017  1.00  0.00     0.077 C 
HETATM   17  C18 UNL     1     -10.585   5.784 -22.151  1.00  0.00     0.040 C 
HETATM   18  C19 UNL     1      -9.092   5.696 -21.849  1.00  0.00     0.011 C 
HETATM   19  C20 UNL     1      -9.231   5.208 -20.422  1.00  0.00     0.033 C 
HETATM   20  C24 UNL     1     -10.245   6.184 -19.871  1.00  0.00     0.025 C 
HETATM   21  C25 UNL     1      -9.452   7.375 -19.301  1.00  0.00     0.022 C 
HETATM   22  C26 UNL     1     -10.854   5.494 -18.736  1.00  0.00     0.193 C 
ENDROOT
BRANCH  19  23
HETATM   23  C21 UNL     1      -7.976   4.878 -19.874  1.00  0.00     0.055 C 
HETATM   24  C22 UNL     1      -7.369   5.578 -18.708  1.00  0.00     0.045 C 
HETATM   25  C23 UNL     1      -6.850   4.697 -20.878  1.00  0.00     0.045 C 
BRANCH  23  26
HETATM   26  O7  UNL     1      -8.111   3.536 -19.371  1.00  0.00    -0.390 OA
ATOM     27  H7  UNL     1      -7.803   3.565 -18.472  1.00  0.00     0.210 HD
ENDBRANCH  23  26
ENDBRANCH  19  23
BRANCH  16  28
HETATM   28  O6  UNL     1     -10.675   7.906 -21.359  1.00  0.00    -0.388 OA
ATOM     29  H6  UNL     1     -11.195   8.212 -22.092  1.00  0.00     0.210 HD
ENDBRANCH  16  28
BRANCH  22  30
HETATM   30  O8  UNL     1     -10.814   4.079 -18.826  1.00  0.00    -0.389 OA
ATOM     31  H8  UNL     1      -9.908   3.912 -18.594  1.00  0.00     0.210 HD
ENDBRANCH  22  30
BRANCH   1  32
HETATM   32  O2  UNL     1     -12.690   4.875 -17.537  1.00  0.00    -0.280 OA
BRANCH  32  33
HETATM   33  C2  UNL     1     -12.943   5.107 -16.234  1.00  0.00     0.257 C 
HETATM   34  C1  UNL     1     -14.308   5.448 -15.727  1.00  0.00     0.126 C 
HETATM   35  O1  UNL     1     -11.997   5.035 -15.412  1.00  0.00    -0.266 OA
ENDBRANCH  32  33
ENDBRANCH   1  32
BRANCH   3  36
HETATM   36  O4  UNL     1     -12.695   9.150 -18.148  1.00  0.00    -0.371 OA
ATOM     37  H4  UNL     1     -13.492   9.536 -17.802  1.00  0.00     0.212 HD
ENDBRANCH   3  36
BRANCH   8  38
HETATM   38  O5  UNL     1     -13.442  10.131 -22.733  1.00  0.00    -0.389 OA
ATOM     39  H5  UNL     1     -13.665  10.337 -23.633  1.00  0.00     0.210 HD
ENDBRANCH   8  38
TORSDOF 8
ENDMDL
