MODEL 1
REMARK VINA RESULT: -8.023716979      0.000      0.000
REMARK  4 active torsions:
REMARK  status: ('A' for Active; 'I' for Inactive)
REMARK    1  A    between atoms: C4_5  and  N1_6 
REMARK    2  A    between atoms: N1_6  and  N2_8 
REMARK    3  A    between atoms: C5_10  and  C6_11 
REMARK    4  A    between atoms: N5_21  and  O3_22 
ROOT
HETATM    1  O1  UNL     1     116.909  -3.391 -53.614  1.00  0.00    -0.266 OA
HETATM    2  C1  UNL     1     117.506  -4.291 -54.262  1.00  0.00     0.275 C 
HETATM    3  C2  UNL     1     118.386  -3.908 -55.256  1.00  0.00     0.080 C 
HETATM    4  C3  UNL     1     119.039  -4.735 -56.167  1.00  0.00     0.055 C 
HETATM    5  C4  UNL     1     119.025  -6.113 -56.263  1.00  0.00     0.123 C 
HETATM    6  N4  UNL     1     118.561  -6.940 -55.294  1.00  0.00    -0.291 N 
ATOM      7  H4  UNL     1     118.904  -7.899 -55.348  1.00  0.00     0.172 HD
HETATM    8  C10 UNL     1     117.720  -6.698 -54.271  1.00  0.00     0.355 C 
HETATM    9  O2  UNL     1     117.364  -7.676 -53.565  1.00  0.00    -0.244 OA
HETATM   10  N5  UNL     1     117.176  -5.537 -53.864  1.00  0.00    -0.134 N 
ENDROOT
BRANCH   5  11
HETATM   11  N1  UNL     1     119.487  -6.650 -57.348  1.00  0.00    -0.286 N 
ATOM     12  H1  UNL     1     119.600  -7.661 -57.433  1.00  0.00     0.188 HD
BRANCH  11  13
HETATM   13  N2  UNL     1     119.824  -5.795 -58.394  1.00  0.00    -0.308 N 
HETATM   14  C5  UNL     1     120.755  -6.067 -59.243  1.00  0.00     0.136 C 
ATOM     15  H2  UNL     1     119.313  -4.918 -58.493  1.00  0.00     0.186 HD
BRANCH  14  16
HETATM   16  C6  UNL     1     121.037  -5.110 -60.306  1.00  0.00     0.049 A 
HETATM   17  C7  UNL     1     120.660  -3.776 -60.372  1.00  0.00     0.032 A 
HETATM   18  C8  UNL     1     121.125  -3.221 -61.544  1.00  0.00     0.019 A 
HETATM   19  C9  UNL     1     121.790  -4.223 -62.196  1.00  0.00     0.088 A 
HETATM   20  N3  UNL     1     121.725  -5.336 -61.444  1.00  0.00    -0.365 N 
ATOM     21  H3  UNL     1     122.140  -6.232 -61.700  1.00  0.00     0.165 HD
ENDBRANCH  14  16
ENDBRANCH  11  13
ENDBRANCH   5  11
BRANCH  10  22
HETATM   22  O3  UNL     1     116.153  -5.636 -52.922  1.00  0.00    -0.276 OA
ATOM     23  H3  UNL     1     115.472  -4.974 -52.967  1.00  0.00     0.245 HD
ENDBRANCH  10  22
TORSDOF 4
ENDMDL
MODEL 2
REMARK VINA RESULT: -7.844859016      1.035      1.107
REMARK  4 active torsions:
REMARK  status: ('A' for Active; 'I' for Inactive)
REMARK    1  A    between atoms: C4_5  and  N1_6 
REMARK    2  A    between atoms: N1_6  and  N2_8 
REMARK    3  A    between atoms: C5_10  and  C6_11 
REMARK    4  A    between atoms: N5_21  and  O3_22 
ROOT
HETATM    1  O1  UNL     1     116.111  -3.487 -54.894  1.00  0.00    -0.266 OA
HETATM    2  C1  UNL     1     117.021  -4.190 -55.406  1.00  0.00     0.275 C 
HETATM    3  C2  UNL     1     117.764  -3.649 -56.438  1.00  0.00     0.080 C 
HETATM    4  C3  UNL     1     118.716  -4.298 -57.222  1.00  0.00     0.055 C 
HETATM    5  C4  UNL     1     119.194  -5.590 -57.125  1.00  0.00     0.123 C 
HETATM    6  N4  UNL     1     118.999  -6.397 -56.053  1.00  0.00    -0.291 N 
ATOM      7  H4  UNL     1     119.660  -7.169 -55.971  1.00  0.00     0.172 HD
HETATM    8  C10 UNL     1     118.071  -6.343 -55.079  1.00  0.00     0.355 C 
HETATM    9  O2  UNL     1     118.044  -7.285 -54.246  1.00  0.00    -0.244 OA
HETATM   10  N5  UNL     1     117.131  -5.410 -54.841  1.00  0.00    -0.134 N 
ENDROOT
BRANCH   5  11
HETATM   11  N1  UNL     1     119.875  -6.061 -58.122  1.00  0.00    -0.286 N 
ATOM     12  H1  UNL     1     120.165  -7.039 -58.150  1.00  0.00     0.188 HD
BRANCH  11  13
HETATM   13  N2  UNL     1     120.196  -5.181 -59.152  1.00  0.00    -0.308 N 
HETATM   14  C5  UNL     1     121.033  -5.479 -60.086  1.00  0.00     0.136 C 
ATOM     15  H2  UNL     1     119.750  -4.264 -59.169  1.00  0.00     0.186 HD
BRANCH  14  16
HETATM   16  C6  UNL     1     121.306  -4.493 -61.124  1.00  0.00     0.049 A 
HETATM   17  C7  UNL     1     120.927  -3.158 -61.151  1.00  0.00     0.032 A 
HETATM   18  C8  UNL     1     121.383  -2.570 -62.310  1.00  0.00     0.019 A 
HETATM   19  C9  UNL     1     122.043  -3.553 -62.995  1.00  0.00     0.088 A 
HETATM   20  N3  UNL     1     121.985  -4.686 -62.273  1.00  0.00    -0.365 N 
ATOM     21  H3  UNL     1     122.400  -5.574 -62.557  1.00  0.00     0.165 HD
ENDBRANCH  14  16
ENDBRANCH  11  13
ENDBRANCH   5  11
BRANCH  10  22
HETATM   22  O3  UNL     1     116.157  -5.746 -53.900  1.00  0.00    -0.276 OA
ATOM     23  H3  UNL     1     116.114  -6.661 -53.646  1.00  0.00     0.245 HD
ENDBRANCH  10  22
TORSDOF 4
ENDMDL
MODEL 3
REMARK VINA RESULT: -7.842477554      0.887      1.003
REMARK  4 active torsions:
REMARK  status: ('A' for Active; 'I' for Inactive)
REMARK    1  A    between atoms: C4_5  and  N1_6 
REMARK    2  A    between atoms: N1_6  and  N2_8 
REMARK    3  A    between atoms: C5_10  and  C6_11 
REMARK    4  A    between atoms: N5_21  and  O3_22 
ROOT
HETATM    1  O1  UNL     1     116.564  -3.167 -53.960  1.00  0.00    -0.266 OA
HETATM    2  C1  UNL     1     117.192  -4.176 -54.374  1.00  0.00     0.275 C 
HETATM    3  C2  UNL     1     117.858  -4.083 -55.581  1.00  0.00     0.080 C 
HETATM    4  C3  UNL     1     118.494  -5.111 -56.275  1.00  0.00     0.055 C 
HETATM    5  C4  UNL     1     118.673  -6.431 -55.910  1.00  0.00     0.123 C 
HETATM    6  N4  UNL     1     118.478  -6.909 -54.656  1.00  0.00    -0.291 N 
ATOM      7  H4  UNL     1     118.950  -7.791 -54.455  1.00  0.00     0.172 HD
HETATM    8  C10 UNL     1     117.761  -6.406 -53.634  1.00  0.00     0.355 C 
HETATM    9  O2  UNL     1     117.657  -7.106 -52.594  1.00  0.00    -0.244 OA
HETATM   10  N5  UNL     1     117.112  -5.232 -53.538  1.00  0.00    -0.134 N 
ENDROOT
BRANCH   5  11
HETATM   11  N1  UNL     1     119.055  -7.266 -56.824  1.00  0.00    -0.286 N 
ATOM     12  H1  UNL     1     119.037  -8.273 -56.663  1.00  0.00     0.188 HD
BRANCH  11  13
HETATM   13  N2  UNL     1     119.489  -6.736 -58.037  1.00  0.00    -0.308 N 
HETATM   14  C5  UNL     1     120.734  -6.679 -58.365  1.00  0.00     0.136 C 
ATOM     15  H2  UNL     1     118.794  -6.379 -58.692  1.00  0.00     0.186 HD
BRANCH  14  16
HETATM   16  C6  UNL     1     121.094  -6.107 -59.657  1.00  0.00     0.049 A 
HETATM   17  C7  UNL     1     120.917  -4.799 -60.087  1.00  0.00     0.032 A 
HETATM   18  C8  UNL     1     121.392  -4.667 -61.374  1.00  0.00     0.019 A 
HETATM   19  C9  UNL     1     121.859  -5.903 -61.730  1.00  0.00     0.088 A 
HETATM   20  N3  UNL     1     121.672  -6.742 -60.696  1.00  0.00    -0.365 N 
ATOM     21  H3  UNL     1     121.934  -7.728 -60.698  1.00  0.00     0.165 HD
ENDBRANCH  14  16
ENDBRANCH  11  13
ENDBRANCH   5  11
BRANCH  10  22
HETATM   22  O3  UNL     1     116.256  -5.091 -52.445  1.00  0.00    -0.276 OA
ATOM     23  H3  UNL     1     116.345  -4.292 -51.939  1.00  0.00     0.245 HD
ENDBRANCH  10  22
TORSDOF 4
ENDMDL
MODEL 4
REMARK VINA RESULT: -7.797338245      1.307      2.435
REMARK  4 active torsions:
REMARK  status: ('A' for Active; 'I' for Inactive)
REMARK    1  A    between atoms: C4_5  and  N1_6 
REMARK    2  A    between atoms: N1_6  and  N2_8 
REMARK    3  A    between atoms: C5_10  and  C6_11 
REMARK    4  A    between atoms: N5_21  and  O3_22 
ROOT
HETATM    1  O1  UNL     1     117.015  -7.191 -53.701  1.00  0.00    -0.266 OA
HETATM    2  C1  UNL     1     117.422  -6.228 -54.403  1.00  0.00     0.275 C 
HETATM    3  C2  UNL     1     118.230  -6.505 -55.490  1.00  0.00     0.080 C 
HETATM    4  C3  UNL     1     118.887  -5.588 -56.307  1.00  0.00     0.055 C 
HETATM    5  C4  UNL     1     118.846  -4.207 -56.280  1.00  0.00     0.123 C 
HETATM    6  N4  UNL     1     117.926  -3.485 -55.594  1.00  0.00    -0.291 N 
ATOM      7  H4  UNL     1     117.807  -2.524 -55.917  1.00  0.00     0.172 HD
HETATM    8  C10 UNL     1     117.145  -3.832 -54.555  1.00  0.00     0.355 C 
HETATM    9  O2  UNL     1     116.441  -2.932 -54.028  1.00  0.00    -0.244 OA
HETATM   10  N5  UNL     1     116.986  -5.030 -53.964  1.00  0.00    -0.134 N 
ENDROOT
BRANCH   5  11
HETATM   11  N1  UNL     1     119.743  -3.561 -56.956  1.00  0.00    -0.286 N 
ATOM     12  H1  UNL     1     119.996  -2.601 -56.719  1.00  0.00     0.188 HD
BRANCH  11  13
HETATM   13  N2  UNL     1     120.349  -4.226 -58.019  1.00  0.00    -0.308 N 
HETATM   14  C5  UNL     1     120.205  -3.855 -59.245  1.00  0.00     0.136 C 
ATOM     15  H2  UNL     1     120.930  -5.040 -57.819  1.00  0.00     0.186 HD
BRANCH  14  16
HETATM   16  C6  UNL     1     120.879  -4.614 -60.291  1.00  0.00     0.049 A 
HETATM   17  C7  UNL     1     121.364  -4.146 -61.504  1.00  0.00     0.032 A 
HETATM   18  C8  UNL     1     121.933  -5.185 -62.208  1.00  0.00     0.019 A 
HETATM   19  C9  UNL     1     121.793  -6.293 -61.418  1.00  0.00     0.088 A 
HETATM   20  N3  UNL     1     121.165  -5.932 -60.286  1.00  0.00    -0.365 N 
ATOM     21  H3  UNL     1     120.936  -6.571 -59.524  1.00  0.00     0.165 HD
ENDBRANCH  14  16
ENDBRANCH  11  13
ENDBRANCH   5  11
BRANCH  10  22
HETATM   22  O3  UNL     1     116.288  -5.030 -52.756  1.00  0.00    -0.276 OA
ATOM     23  H3  UNL     1     115.735  -4.276 -52.587  1.00  0.00     0.245 HD
ENDBRANCH  10  22
TORSDOF 4
ENDMDL
MODEL 5
REMARK VINA RESULT: -7.779308029      2.841      3.541
REMARK  4 active torsions:
REMARK  status: ('A' for Active; 'I' for Inactive)
REMARK    1  A    between atoms: C4_5  and  N1_6 
REMARK    2  A    between atoms: N1_6  and  N2_8 
REMARK    3  A    between atoms: C5_10  and  C6_11 
REMARK    4  A    between atoms: N5_21  and  O3_22 
ROOT
HETATM    1  O1  UNL     1     116.549  -3.187 -54.120  1.00  0.00    -0.266 OA
HETATM    2  C1  UNL     1     117.157  -4.200 -54.554  1.00  0.00     0.275 C 
HETATM    3  C2  UNL     1     117.760  -4.121 -55.795  1.00  0.00     0.080 C 
HETATM    4  C3  UNL     1     118.362  -5.156 -56.508  1.00  0.00     0.055 C 
HETATM    5  C4  UNL     1     118.563  -6.471 -56.135  1.00  0.00     0.123 C 
HETATM    6  N4  UNL     1     118.434  -6.934 -54.867  1.00  0.00    -0.291 N 
ATOM      7  H4  UNL     1     118.918  -7.812 -54.679  1.00  0.00     0.172 HD
HETATM    8  C10 UNL     1     117.769  -6.419 -53.816  1.00  0.00     0.355 C 
HETATM    9  O2  UNL     1     117.721  -7.106 -52.763  1.00  0.00    -0.244 OA
HETATM   10  N5  UNL     1     117.123  -5.245 -53.701  1.00  0.00    -0.134 N 
ENDROOT
BRANCH   5  11
HETATM   11  N1  UNL     1     118.899  -7.317 -57.058  1.00  0.00    -0.286 N 
ATOM     12  H1  UNL     1     118.266  -7.543 -57.826  1.00  0.00     0.188 HD
BRANCH  11  13
HETATM   13  N2  UNL     1     120.156  -7.908 -56.961  1.00  0.00    -0.308 N 
HETATM   14  C5  UNL     1     121.201  -7.418 -57.533  1.00  0.00     0.136 C 
ATOM     15  H2  UNL     1     120.254  -8.764 -56.414  1.00  0.00     0.186 HD
BRANCH  14  16
HETATM   16  C6  UNL     1     122.476  -8.106 -57.374  1.00  0.00     0.049 A 
HETATM   17  C7  UNL     1     123.738  -7.542 -57.246  1.00  0.00     0.032 A 
HETATM   18  C8  UNL     1     124.680  -8.540 -57.117  1.00  0.00     0.019 A 
HETATM   19  C9  UNL     1     123.988  -9.719 -57.170  1.00  0.00     0.088 A 
HETATM   20  N3  UNL     1     122.682  -9.439 -57.323  1.00  0.00    -0.365 N 
ATOM     21  H3  UNL     1     121.944 -10.140 -57.390  1.00  0.00     0.165 HD
ENDBRANCH  14  16
ENDBRANCH  11  13
ENDBRANCH   5  11
BRANCH  10  22
HETATM   22  O3  UNL     1     116.324  -5.092 -52.568  1.00  0.00    -0.276 OA
ATOM     23  H3  UNL     1     115.449  -4.750 -52.711  1.00  0.00     0.245 HD
ENDBRANCH  10  22
TORSDOF 4
ENDMDL
