MODEL 1
REMARK VINA RESULT: -7.951676768      0.000      0.000
REMARK  8 active torsions:
REMARK  status: ('A' for Active; 'I' for Inactive)
REMARK    1  A    between atoms: C3_3  and  C4_4 
REMARK    2  A    between atoms: C3_3  and  C14_14 
REMARK    3  A    between atoms: C4_4  and  C5_5 
REMARK    4  A    between atoms: C6_6  and  C8_8 
REMARK    5  A    between atoms: C8_8  and  C9_9 
REMARK    6  A    between atoms: C9_9  and  C10_10 
REMARK    7  A    between atoms: C16_16  and  C17_17 
REMARK    8  A    between atoms: C21_23  and  O1_24 
ROOT
HETATM    1  C14 UNL     1     -10.166  19.487  -9.855  1.00  0.00    -0.054 C 
HETATM    2  C15 UNL     1     -10.552  21.037  -9.861  1.00  0.00     0.049 C 
HETATM    3  C16 UNL     1      -9.840  19.124  -8.692  1.00  0.00     0.037 C 
ENDROOT
BRANCH   1   4
HETATM    4  C3  UNL     1     -10.326  18.931 -11.163  1.00  0.00    -0.053 C 
HETATM    5  C2  UNL     1     -11.579  18.899 -11.697  1.00  0.00    -0.023 C 
HETATM    6  C1  UNL     1     -11.802  18.321 -13.072  1.00  0.00     0.036 C 
BRANCH   4   7
HETATM    7  C4  UNL     1      -9.295  18.356 -12.058  1.00  0.00     0.066 C 
BRANCH   7   8
HETATM    8  C5  UNL     1      -8.711  17.125 -11.525  1.00  0.00    -0.020 C 
HETATM    9  C6  UNL     1      -7.543  16.899 -10.991  1.00  0.00    -0.087 C 
HETATM   10  C7  UNL     1      -7.215  15.490 -10.522  1.00  0.00     0.043 C 
BRANCH   9  11
HETATM   11  C8  UNL     1      -6.489  17.911 -10.762  1.00  0.00     0.037 C 
BRANCH  11  12
HETATM   12  C9  UNL     1      -6.151  18.164  -9.331  1.00  0.00     0.031 C 
BRANCH  12  13
HETATM   13  C10 UNL     1      -4.795  17.843  -8.904  1.00  0.00    -0.024 C 
HETATM   14  C11 UNL     1      -4.397  16.940  -8.051  1.00  0.00    -0.091 C 
HETATM   15  C12 UNL     1      -2.912  16.814  -7.772  1.00  0.00     0.042 C 
HETATM   16  C13 UNL     1      -5.275  16.011  -7.355  1.00  0.00     0.042 C 
ENDBRANCH  12  13
ENDBRANCH  11  12
ENDBRANCH   9  11
ENDBRANCH   7   8
ENDBRANCH   4   7
ENDBRANCH   1   4
BRANCH   3  17
HETATM   17  C17 UNL     1      -9.419  18.035  -7.865  1.00  0.00     0.041 A 
HETATM   18  N1  UNL     1      -9.333  16.740  -8.057  1.00  0.00    -0.341 N 
HETATM   19  C18 UNL     1      -8.878  16.104  -6.933  1.00  0.00     0.118 A 
ATOM     20  H1  UNL     1      -9.573  16.270  -8.928  1.00  0.00     0.167 HD
HETATM   21  C19 UNL     1      -8.670  17.081  -5.994  1.00  0.00     0.019 A 
HETATM   22  N2  UNL     1      -8.642  14.804  -6.634  1.00  0.00    -0.344 N 
HETATM   23  C20 UNL     1      -8.213  16.727  -4.719  1.00  0.00     0.054 A 
HETATM   24  C25 UNL     1      -8.994  18.294  -6.525  1.00  0.00    -0.021 A 
HETATM   25  C21 UNL     1      -7.972  15.399  -4.422  1.00  0.00     0.084 A 
HETATM   26  C23 UNL     1      -8.194  14.450  -5.398  1.00  0.00     0.128 A 
HETATM   27  C26 UNL     1      -8.939  19.610  -5.887  1.00  0.00     0.052 C 
HETATM   28  C24 UNL     1      -8.885  13.805  -7.643  1.00  0.00     0.157 C 
BRANCH  25  29
HETATM   29  O1  UNL     1      -7.522  15.082  -3.150  1.00  0.00    -0.355 OA
HETATM   30  C22 UNL     1      -8.385  14.686  -2.111  1.00  0.00     0.210 C 
ENDBRANCH  25  29
ENDBRANCH   3  17
TORSDOF 8
ENDMDL
MODEL 2
REMARK VINA RESULT: -7.732006678      1.825      5.302
REMARK  8 active torsions:
REMARK  status: ('A' for Active; 'I' for Inactive)
REMARK    1  A    between atoms: C3_3  and  C4_4 
REMARK    2  A    between atoms: C3_3  and  C14_14 
REMARK    3  A    between atoms: C4_4  and  C5_5 
REMARK    4  A    between atoms: C6_6  and  C8_8 
REMARK    5  A    between atoms: C8_8  and  C9_9 
REMARK    6  A    between atoms: C9_9  and  C10_10 
REMARK    7  A    between atoms: C16_16  and  C17_17 
REMARK    8  A    between atoms: C21_23  and  O1_24 
ROOT
HETATM    1  C14 UNL     1      -7.616  13.116  -9.698  1.00  0.00    -0.054 C 
HETATM    2  C15 UNL     1      -8.342  11.881 -10.405  1.00  0.00     0.049 C 
HETATM    3  C16 UNL     1      -8.320  13.547  -8.744  1.00  0.00     0.037 C 
ENDROOT
BRANCH   1   4
HETATM    4  C3  UNL     1      -6.355  13.374 -10.322  1.00  0.00    -0.053 C 
HETATM    5  C2  UNL     1      -6.140  12.864 -11.567  1.00  0.00    -0.023 C 
HETATM    6  C1  UNL     1      -4.826  13.105 -12.268  1.00  0.00     0.036 C 
BRANCH   4   7
HETATM    7  C4  UNL     1      -5.200  14.139  -9.797  1.00  0.00     0.066 C 
BRANCH   7   8
HETATM    8  C5  UNL     1      -5.570  15.486  -9.361  1.00  0.00    -0.020 C 
HETATM    9  C6  UNL     1      -6.249  16.420  -9.967  1.00  0.00    -0.087 C 
HETATM   10  C7  UNL     1      -6.475  17.741  -9.250  1.00  0.00     0.043 C 
BRANCH   9  11
HETATM   11  C8  UNL     1      -6.863  16.307 -11.309  1.00  0.00     0.037 C 
BRANCH  11  12
HETATM   12  C9  UNL     1      -7.923  17.313 -11.608  1.00  0.00     0.031 C 
BRANCH  12  13
HETATM   13  C10 UNL     1      -9.304  16.909 -11.376  1.00  0.00    -0.024 C 
HETATM   14  C11 UNL     1     -10.387  17.303 -11.988  1.00  0.00    -0.091 C 
HETATM   15  C12 UNL     1     -11.718  16.729 -11.543  1.00  0.00     0.042 C 
HETATM   16  C13 UNL     1     -10.418  18.243 -13.099  1.00  0.00     0.042 C 
ENDBRANCH  12  13
ENDBRANCH  11  12
ENDBRANCH   9  11
ENDBRANCH   7   8
ENDBRANCH   4   7
ENDBRANCH   1   4
BRANCH   3  17
HETATM   17  C17 UNL     1      -8.420  14.501  -7.682  1.00  0.00     0.041 A 
HETATM   18  N1  UNL     1      -8.780  15.761  -7.637  1.00  0.00    -0.341 N 
HETATM   19  C18 UNL     1      -8.694  16.254  -6.361  1.00  0.00     0.118 A 
ATOM     20  H1  UNL     1      -9.084  16.304  -8.444  1.00  0.00     0.167 HD
HETATM   21  C19 UNL     1      -8.254  15.218  -5.577  1.00  0.00     0.019 A 
HETATM   22  N2  UNL     1      -8.934  17.470  -5.819  1.00  0.00    -0.344 N 
HETATM   23  C20 UNL     1      -8.052  15.426  -4.208  1.00  0.00     0.054 A 
HETATM   24  C25 UNL     1      -8.069  14.112  -6.353  1.00  0.00    -0.021 A 
HETATM   25  C21 UNL     1      -8.302  16.670  -3.660  1.00  0.00     0.084 A 
HETATM   26  C23 UNL     1      -8.744  17.682  -4.487  1.00  0.00     0.128 A 
HETATM   27  C26 UNL     1      -7.600  12.786  -5.948  1.00  0.00     0.052 C 
HETATM   28  C24 UNL     1      -9.382  18.537  -6.677  1.00  0.00     0.157 C 
BRANCH  25  29
HETATM   29  O1  UNL     1      -8.089  16.845  -2.303  1.00  0.00    -0.355 OA
HETATM   30  C22 UNL     1      -9.035  16.477  -1.327  1.00  0.00     0.210 C 
ENDBRANCH  25  29
ENDBRANCH   3  17
TORSDOF 8
ENDMDL
MODEL 3
REMARK VINA RESULT: -7.648707160      1.614      4.289
REMARK  8 active torsions:
REMARK  status: ('A' for Active; 'I' for Inactive)
REMARK    1  A    between atoms: C3_3  and  C4_4 
REMARK    2  A    between atoms: C3_3  and  C14_14 
REMARK    3  A    between atoms: C4_4  and  C5_5 
REMARK    4  A    between atoms: C6_6  and  C8_8 
REMARK    5  A    between atoms: C8_8  and  C9_9 
REMARK    6  A    between atoms: C9_9  and  C10_10 
REMARK    7  A    between atoms: C16_16  and  C17_17 
REMARK    8  A    between atoms: C21_23  and  O1_24 
ROOT
HETATM    1  C14 UNL     1      -7.722  13.156  -9.846  1.00  0.00    -0.054 C 
HETATM    2  C15 UNL     1      -8.272  11.746 -10.357  1.00  0.00     0.049 C 
HETATM    3  C16 UNL     1      -8.296  13.484  -8.772  1.00  0.00     0.037 C 
ENDROOT
BRANCH   1   4
HETATM    4  C3  UNL     1      -6.709  13.643 -10.730  1.00  0.00    -0.053 C 
HETATM    5  C2  UNL     1      -5.942  12.731 -11.391  1.00  0.00    -0.023 C 
HETATM    6  C1  UNL     1      -4.858  13.194 -12.333  1.00  0.00     0.036 C 
BRANCH   4   7
HETATM    7  C4  UNL     1      -6.349  15.046 -11.044  1.00  0.00     0.066 C 
BRANCH   7   8
HETATM    8  C5  UNL     1      -7.513  15.933 -11.063  1.00  0.00    -0.020 C 
HETATM    9  C6  UNL     1      -7.621  17.200 -10.776  1.00  0.00    -0.087 C 
HETATM   10  C7  UNL     1      -8.986  17.860 -10.889  1.00  0.00     0.043 C 
BRANCH   9  11
HETATM   11  C8  UNL     1      -6.511  18.091 -10.371  1.00  0.00     0.037 C 
BRANCH  11  12
HETATM   12  C9  UNL     1      -6.194  18.086  -8.913  1.00  0.00     0.031 C 
BRANCH  12  13
HETATM   13  C10 UNL     1      -4.808  17.836  -8.538  1.00  0.00    -0.024 C 
HETATM   14  C11 UNL     1      -4.263  16.734  -8.101  1.00  0.00    -0.091 C 
HETATM   15  C12 UNL     1      -2.784  16.741  -7.769  1.00  0.00     0.042 C 
HETATM   16  C13 UNL     1      -4.966  15.471  -7.931  1.00  0.00     0.042 C 
ENDBRANCH  12  13
ENDBRANCH  11  12
ENDBRANCH   9  11
ENDBRANCH   7   8
ENDBRANCH   4   7
ENDBRANCH   1   4
BRANCH   3  17
HETATM   17  C17 UNL     1      -8.396  14.462  -7.732  1.00  0.00     0.041 A 
HETATM   18  N1  UNL     1      -8.730  15.730  -7.719  1.00  0.00    -0.341 N 
HETATM   19  C18 UNL     1      -8.656  16.247  -6.453  1.00  0.00     0.118 A 
ATOM     20  H1  UNL     1      -9.008  16.262  -8.543  1.00  0.00     0.167 HD
HETATM   21  C19 UNL     1      -8.252  15.219  -5.640  1.00  0.00     0.019 A 
HETATM   22  N2  UNL     1      -8.880  17.479  -5.940  1.00  0.00    -0.344 N 
HETATM   23  C20 UNL     1      -8.069  15.452  -4.272  1.00  0.00     0.054 A 
HETATM   24  C25 UNL     1      -8.076  14.094  -6.389  1.00  0.00    -0.021 A 
HETATM   25  C21 UNL     1      -8.303  16.712  -3.754  1.00  0.00     0.084 A 
HETATM   26  C23 UNL     1      -8.709  17.715  -4.609  1.00  0.00     0.128 A 
HETATM   27  C26 UNL     1      -7.642  12.767  -5.948  1.00  0.00     0.052 C 
HETATM   28  C24 UNL     1      -9.292  18.536  -6.827  1.00  0.00     0.157 C 
BRANCH  25  29
HETATM   29  O1  UNL     1      -8.111  16.910  -2.397  1.00  0.00    -0.355 OA
HETATM   30  C22 UNL     1      -9.013  16.446  -1.421  1.00  0.00     0.210 C 
ENDBRANCH  25  29
ENDBRANCH   3  17
TORSDOF 8
ENDMDL
MODEL 4
REMARK VINA RESULT: -7.647460744      2.564      6.359
REMARK  8 active torsions:
REMARK  status: ('A' for Active; 'I' for Inactive)
REMARK    1  A    between atoms: C3_3  and  C4_4 
REMARK    2  A    between atoms: C3_3  and  C14_14 
REMARK    3  A    between atoms: C4_4  and  C5_5 
REMARK    4  A    between atoms: C6_6  and  C8_8 
REMARK    5  A    between atoms: C8_8  and  C9_9 
REMARK    6  A    between atoms: C9_9  and  C10_10 
REMARK    7  A    between atoms: C16_16  and  C17_17 
REMARK    8  A    between atoms: C21_23  and  O1_24 
ROOT
HETATM    1  C14 UNL     1      -5.162  15.106  -9.374  1.00  0.00    -0.054 C 
HETATM    2  C15 UNL     1      -3.624  14.970  -8.963  1.00  0.00     0.049 C 
HETATM    3  C16 UNL     1      -5.596  16.250  -9.067  1.00  0.00     0.037 C 
ENDROOT
BRANCH   1   4
HETATM    4  C3  UNL     1      -5.615  13.904 -10.005  1.00  0.00    -0.053 C 
HETATM    5  C2  UNL     1      -4.974  13.493 -11.135  1.00  0.00    -0.023 C 
HETATM    6  C1  UNL     1      -5.415  12.234 -11.840  1.00  0.00     0.036 C 
BRANCH   4   7
HETATM    7  C4  UNL     1      -6.722  13.006  -9.601  1.00  0.00     0.066 C 
BRANCH   7   8
HETATM    8  C5  UNL     1      -7.963  13.732  -9.331  1.00  0.00    -0.020 C 
HETATM    9  C6  UNL     1      -8.582  13.971  -8.208  1.00  0.00    -0.087 C 
HETATM   10  C7  UNL     1      -9.877  14.766  -8.243  1.00  0.00     0.043 C 
BRANCH   9  11
HETATM   11  C8  UNL     1      -8.119  13.561  -6.864  1.00  0.00     0.037 C 
BRANCH  11  12
HETATM   12  C9  UNL     1      -7.082  14.443  -6.254  1.00  0.00     0.031 C 
BRANCH  12  13
HETATM   13  C10 UNL     1      -7.547  15.667  -5.614  1.00  0.00    -0.024 C 
HETATM   14  C11 UNL     1      -8.006  15.837  -4.405  1.00  0.00    -0.091 C 
HETATM   15  C12 UNL     1      -8.438  17.228  -3.984  1.00  0.00     0.042 C 
HETATM   16  C13 UNL     1      -8.112  14.787  -3.402  1.00  0.00     0.042 C 
ENDBRANCH  12  13
ENDBRANCH  11  12
ENDBRANCH   9  11
ENDBRANCH   7   8
ENDBRANCH   4   7
ENDBRANCH   1   4
BRANCH   3  17
HETATM   17  C17 UNL     1      -6.720  17.135  -9.085  1.00  0.00     0.041 A 
HETATM   18  N1  UNL     1      -7.256  17.925  -8.187  1.00  0.00    -0.341 N 
HETATM   19  C18 UNL     1      -8.354  18.571  -8.690  1.00  0.00     0.118 A 
ATOM     20  H1  UNL     1      -6.903  18.044  -7.238  1.00  0.00     0.167 HD
HETATM   21  C19 UNL     1      -8.491  18.145  -9.986  1.00  0.00     0.019 A 
HETATM   22  N2  UNL     1      -9.234  19.454  -8.162  1.00  0.00    -0.344 N 
HETATM   23  C20 UNL     1      -9.551  18.628 -10.763  1.00  0.00     0.054 A 
HETATM   24  C25 UNL     1      -7.502  17.253 -10.275  1.00  0.00    -0.021 A 
HETATM   25  C21 UNL     1     -10.444  19.531 -10.218  1.00  0.00     0.084 A 
HETATM   26  C23 UNL     1     -10.266  19.932  -8.910  1.00  0.00     0.128 A 
HETATM   27  C26 UNL     1      -7.262  16.535 -11.528  1.00  0.00     0.052 C 
HETATM   28  C24 UNL     1      -9.064  19.868  -6.792  1.00  0.00     0.157 C 
BRANCH  25  29
HETATM   29  O1  UNL     1     -11.483  19.988 -11.012  1.00  0.00    -0.355 OA
HETATM   30  C22 UNL     1     -12.057  19.215 -12.039  1.00  0.00     0.210 C 
ENDBRANCH  25  29
ENDBRANCH   3  17
TORSDOF 8
ENDMDL
MODEL 5
REMARK VINA RESULT: -7.625824774      1.794      5.029
REMARK  8 active torsions:
REMARK  status: ('A' for Active; 'I' for Inactive)
REMARK    1  A    between atoms: C3_3  and  C4_4 
REMARK    2  A    between atoms: C3_3  and  C14_14 
REMARK    3  A    between atoms: C4_4  and  C5_5 
REMARK    4  A    between atoms: C6_6  and  C8_8 
REMARK    5  A    between atoms: C8_8  and  C9_9 
REMARK    6  A    between atoms: C9_9  and  C10_10 
REMARK    7  A    between atoms: C16_16  and  C17_17 
REMARK    8  A    between atoms: C21_23  and  O1_24 
ROOT
HETATM    1  C14 UNL     1      -7.663  13.110  -9.564  1.00  0.00    -0.054 C 
HETATM    2  C15 UNL     1      -8.459  11.980 -10.365  1.00  0.00     0.049 C 
HETATM    3  C16 UNL     1      -8.391  13.596  -8.656  1.00  0.00     0.037 C 
ENDROOT
BRANCH   1   4
HETATM    4  C3  UNL     1      -6.334  13.237 -10.077  1.00  0.00    -0.053 C 
HETATM    5  C2  UNL     1      -6.164  13.227 -11.429  1.00  0.00    -0.023 C 
HETATM    6  C1  UNL     1      -4.782  13.356 -12.020  1.00  0.00     0.036 C 
BRANCH   4   7
HETATM    7  C4  UNL     1      -5.062  13.380  -9.330  1.00  0.00     0.066 C 
BRANCH   7   8
HETATM    8  C5  UNL     1      -5.154  14.361  -8.248  1.00  0.00    -0.020 C 
HETATM    9  C6  UNL     1      -5.112  15.664  -8.275  1.00  0.00    -0.087 C 
HETATM   10  C7  UNL     1      -5.235  16.426  -6.965  1.00  0.00     0.043 C 
BRANCH   9  11
HETATM   11  C8  UNL     1      -4.986  16.498  -9.490  1.00  0.00     0.037 C 
BRANCH  11  12
HETATM   12  C9  UNL     1      -6.171  17.349  -9.802  1.00  0.00     0.031 C 
BRANCH  12  13
HETATM   13  C10 UNL     1      -7.310  16.694 -10.431  1.00  0.00    -0.024 C 
HETATM   14  C11 UNL     1      -8.532  17.130 -10.574  1.00  0.00    -0.091 C 
HETATM   15  C12 UNL     1      -9.542  16.237 -11.266  1.00  0.00     0.042 C 
HETATM   16  C13 UNL     1      -9.001  18.438 -10.139  1.00  0.00     0.042 C 
ENDBRANCH  12  13
ENDBRANCH  11  12
ENDBRANCH   9  11
ENDBRANCH   7   8
ENDBRANCH   4   7
ENDBRANCH   1   4
BRANCH   3  17
HETATM   17  C17 UNL     1      -8.474  14.531  -7.577  1.00  0.00     0.041 A 
HETATM   18  N1  UNL     1      -8.808  15.797  -7.508  1.00  0.00    -0.341 N 
HETATM   19  C18 UNL     1      -8.713  16.264  -6.224  1.00  0.00     0.118 A 
ATOM     20  H1  UNL     1      -9.100  16.361  -8.306  1.00  0.00     0.167 HD
HETATM   21  C19 UNL     1      -8.296  15.205  -5.459  1.00  0.00     0.019 A 
HETATM   22  N2  UNL     1      -8.930  17.475  -5.659  1.00  0.00    -0.344 N 
HETATM   23  C20 UNL     1      -8.091  15.384  -4.086  1.00  0.00     0.054 A 
HETATM   24  C25 UNL     1      -8.132  14.111  -6.255  1.00  0.00    -0.021 A 
HETATM   25  C21 UNL     1      -8.316  16.622  -3.515  1.00  0.00     0.084 A 
HETATM   26  C23 UNL     1      -8.737  17.658  -4.323  1.00  0.00     0.128 A 
HETATM   27  C26 UNL     1      -7.691  12.768  -5.875  1.00  0.00     0.052 C 
HETATM   28  C24 UNL     1      -9.356  18.566  -6.497  1.00  0.00     0.157 C 
BRANCH  25  29
HETATM   29  O1  UNL     1      -8.102  16.767  -2.154  1.00  0.00    -0.355 OA
HETATM   30  C22 UNL     1      -9.088  16.482  -1.191  1.00  0.00     0.210 C 
ENDBRANCH  25  29
ENDBRANCH   3  17
TORSDOF 8
ENDMDL
