MODEL 1
REMARK VINA RESULT: -10.453837235      0.000      0.000
REMARK  7 active torsions:
REMARK  status: ('A' for Active; 'I' for Inactive)
REMARK    1  A    between atoms: C4_4  and  C5_5 
REMARK    2  A    between atoms: C5_5  and  C6_6 
REMARK    3  A    between atoms: C6_6  and  C7_7 
REMARK    4  A    between atoms: C9_9  and  C10_10 
REMARK    5  A    between atoms: C11_11  and  C12_12 
REMARK    6  A    between atoms: C22_22  and  O1_23 
REMARK    7  A    between atoms: C25_27  and  N1_28 
ROOT
HETATM    1  C12 UNL     1      13.545   3.477  -3.451  1.00  0.00     0.011 C 
HETATM    2  C13 UNL     1      13.604   2.707  -2.184  1.00  0.00     0.022 C 
HETATM    3  C14 UNL     1      14.763   2.955  -4.287  1.00  0.00     0.236 C 
HETATM    4  C15 UNL     1      14.676   1.524  -4.592  1.00  0.00     0.051 C 
HETATM    5  C16 UNL     1      13.579   1.347  -5.588  1.00  0.00     0.023 C 
HETATM    6  C17 UNL     1      13.992   2.073  -6.849  1.00  0.00     0.050 C 
HETATM    7  C18 UNL     1      14.147   3.542  -6.542  1.00  0.00     0.224 C 
HETATM    8  C19 UNL     1      12.832   4.247  -6.586  1.00  0.00     0.036 C 
HETATM    9  C20 UNL     1      12.040   4.241  -5.342  1.00  0.00     0.011 C 
HETATM   10  C21 UNL     1      12.361   3.165  -4.331  1.00  0.00     0.035 C 
HETATM   11  C22 UNL     1      12.304   1.872  -5.022  1.00  0.00     0.072 C 
HETATM   12  C23 UNL     1      11.657   0.714  -4.362  1.00  0.00     0.041 C 
HETATM   13  C24 UNL     1      12.555  -0.507  -4.630  1.00  0.00     0.036 C 
HETATM   14  C25 UNL     1      13.291  -0.087  -5.905  1.00  0.00     0.195 C 
HETATM   15  N2  UNL     1      14.921   3.826  -5.371  1.00  0.00     0.094 N 
HETATM   16  C26 UNL     1      16.343   3.885  -5.722  1.00  0.00     0.310 C 
ENDROOT
BRANCH   1  17
HETATM   17  C11 UNL     1      13.889   4.893  -3.280  1.00  0.00    -0.015 C 
HETATM   18  C10 UNL     1      13.780   5.720  -2.124  1.00  0.00    -0.003 C 
BRANCH  18  19
HETATM   19  C9  UNL     1      14.463   5.825  -0.899  1.00  0.00     0.002 C 
HETATM   20  C7  UNL     1      14.401   6.571   0.135  1.00  0.00    -0.084 C 
HETATM   21  C8  UNL     1      13.457   7.650   0.496  1.00  0.00     0.043 C 
BRANCH  20  22
HETATM   22  C6  UNL     1      15.405   6.296   1.266  1.00  0.00     0.037 C 
BRANCH  22  23
HETATM   23  C5  UNL     1      16.210   7.515   1.595  1.00  0.00     0.031 C 
BRANCH  23  24
HETATM   24  C4  UNL     1      16.169   7.654   3.086  1.00  0.00    -0.024 C 
HETATM   25  C2  UNL     1      15.595   8.640   3.724  1.00  0.00    -0.091 C 
HETATM   26  C1  UNL     1      14.926   9.719   2.970  1.00  0.00     0.042 C 
HETATM   27  C3  UNL     1      15.618   8.664   5.226  1.00  0.00     0.042 C 
ENDBRANCH  23  24
ENDBRANCH  22  23
ENDBRANCH  20  22
ENDBRANCH  18  19
ENDBRANCH   1  17
BRANCH  11  28
HETATM   28  O1  UNL     1      11.481   2.082  -6.185  1.00  0.00    -0.389 OA
ATOM     29  H1  UNL     1      10.994   2.870  -5.974  1.00  0.00     0.210 HD
ENDBRANCH  11  28
BRANCH  14  30
HETATM   30  N1  UNL     1      14.461  -0.873  -6.157  1.00  0.00    -0.074 N 
ATOM     31  H13 UNL     1      15.304  -0.339  -5.947  1.00  0.00     0.274 HD
ATOM     32  H12 UNL     1      14.550  -1.616  -5.464  1.00  0.00     0.274 HD
ATOM     33  H11 UNL     1      14.507  -1.257  -7.101  1.00  0.00     0.274 HD
ENDBRANCH  14  30
TORSDOF 7
ENDMDL
MODEL 2
REMARK VINA RESULT: -9.909561802      1.612      2.780
REMARK  7 active torsions:
REMARK  status: ('A' for Active; 'I' for Inactive)
REMARK    1  A    between atoms: C4_4  and  C5_5 
REMARK    2  A    between atoms: C5_5  and  C6_6 
REMARK    3  A    between atoms: C6_6  and  C7_7 
REMARK    4  A    between atoms: C9_9  and  C10_10 
REMARK    5  A    between atoms: C11_11  and  C12_12 
REMARK    6  A    between atoms: C22_22  and  O1_23 
REMARK    7  A    between atoms: C25_27  and  N1_28 
ROOT
HETATM    1  C12 UNL     1      14.035   3.166  -3.890  1.00  0.00     0.011 C 
HETATM    2  C13 UNL     1      15.336   3.881  -3.925  1.00  0.00     0.022 C 
HETATM    3  C14 UNL     1      13.165   3.875  -4.984  1.00  0.00     0.236 C 
HETATM    4  C15 UNL     1      13.737   3.764  -6.329  1.00  0.00     0.051 C 
HETATM    5  C16 UNL     1      13.592   2.343  -6.758  1.00  0.00     0.023 C 
HETATM    6  C17 UNL     1      12.111   2.048  -6.850  1.00  0.00     0.050 C 
HETATM    7  C18 UNL     1      11.491   2.216  -5.485  1.00  0.00     0.224 C 
HETATM    8  C19 UNL     1      11.668   0.989  -4.653  1.00  0.00     0.036 C 
HETATM    9  C20 UNL     1      12.924   0.888  -3.888  1.00  0.00     0.011 C 
HETATM   10  C21 UNL     1      14.084   1.734  -4.359  1.00  0.00     0.035 C 
HETATM   11  C22 UNL     1      14.289   1.455  -5.785  1.00  0.00     0.072 C 
HETATM   12  C23 UNL     1      15.664   1.292  -6.311  1.00  0.00     0.041 C 
HETATM   13  C24 UNL     1      15.717   2.045  -7.652  1.00  0.00     0.036 C 
HETATM   14  C25 UNL     1      14.245   2.050  -8.073  1.00  0.00     0.195 C 
HETATM   15  N2  UNL     1      11.850   3.430  -4.815  1.00  0.00     0.094 N 
HETATM   16  C26 UNL     1      10.936   4.503  -5.216  1.00  0.00     0.310 C 
ENDROOT
BRANCH   1  17
HETATM   17  C11 UNL     1      13.261   3.439  -2.674  1.00  0.00    -0.015 C 
HETATM   18  C10 UNL     1      13.681   3.440  -1.312  1.00  0.00    -0.003 C 
BRANCH  18  19
HETATM   19  C9  UNL     1      14.474   4.279  -0.508  1.00  0.00     0.002 C 
HETATM   20  C7  UNL     1      14.624   5.536  -0.347  1.00  0.00    -0.084 C 
HETATM   21  C8  UNL     1      13.904   6.682  -0.942  1.00  0.00     0.043 C 
BRANCH  20  22
HETATM   22  C6  UNL     1      15.662   5.997   0.690  1.00  0.00     0.037 C 
BRANCH  22  23
HETATM   23  C5  UNL     1      15.639   7.484   0.867  1.00  0.00     0.031 C 
BRANCH  23  24
HETATM   24  C4  UNL     1      15.940   7.738   2.312  1.00  0.00    -0.024 C 
HETATM   25  C2  UNL     1      15.346   8.643   3.046  1.00  0.00    -0.091 C 
HETATM   26  C1  UNL     1      14.299   9.502   2.456  1.00  0.00     0.042 C 
HETATM   27  C3  UNL     1      15.734   8.798   4.488  1.00  0.00     0.042 C 
ENDBRANCH  23  24
ENDBRANCH  22  23
ENDBRANCH  20  22
ENDBRANCH  18  19
ENDBRANCH   1  17
BRANCH  11  28
HETATM   28  O1  UNL     1      13.697   0.164  -6.023  1.00  0.00    -0.389 OA
ATOM     29  H1  UNL     1      14.214  -0.421  -5.482  1.00  0.00     0.210 HD
ENDBRANCH  11  28
BRANCH  14  30
HETATM   30  N1  UNL     1      13.960   3.015  -9.092  1.00  0.00    -0.074 N 
ATOM     31  H13 UNL     1      13.004   3.360  -9.001  1.00  0.00     0.274 HD
ATOM     32  H12 UNL     1      14.472   3.880  -8.919  1.00  0.00     0.274 HD
ATOM     33  H11 UNL     1      14.132   2.681 -10.039  1.00  0.00     0.274 HD
ENDBRANCH  14  30
TORSDOF 7
ENDMDL
MODEL 3
REMARK VINA RESULT: -9.808572754      1.173      1.609
REMARK  7 active torsions:
REMARK  status: ('A' for Active; 'I' for Inactive)
REMARK    1  A    between atoms: C4_4  and  C5_5 
REMARK    2  A    between atoms: C5_5  and  C6_6 
REMARK    3  A    between atoms: C6_6  and  C7_7 
REMARK    4  A    between atoms: C9_9  and  C10_10 
REMARK    5  A    between atoms: C11_11  and  C12_12 
REMARK    6  A    between atoms: C22_22  and  O1_23 
REMARK    7  A    between atoms: C25_27  and  N1_28 
ROOT
HETATM    1  C12 UNL     1      14.474   2.610  -4.138  1.00  0.00     0.011 C 
HETATM    2  C13 UNL     1      15.035   1.527  -3.292  1.00  0.00     0.022 C 
HETATM    3  C14 UNL     1      14.900   2.232  -5.598  1.00  0.00     0.236 C 
HETATM    4  C15 UNL     1      14.350   0.947  -6.039  1.00  0.00     0.051 C 
HETATM    5  C16 UNL     1      12.883   1.134  -6.233  1.00  0.00     0.023 C 
HETATM    6  C17 UNL     1      12.699   2.134  -7.353  1.00  0.00     0.050 C 
HETATM    7  C18 UNL     1      13.314   3.450  -6.943  1.00  0.00     0.224 C 
HETATM    8  C19 UNL     1      12.376   4.248  -6.099  1.00  0.00     0.036 C 
HETATM    9  C20 UNL     1      12.400   3.974  -4.649  1.00  0.00     0.011 C 
HETATM   10  C21 UNL     1      12.969   2.644  -4.212  1.00  0.00     0.035 C 
HETATM   11  C22 UNL     1      12.266   1.593  -4.956  1.00  0.00     0.072 C 
HETATM   12  C23 UNL     1      11.840   0.358  -4.257  1.00  0.00     0.041 C 
HETATM   13  C24 UNL     1      12.157  -0.817  -5.199  1.00  0.00     0.036 C 
HETATM   14  C25 UNL     1      12.162  -0.133  -6.569  1.00  0.00     0.195 C 
HETATM   15  N2  UNL     1      14.637   3.345  -6.404  1.00  0.00     0.094 N 
HETATM   16  C26 UNL     1      15.617   3.378  -7.493  1.00  0.00     0.310 C 
ENDROOT
BRANCH   1  17
HETATM   17  C11 UNL     1      15.158   3.895  -3.954  1.00  0.00    -0.015 C 
HETATM   18  C10 UNL     1      14.796   5.008  -3.140  1.00  0.00    -0.003 C 
BRANCH  18  19
HETATM   19  C9  UNL     1      14.784   5.278  -1.759  1.00  0.00     0.002 C 
HETATM   20  C7  UNL     1      14.363   4.697  -0.705  1.00  0.00    -0.084 C 
HETATM   21  C8  UNL     1      13.742   3.369  -0.513  1.00  0.00     0.043 C 
BRANCH  20  22
HETATM   22  C6  UNL     1      14.582   5.418   0.635  1.00  0.00     0.037 C 
BRANCH  22  23
HETATM   23  C5  UNL     1      14.948   6.856   0.432  1.00  0.00     0.031 C 
BRANCH  23  24
HETATM   24  C4  UNL     1      15.640   7.293   1.687  1.00  0.00    -0.024 C 
HETATM   25  C2  UNL     1      15.275   8.313   2.419  1.00  0.00    -0.091 C 
HETATM   26  C1  UNL     1      14.106   9.124   2.025  1.00  0.00     0.042 C 
HETATM   27  C3  UNL     1      16.049   8.648   3.662  1.00  0.00     0.042 C 
ENDBRANCH  23  24
ENDBRANCH  22  23
ENDBRANCH  20  22
ENDBRANCH  18  19
ENDBRANCH   1  17
BRANCH  11  28
HETATM   28  O1  UNL     1      11.016   2.173  -5.374  1.00  0.00    -0.389 OA
ATOM     29  H1  UNL     1      10.772   1.654  -6.131  1.00  0.00     0.210 HD
ENDBRANCH  11  28
BRANCH  14  30
HETATM   30  N1  UNL     1      12.804  -0.917  -7.581  1.00  0.00    -0.074 N 
ATOM     31  H13 UNL     1      12.151  -1.137  -8.333  1.00  0.00     0.274 HD
ATOM     32  H12 UNL     1      13.479  -0.353  -8.097  1.00  0.00     0.274 HD
ATOM     33  H11 UNL     1      13.244  -1.768  -7.229  1.00  0.00     0.274 HD
ENDBRANCH  14  30
TORSDOF 7
ENDMDL
MODEL 4
REMARK VINA RESULT: -9.627160192      1.996      3.839
REMARK  7 active torsions:
REMARK  status: ('A' for Active; 'I' for Inactive)
REMARK    1  A    between atoms: C4_4  and  C5_5 
REMARK    2  A    between atoms: C5_5  and  C6_6 
REMARK    3  A    between atoms: C6_6  and  C7_7 
REMARK    4  A    between atoms: C9_9  and  C10_10 
REMARK    5  A    between atoms: C11_11  and  C12_12 
REMARK    6  A    between atoms: C22_22  and  O1_23 
REMARK    7  A    between atoms: C25_27  and  N1_28 
ROOT
HETATM    1  C12 UNL     1      14.542   2.556  -5.554  1.00  0.00     0.011 C 
HETATM    2  C13 UNL     1      15.575   3.602  -5.761  1.00  0.00     0.022 C 
HETATM    3  C14 UNL     1      13.225   3.182  -6.125  1.00  0.00     0.236 C 
HETATM    4  C15 UNL     1      13.313   3.491  -7.555  1.00  0.00     0.051 C 
HETATM    5  C16 UNL     1      13.327   2.193  -8.291  1.00  0.00     0.023 C 
HETATM    6  C17 UNL     1      12.000   1.515  -8.036  1.00  0.00     0.050 C 
HETATM    7  C18 UNL     1      11.862   1.242  -6.559  1.00  0.00     0.224 C 
HETATM    8  C19 UNL     1      12.562  -0.018  -6.171  1.00  0.00     0.036 C 
HETATM    9  C20 UNL     1      13.997   0.098  -5.848  1.00  0.00     0.011 C 
HETATM   10  C21 UNL     1      14.724   1.310  -6.383  1.00  0.00     0.035 C 
HETATM   11  C22 UNL     1      14.483   1.372  -7.829  1.00  0.00     0.072 C 
HETATM   12  C23 UNL     1      15.597   1.706  -8.746  1.00  0.00     0.041 C 
HETATM   13  C24 UNL     1      15.032   2.680  -9.794  1.00  0.00     0.036 C 
HETATM   14  C25 UNL     1      13.538   2.348  -9.765  1.00  0.00     0.195 C 
HETATM   15  N2  UNL     1      12.169   2.360  -5.717  1.00  0.00     0.094 N 
HETATM   16  C26 UNL     1      10.972   3.187  -5.542  1.00  0.00     0.310 C 
ENDROOT
BRANCH   1  17
HETATM   17  C11 UNL     1      14.191   2.367  -4.141  1.00  0.00    -0.015 C 
HETATM   18  C10 UNL     1      14.703   3.022  -2.984  1.00  0.00    -0.003 C 
BRANCH  18  19
HETATM   19  C9  UNL     1      14.580   4.306  -2.422  1.00  0.00     0.002 C 
HETATM   20  C7  UNL     1      13.668   5.193  -2.328  1.00  0.00    -0.084 C 
HETATM   21  C8  UNL     1      12.249   5.171  -2.743  1.00  0.00     0.043 C 
BRANCH  20  22
HETATM   22  C6  UNL     1      14.023   6.498  -1.596  1.00  0.00     0.037 C 
BRANCH  22  23
HETATM   23  C5  UNL     1      14.497   6.233  -0.200  1.00  0.00     0.031 C 
BRANCH  23  24
HETATM   24  C4  UNL     1      14.094   7.425   0.612  1.00  0.00    -0.024 C 
HETATM   25  C2  UNL     1      14.856   8.011   1.499  1.00  0.00    -0.091 C 
HETATM   26  C1  UNL     1      16.217   7.500   1.756  1.00  0.00     0.042 C 
HETATM   27  C3  UNL     1      14.338   9.206   2.247  1.00  0.00     0.042 C 
ENDBRANCH  23  24
ENDBRANCH  22  23
ENDBRANCH  20  22
ENDBRANCH  18  19
ENDBRANCH   1  17
BRANCH  11  28
HETATM   28  O1  UNL     1      14.127   0.035  -8.227  1.00  0.00    -0.389 OA
ATOM     29  H1  UNL     1      13.248  -0.073  -7.884  1.00  0.00     0.210 HD
ENDBRANCH  11  28
BRANCH  14  30
HETATM   30  N1  UNL     1      12.729   3.366 -10.364  1.00  0.00    -0.074 N 
ATOM     31  H13 UNL     1      12.133   2.969 -11.090  1.00  0.00     0.274 HD
ATOM     32  H12 UNL     1      12.014   3.686  -9.710  1.00  0.00     0.274 HD
ATOM     33  H11 UNL     1      13.260   4.157 -10.728  1.00  0.00     0.274 HD
ENDBRANCH  14  30
TORSDOF 7
ENDMDL
MODEL 5
REMARK VINA RESULT: -9.533968256      2.018      3.735
REMARK  7 active torsions:
REMARK  status: ('A' for Active; 'I' for Inactive)
REMARK    1  A    between atoms: C4_4  and  C5_5 
REMARK    2  A    between atoms: C5_5  and  C6_6 
REMARK    3  A    between atoms: C6_6  and  C7_7 
REMARK    4  A    between atoms: C9_9  and  C10_10 
REMARK    5  A    between atoms: C11_11  and  C12_12 
REMARK    6  A    between atoms: C22_22  and  O1_23 
REMARK    7  A    between atoms: C25_27  and  N1_28 
ROOT
HETATM    1  C12 UNL     1      13.935   2.409  -5.294  1.00  0.00     0.011 C 
HETATM    2  C13 UNL     1      14.969   3.473  -5.325  1.00  0.00     0.022 C 
HETATM    3  C14 UNL     1      12.693   3.043  -6.009  1.00  0.00     0.236 C 
HETATM    4  C15 UNL     1      12.962   3.409  -7.403  1.00  0.00     0.051 C 
HETATM    5  C16 UNL     1      13.092   2.141  -8.178  1.00  0.00     0.023 C 
HETATM    6  C17 UNL     1      11.754   1.439  -8.125  1.00  0.00     0.050 C 
HETATM    7  C18 UNL     1      11.429   1.108  -6.689  1.00  0.00     0.224 C 
HETATM    8  C19 UNL     1      12.092  -0.159  -6.260  1.00  0.00     0.036 C 
HETATM    9  C20 UNL     1      13.470  -0.041  -5.748  1.00  0.00     0.011 C 
HETATM   10  C21 UNL     1      14.242   1.199  -6.138  1.00  0.00     0.035 C 
HETATM   11  C22 UNL     1      14.190   1.314  -7.600  1.00  0.00     0.072 C 
HETATM   12  C23 UNL     1      15.410   1.695  -8.350  1.00  0.00     0.041 C 
HETATM   13  C24 UNL     1      14.971   2.704  -9.426  1.00  0.00     0.036 C 
HETATM   14  C25 UNL     1      13.490   2.355  -9.605  1.00  0.00     0.195 C 
HETATM   15  N2  UNL     1      11.606   2.195  -5.774  1.00  0.00     0.094 N 
HETATM   16  C26 UNL     1      10.383   3.002  -5.725  1.00  0.00     0.310 C 
ENDROOT
BRANCH   1  17
HETATM   17  C11 UNL     1      13.405   2.162  -3.948  1.00  0.00    -0.015 C 
HETATM   18  C10 UNL     1      14.087   2.131  -2.696  1.00  0.00    -0.003 C 
BRANCH  18  19
HETATM   19  C9  UNL     1      14.672   3.089  -1.849  1.00  0.00     0.002 C 
HETATM   20  C7  UNL     1      14.521   4.334  -1.614  1.00  0.00    -0.084 C 
HETATM   21  C8  UNL     1      13.534   5.304  -2.135  1.00  0.00     0.043 C 
BRANCH  20  22
HETATM   22  C6  UNL     1      15.439   4.971  -0.559  1.00  0.00     0.037 C 
BRANCH  22  23
HETATM   23  C5  UNL     1      14.651   5.638   0.525  1.00  0.00     0.031 C 
BRANCH  23  24
HETATM   24  C4  UNL     1      15.647   6.339   1.398  1.00  0.00    -0.024 C 
HETATM   25  C2  UNL     1      15.528   7.571   1.818  1.00  0.00    -0.091 C 
HETATM   26  C1  UNL     1      14.349   8.373   1.433  1.00  0.00     0.042 C 
HETATM   27  C3  UNL     1      16.595   8.161   2.695  1.00  0.00     0.042 C 
ENDBRANCH  23  24
ENDBRANCH  22  23
ENDBRANCH  20  22
ENDBRANCH  18  19
ENDBRANCH   1  17
BRANCH  11  28
HETATM   28  O1  UNL     1      13.910  -0.010  -8.091  1.00  0.00    -0.389 OA
ATOM     29  H1  UNL     1      12.963  -0.026  -8.160  1.00  0.00     0.210 HD
ENDBRANCH  11  28
BRANCH  14  30
HETATM   30  N1  UNL     1      12.751   3.387 -10.266  1.00  0.00    -0.074 N 
ATOM     31  H13 UNL     1      12.470   4.108  -9.602  1.00  0.00     0.274 HD
ATOM     32  H12 UNL     1      13.363   3.937 -10.868  1.00  0.00     0.274 HD
ATOM     33  H11 UNL     1      11.944   3.048 -10.790  1.00  0.00     0.274 HD
ENDBRANCH  14  30
TORSDOF 7
ENDMDL
