MODEL 1
REMARK VINA RESULT: -7.789516601      0.000      0.000
REMARK  6 active torsions:
REMARK  status: ('A' for Active; 'I' for Inactive)
REMARK    1  A    between atoms: C2_2  and  C4_4 
REMARK    2  A    between atoms: C17_17  and  O1_18 
REMARK    3  A    between atoms: C18_20  and  O2_21 
REMARK    4  A    between atoms: C21_25  and  O3_26 
REMARK    5  A    between atoms: O3_26  and  C22_27 
REMARK    6  A    between atoms: C22_27  and  C23_29 
ROOT
HETATM    1  C4  UNL     1      13.311   3.228  -3.044  1.00  0.00    -0.008 C 
HETATM    2  C5  UNL     1      13.450   4.140  -4.244  1.00  0.00     0.010 C 
HETATM    3  C6  UNL     1      13.242   3.185  -5.426  1.00  0.00    -0.000 C 
HETATM    4  C7  UNL     1      12.736   3.929  -6.591  1.00  0.00     0.006 C 
HETATM    5  C8  UNL     1      12.585   2.932  -7.720  1.00  0.00     0.012 C 
HETATM    6  C9  UNL     1      13.849   2.218  -8.010  1.00  0.00    -0.009 C 
HETATM    7  C10 UNL     1      14.855   3.100  -8.766  1.00  0.00     0.018 C 
HETATM    8  C11 UNL     1      13.504   1.215  -9.114  1.00  0.00     0.013 C 
HETATM    9  C12 UNL     1      12.546   0.194  -8.702  1.00  0.00     0.013 C 
HETATM   10  C13 UNL     1      13.180  -0.554  -7.590  1.00  0.00    -0.010 C 
HETATM   11  C14 UNL     1      12.157  -1.601  -7.113  1.00  0.00     0.018 C 
HETATM   12  C15 UNL     1      14.444  -1.292  -7.923  1.00  0.00     0.015 C 
HETATM   13  C16 UNL     1      14.816  -1.006  -6.484  1.00  0.00     0.042 C 
HETATM   14  C17 UNL     1      13.838   0.191  -6.510  1.00  0.00     0.097 C 
HETATM   15  C18 UNL     1      14.476   1.507  -6.815  1.00  0.00     0.107 C 
HETATM   16  C19 UNL     1      14.561   2.453  -5.618  1.00  0.00     0.021 C 
HETATM   17  C20 UNL     1      15.541   3.592  -5.922  1.00  0.00     0.021 C 
HETATM   18  C21 UNL     1      15.046   1.856  -4.343  1.00  0.00     0.143 C 
HETATM   19  C24 UNL     1      14.182   2.029  -3.125  1.00  0.00     0.038 C 
ENDROOT
BRANCH  18  20
HETATM   20  O3  UNL     1      16.392   2.173  -4.125  1.00  0.00    -0.314 OA
BRANCH  20  21
HETATM   21  C22 UNL     1      17.494   1.425  -4.048  1.00  0.00     0.273 C 
HETATM   22  O4  UNL     1      17.463   0.544  -4.921  1.00  0.00    -0.264 OA
BRANCH  21  23
HETATM   23  C23 UNL     1      18.625   1.552  -3.108  1.00  0.00     0.225 C 
HETATM   24 CL1  UNL     1      18.021   2.246  -1.591  1.00  0.00    -0.120 Cl
ENDBRANCH  21  23
ENDBRANCH  20  21
ENDBRANCH  18  20
BRANCH  15  25
HETATM   25  O2  UNL     1      15.723   1.192  -7.350  1.00  0.00    -0.385 OA
ATOM     26  H2  UNL     1      15.478   0.478  -7.927  1.00  0.00     0.210 HD
ENDBRANCH  15  25
BRANCH   1  27
HETATM   27  C2  UNL     1      13.367   3.971  -1.739  1.00  0.00    -0.019 C 
HETATM   28  C1  UNL     1      13.410   5.460  -2.014  1.00  0.00     0.010 C 
HETATM   29  C3  UNL     1      14.528   3.626  -0.873  1.00  0.00     0.010 C 
ENDBRANCH   1  27
BRANCH  14  30
HETATM   30  O1  UNL     1      12.946   0.154  -5.421  1.00  0.00    -0.386 OA
ATOM     31  H1  UNL     1      13.311   0.742  -4.769  1.00  0.00     0.210 HD
ENDBRANCH  14  30
TORSDOF 6
ENDMDL
MODEL 2
REMARK VINA RESULT: -7.607784390      2.845      5.600
REMARK  6 active torsions:
REMARK  status: ('A' for Active; 'I' for Inactive)
REMARK    1  A    between atoms: C2_2  and  C4_4 
REMARK    2  A    between atoms: C17_17  and  O1_18 
REMARK    3  A    between atoms: C18_20  and  O2_21 
REMARK    4  A    between atoms: C21_25  and  O3_26 
REMARK    5  A    between atoms: O3_26  and  C22_27 
REMARK    6  A    between atoms: C22_27  and  C23_29 
ROOT
HETATM    1  C4  UNL     1      18.465  -0.613  -5.789  1.00  0.00    -0.008 C 
HETATM    2  C5  UNL     1      18.715   0.572  -4.882  1.00  0.00     0.010 C 
HETATM    3  C6  UNL     1      17.298   1.016  -4.498  1.00  0.00    -0.000 C 
HETATM    4  C7  UNL     1      17.321   1.709  -3.200  1.00  0.00     0.006 C 
HETATM    5  C8  UNL     1      15.901   2.140  -2.904  1.00  0.00     0.012 C 
HETATM    6  C9  UNL     1      15.334   2.979  -3.984  1.00  0.00    -0.009 C 
HETATM    7  C10 UNL     1      15.896   4.409  -3.966  1.00  0.00     0.018 C 
HETATM    8  C11 UNL     1      13.891   3.265  -3.560  1.00  0.00     0.013 C 
HETATM    9  C12 UNL     1      13.052   2.072  -3.489  1.00  0.00     0.013 C 
HETATM   10  C13 UNL     1      13.019   1.498  -4.855  1.00  0.00    -0.010 C 
HETATM   11  C14 UNL     1      12.179   0.210  -4.781  1.00  0.00     0.018 C 
HETATM   12  C15 UNL     1      12.411   2.361  -5.923  1.00  0.00     0.015 C 
HETATM   13  C16 UNL     1      13.392   1.663  -6.840  1.00  0.00     0.042 C 
HETATM   14  C17 UNL     1      14.274   1.365  -5.605  1.00  0.00     0.097 C 
HETATM   15  C18 UNL     1      15.371   2.352  -5.374  1.00  0.00     0.107 C 
HETATM   16  C19 UNL     1      16.769   1.816  -5.678  1.00  0.00     0.021 C 
HETATM   17  C20 UNL     1      17.764   2.978  -5.774  1.00  0.00     0.021 C 
HETATM   18  C21 UNL     1      16.922   1.070  -6.958  1.00  0.00     0.143 C 
HETATM   19  C24 UNL     1      17.515  -0.310  -6.888  1.00  0.00     0.038 C 
ENDROOT
BRANCH  18  20
HETATM   20  O3  UNL     1      17.502   1.880  -7.940  1.00  0.00    -0.314 OA
BRANCH  20  21
HETATM   21  C22 UNL     1      17.066   2.319  -9.123  1.00  0.00     0.273 C 
HETATM   22  O4  UNL     1      16.131   3.117  -8.953  1.00  0.00    -0.264 OA
BRANCH  21  23
HETATM   23  C23 UNL     1      17.556   1.966 -10.470  1.00  0.00     0.225 C 
HETATM   24 CL1  UNL     1      19.291   1.611 -10.362  1.00  0.00    -0.120 Cl
ENDBRANCH  21  23
ENDBRANCH  20  21
ENDBRANCH  18  20
BRANCH  15  25
HETATM   25  O2  UNL     1      15.032   3.460  -6.147  1.00  0.00    -0.385 OA
ATOM     26  H2  UNL     1      15.773   3.477  -6.742  1.00  0.00     0.210 HD
ENDBRANCH  15  25
BRANCH   1  27
HETATM   27  C2  UNL     1      19.734  -1.299  -6.212  1.00  0.00    -0.019 C 
HETATM   28  C1  UNL     1      20.853  -0.903  -5.273  1.00  0.00     0.010 C 
HETATM   29  C3  UNL     1      20.169  -1.003  -7.605  1.00  0.00     0.010 C 
ENDBRANCH   1  27
BRANCH  14  30
HETATM   30  O1  UNL     1      14.620   0.002  -5.534  1.00  0.00    -0.386 OA
ATOM     31  H1  UNL     1      15.453  -0.030  -5.079  1.00  0.00     0.210 HD
ENDBRANCH  14  30
TORSDOF 6
ENDMDL
MODEL 3
REMARK VINA RESULT: -7.601197314      1.251      1.414
REMARK  6 active torsions:
REMARK  status: ('A' for Active; 'I' for Inactive)
REMARK    1  A    between atoms: C2_2  and  C4_4 
REMARK    2  A    between atoms: C17_17  and  O1_18 
REMARK    3  A    between atoms: C18_20  and  O2_21 
REMARK    4  A    between atoms: C21_25  and  O3_26 
REMARK    5  A    between atoms: O3_26  and  C22_27 
REMARK    6  A    between atoms: C22_27  and  C23_29 
ROOT
HETATM    1  C4  UNL     1      14.554   2.615  -2.409  1.00  0.00    -0.008 C 
HETATM    2  C5  UNL     1      14.045   3.774  -3.238  1.00  0.00     0.010 C 
HETATM    3  C6  UNL     1      13.422   3.078  -4.455  1.00  0.00    -0.000 C 
HETATM    4  C7  UNL     1      12.373   3.929  -5.040  1.00  0.00     0.006 C 
HETATM    5  C8  UNL     1      11.829   3.194  -6.246  1.00  0.00     0.012 C 
HETATM    6  C9  UNL     1      12.891   2.853  -7.220  1.00  0.00    -0.009 C 
HETATM    7  C10 UNL     1      13.353   4.076  -8.027  1.00  0.00     0.018 C 
HETATM    8  C11 UNL     1      12.187   2.064  -8.327  1.00  0.00     0.013 C 
HETATM    9  C12 UNL     1      11.626   0.794  -7.878  1.00  0.00     0.013 C 
HETATM   10  C13 UNL     1      12.764  -0.022  -7.392  1.00  0.00    -0.010 C 
HETATM   11  C14 UNL     1      12.177  -1.345  -6.868  1.00  0.00     0.018 C 
HETATM   12  C15 UNL     1      13.808  -0.375  -8.411  1.00  0.00     0.015 C 
HETATM   13  C16 UNL     1      14.760  -0.336  -7.234  1.00  0.00     0.042 C 
HETATM   14  C17 UNL     1      13.760   0.596  -6.509  1.00  0.00     0.097 C 
HETATM   15  C18 UNL     1      14.057   2.053  -6.649  1.00  0.00     0.107 C 
HETATM   16  C19 UNL     1      14.578   2.711  -5.373  1.00  0.00     0.021 C 
HETATM   17  C20 UNL     1      15.196   4.074  -5.702  1.00  0.00     0.021 C 
HETATM   18  C21 UNL     1      15.644   1.971  -4.641  1.00  0.00     0.143 C 
HETATM   19  C24 UNL     1      15.410   1.682  -3.183  1.00  0.00     0.038 C 
ENDROOT
BRANCH  18  20
HETATM   20  O3  UNL     1      16.903   2.519  -4.908  1.00  0.00    -0.314 OA
BRANCH  20  21
HETATM   21  C22 UNL     1      18.010   2.013  -5.458  1.00  0.00     0.273 C 
HETATM   22  O4  UNL     1      17.842   1.871  -6.679  1.00  0.00    -0.264 OA
BRANCH  21  23
HETATM   23  C23 UNL     1      19.279   1.650  -4.797  1.00  0.00     0.225 C 
HETATM   24 CL1  UNL     1      19.022   1.657  -3.042  1.00  0.00    -0.120 Cl
ENDBRANCH  21  23
ENDBRANCH  20  21
ENDBRANCH  18  20
BRANCH  15  25
HETATM   25  O2  UNL     1      14.952   2.142  -7.712  1.00  0.00    -0.385 OA
ATOM     26  H2  UNL     1      15.063   3.085  -7.755  1.00  0.00     0.210 HD
ENDBRANCH  15  25
BRANCH   1  27
HETATM   27  C2  UNL     1      15.119   3.050  -1.086  1.00  0.00    -0.019 C 
HETATM   28  C1  UNL     1      14.106   3.922  -0.373  1.00  0.00     0.010 C 
HETATM   29  C3  UNL     1      16.401   3.803  -1.172  1.00  0.00     0.010 C 
ENDBRANCH   1  27
BRANCH  14  30
HETATM   30  O1  UNL     1      13.465   0.129  -5.213  1.00  0.00    -0.386 OA
ATOM     31  H1  UNL     1      13.518   0.890  -4.647  1.00  0.00     0.210 HD
ENDBRANCH  14  30
TORSDOF 6
ENDMDL
MODEL 4
REMARK VINA RESULT: -7.600246264      1.820      2.578
REMARK  6 active torsions:
REMARK  status: ('A' for Active; 'I' for Inactive)
REMARK    1  A    between atoms: C2_2  and  C4_4 
REMARK    2  A    between atoms: C17_17  and  O1_18 
REMARK    3  A    between atoms: C18_20  and  O2_21 
REMARK    4  A    between atoms: C21_25  and  O3_26 
REMARK    5  A    between atoms: O3_26  and  C22_27 
REMARK    6  A    between atoms: C22_27  and  C23_29 
ROOT
HETATM    1  C4  UNL     1      16.290   1.993  -2.842  1.00  0.00    -0.008 C 
HETATM    2  C5  UNL     1      15.497   3.229  -3.210  1.00  0.00     0.010 C 
HETATM    3  C6  UNL     1      14.531   2.711  -4.282  1.00  0.00    -0.000 C 
HETATM    4  C7  UNL     1      13.320   3.547  -4.315  1.00  0.00     0.006 C 
HETATM    5  C8  UNL     1      12.432   2.996  -5.410  1.00  0.00     0.012 C 
HETATM    6  C9  UNL     1      13.122   2.946  -6.719  1.00  0.00    -0.009 C 
HETATM    7  C10 UNL     1      13.251   4.336  -7.361  1.00  0.00     0.018 C 
HETATM    8  C11 UNL     1      12.118   2.309  -7.683  1.00  0.00     0.013 C 
HETATM    9  C12 UNL     1      11.779   0.929  -7.349  1.00  0.00     0.013 C 
HETATM   10  C13 UNL     1      13.039   0.153  -7.429  1.00  0.00    -0.010 C 
HETATM   11  C14 UNL     1      12.702  -1.295  -7.029  1.00  0.00     0.018 C 
HETATM   12  C15 UNL     1      13.699   0.097  -8.776  1.00  0.00     0.015 C 
HETATM   13  C16 UNL     1      14.985   0.013  -7.980  1.00  0.00     0.042 C 
HETATM   14  C17 UNL     1      14.251   0.693  -6.800  1.00  0.00     0.097 C 
HETATM   15  C18 UNL     1      14.437   2.173  -6.725  1.00  0.00     0.107 C 
HETATM   16  C19 UNL     1      15.330   2.633  -5.574  1.00  0.00     0.021 C 
HETATM   17  C20 UNL     1      15.759   4.088  -5.795  1.00  0.00     0.021 C 
HETATM   18  C21 UNL     1      16.601   1.880  -5.386  1.00  0.00     0.143 C 
HETATM   19  C24 UNL     1      16.872   1.307  -4.023  1.00  0.00     0.038 C 
ENDROOT
BRANCH  18  20
HETATM   20  O3  UNL     1      17.682   2.589  -5.921  1.00  0.00    -0.314 OA
BRANCH  20  21
HETATM   21  C22 UNL     1      18.564   2.301  -6.881  1.00  0.00     0.273 C 
HETATM   22  O4  UNL     1      17.963   1.966  -7.914  1.00  0.00    -0.264 OA
BRANCH  21  23
HETATM   23  C23 UNL     1      20.038   2.347  -6.817  1.00  0.00     0.225 C 
HETATM   24 CL1  UNL     1      20.536   2.106  -5.131  1.00  0.00    -0.120 Cl
ENDBRANCH  21  23
ENDBRANCH  20  21
ENDBRANCH  18  20
BRANCH  15  25
HETATM   25  O2  UNL     1      14.927   2.543  -7.975  1.00  0.00    -0.385 OA
ATOM     26  H2  UNL     1      15.766   2.097  -7.961  1.00  0.00     0.210 HD
ENDBRANCH  15  25
BRANCH   1  27
HETATM   27  C2  UNL     1      17.246   2.232  -1.707  1.00  0.00    -0.019 C 
HETATM   28  C1  UNL     1      17.136   3.673  -1.256  1.00  0.00     0.010 C 
HETATM   29  C3  UNL     1      18.674   1.953  -2.024  1.00  0.00     0.010 C 
ENDBRANCH   1  27
BRANCH  14  30
HETATM   30  O1  UNL     1      14.417  -0.030  -5.604  1.00  0.00    -0.386 OA
ATOM     31  H1  UNL     1      15.320  -0.324  -5.602  1.00  0.00     0.210 HD
ENDBRANCH  14  30
TORSDOF 6
ENDMDL
MODEL 5
REMARK VINA RESULT: -7.594948266      1.735      2.292
REMARK  6 active torsions:
REMARK  status: ('A' for Active; 'I' for Inactive)
REMARK    1  A    between atoms: C2_2  and  C4_4 
REMARK    2  A    between atoms: C17_17  and  O1_18 
REMARK    3  A    between atoms: C18_20  and  O2_21 
REMARK    4  A    between atoms: C21_25  and  O3_26 
REMARK    5  A    between atoms: O3_26  and  C22_27 
REMARK    6  A    between atoms: C22_27  and  C23_29 
ROOT
HETATM    1  C4  UNL     1      14.640   4.513  -2.759  1.00  0.00    -0.008 C 
HETATM    2  C5  UNL     1      15.762   4.573  -3.772  1.00  0.00     0.010 C 
HETATM    3  C6  UNL     1      15.211   3.752  -4.945  1.00  0.00    -0.000 C 
HETATM    4  C7  UNL     1      15.837   4.188  -6.204  1.00  0.00     0.006 C 
HETATM    5  C8  UNL     1      15.269   3.319  -7.304  1.00  0.00     0.012 C 
HETATM    6  C9  UNL     1      15.471   1.876  -7.040  1.00  0.00    -0.009 C 
HETATM    7  C10 UNL     1      16.924   1.438  -7.284  1.00  0.00     0.018 C 
HETATM    8  C11 UNL     1      14.786   1.150  -8.200  1.00  0.00     0.013 C 
HETATM    9  C12 UNL     1      13.341   1.356  -8.249  1.00  0.00     0.013 C 
HETATM   10  C13 UNL     1      12.794   0.809  -6.985  1.00  0.00    -0.010 C 
HETATM   11  C14 UNL     1      11.276   1.066  -7.004  1.00  0.00     0.018 C 
HETATM   12  C15 UNL     1      12.989  -0.663  -6.760  1.00  0.00     0.015 C 
HETATM   13  C16 UNL     1      13.031  -0.284  -5.295  1.00  0.00     0.042 C 
HETATM   14  C17 UNL     1      13.454   1.143  -5.717  1.00  0.00     0.097 C 
HETATM   15  C18 UNL     1      14.928   1.383  -5.703  1.00  0.00     0.107 C 
HETATM   16  C19 UNL     1      15.402   2.291  -4.569  1.00  0.00     0.021 C 
HETATM   17  C20 UNL     1      16.922   2.178  -4.410  1.00  0.00     0.021 C 
HETATM   18  C21 UNL     1      14.850   1.997  -3.217  1.00  0.00     0.143 C 
HETATM   19  C24 UNL     1      14.186   3.127  -2.479  1.00  0.00     0.038 C 
ENDROOT
BRANCH  18  20
HETATM   20  O3  UNL     1      15.777   1.291  -2.444  1.00  0.00    -0.314 OA
BRANCH  20  21
HETATM   21  C22 UNL     1      16.430   1.591  -1.318  1.00  0.00     0.273 C 
HETATM   22  O4  UNL     1      15.907   0.998  -0.362  1.00  0.00    -0.264 OA
BRANCH  21  23
HETATM   23  C23 UNL     1      17.598   2.477  -1.143  1.00  0.00     0.225 C 
HETATM   24 CL1  UNL     1      19.028   1.658  -1.796  1.00  0.00    -0.120 Cl
ENDBRANCH  21  23
ENDBRANCH  20  21
ENDBRANCH  18  20
BRANCH  15  25
HETATM   25  O2  UNL     1      15.503   0.116  -5.662  1.00  0.00    -0.385 OA
ATOM     26  H2  UNL     1      16.374   0.341  -5.355  1.00  0.00     0.210 HD
ENDBRANCH  15  25
BRANCH   1  27
HETATM   27  C2  UNL     1      14.908   5.354  -1.543  1.00  0.00    -0.019 C 
HETATM   28  C1  UNL     1      14.568   4.559  -0.300  1.00  0.00     0.010 C 
HETATM   29  C3  UNL     1      14.156   6.639  -1.494  1.00  0.00     0.010 C 
ENDBRANCH   1  27
BRANCH  14  30
HETATM   30  O1  UNL     1      12.644   2.122  -5.111  1.00  0.00    -0.386 OA
ATOM     31  H1  UNL     1      13.046   2.305  -4.270  1.00  0.00     0.210 HD
ENDBRANCH  14  30
TORSDOF 6
ENDMDL
