MODEL 1
REMARK VINA RESULT: -7.829192509      0.000      0.000
REMARK  4 active torsions:
REMARK  status: ('A' for Active; 'I' for Inactive)
REMARK    1  A    between atoms: C2_2  and  N1_3 
REMARK       I    between atoms: N2_5  and  C3_7 
REMARK       I    between atoms: C3_7  and  N4_18 
REMARK    2  A    between atoms: N3_8  and  C4_10 
REMARK    3  A    between atoms: N6_22  and  C13_24 
REMARK    4  A    between atoms: C13_24  and  C14_25 
ROOT
HETATM    1  N1  UNL     1       0.386  18.837  18.916  1.00  0.00    -0.275 N 
ATOM      2  H1  UNL     1       1.055  19.101  18.192  1.00  0.00     0.189 HD
HETATM    3  N2  UNL     1       0.057  19.751  19.615  1.00  0.00    -0.130 N 
ATOM      4  H2  UNL     1       0.519  20.618  19.340  1.00  0.00     0.205 HD
HETATM    5  C3  UNL     1      -0.791  19.944  20.706  1.00  0.00     0.706 C 
HETATM    6  N3  UNL     1      -0.596  19.435  21.859  1.00  0.00    -0.189 N 
ATOM      7  H3  UNL     1       0.237  18.854  21.959  1.00  0.00     0.184 HD
HETATM    8  N4  UNL     1      -1.941  20.788  20.499  1.00  0.00    -0.124 N 
ATOM      9  H4  UNL     1      -2.843  20.533  20.900  1.00  0.00     0.197 HD
HETATM   10  C12 UNL     1      -1.812  21.974  19.734  1.00  0.00     0.196 C 
HETATM   11  N5  UNL     1      -1.724  22.944  19.102  1.00  0.00    -0.171 NA
ENDROOT
BRANCH   6  12
HETATM   12  C4  UNL     1      -1.391  19.578  23.009  1.00  0.00     0.055 A 
HETATM   13  C5  UNL     1      -1.285  20.599  23.924  1.00  0.00     0.031 A 
HETATM   14  C6  UNL     1      -2.102  20.694  25.034  1.00  0.00     0.009 A 
HETATM   15  C7  UNL     1      -3.070  19.744  25.261  1.00  0.00    -0.061 A 
HETATM   16  C8  UNL     1      -3.961  19.829  26.451  1.00  0.00     0.048 C 
HETATM   17  C9  UNL     1      -3.194  18.710  24.354  1.00  0.00     0.015 A 
HETATM   18  C10 UNL     1      -2.377  18.614  23.245  1.00  0.00    -0.034 A 
HETATM   19  C11 UNL     1      -2.513  17.496  22.268  1.00  0.00     0.050 C 
ENDBRANCH   6  12
BRANCH   1  20
HETATM   20  C2  UNL     1       0.046  17.497  18.889  1.00  0.00     0.088 C 
HETATM   21  C1  UNL     1       0.361  16.597  20.015  1.00  0.00     0.090 C 
HETATM   22  N6  UNL     1      -0.551  16.993  17.857  1.00  0.00    -0.378 N 
ATOM     23  H6  UNL     1      -0.781  15.999  17.866  1.00  0.00     0.160 HD
BRANCH  22  24
HETATM   24  C13 UNL     1      -0.904  17.766  16.699  1.00  0.00     0.129 C 
BRANCH  24  25
HETATM   25  C14 UNL     1      -1.482  16.906  15.594  1.00  0.00    -0.035 C 
HETATM   26  C15 UNL     1      -1.466  15.449  15.935  1.00  0.00     0.016 C 
HETATM   27  C16 UNL     1      -0.626  17.101  14.346  1.00  0.00     0.016 C 
HETATM   28  C17 UNL     1      -2.880  17.347  15.234  1.00  0.00     0.016 C 
ENDBRANCH  24  25
ENDBRANCH  22  24
ENDBRANCH   1  20
TORSDOF 4
ENDMDL
MODEL 2
REMARK VINA RESULT: -7.761257165      1.760      7.736
REMARK  4 active torsions:
REMARK  status: ('A' for Active; 'I' for Inactive)
REMARK    1  A    between atoms: C2_2  and  N1_3 
REMARK       I    between atoms: N2_5  and  C3_7 
REMARK       I    between atoms: C3_7  and  N4_18 
REMARK    2  A    between atoms: N3_8  and  C4_10 
REMARK    3  A    between atoms: N6_22  and  C13_24 
REMARK    4  A    between atoms: C13_24  and  C14_25 
ROOT
HETATM    1  N1  UNL     1       0.257  20.251  20.953  1.00  0.00    -0.275 N 
ATOM      2  H1  UNL     1       0.739  20.939  21.531  1.00  0.00     0.189 HD
HETATM    3  N2  UNL     1       0.977  19.386  20.544  1.00  0.00    -0.130 N 
ATOM      4  H2  UNL     1       1.937  19.517  20.861  1.00  0.00     0.205 HD
HETATM    5  C3  UNL     1       0.849  18.248  19.747  1.00  0.00     0.706 C 
HETATM    6  N3  UNL     1       0.560  18.275  18.506  1.00  0.00    -0.189 N 
ATOM      7  H3  UNL     1       0.416  19.200  18.098  1.00  0.00     0.184 HD
HETATM    8  N4  UNL     1       1.080  16.975  20.385  1.00  0.00    -0.124 N 
ATOM      9  H4  UNL     1       0.480  16.179  20.171  1.00  0.00     0.197 HD
HETATM   10  C12 UNL     1       2.144  16.838  21.310  1.00  0.00     0.196 C 
HETATM   11  N5  UNL     1       3.007  16.712  22.077  1.00  0.00    -0.171 NA
ENDROOT
BRANCH   6  12
HETATM   12  C4  UNL     1       0.415  17.185  17.631  1.00  0.00     0.055 A 
HETATM   13  C5  UNL     1       1.192  16.050  17.644  1.00  0.00     0.031 A 
HETATM   14  C6  UNL     1       0.997  15.003  16.764  1.00  0.00     0.009 A 
HETATM   15  C7  UNL     1      -0.007  15.068  15.826  1.00  0.00    -0.061 A 
HETATM   16  C8  UNL     1      -0.233  13.949  14.869  1.00  0.00     0.048 C 
HETATM   17  C9  UNL     1      -0.798  16.199  15.796  1.00  0.00     0.015 A 
HETATM   18  C10 UNL     1      -0.604  17.246  16.674  1.00  0.00    -0.034 A 
HETATM   19  C11 UNL     1      -1.461  18.466  16.639  1.00  0.00     0.050 C 
ENDBRANCH   6  12
BRANCH   1  20
HETATM   20  C2  UNL     1      -1.093  20.507  20.803  1.00  0.00     0.088 C 
HETATM   21  C1  UNL     1      -1.667  20.887  19.498  1.00  0.00     0.090 C 
HETATM   22  N6  UNL     1      -1.892  20.433  21.819  1.00  0.00    -0.378 N 
ATOM     23  H6  UNL     1      -2.881  20.635  21.675  1.00  0.00     0.160 HD
BRANCH  22  24
HETATM   24  C13 UNL     1      -1.452  20.078  23.139  1.00  0.00     0.129 C 
BRANCH  24  25
HETATM   25  C14 UNL     1      -2.468  20.451  24.198  1.00  0.00    -0.035 C 
HETATM   26  C15 UNL     1      -3.172  19.256  24.761  1.00  0.00     0.016 C 
HETATM   27  C16 UNL     1      -3.519  21.349  23.552  1.00  0.00     0.016 C 
HETATM   28  C17 UNL     1      -1.831  21.256  25.306  1.00  0.00     0.016 C 
ENDBRANCH  24  25
ENDBRANCH  22  24
ENDBRANCH   1  20
TORSDOF 4
ENDMDL
MODEL 3
REMARK VINA RESULT: -7.464105691      1.707      7.644
REMARK  4 active torsions:
REMARK  status: ('A' for Active; 'I' for Inactive)
REMARK    1  A    between atoms: C2_2  and  N1_3 
REMARK       I    between atoms: N2_5  and  C3_7 
REMARK       I    between atoms: C3_7  and  N4_18 
REMARK    2  A    between atoms: N3_8  and  C4_10 
REMARK    3  A    between atoms: N6_22  and  C13_24 
REMARK    4  A    between atoms: C13_24  and  C14_25 
ROOT
HETATM    1  N1  UNL     1       0.063  20.506  22.073  1.00  0.00    -0.275 N 
ATOM      2  H1  UNL     1       0.535  21.011  22.823  1.00  0.00     0.189 HD
HETATM    3  N2  UNL     1       0.656  19.532  21.709  1.00  0.00    -0.130 N 
ATOM      4  H2  UNL     1       1.524  19.405  22.229  1.00  0.00     0.205 HD
HETATM    5  C3  UNL     1       0.473  18.525  20.761  1.00  0.00     0.706 C 
HETATM    6  N3  UNL     1       0.487  18.721  19.501  1.00  0.00    -0.189 N 
ATOM      7  H3  UNL     1       0.640  19.683  19.198  1.00  0.00     0.184 HD
HETATM    8  N4  UNL     1       0.276  17.186  21.259  1.00  0.00    -0.124 N 
ATOM      9  H4  UNL     1      -0.415  16.575  20.825  1.00  0.00     0.197 HD
HETATM   10  C12 UNL     1       1.048  16.726  22.355  1.00  0.00     0.196 C 
HETATM   11  N5  UNL     1       1.666  16.337  23.257  1.00  0.00    -0.171 NA
ENDROOT
BRANCH   6  12
HETATM   12  C4  UNL     1       0.315  17.771  18.479  1.00  0.00     0.055 A 
HETATM   13  C5  UNL     1       0.989  16.575  18.389  1.00  0.00     0.031 A 
HETATM   14  C6  UNL     1       0.773  15.673  17.365  1.00  0.00     0.009 A 
HETATM   15  C7  UNL     1      -0.147  15.954  16.381  1.00  0.00    -0.061 A 
HETATM   16  C8  UNL     1      -0.395  14.994  15.270  1.00  0.00     0.048 C 
HETATM   17  C9  UNL     1      -0.834  17.149  16.454  1.00  0.00     0.015 A 
HETATM   18  C10 UNL     1      -0.618  18.052  17.476  1.00  0.00    -0.034 A 
HETATM   19  C11 UNL     1      -1.362  19.342  17.551  1.00  0.00     0.050 C 
ENDBRANCH   6  12
BRANCH   1  20
HETATM   20  C2  UNL     1      -1.131  21.086  21.687  1.00  0.00     0.088 C 
HETATM   21  C1  UNL     1      -1.204  22.017  20.546  1.00  0.00     0.090 C 
HETATM   22  N6  UNL     1      -2.223  20.833  22.334  1.00  0.00    -0.378 N 
ATOM     23  H6  UNL     1      -3.086  21.283  22.028  1.00  0.00     0.160 HD
BRANCH  22  24
HETATM   24  C13 UNL     1      -2.279  19.948  23.464  1.00  0.00     0.129 C 
BRANCH  24  25
HETATM   25  C14 UNL     1      -2.842  20.628  24.695  1.00  0.00    -0.035 C 
HETATM   26  C15 UNL     1      -3.693  21.811  24.355  1.00  0.00     0.016 C 
HETATM   27  C16 UNL     1      -1.671  21.123  25.540  1.00  0.00     0.016 C 
HETATM   28  C17 UNL     1      -3.613  19.653  25.552  1.00  0.00     0.016 C 
ENDBRANCH  24  25
ENDBRANCH  22  24
ENDBRANCH   1  20
TORSDOF 4
ENDMDL
MODEL 4
REMARK VINA RESULT: -7.364620231      4.041      7.163
REMARK  4 active torsions:
REMARK  status: ('A' for Active; 'I' for Inactive)
REMARK    1  A    between atoms: C2_2  and  N1_3 
REMARK       I    between atoms: N2_5  and  C3_7 
REMARK       I    between atoms: C3_7  and  N4_18 
REMARK    2  A    between atoms: N3_8  and  C4_10 
REMARK    3  A    between atoms: N6_22  and  C13_24 
REMARK    4  A    between atoms: C13_24  and  C14_25 
ROOT
HETATM    1  N1  UNL     1      -3.786  24.129  24.730  1.00  0.00    -0.275 N 
ATOM      2  H1  UNL     1      -3.692  25.030  25.200  1.00  0.00     0.189 HD
HETATM    3  N2  UNL     1      -2.851  23.402  24.905  1.00  0.00    -0.130 N 
ATOM      4  H2  UNL     1      -2.143  23.837  25.495  1.00  0.00     0.205 HD
HETATM    5  C3  UNL     1      -2.476  22.117  24.514  1.00  0.00     0.706 C 
HETATM    6  N3  UNL     1      -2.213  21.785  23.311  1.00  0.00    -0.189 N 
ATOM      7  H3  UNL     1      -2.294  22.525  22.614  1.00  0.00     0.184 HD
HETATM    8  N4  UNL     1      -2.368  21.123  25.554  1.00  0.00    -0.124 N 
ATOM      9  H4  UNL     1      -2.708  20.175  25.393  1.00  0.00     0.197 HD
HETATM   10  C12 UNL     1      -1.787  21.471  26.798  1.00  0.00     0.196 C 
HETATM   11  N5  UNL     1      -1.321  21.743  27.827  1.00  0.00    -0.171 NA
ENDROOT
BRANCH   6  12
HETATM   12  C4  UNL     1      -1.827  20.522  22.830  1.00  0.00     0.055 A 
HETATM   13  C5  UNL     1      -0.624  19.909  23.093  1.00  0.00     0.031 A 
HETATM   14  C6  UNL     1      -0.301  18.660  22.599  1.00  0.00     0.009 A 
HETATM   15  C7  UNL     1      -1.197  17.976  21.812  1.00  0.00    -0.061 A 
HETATM   16  C8  UNL     1      -0.867  16.628  21.272  1.00  0.00     0.048 C 
HETATM   17  C9  UNL     1      -2.411  18.574  21.537  1.00  0.00     0.015 A 
HETATM   18  C10 UNL     1      -2.734  19.823  22.028  1.00  0.00    -0.034 A 
HETATM   19  C11 UNL     1      -4.046  20.466  21.728  1.00  0.00     0.050 C 
ENDBRANCH   6  12
BRANCH   1  20
HETATM   20  C2  UNL     1      -4.967  23.999  24.023  1.00  0.00     0.088 C 
HETATM   21  C1  UNL     1      -6.225  23.610  24.686  1.00  0.00     0.090 C 
HETATM   22  N6  UNL     1      -4.992  24.206  22.745  1.00  0.00    -0.378 N 
ATOM     23  H6  UNL     1      -5.878  24.094  22.252  1.00  0.00     0.160 HD
BRANCH  22  24
HETATM   24  C13 UNL     1      -3.832  24.584  21.988  1.00  0.00     0.129 C 
BRANCH  24  25
HETATM   25  C14 UNL     1      -4.034  24.392  20.499  1.00  0.00    -0.035 C 
HETATM   26  C15 UNL     1      -4.043  25.688  19.752  1.00  0.00     0.016 C 
HETATM   27  C16 UNL     1      -5.388  23.721  20.288  1.00  0.00     0.016 C 
HETATM   28  C17 UNL     1      -2.994  23.460  19.924  1.00  0.00     0.016 C 
ENDBRANCH  24  25
ENDBRANCH  22  24
ENDBRANCH   1  20
TORSDOF 4
ENDMDL
MODEL 5
REMARK VINA RESULT: -7.321716870      1.766      2.381
REMARK  4 active torsions:
REMARK  status: ('A' for Active; 'I' for Inactive)
REMARK    1  A    between atoms: C2_2  and  N1_3 
REMARK       I    between atoms: N2_5  and  C3_7 
REMARK       I    between atoms: C3_7  and  N4_18 
REMARK    2  A    between atoms: N3_8  and  C4_10 
REMARK    3  A    between atoms: N6_22  and  C13_24 
REMARK    4  A    between atoms: C13_24  and  C14_25 
ROOT
HETATM    1  N1  UNL     1      -1.309  20.219  18.940  1.00  0.00    -0.275 N 
ATOM      2  H1  UNL     1      -1.222  20.589  17.993  1.00  0.00     0.189 HD
HETATM    3  N2  UNL     1      -1.998  20.891  19.652  1.00  0.00    -0.130 N 
ATOM      4  H2  UNL     1      -2.361  21.708  19.160  1.00  0.00     0.205 HD
HETATM    5  C3  UNL     1      -2.435  20.853  20.976  1.00  0.00     0.706 C 
HETATM    6  N3  UNL     1      -1.666  20.984  21.984  1.00  0.00    -0.189 N 
ATOM      7  H3  UNL     1      -0.676  21.121  21.779  1.00  0.00     0.184 HD
HETATM    8  N4  UNL     1      -3.849  20.670  21.193  1.00  0.00    -0.124 N 
ATOM      9  H4  UNL     1      -4.178  20.056  21.937  1.00  0.00     0.197 HD
HETATM   10  C12 UNL     1      -4.778  21.349  20.365  1.00  0.00     0.196 C 
HETATM   11  N5  UNL     1      -5.551  21.891  19.690  1.00  0.00    -0.171 NA
ENDROOT
BRANCH   6  12
HETATM   12  C4  UNL     1      -2.018  20.962  23.345  1.00  0.00     0.055 A 
HETATM   13  C5  UNL     1      -1.892  19.875  24.178  1.00  0.00     0.031 A 
HETATM   14  C6  UNL     1      -2.246  19.913  25.513  1.00  0.00     0.009 A 
HETATM   15  C7  UNL     1      -2.748  21.071  26.060  1.00  0.00    -0.061 A 
HETATM   16  C8  UNL     1      -3.134  21.133  27.497  1.00  0.00     0.048 C 
HETATM   17  C9  UNL     1      -2.881  22.174  25.241  1.00  0.00     0.015 A 
HETATM   18  C10 UNL     1      -2.529  22.136  23.907  1.00  0.00    -0.034 A 
HETATM   19  C11 UNL     1      -2.676  23.330  23.024  1.00  0.00     0.050 C 
ENDBRANCH   6  12
BRANCH   1  20
HETATM   20  C2  UNL     1      -0.608  19.044  19.137  1.00  0.00     0.088 C 
HETATM   21  C1  UNL     1      -0.014  18.709  20.445  1.00  0.00     0.090 C 
HETATM   22  N6  UNL     1      -0.444  18.207  18.164  1.00  0.00    -0.378 N 
ATOM     23  H6  UNL     1       0.084  17.353  18.341  1.00  0.00     0.160 HD
BRANCH  22  24
HETATM   24  C13 UNL     1      -0.970  18.423  16.845  1.00  0.00     0.129 C 
BRANCH  24  25
HETATM   25  C14 UNL     1      -1.144  17.127  16.080  1.00  0.00    -0.035 C 
HETATM   26  C15 UNL     1      -0.745  15.930  16.885  1.00  0.00     0.016 C 
HETATM   27  C16 UNL     1      -0.247  17.181  14.847  1.00  0.00     0.016 C 
HETATM   28  C17 UNL     1      -2.561  16.976  15.579  1.00  0.00     0.016 C 
ENDBRANCH  24  25
ENDBRANCH  22  24
ENDBRANCH   1  20
TORSDOF 4
ENDMDL
