MODEL 1
REMARK VINA RESULT: -7.325182050      0.000      0.000
REMARK  4 active torsions:
REMARK  status: ('A' for Active; 'I' for Inactive)
REMARK    1  A    between atoms: C2_2  and  C3_3 
REMARK    2  A    between atoms: C5_5  and  C6_6 
REMARK    3  A    between atoms: C7_7  and  C8_8 
REMARK    4  A    between atoms: C18_18  and  O1_19 
ROOT
HETATM    1  C8  UNL     1      -0.112  16.966  20.892  1.00  0.00     0.076 C 
HETATM    2  C9  UNL     1       1.185  16.418  21.515  1.00  0.00     0.050 C 
HETATM    3  C10 UNL     1      -1.276  16.490  21.683  1.00  0.00     0.042 C 
HETATM    4  C11 UNL     1      -2.325  17.502  21.994  1.00  0.00     0.011 C 
HETATM    5  C12 UNL     1      -1.596  18.800  22.264  1.00  0.00     0.030 C 
HETATM    6  C13 UNL     1      -2.429  19.839  22.904  1.00  0.00    -0.041 C 
HETATM    7  C14 UNL     1      -3.739  20.115  22.248  1.00  0.00     0.015 C 
HETATM    8  C15 UNL     1      -2.745  19.353  24.329  1.00  0.00     0.015 C 
HETATM    9  C16 UNL     1      -1.601  21.090  23.071  1.00  0.00     0.012 C 
HETATM   10  C17 UNL     1      -0.172  20.875  22.600  1.00  0.00     0.035 C 
HETATM   11  C18 UNL     1      -0.222  20.545  21.145  1.00  0.00     0.152 C 
HETATM   12  C19 UNL     1      -0.903  19.174  21.008  1.00  0.00     0.089 C 
HETATM   13  C20 UNL     1      -1.819  19.295  19.808  1.00  0.00     0.049 C 
HETATM   14  O2  UNL     1       0.066  18.278  20.715  1.00  0.00    -0.363 OA
ENDROOT
BRANCH   1  15
HETATM   15  C7  UNL     1      -0.195  16.308  19.559  1.00  0.00     0.010 C 
HETATM   16  C6  UNL     1       0.405  16.769  18.477  1.00  0.00    -0.001 C 
BRANCH  16  17
HETATM   17  C5  UNL     1       0.307  16.105  17.186  1.00  0.00     0.002 C 
HETATM   18  C3  UNL     1      -0.376  16.635  16.199  1.00  0.00    -0.084 C 
HETATM   19  C4  UNL     1      -1.056  17.936  16.421  1.00  0.00     0.043 C 
BRANCH  18  20
HETATM   20  C2  UNL     1      -0.506  16.001  14.874  1.00  0.00     0.029 C 
HETATM   21  C1  UNL     1       0.734  15.214  14.580  1.00  0.00     0.010 C 
ENDBRANCH  18  20
ENDBRANCH  16  17
ENDBRANCH   1  15
BRANCH  11  22
HETATM   22  O1  UNL     1       1.047  20.512  20.564  1.00  0.00    -0.393 OA
ATOM     23  H1  UNL     1       1.200  19.713  20.072  1.00  0.00     0.210 HD
ENDBRANCH  11  22
TORSDOF 4
ENDMDL
MODEL 2
REMARK VINA RESULT: -7.264425755      1.903      7.008
REMARK  4 active torsions:
REMARK  status: ('A' for Active; 'I' for Inactive)
REMARK    1  A    between atoms: C2_2  and  C3_3 
REMARK    2  A    between atoms: C5_5  and  C6_6 
REMARK    3  A    between atoms: C7_7  and  C8_8 
REMARK    4  A    between atoms: C18_18  and  O1_19 
ROOT
HETATM    1  C8  UNL     1      -1.469  18.688  21.953  1.00  0.00     0.076 C 
HETATM    2  C9  UNL     1      -2.480  19.689  21.365  1.00  0.00     0.050 C 
HETATM    3  C10 UNL     1      -2.058  17.324  21.933  1.00  0.00     0.042 C 
HETATM    4  C11 UNL     1      -1.170  16.225  21.462  1.00  0.00     0.011 C 
HETATM    5  C12 UNL     1      -0.341  16.803  20.335  1.00  0.00     0.030 C 
HETATM    6  C13 UNL     1       0.366  15.789  19.524  1.00  0.00    -0.041 C 
HETATM    7  C14 UNL     1       1.167  14.790  20.288  1.00  0.00     0.015 C 
HETATM    8  C15 UNL     1      -0.704  14.998  18.753  1.00  0.00     0.015 C 
HETATM    9  C16 UNL     1       1.189  16.496  18.474  1.00  0.00     0.012 C 
HETATM   10  C17 UNL     1       0.986  18.001  18.532  1.00  0.00     0.035 C 
HETATM   11  C18 UNL     1       1.448  18.467  19.873  1.00  0.00     0.152 C 
HETATM   12  C19 UNL     1       0.482  17.888  20.919  1.00  0.00     0.089 C 
HETATM   13  C20 UNL     1       1.354  17.450  22.077  1.00  0.00     0.049 C 
HETATM   14  O2  UNL     1      -0.303  18.906  21.339  1.00  0.00    -0.363 OA
ENDROOT
BRANCH   1  15
HETATM   15  C7  UNL     1      -1.339  19.083  23.383  1.00  0.00     0.010 C 
HETATM   16  C6  UNL     1      -1.961  20.119  23.915  1.00  0.00    -0.001 C 
BRANCH  16  17
HETATM   17  C5  UNL     1      -1.816  20.483  25.316  1.00  0.00     0.002 C 
HETATM   18  C3  UNL     1      -2.666  20.057  26.221  1.00  0.00    -0.084 C 
HETATM   19  C4  UNL     1      -3.791  19.190  25.789  1.00  0.00     0.043 C 
BRANCH  18  20
HETATM   20  C2  UNL     1      -2.563  20.399  27.652  1.00  0.00     0.029 C 
HETATM   21  C1  UNL     1      -1.583  21.519  27.821  1.00  0.00     0.010 C 
ENDBRANCH  18  20
ENDBRANCH  16  17
ENDBRANCH   1  15
BRANCH  11  22
HETATM   22  O1  UNL     1       1.483  19.860  19.969  1.00  0.00    -0.393 OA
ATOM     23  H1  UNL     1       0.775  20.274  19.489  1.00  0.00     0.210 HD
ENDBRANCH  11  22
TORSDOF 4
ENDMDL
MODEL 3
REMARK VINA RESULT: -7.231586537      1.808      7.030
REMARK  4 active torsions:
REMARK  status: ('A' for Active; 'I' for Inactive)
REMARK    1  A    between atoms: C2_2  and  C3_3 
REMARK    2  A    between atoms: C5_5  and  C6_6 
REMARK    3  A    between atoms: C7_7  and  C8_8 
REMARK    4  A    between atoms: C18_18  and  O1_19 
ROOT
HETATM    1  C8  UNL     1       0.586  17.535  19.276  1.00  0.00     0.076 C 
HETATM    2  C9  UNL     1       1.801  18.467  19.444  1.00  0.00     0.050 C 
HETATM    3  C10 UNL     1      -0.332  18.103  18.256  1.00  0.00     0.042 C 
HETATM    4  C11 UNL     1      -0.878  17.148  17.251  1.00  0.00     0.011 C 
HETATM    5  C12 UNL     1       0.241  16.179  16.934  1.00  0.00     0.030 C 
HETATM    6  C13 UNL     1       0.006  15.359  15.727  1.00  0.00    -0.041 C 
HETATM    7  C14 UNL     1      -1.310  14.660  15.664  1.00  0.00     0.015 C 
HETATM    8  C15 UNL     1       0.058  16.306  14.517  1.00  0.00     0.015 C 
HETATM    9  C16 UNL     1       1.165  14.408  15.554  1.00  0.00     0.012 C 
HETATM   10  C17 UNL     1       2.228  14.632  16.617  1.00  0.00     0.035 C 
HETATM   11  C18 UNL     1       1.603  14.360  17.945  1.00  0.00     0.152 C 
HETATM   12  C19 UNL     1       0.551  15.455  18.189  1.00  0.00     0.089 C 
HETATM   13  C20 UNL     1      -0.637  14.744  18.804  1.00  0.00     0.049 C 
HETATM   14  O2  UNL     1       1.064  16.299  19.111  1.00  0.00    -0.363 OA
ENDROOT
BRANCH   1  15
HETATM   15  C7  UNL     1      -0.123  17.605  20.584  1.00  0.00     0.010 C 
HETATM   16  C6  UNL     1      -1.231  18.296  20.780  1.00  0.00    -0.001 C 
BRANCH  16  17
HETATM   17  C5  UNL     1      -1.904  18.347  22.068  1.00  0.00     0.002 C 
HETATM   18  C3  UNL     1      -1.868  19.427  22.813  1.00  0.00    -0.084 C 
HETATM   19  C4  UNL     1      -1.122  20.610  22.315  1.00  0.00     0.043 C 
BRANCH  18  20
HETATM   20  C2  UNL     1      -2.531  19.528  24.125  1.00  0.00     0.029 C 
HETATM   21  C1  UNL     1      -2.022  20.740  24.844  1.00  0.00     0.010 C 
ENDBRANCH  18  20
ENDBRANCH  16  17
ENDBRANCH   1  15
BRANCH  11  22
HETATM   22  O1  UNL     1       2.538  14.353  18.982  1.00  0.00    -0.393 OA
ATOM     23  H1  UNL     1       2.232  13.873  19.742  1.00  0.00     0.210 HD
ENDBRANCH  11  22
TORSDOF 4
ENDMDL
MODEL 4
REMARK VINA RESULT: -7.039363914      3.275      5.509
REMARK  4 active torsions:
REMARK  status: ('A' for Active; 'I' for Inactive)
REMARK    1  A    between atoms: C2_2  and  C3_3 
REMARK    2  A    between atoms: C5_5  and  C6_6 
REMARK    3  A    between atoms: C7_7  and  C8_8 
REMARK    4  A    between atoms: C18_18  and  O1_19 
ROOT
HETATM    1  C8  UNL     1      -2.664  21.213  23.301  1.00  0.00     0.076 C 
HETATM    2  C9  UNL     1      -2.812  21.239  24.833  1.00  0.00     0.050 C 
HETATM    3  C10 UNL     1      -3.646  20.257  22.728  1.00  0.00     0.042 C 
HETATM    4  C11 UNL     1      -4.395  20.717  21.525  1.00  0.00     0.011 C 
HETATM    5  C12 UNL     1      -4.675  22.189  21.736  1.00  0.00     0.030 C 
HETATM    6  C13 UNL     1      -5.682  22.751  20.812  1.00  0.00    -0.041 C 
HETATM    7  C14 UNL     1      -5.460  22.475  19.364  1.00  0.00     0.015 C 
HETATM    8  C15 UNL     1      -7.036  22.118  21.177  1.00  0.00     0.015 C 
HETATM    9  C16 UNL     1      -5.830  24.227  21.095  1.00  0.00     0.012 C 
HETATM   10  C17 UNL     1      -4.962  24.655  22.266  1.00  0.00     0.035 C 
HETATM   11  C18 UNL     1      -3.540  24.396  21.893  1.00  0.00     0.152 C 
HETATM   12  C19 UNL     1      -3.361  22.873  21.794  1.00  0.00     0.089 C 
HETATM   13  C20 UNL     1      -2.490  22.646  20.575  1.00  0.00     0.049 C 
HETATM   14  O2  UNL     1      -2.670  22.483  22.888  1.00  0.00    -0.363 OA
ENDROOT
BRANCH   1  15
HETATM   15  C7  UNL     1      -1.311  20.637  23.065  1.00  0.00     0.010 C 
HETATM   16  C6  UNL     1      -1.084  19.348  22.893  1.00  0.00    -0.001 C 
BRANCH  16  17
HETATM   17  C5  UNL     1       0.249  18.813  22.664  1.00  0.00     0.002 C 
HETATM   18  C3  UNL     1       0.424  17.626  22.132  1.00  0.00    -0.084 C 
HETATM   19  C4  UNL     1      -0.772  16.828  21.763  1.00  0.00     0.043 C 
BRANCH  18  20
HETATM   20  C2  UNL     1       1.753  17.039  21.881  1.00  0.00     0.029 C 
HETATM   21  C1  UNL     1       1.751  16.366  20.543  1.00  0.00     0.010 C 
ENDBRANCH  18  20
ENDBRANCH  16  17
ENDBRANCH   1  15
BRANCH  11  22
HETATM   22  O1  UNL     1      -2.641  24.927  22.820  1.00  0.00    -0.393 OA
ATOM     23  H1  UNL     1      -1.754  24.967  22.483  1.00  0.00     0.210 HD
ENDBRANCH  11  22
TORSDOF 4
ENDMDL
MODEL 5
REMARK VINA RESULT: -6.796006062      2.158      3.563
REMARK  4 active torsions:
REMARK  status: ('A' for Active; 'I' for Inactive)
REMARK    1  A    between atoms: C2_2  and  C3_3 
REMARK    2  A    between atoms: C5_5  and  C6_6 
REMARK    3  A    between atoms: C7_7  and  C8_8 
REMARK    4  A    between atoms: C18_18  and  O1_19 
ROOT
HETATM    1  C8  UNL     1      -1.073  20.629  21.605  1.00  0.00     0.076 C 
HETATM    2  C9  UNL     1       0.150  21.469  21.194  1.00  0.00     0.050 C 
HETATM    3  C10 UNL     1      -0.676  19.669  22.667  1.00  0.00     0.042 C 
HETATM    4  C11 UNL     1      -1.605  19.540  23.824  1.00  0.00     0.011 C 
HETATM    5  C12 UNL     1      -2.138  20.929  24.099  1.00  0.00     0.030 C 
HETATM    6  C13 UNL     1      -2.819  21.069  25.403  1.00  0.00    -0.041 C 
HETATM    7  C14 UNL     1      -3.868  20.051  25.699  1.00  0.00     0.015 C 
HETATM    8  C15 UNL     1      -1.745  20.923  26.494  1.00  0.00     0.015 C 
HETATM    9  C16 UNL     1      -3.342  22.479  25.528  1.00  0.00     0.012 C 
HETATM   10  C17 UNL     1      -2.954  23.323  24.325  1.00  0.00     0.035 C 
HETATM   11  C18 UNL     1      -3.580  22.704  23.120  1.00  0.00     0.152 C 
HETATM   12  C19 UNL     1      -2.899  21.344  22.896  1.00  0.00     0.089 C 
HETATM   13  C20 UNL     1      -4.012  20.393  22.509  1.00  0.00     0.049 C 
HETATM   14  O2  UNL     1      -2.072  21.484  21.836  1.00  0.00    -0.363 OA
ENDROOT
BRANCH   1  15
HETATM   15  C7  UNL     1      -1.399  19.825  20.394  1.00  0.00     0.010 C 
HETATM   16  C6  UNL     1      -0.507  19.123  19.719  1.00  0.00    -0.001 C 
BRANCH  16  17
HETATM   17  C5  UNL     1      -0.853  18.346  18.539  1.00  0.00     0.002 C 
HETATM   18  C3  UNL     1      -0.085  17.369  18.118  1.00  0.00    -0.084 C 
HETATM   19  C4  UNL     1       1.157  17.064  18.872  1.00  0.00     0.043 C 
BRANCH  18  20
HETATM   20  C2  UNL     1      -0.392  16.554  16.928  1.00  0.00     0.029 C 
HETATM   21  C1  UNL     1      -1.306  17.325  16.026  1.00  0.00     0.010 C 
ENDBRANCH  18  20
ENDBRANCH  16  17
ENDBRANCH   1  15
BRANCH  11  22
HETATM   22  O1  UNL     1      -3.445  23.502  21.982  1.00  0.00    -0.393 OA
ATOM     23  H1  UNL     1      -2.538  23.711  21.791  1.00  0.00     0.210 HD
ENDBRANCH  11  22
TORSDOF 4
ENDMDL
