MODEL 1
REMARK VINA RESULT: -7.735341359      0.000      0.000
REMARK  7 active torsions:
REMARK  status: ('A' for Active; 'I' for Inactive)
REMARK    1  A    between atoms: O1_2  and  C2_3 
REMARK    2  A    between atoms: C2_3  and  C3_5 
REMARK    3  A    between atoms: C3_5  and  C4_6 
REMARK    4  A    between atoms: C5_7  and  O3_8 
REMARK    5  A    between atoms: C13_17  and  C15_19 
REMARK    6  A    between atoms: C15_19  and  N1_20 
REMARK    7  A    between atoms: N1_20  and  C17_22 
ROOT
HETATM    1  C4  UNL     1      82.681  11.257  21.183  1.00  0.00     0.034 C 
HETATM    2  C5  UNL     1      82.193   9.877  20.980  1.00  0.00     0.127 C 
HETATM    3  C6  UNL     1      83.239   8.930  21.439  1.00  0.00     0.066 C 
HETATM    4  C7  UNL     1      84.571   9.477  21.210  1.00  0.00    -0.076 C 
HETATM    5  C8  UNL     1      85.583   8.662  21.599  1.00  0.00    -0.023 C 
HETATM    6  C9  UNL     1      86.953   9.199  21.375  1.00  0.00     0.027 C 
HETATM    7  C10 UNL     1      87.024   9.582  19.918  1.00  0.00     0.004 C 
HETATM    8  C11 UNL     1      85.906  10.503  19.486  1.00  0.00     0.010 C 
HETATM    9  C12 UNL     1      84.974  10.763  20.637  1.00  0.00     0.025 C 
HETATM   10  C13 UNL     1      83.850  11.723  20.363  1.00  0.00    -0.004 C 
HETATM   11  C14 UNL     1      84.254  13.046  21.050  1.00  0.00     0.018 C 
ENDROOT
BRANCH  10  12
HETATM   12  C15 UNL     1      83.471  11.878  18.950  1.00  0.00     0.282 C 
BRANCH  12  13
HETATM   13  N1  UNL     1      83.356  13.199  18.385  1.00  0.00     0.088 N 
HETATM   14  C16 UNL     1      84.305  13.277  17.226  1.00  0.00     0.310 C 
BRANCH  13  15
HETATM   15  C17 UNL     1      82.104  13.486  17.712  1.00  0.00     0.214 C 
HETATM   16  C18 UNL     1      81.251  12.223  17.528  1.00  0.00     0.042 C 
HETATM   17  C19 UNL     1      82.478  13.964  16.309  1.00  0.00     0.042 C 
ENDBRANCH  13  15
ENDBRANCH  12  13
ENDBRANCH  10  12
BRANCH   1  18
HETATM   18  C3  UNL     1      81.486  12.175  21.179  1.00  0.00     0.119 C 
BRANCH  18  19
HETATM   19  C2  UNL     1      80.970  12.305  22.596  1.00  0.00     0.258 C 
HETATM   20  O2  UNL     1      79.801  12.710  22.814  1.00  0.00    -0.265 OA
BRANCH  19  21
HETATM   21  O1  UNL     1      81.750  11.992  23.697  1.00  0.00    -0.326 OA
HETATM   22  C1  UNL     1      81.665  10.824  24.457  1.00  0.00     0.213 C 
ENDBRANCH  19  21
ENDBRANCH  18  19
ENDBRANCH   1  18
BRANCH   2  23
HETATM   23  O3  UNL     1      81.739   9.523  19.746  1.00  0.00    -0.395 OA
ATOM     24  H3  UNL     1      81.402   8.643  19.622  1.00  0.00     0.210 HD
ENDBRANCH   2  23
TORSDOF 7
ENDMDL
MODEL 2
REMARK VINA RESULT: -7.274113856      2.539      5.018
REMARK  7 active torsions:
REMARK  status: ('A' for Active; 'I' for Inactive)
REMARK    1  A    between atoms: O1_2  and  C2_3 
REMARK    2  A    between atoms: C2_3  and  C3_5 
REMARK    3  A    between atoms: C3_5  and  C4_6 
REMARK    4  A    between atoms: C5_7  and  O3_8 
REMARK    5  A    between atoms: C13_17  and  C15_19 
REMARK    6  A    between atoms: C15_19  and  N1_20 
REMARK    7  A    between atoms: N1_20  and  C17_22 
ROOT
HETATM    1  C4  UNL     1      84.356  10.254  19.089  1.00  0.00     0.034 C 
HETATM    2  C5  UNL     1      84.548  10.398  20.547  1.00  0.00     0.127 C 
HETATM    3  C6  UNL     1      83.861   9.276  21.232  1.00  0.00     0.066 C 
HETATM    4  C7  UNL     1      82.668   8.872  20.497  1.00  0.00    -0.076 C 
HETATM    5  C8  UNL     1      81.980   7.851  21.068  1.00  0.00    -0.023 C 
HETATM    6  C9  UNL     1      80.757   7.422  20.336  1.00  0.00     0.027 C 
HETATM    7  C10 UNL     1      79.925   8.663  20.139  1.00  0.00     0.004 C 
HETATM    8  C11 UNL     1      80.684   9.797  19.488  1.00  0.00     0.010 C 
HETATM    9  C12 UNL     1      82.112   9.393  19.246  1.00  0.00     0.025 C 
HETATM   10  C13 UNL     1      82.967  10.407  18.538  1.00  0.00    -0.004 C 
HETATM   11  C14 UNL     1      83.107   9.895  17.088  1.00  0.00     0.018 C 
ENDROOT
BRANCH  10  12
HETATM   12  C15 UNL     1      82.515  11.803  18.636  1.00  0.00     0.282 C 
BRANCH  12  13
HETATM   13  N1  UNL     1      81.931  12.444  17.485  1.00  0.00     0.088 N 
HETATM   14  C16 UNL     1      80.959  13.471  17.985  1.00  0.00     0.310 C 
BRANCH  13  15
HETATM   15  C17 UNL     1      82.825  13.289  16.716  1.00  0.00     0.214 C 
HETATM   16  C18 UNL     1      83.902  13.934  17.599  1.00  0.00     0.042 C 
HETATM   17  C19 UNL     1      81.965  14.433  16.177  1.00  0.00     0.042 C 
ENDBRANCH  13  15
ENDBRANCH  12  13
ENDBRANCH  10  12
BRANCH   1  18
HETATM   18  C3  UNL     1      85.415  11.074  18.400  1.00  0.00     0.119 C 
BRANCH  18  19
HETATM   19  C2  UNL     1      86.704  10.281  18.378  1.00  0.00     0.258 C 
HETATM   20  O2  UNL     1      87.428  10.212  19.402  1.00  0.00    -0.265 OA
BRANCH  19  21
HETATM   21  O1  UNL     1      87.139   9.611  17.246  1.00  0.00    -0.326 OA
HETATM   22  C1  UNL     1      87.920  10.152  16.222  1.00  0.00     0.213 C 
ENDBRANCH  19  21
ENDBRANCH  18  19
ENDBRANCH   1  18
BRANCH   2  23
HETATM   23  O3  UNL     1      84.220  11.584  21.131  1.00  0.00    -0.395 OA
ATOM     24  H3  UNL     1      84.691  12.365  20.866  1.00  0.00     0.210 HD
ENDBRANCH   2  23
TORSDOF 7
ENDMDL
MODEL 3
REMARK VINA RESULT: -7.238254450      1.820      5.084
REMARK  7 active torsions:
REMARK  status: ('A' for Active; 'I' for Inactive)
REMARK    1  A    between atoms: O1_2  and  C2_3 
REMARK    2  A    between atoms: C2_3  and  C3_5 
REMARK    3  A    between atoms: C3_5  and  C4_6 
REMARK    4  A    between atoms: C5_7  and  O3_8 
REMARK    5  A    between atoms: C13_17  and  C15_19 
REMARK    6  A    between atoms: C15_19  and  N1_20 
REMARK    7  A    between atoms: N1_20  and  C17_22 
ROOT
HETATM    1  C4  UNL     1      81.777  10.878  19.580  1.00  0.00     0.034 C 
HETATM    2  C5  UNL     1      81.250  12.040  20.324  1.00  0.00     0.127 C 
HETATM    3  C6  UNL     1      80.881  13.100  19.354  1.00  0.00     0.066 C 
HETATM    4  C7  UNL     1      81.766  13.074  18.195  1.00  0.00    -0.076 C 
HETATM    5  C8  UNL     1      81.494  14.022  17.264  1.00  0.00    -0.023 C 
HETATM    6  C9  UNL     1      82.386  14.015  16.071  1.00  0.00     0.027 C 
HETATM    7  C10 UNL     1      83.797  14.087  16.599  1.00  0.00     0.004 C 
HETATM    8  C11 UNL     1      84.107  13.022  17.625  1.00  0.00     0.010 C 
HETATM    9  C12 UNL     1      82.888  12.183  17.888  1.00  0.00     0.025 C 
HETATM   10  C13 UNL     1      83.076  11.037  18.843  1.00  0.00    -0.004 C 
HETATM   11  C14 UNL     1      83.138   9.768  17.964  1.00  0.00     0.018 C 
ENDROOT
BRANCH  10  12
HETATM   12  C15 UNL     1      84.200  11.166  19.782  1.00  0.00     0.282 C 
BRANCH  12  13
HETATM   13  N1  UNL     1      85.217  10.145  19.820  1.00  0.00     0.088 N 
HETATM   14  C16 UNL     1      86.447  10.711  19.175  1.00  0.00     0.310 C 
BRANCH  13  15
HETATM   15  C17 UNL     1      85.738   9.828  21.136  1.00  0.00     0.214 C 
HETATM   16  C18 UNL     1      87.157   9.249  21.064  1.00  0.00     0.042 C 
HETATM   17  C19 UNL     1      84.844   8.716  21.687  1.00  0.00     0.042 C 
ENDBRANCH  13  15
ENDBRANCH  12  13
ENDBRANCH  10  12
BRANCH   1  18
HETATM   18  C3  UNL     1      81.693   9.675  20.483  1.00  0.00     0.119 C 
BRANCH  18  19
HETATM   19  C2  UNL     1      80.455   8.883  20.123  1.00  0.00     0.258 C 
HETATM   20  O2  UNL     1      79.735   9.231  19.153  1.00  0.00    -0.265 OA
BRANCH  19  21
HETATM   21  O1  UNL     1      80.062   7.763  20.837  1.00  0.00    -0.326 OA
HETATM   22  C1  UNL     1      79.744   7.727  22.197  1.00  0.00     0.213 C 
ENDBRANCH  19  21
ENDBRANCH  18  19
ENDBRANCH   1  18
BRANCH   2  23
HETATM   23  O3  UNL     1      82.003  12.561  21.333  1.00  0.00    -0.395 OA
ATOM     24  H3  UNL     1      82.125  13.502  21.367  1.00  0.00     0.210 HD
ENDBRANCH   2  23
TORSDOF 7
ENDMDL
MODEL 4
REMARK VINA RESULT: -7.072477072      2.171      4.713
REMARK  7 active torsions:
REMARK  status: ('A' for Active; 'I' for Inactive)
REMARK    1  A    between atoms: O1_2  and  C2_3 
REMARK    2  A    between atoms: C2_3  and  C3_5 
REMARK    3  A    between atoms: C3_5  and  C4_6 
REMARK    4  A    between atoms: C5_7  and  O3_8 
REMARK    5  A    between atoms: C13_17  and  C15_19 
REMARK    6  A    between atoms: C15_19  and  N1_20 
REMARK    7  A    between atoms: N1_20  and  C17_22 
ROOT
HETATM    1  C4  UNL     1      83.251  11.731  19.238  1.00  0.00     0.034 C 
HETATM    2  C5  UNL     1      84.208  12.856  19.292  1.00  0.00     0.127 C 
HETATM    3  C6  UNL     1      85.575  12.330  19.061  1.00  0.00     0.066 C 
HETATM    4  C7  UNL     1      85.710  10.981  19.598  1.00  0.00    -0.076 C 
HETATM    5  C8  UNL     1      86.940  10.433  19.431  1.00  0.00    -0.023 C 
HETATM    6  C9  UNL     1      87.102   9.056  19.972  1.00  0.00     0.027 C 
HETATM    7  C10 UNL     1      86.669   9.116  21.415  1.00  0.00     0.004 C 
HETATM    8  C11 UNL     1      85.292   9.711  21.604  1.00  0.00     0.010 C 
HETATM    9  C12 UNL     1      84.725  10.136  20.278  1.00  0.00     0.025 C 
HETATM   10  C13 UNL     1      83.325  10.684  20.312  1.00  0.00    -0.004 C 
HETATM   11  C14 UNL     1      82.423   9.557  19.765  1.00  0.00     0.018 C 
ENDROOT
BRANCH  10  12
HETATM   12  C15 UNL     1      82.882  11.227  21.605  1.00  0.00     0.282 C 
BRANCH  12  13
HETATM   13  N1  UNL     1      81.622  10.802  22.161  1.00  0.00     0.088 N 
HETATM   14  C16 UNL     1      81.916   9.767  23.205  1.00  0.00     0.310 C 
BRANCH  13  15
HETATM   15  C17 UNL     1      80.928  11.789  22.965  1.00  0.00     0.214 C 
HETATM   16  C18 UNL     1      79.912  12.589  22.138  1.00  0.00     0.042 C 
HETATM   17  C19 UNL     1      81.993  12.785  23.424  1.00  0.00     0.042 C 
ENDBRANCH  13  15
ENDBRANCH  12  13
ENDBRANCH  10  12
BRANCH   1  18
HETATM   18  C3  UNL     1      81.879  12.303  18.991  1.00  0.00     0.119 C 
BRANCH  18  19
HETATM   19  C2  UNL     1      81.702  12.515  17.504  1.00  0.00     0.258 C 
HETATM   20  O2  UNL     1      81.872  11.564  16.699  1.00  0.00    -0.265 OA
BRANCH  19  21
HETATM   21  O1  UNL     1      81.355  13.745  16.969  1.00  0.00    -0.326 OA
HETATM   22  C1  UNL     1      82.093  14.469  16.030  1.00  0.00     0.213 C 
ENDBRANCH  19  21
ENDBRANCH  18  19
ENDBRANCH   1  18
BRANCH   2  23
HETATM   23  O3  UNL     1      84.190  13.672  20.383  1.00  0.00    -0.395 OA
ATOM     24  H3  UNL     1      84.647  14.503  20.334  1.00  0.00     0.210 HD
ENDBRANCH   2  23
TORSDOF 7
ENDMDL
MODEL 5
REMARK VINA RESULT: -6.951609995      2.432      4.531
REMARK  7 active torsions:
REMARK  status: ('A' for Active; 'I' for Inactive)
REMARK    1  A    between atoms: O1_2  and  C2_3 
REMARK    2  A    between atoms: C2_3  and  C3_5 
REMARK    3  A    between atoms: C3_5  and  C4_6 
REMARK    4  A    between atoms: C5_7  and  O3_8 
REMARK    5  A    between atoms: C13_17  and  C15_19 
REMARK    6  A    between atoms: C15_19  and  N1_20 
REMARK    7  A    between atoms: N1_20  and  C17_22 
ROOT
HETATM    1  C4  UNL     1      83.797  12.054  19.148  1.00  0.00     0.034 C 
HETATM    2  C5  UNL     1      84.143  12.937  20.281  1.00  0.00     0.127 C 
HETATM    3  C6  UNL     1      85.359  12.407  20.944  1.00  0.00     0.066 C 
HETATM    4  C7  UNL     1      85.401  10.951  20.867  1.00  0.00    -0.076 C 
HETATM    5  C8  UNL     1      86.485  10.392  21.459  1.00  0.00    -0.023 C 
HETATM    6  C9  UNL     1      86.549   8.906  21.393  1.00  0.00     0.027 C 
HETATM    7  C10 UNL     1      85.240   8.402  21.948  1.00  0.00     0.004 C 
HETATM    8  C11 UNL     1      84.031   9.012  21.278  1.00  0.00     0.010 C 
HETATM    9  C12 UNL     1      84.461  10.016  20.245  1.00  0.00     0.025 C 
HETATM   10  C13 UNL     1      83.354  10.652  19.450  1.00  0.00    -0.004 C 
HETATM   11  C14 UNL     1      83.387   9.967  18.066  1.00  0.00     0.018 C 
ENDROOT
BRANCH  10  12
HETATM   12  C15 UNL     1      82.027  10.646  20.085  1.00  0.00     0.282 C 
BRANCH  12  13
HETATM   13  N1  UNL     1      81.003   9.764  19.587  1.00  0.00     0.088 N 
HETATM   14  C16 UNL     1      80.358   9.107  20.771  1.00  0.00     0.310 C 
BRANCH  13  15
HETATM   15  C17 UNL     1      79.850  10.414  18.992  1.00  0.00     0.214 C 
HETATM   16  C18 UNL     1      79.911  10.395  17.459  1.00  0.00     0.042 C 
HETATM   17  C19 UNL     1      79.932  11.882  19.411  1.00  0.00     0.042 C 
ENDBRANCH  13  15
ENDBRANCH  12  13
ENDBRANCH  10  12
BRANCH   1  18
HETATM   18  C3  UNL     1      82.898  12.826  18.218  1.00  0.00     0.119 C 
BRANCH  18  19
HETATM   19  C2  UNL     1      83.744  13.448  17.129  1.00  0.00     0.258 C 
HETATM   20  O2  UNL     1      84.979  13.221  17.073  1.00  0.00    -0.265 OA
BRANCH  19  21
HETATM   21  O1  UNL     1      83.208  14.284  16.163  1.00  0.00    -0.326 OA
HETATM   22  C1  UNL     1      81.856  14.603  16.015  1.00  0.00     0.213 C 
ENDBRANCH  19  21
ENDBRANCH  18  19
ENDBRANCH   1  18
BRANCH   2  23
HETATM   23  O3  UNL     1      83.180  13.215  21.204  1.00  0.00    -0.395 OA
ATOM     24  H3  UNL     1      82.279  12.997  20.999  1.00  0.00     0.210 HD
ENDBRANCH   2  23
TORSDOF 7
ENDMDL
