MODEL 1
REMARK VINA RESULT: -8.573513093      0.000      0.000
REMARK  6 active torsions:
REMARK  status: ('A' for Active; 'I' for Inactive)
REMARK       I    between atoms: C1_2  and  N1_3 
REMARK    1  A    between atoms: C1_2  and  O2_19 
REMARK    2  A    between atoms: N1_3  and  C2_5 
REMARK    3  A    between atoms: C2_5  and  C3_6 
REMARK    4  A    between atoms: C3_6  and  C4_7 
REMARK    5  A    between atoms: C4_7  and  N2_8 
REMARK    6  A    between atoms: O2_19  and  C15_20 
ROOT
HETATM    1  C3  UNL     1      82.723  13.319  16.671  1.00  0.00     0.050 C 
ENDROOT
BRANCH   1   2
HETATM    2  C2  UNL     1      83.925  13.774  17.432  1.00  0.00     0.127 C 
BRANCH   2   3
HETATM    3  N1  UNL     1      84.668  12.707  18.058  1.00  0.00    -0.337 N 
HETATM    4  C1  UNL     1      84.955  12.841  19.443  1.00  0.00     0.360 C 
HETATM    5  O1  UNL     1      84.584  13.841  20.112  1.00  0.00    -0.239 OA
ATOM      6  H1  UNL     1      84.973  11.891  17.528  1.00  0.00     0.164 HD
BRANCH   4   7
HETATM    7  O2  UNL     1      85.672  11.871  20.159  1.00  0.00    -0.299 OA
BRANCH   7   8
HETATM    8  C15 UNL     1      85.450  10.487  19.889  1.00  0.00     0.133 C 
HETATM    9  C16 UNL     1      85.046   9.710  21.095  1.00  0.00     0.032 C 
HETATM   10  C17 UNL     1      86.359   9.486  21.823  1.00  0.00     0.002 C 
HETATM   11  C18 UNL     1      87.207   8.975  20.646  1.00  0.00     0.002 C 
HETATM   12  C19 UNL     1      86.769   9.883  19.486  1.00  0.00     0.032 C 
ENDBRANCH   7   8
ENDBRANCH   4   7
ENDBRANCH   2   3
ENDBRANCH   1   2
BRANCH   1  13
HETATM   13  C4  UNL     1      81.483  13.733  17.422  1.00  0.00     0.274 C 
BRANCH  13  14
HETATM   14  N2  UNL     1      80.877  12.639  18.133  1.00  0.00     0.088 N 
HETATM   15  C5  UNL     1      80.907  12.802  19.559  1.00  0.00     0.272 C 
HETATM   16  C6  UNL     1      81.757  11.829  20.301  1.00  0.00     0.031 C 
HETATM   17  C7  UNL     1      81.026  10.550  20.639  1.00  0.00     0.011 C 
HETATM   18  C8  UNL     1      80.845   9.640  19.470  1.00  0.00    -0.039 C 
HETATM   19  C9  UNL     1      79.735   8.646  19.855  1.00  0.00     0.009 C 
HETATM   20  C12 UNL     1      81.995   8.670  19.297  1.00  0.00     0.009 C 
HETATM   21  C13 UNL     1      80.412  10.299  18.207  1.00  0.00     0.039 C 
HETATM   22  C10 UNL     1      80.413   7.832  20.943  1.00  0.00     0.001 C 
HETATM   23  C11 UNL     1      81.831   7.687  20.443  1.00  0.00     0.001 C 
HETATM   24  C14 UNL     1      81.332  11.349  17.686  1.00  0.00     0.273 C 
ENDBRANCH  13  14
ENDBRANCH   1  13
TORSDOF 6
ENDMDL
MODEL 2
REMARK VINA RESULT: -8.489876919      1.707      4.613
REMARK  6 active torsions:
REMARK  status: ('A' for Active; 'I' for Inactive)
REMARK       I    between atoms: C1_2  and  N1_3 
REMARK    1  A    between atoms: C1_2  and  O2_19 
REMARK    2  A    between atoms: N1_3  and  C2_5 
REMARK    3  A    between atoms: C2_5  and  C3_6 
REMARK    4  A    between atoms: C3_6  and  C4_7 
REMARK    5  A    between atoms: C4_7  and  N2_8 
REMARK    6  A    between atoms: O2_19  and  C15_20 
ROOT
HETATM    1  C3  UNL     1      82.558  13.653  16.542  1.00  0.00     0.050 C 
ENDROOT
BRANCH   1   2
HETATM    2  C2  UNL     1      81.349  13.459  17.397  1.00  0.00     0.127 C 
BRANCH   2   3
HETATM    3  N1  UNL     1      81.046  12.078  17.687  1.00  0.00    -0.337 N 
HETATM    4  C1  UNL     1      80.633  11.767  19.011  1.00  0.00     0.360 C 
HETATM    5  O1  UNL     1      80.529  12.647  19.905  1.00  0.00    -0.239 OA
ATOM      6  H1  UNL     1      81.125  11.355  16.972  1.00  0.00     0.164 HD
BRANCH   4   7
HETATM    7  O2  UNL     1      80.314  10.461  19.412  1.00  0.00    -0.299 OA
BRANCH   7   8
HETATM    8  C15 UNL     1      81.198   9.755  20.283  1.00  0.00     0.133 C 
HETATM    9  C16 UNL     1      81.472   8.360  19.835  1.00  0.00     0.032 C 
HETATM   10  C17 UNL     1      80.233   7.601  20.274  1.00  0.00     0.002 C 
HETATM   11  C18 UNL     1      80.144   8.096  21.727  1.00  0.00     0.002 C 
HETATM   12  C19 UNL     1      80.500   9.587  21.606  1.00  0.00     0.032 C 
ENDBRANCH   7   8
ENDBRANCH   4   7
ENDBRANCH   2   3
ENDBRANCH   1   2
BRANCH   1  13
HETATM   13  C4  UNL     1      83.765  13.814  17.431  1.00  0.00     0.274 C 
BRANCH  13  14
HETATM   14  N2  UNL     1      83.834  12.807  18.456  1.00  0.00     0.088 N 
HETATM   15  C5  UNL     1      84.137  13.339  19.755  1.00  0.00     0.272 C 
HETATM   16  C6  UNL     1      85.455  12.936  20.324  1.00  0.00     0.031 C 
HETATM   17  C7  UNL     1      85.395  11.622  21.068  1.00  0.00     0.011 C 
HETATM   18  C8  UNL     1      85.316  10.431  20.172  1.00  0.00    -0.039 C 
HETATM   19  C9  UNL     1      84.820   9.262  21.040  1.00  0.00     0.009 C 
HETATM   20  C12 UNL     1      86.678   9.893  19.789  1.00  0.00     0.009 C 
HETATM   21  C13 UNL     1      84.368  10.553  19.030  1.00  0.00     0.039 C 
HETATM   22  C10 UNL     1      86.003   9.037  21.963  1.00  0.00     0.001 C 
HETATM   23  C11 UNL     1      87.198   9.249  21.062  1.00  0.00     0.001 C 
HETATM   24  C14 UNL     1      84.641  11.675  18.088  1.00  0.00     0.273 C 
ENDBRANCH  13  14
ENDBRANCH   1  13
TORSDOF 6
ENDMDL
MODEL 3
REMARK VINA RESULT: -8.019193965      1.120      1.383
REMARK  6 active torsions:
REMARK  status: ('A' for Active; 'I' for Inactive)
REMARK       I    between atoms: C1_2  and  N1_3 
REMARK    1  A    between atoms: C1_2  and  O2_19 
REMARK    2  A    between atoms: N1_3  and  C2_5 
REMARK    3  A    between atoms: C2_5  and  C3_6 
REMARK    4  A    between atoms: C3_6  and  C4_7 
REMARK    5  A    between atoms: C4_7  and  N2_8 
REMARK    6  A    between atoms: O2_19  and  C15_20 
ROOT
HETATM    1  C3  UNL     1      82.712  13.144  16.854  1.00  0.00     0.050 C 
ENDROOT
BRANCH   1   2
HETATM    2  C2  UNL     1      83.919  13.494  17.661  1.00  0.00     0.127 C 
BRANCH   2   3
HETATM    3  N1  UNL     1      84.264  12.515  18.663  1.00  0.00    -0.337 N 
HETATM    4  C1  UNL     1      84.858  11.305  18.213  1.00  0.00     0.360 C 
HETATM    5  O1  UNL     1      85.083  11.081  16.995  1.00  0.00    -0.239 OA
ATOM      6  H1  UNL     1      84.089  12.685  19.653  1.00  0.00     0.164 HD
BRANCH   4   7
HETATM    7  O2  UNL     1      85.234  10.280  19.093  1.00  0.00    -0.299 OA
BRANCH   7   8
HETATM    8  C15 UNL     1      85.199  10.510  20.501  1.00  0.00     0.133 C 
HETATM    9  C16 UNL     1      86.548  10.473  21.136  1.00  0.00     0.032 C 
HETATM   10  C17 UNL     1      86.837   8.989  21.260  1.00  0.00     0.002 C 
HETATM   11  C18 UNL     1      85.512   8.534  21.896  1.00  0.00     0.002 C 
HETATM   12  C19 UNL     1      84.463   9.360  21.135  1.00  0.00     0.032 C 
ENDBRANCH   7   8
ENDBRANCH   4   7
ENDBRANCH   2   3
ENDBRANCH   1   2
BRANCH   1  13
HETATM   13  C4  UNL     1      81.479  13.585  17.601  1.00  0.00     0.274 C 
BRANCH  13  14
HETATM   14  N2  UNL     1      80.824  12.496  18.277  1.00  0.00     0.088 N 
HETATM   15  C5  UNL     1      80.851  12.617  19.707  1.00  0.00     0.272 C 
HETATM   16  C6  UNL     1      81.655  11.587  20.424  1.00  0.00     0.031 C 
HETATM   17  C7  UNL     1      80.870  10.330  20.720  1.00  0.00     0.011 C 
HETATM   18  C8  UNL     1      80.659   9.463  19.523  1.00  0.00    -0.039 C 
HETATM   19  C9  UNL     1      79.507   8.505  19.873  1.00  0.00     0.009 C 
HETATM   20  C12 UNL     1      81.769   8.452  19.329  1.00  0.00     0.009 C 
HETATM   21  C13 UNL     1      80.262  10.177  18.278  1.00  0.00     0.039 C 
HETATM   22  C10 UNL     1      80.143   7.633  20.940  1.00  0.00     0.001 C 
HETATM   23  C11 UNL     1      81.558   7.443  20.444  1.00  0.00     0.001 C 
HETATM   24  C14 UNL     1      81.228  11.203  17.794  1.00  0.00     0.273 C 
ENDBRANCH  13  14
ENDBRANCH   1  13
TORSDOF 6
ENDMDL
MODEL 4
REMARK VINA RESULT: -7.981189503      0.781      1.595
REMARK  6 active torsions:
REMARK  status: ('A' for Active; 'I' for Inactive)
REMARK       I    between atoms: C1_2  and  N1_3 
REMARK    1  A    between atoms: C1_2  and  O2_19 
REMARK    2  A    between atoms: N1_3  and  C2_5 
REMARK    3  A    between atoms: C2_5  and  C3_6 
REMARK    4  A    between atoms: C3_6  and  C4_7 
REMARK    5  A    between atoms: C4_7  and  N2_8 
REMARK    6  A    between atoms: O2_19  and  C15_20 
ROOT
HETATM    1  C3  UNL     1      82.660  13.448  16.718  1.00  0.00     0.050 C 
ENDROOT
BRANCH   1   2
HETATM    2  C2  UNL     1      83.916  13.942  17.357  1.00  0.00     0.127 C 
BRANCH   2   3
HETATM    3  N1  UNL     1      84.826  12.896  17.759  1.00  0.00    -0.337 N 
HETATM    4  C1  UNL     1      85.185  12.839  19.133  1.00  0.00     0.360 C 
HETATM    5  O1  UNL     1      84.736  13.657  19.977  1.00  0.00    -0.239 OA
ATOM      6  H1  UNL     1      85.196  12.226  17.085  1.00  0.00     0.164 HD
BRANCH   4   7
HETATM    7  O2  UNL     1      86.063  11.870  19.641  1.00  0.00    -0.299 OA
BRANCH   7   8
HETATM    8  C15 UNL     1      85.673  10.497  19.642  1.00  0.00     0.133 C 
HETATM    9  C16 UNL     1      85.264  10.004  20.988  1.00  0.00     0.032 C 
HETATM   10  C17 UNL     1      86.587   9.759  21.689  1.00  0.00     0.002 C 
HETATM   11  C18 UNL     1      87.298   8.946  20.594  1.00  0.00     0.002 C 
HETATM   12  C19 UNL     1      86.889   9.676  19.304  1.00  0.00     0.032 C 
ENDBRANCH   7   8
ENDBRANCH   4   7
ENDBRANCH   2   3
ENDBRANCH   1   2
BRANCH   1  13
HETATM   13  C4  UNL     1      81.672  13.085  17.799  1.00  0.00     0.274 C 
BRANCH  13  14
HETATM   14  N2  UNL     1      81.765  11.703  18.190  1.00  0.00     0.088 N 
HETATM   15  C5  UNL     1      80.851  10.851  17.484  1.00  0.00     0.272 C 
HETATM   16  C6  UNL     1      79.777  10.232  18.312  1.00  0.00     0.031 C 
HETATM   17  C7  UNL     1      80.209   8.938  18.961  1.00  0.00     0.011 C 
HETATM   18  C8  UNL     1      81.123   9.130  20.126  1.00  0.00    -0.039 C 
HETATM   19  C9  UNL     1      81.807   7.775  20.375  1.00  0.00     0.009 C 
HETATM   20  C12 UNL     1      80.379   9.276  21.436  1.00  0.00     0.009 C 
HETATM   21  C13 UNL     1      82.208  10.130  19.929  1.00  0.00     0.039 C 
HETATM   22  C10 UNL     1      80.646   6.927  20.864  1.00  0.00     0.001 C 
HETATM   23  C11 UNL     1      79.851   7.881  21.725  1.00  0.00     0.001 C 
HETATM   24  C14 UNL     1      81.753  11.514  19.616  1.00  0.00     0.273 C 
ENDBRANCH  13  14
ENDBRANCH   1  13
TORSDOF 6
ENDMDL
MODEL 5
REMARK VINA RESULT: -7.716716820      1.723      4.713
REMARK  6 active torsions:
REMARK  status: ('A' for Active; 'I' for Inactive)
REMARK       I    between atoms: C1_2  and  N1_3 
REMARK    1  A    between atoms: C1_2  and  O2_19 
REMARK    2  A    between atoms: N1_3  and  C2_5 
REMARK    3  A    between atoms: C2_5  and  C3_6 
REMARK    4  A    between atoms: C3_6  and  C4_7 
REMARK    5  A    between atoms: C4_7  and  N2_8 
REMARK    6  A    between atoms: O2_19  and  C15_20 
ROOT
HETATM    1  C3  UNL     1      83.108  13.425  16.687  1.00  0.00     0.050 C 
ENDROOT
BRANCH   1   2
HETATM    2  C2  UNL     1      81.667  13.323  17.065  1.00  0.00     0.127 C 
BRANCH   2   3
HETATM    3  N1  UNL     1      81.267  12.014  17.522  1.00  0.00    -0.337 N 
HETATM    4  C1  UNL     1      80.749  11.915  18.842  1.00  0.00     0.360 C 
HETATM    5  O1  UNL     1      80.634  12.918  19.593  1.00  0.00    -0.239 OA
ATOM      6  H1  UNL     1      81.353  11.193  16.922  1.00  0.00     0.164 HD
BRANCH   4   7
HETATM    7  O2  UNL     1      80.330  10.697  19.396  1.00  0.00    -0.299 OA
BRANCH   7   8
HETATM    8  C15 UNL     1      81.224   9.956  20.227  1.00  0.00     0.133 C 
HETATM    9  C16 UNL     1      81.509   8.588  19.709  1.00  0.00     0.032 C 
HETATM   10  C17 UNL     1      80.279   7.796  20.112  1.00  0.00     0.002 C 
HETATM   11  C18 UNL     1      80.190   8.216  21.589  1.00  0.00     0.002 C 
HETATM   12  C19 UNL     1      80.532   9.714  21.542  1.00  0.00     0.032 C 
ENDBRANCH   7   8
ENDBRANCH   4   7
ENDBRANCH   2   3
ENDBRANCH   1   2
BRANCH   1  13
HETATM   13  C4  UNL     1      83.870  14.049  17.829  1.00  0.00     0.274 C 
BRANCH  13  14
HETATM   14  N2  UNL     1      84.720  13.105  18.506  1.00  0.00     0.088 N 
HETATM   15  C5  UNL     1      85.062  11.969  17.698  1.00  0.00     0.272 C 
HETATM   16  C6  UNL     1      84.513  10.662  18.159  1.00  0.00     0.031 C 
HETATM   17  C7  UNL     1      85.396   9.983  19.180  1.00  0.00     0.011 C 
HETATM   18  C8  UNL     1      85.319  10.597  20.538  1.00  0.00    -0.039 C 
HETATM   19  C9  UNL     1      86.559  10.111  21.310  1.00  0.00     0.009 C 
HETATM   20  C12 UNL     1      84.236   9.983  21.400  1.00  0.00     0.009 C 
HETATM   21  C13 UNL     1      85.350  12.086  20.569  1.00  0.00     0.039 C 
HETATM   22  C10 UNL     1      86.257   8.633  21.480  1.00  0.00     0.001 C 
HETATM   23  C11 UNL     1      84.770   8.605  21.748  1.00  0.00     0.001 C 
HETATM   24  C14 UNL     1      84.253  12.763  19.823  1.00  0.00     0.273 C 
ENDBRANCH  13  14
ENDBRANCH   1  13
TORSDOF 6
ENDMDL
