MODEL 1
REMARK VINA RESULT: -7.195928574      0.000      0.000
REMARK  9 active torsions:
REMARK  status: ('A' for Active; 'I' for Inactive)
REMARK    1  A    between atoms: C2_2  and  C3_3 
REMARK    2  A    between atoms: C7_8  and  C8_9 
REMARK    3  A    between atoms: C8_9  and  S1_10 
REMARK    4  A    between atoms: S1_10  and  C9_11 
REMARK    5  A    between atoms: C9_11  and  C10_12 
REMARK    6  A    between atoms: C10_12  and  N1_13 
REMARK    7  A    between atoms: N1_13  and  C11_16 
REMARK    8  A    between atoms: C11_16  and  C12_17 
REMARK    9  A    between atoms: C14_21  and  N3_22 
ROOT
HETATM    1  N1  UNL     1      -8.495  15.231 -20.828  1.00  0.00    -0.070 N 
ATOM      2  H11 UNL     1      -8.065  14.310 -20.912  1.00  0.00     0.277 HD
ATOM      3  H12 UNL     1      -8.967  15.270 -21.731  1.00  0.00     0.277 HD
ENDROOT
BRANCH   1   4
HETATM    4  C10 UNL     1      -7.494  16.273 -20.710  1.00  0.00     0.242 C 
BRANCH   4   5
HETATM    5  C9  UNL     1      -6.119  15.669 -20.881  1.00  0.00     0.101 C 
BRANCH   5   6
HETATM    6  S1  UNL     1      -5.365  15.177 -19.360  1.00  0.00    -0.163 SA
BRANCH   6   7
HETATM    7  C8  UNL     1      -5.936  13.538 -18.826  1.00  0.00     0.114 C 
BRANCH   7   8
HETATM    8  C7  UNL     1      -6.869  13.681 -17.662  1.00  0.00    -0.027 A 
HETATM    9  C6  UNL     1      -7.294  12.408 -17.214  1.00  0.00     0.041 A 
HETATM   10  C5  UNL     1      -8.044  12.332 -16.074  1.00  0.00     0.025 A 
HETATM   11 CL1  UNL     1      -6.882  10.960 -18.140  1.00  0.00    -0.084 Cl
HETATM   12  C4  UNL     1      -8.369  13.468 -15.393  1.00  0.00     0.009 A 
HETATM   13  C3  UNL     1      -7.966  14.741 -15.800  1.00  0.00    -0.058 A 
HETATM   14  C16 UNL     1      -7.203  14.789 -16.966  1.00  0.00     0.016 A 
BRANCH  13  15
HETATM   15  C2  UNL     1      -8.275  15.866 -14.898  1.00  0.00     0.034 C 
HETATM   16  C1  UNL     1      -9.219  15.605 -13.774  1.00  0.00     0.010 C 
ENDBRANCH  13  15
ENDBRANCH   7   8
ENDBRANCH   6   7
ENDBRANCH   5   6
ENDBRANCH   4   5
ENDBRANCH   1   4
BRANCH   1  17
HETATM   17  C11 UNL     1      -9.440  15.271 -19.740  1.00  0.00     0.273 C 
BRANCH  17  18
HETATM   18  C12 UNL     1      -9.941  13.860 -19.485  1.00  0.00    -0.001 A 
HETATM   19  C13 UNL     1     -10.629  13.622 -18.288  1.00  0.00     0.116 A 
HETATM   20  N2  UNL     1     -10.949  12.343 -18.005  1.00  0.00    -0.202 N 
HETATM   21  C14 UNL     1     -10.626  11.345 -18.834  1.00  0.00     0.675 A 
ATOM     22  H2  UNL     1     -11.449  12.132 -17.141  1.00  0.00     0.183 HD
HETATM   23  N4  UNL     1      -9.990  11.572 -19.952  1.00  0.00    -0.202 N 
HETATM   24  C15 UNL     1      -9.627  12.851 -20.316  1.00  0.00     0.116 A 
ATOM     25  H4  UNL     1      -9.758  10.790 -20.565  1.00  0.00     0.183 HD
BRANCH  21  26
HETATM   26  N3  UNL     1     -10.894  10.097 -18.435  1.00  0.00    -0.234 N 
ATOM     27  H32 UNL     1     -11.756   9.879 -17.935  1.00  0.00     0.174 HD
ATOM     28  H31 UNL     1     -10.241   9.363 -18.709  1.00  0.00     0.174 HD
ENDBRANCH  21  26
ENDBRANCH  17  18
ENDBRANCH   1  17
TORSDOF 9
ENDMDL
MODEL 2
REMARK VINA RESULT: -7.128370265      1.002      1.524
REMARK  9 active torsions:
REMARK  status: ('A' for Active; 'I' for Inactive)
REMARK    1  A    between atoms: C2_2  and  C3_3 
REMARK    2  A    between atoms: C7_8  and  C8_9 
REMARK    3  A    between atoms: C8_9  and  S1_10 
REMARK    4  A    between atoms: S1_10  and  C9_11 
REMARK    5  A    between atoms: C9_11  and  C10_12 
REMARK    6  A    between atoms: C10_12  and  N1_13 
REMARK    7  A    between atoms: N1_13  and  C11_16 
REMARK    8  A    between atoms: C11_16  and  C12_17 
REMARK    9  A    between atoms: C14_21  and  N3_22 
ROOT
HETATM    1  N1  UNL     1      -9.997  14.885 -20.022  1.00  0.00    -0.070 N 
ATOM      2  H11 UNL     1     -10.096  14.307 -20.857  1.00  0.00     0.277 HD
ATOM      3  H12 UNL     1     -10.821  15.475 -20.137  1.00  0.00     0.277 HD
ENDROOT
BRANCH   1   4
HETATM    4  C10 UNL     1      -8.778  15.670 -20.065  1.00  0.00     0.242 C 
BRANCH   4   5
HETATM    5  C9  UNL     1      -7.659  14.828 -20.634  1.00  0.00     0.101 C 
BRANCH   5   6
HETATM    6  S1  UNL     1      -6.102  15.082 -19.836  1.00  0.00    -0.163 SA
BRANCH   6   7
HETATM    7  C8  UNL     1      -5.764  13.798 -18.597  1.00  0.00     0.114 C 
BRANCH   7   8
HETATM    8  C7  UNL     1      -6.775  13.881 -17.494  1.00  0.00    -0.027 A 
HETATM    9  C6  UNL     1      -7.243  12.588 -17.160  1.00  0.00     0.041 A 
HETATM   10  C5  UNL     1      -8.072  12.450 -16.082  1.00  0.00     0.025 A 
HETATM   11 CL1  UNL     1      -6.780  11.196 -18.146  1.00  0.00    -0.084 Cl
HETATM   12  C4  UNL     1      -8.432  13.545 -15.354  1.00  0.00     0.009 A 
HETATM   13  C3  UNL     1      -7.990  14.836 -15.649  1.00  0.00    -0.058 A 
HETATM   14  C16 UNL     1      -7.147  14.947 -16.754  1.00  0.00     0.016 A 
BRANCH  13  15
HETATM   15  C2  UNL     1      -8.351  15.906 -14.700  1.00  0.00     0.034 C 
HETATM   16  C1  UNL     1      -9.460  15.628 -13.744  1.00  0.00     0.010 C 
ENDBRANCH  13  15
ENDBRANCH   7   8
ENDBRANCH   6   7
ENDBRANCH   5   6
ENDBRANCH   4   5
ENDBRANCH   1   4
BRANCH   1  17
HETATM   17  C11 UNL     1     -10.081  14.092 -18.823  1.00  0.00     0.273 C 
BRANCH  17  18
HETATM   18  C12 UNL     1     -10.427  12.665 -19.211  1.00  0.00    -0.001 A 
HETATM   19  C13 UNL     1     -10.409  12.340 -20.574  1.00  0.00     0.116 A 
HETATM   20  N2  UNL     1     -10.850  11.113 -20.921  1.00  0.00    -0.202 N 
HETATM   21  C14 UNL     1     -11.282  10.244 -20.002  1.00  0.00     0.675 A 
ATOM     22  H2  UNL     1     -10.853  10.844 -21.905  1.00  0.00     0.183 HD
HETATM   23  N4  UNL     1     -11.291  10.549 -18.732  1.00  0.00    -0.202 N 
HETATM   24  C15 UNL     1     -10.856  11.781 -18.294  1.00  0.00     0.116 A 
ATOM     25  H4  UNL     1     -11.626   9.864 -18.054  1.00  0.00     0.183 HD
BRANCH  21  26
HETATM   26  N3  UNL     1     -11.792   9.087 -20.437  1.00  0.00    -0.234 N 
ATOM     27  H32 UNL     1     -11.303   8.205 -20.281  1.00  0.00     0.174 HD
ATOM     28  H31 UNL     1     -12.717   9.110 -20.867  1.00  0.00     0.174 HD
ENDBRANCH  21  26
ENDBRANCH  17  18
ENDBRANCH   1  17
TORSDOF 9
ENDMDL
MODEL 3
REMARK VINA RESULT: -7.010059552      2.222      2.953
REMARK  9 active torsions:
REMARK  status: ('A' for Active; 'I' for Inactive)
REMARK    1  A    between atoms: C2_2  and  C3_3 
REMARK    2  A    between atoms: C7_8  and  C8_9 
REMARK    3  A    between atoms: C8_9  and  S1_10 
REMARK    4  A    between atoms: S1_10  and  C9_11 
REMARK    5  A    between atoms: C9_11  and  C10_12 
REMARK    6  A    between atoms: C10_12  and  N1_13 
REMARK    7  A    between atoms: N1_13  and  C11_16 
REMARK    8  A    between atoms: C11_16  and  C12_17 
REMARK    9  A    between atoms: C14_21  and  N3_22 
ROOT
HETATM    1  N1  UNL     1      -5.492  12.138 -19.758  1.00  0.00    -0.070 N 
ATOM      2  H11 UNL     1      -6.283  12.617 -19.328  1.00  0.00     0.277 HD
ATOM      3  H12 UNL     1      -4.989  11.869 -18.912  1.00  0.00     0.277 HD
ENDROOT
BRANCH   1   4
HETATM    4  C10 UNL     1      -4.705  13.043 -20.574  1.00  0.00     0.242 C 
BRANCH   4   5
HETATM    5  C9  UNL     1      -3.807  13.869 -19.682  1.00  0.00     0.101 C 
BRANCH   5   6
HETATM    6  S1  UNL     1      -4.678  14.779 -18.443  1.00  0.00    -0.163 SA
BRANCH   6   7
HETATM    7  C8  UNL     1      -6.212  15.502 -19.093  1.00  0.00     0.114 C 
BRANCH   7   8
HETATM    8  C7  UNL     1      -7.373  15.070 -18.249  1.00  0.00    -0.027 A 
HETATM    9  C6  UNL     1      -8.322  14.378 -19.038  1.00  0.00     0.041 A 
HETATM   10  C5  UNL     1      -9.387  13.791 -18.415  1.00  0.00     0.025 A 
HETATM   11 CL1  UNL     1      -8.136  14.314 -20.794  1.00  0.00    -0.084 Cl
HETATM   12  C4  UNL     1      -9.519  13.877 -17.061  1.00  0.00     0.009 A 
HETATM   13  C3  UNL     1      -8.603  14.547 -16.248  1.00  0.00    -0.058 A 
HETATM   14  C16 UNL     1      -7.528  15.138 -16.910  1.00  0.00     0.016 A 
BRANCH  13  15
HETATM   15  C2  UNL     1      -8.799  14.449 -14.789  1.00  0.00     0.034 C 
HETATM   16  C1  UNL     1      -9.148  15.699 -14.058  1.00  0.00     0.010 C 
ENDBRANCH  13  15
ENDBRANCH   7   8
ENDBRANCH   6   7
ENDBRANCH   5   6
ENDBRANCH   4   5
ENDBRANCH   1   4
BRANCH   1  17
HETATM   17  C11 UNL     1      -5.921  10.982 -20.503  1.00  0.00     0.273 C 
BRANCH  17  18
HETATM   18  C12 UNL     1      -7.394  10.745 -20.221  1.00  0.00    -0.001 A 
HETATM   19  C13 UNL     1      -7.748  10.304 -18.940  1.00  0.00     0.116 A 
HETATM   20  N2  UNL     1      -9.038   9.965 -18.738  1.00  0.00    -0.202 N 
HETATM   21  C14 UNL     1      -9.940  10.049 -19.720  1.00  0.00     0.675 A 
ATOM     22  H2  UNL     1      -9.330   9.637 -17.817  1.00  0.00     0.183 HD
HETATM   23  N4  UNL     1      -9.608  10.467 -20.912  1.00  0.00    -0.202 N 
HETATM   24  C15 UNL     1      -8.312  10.835 -21.200  1.00  0.00     0.116 A 
ATOM     25  H4  UNL     1     -10.320  10.523 -21.641  1.00  0.00     0.183 HD
BRANCH  21  26
HETATM   26  N3  UNL     1     -11.175   9.603 -19.465  1.00  0.00    -0.234 N 
ATOM     27  H32 UNL     1     -11.800  10.114 -18.841  1.00  0.00     0.174 HD
ATOM     28  H31 UNL     1     -11.492   8.776 -19.970  1.00  0.00     0.174 HD
ENDBRANCH  21  26
ENDBRANCH  17  18
ENDBRANCH   1  17
TORSDOF 9
ENDMDL
MODEL 4
REMARK VINA RESULT: -6.873062729      0.947      1.530
REMARK  9 active torsions:
REMARK  status: ('A' for Active; 'I' for Inactive)
REMARK    1  A    between atoms: C2_2  and  C3_3 
REMARK    2  A    between atoms: C7_8  and  C8_9 
REMARK    3  A    between atoms: C8_9  and  S1_10 
REMARK    4  A    between atoms: S1_10  and  C9_11 
REMARK    5  A    between atoms: C9_11  and  C10_12 
REMARK    6  A    between atoms: C10_12  and  N1_13 
REMARK    7  A    between atoms: N1_13  and  C11_16 
REMARK    8  A    between atoms: C11_16  and  C12_17 
REMARK    9  A    between atoms: C14_21  and  N3_22 
ROOT
HETATM    1  N1  UNL     1      -8.896  14.774 -20.495  1.00  0.00    -0.070 N 
ATOM      2  H11 UNL     1      -9.848  15.052 -20.736  1.00  0.00     0.277 HD
ATOM      3  H12 UNL     1      -9.039  14.552 -19.510  1.00  0.00     0.277 HD
ENDROOT
BRANCH   1   4
HETATM    4  C10 UNL     1      -7.967  15.876 -20.657  1.00  0.00     0.242 C 
BRANCH   4   5
HETATM    5  C9  UNL     1      -6.596  15.332 -20.986  1.00  0.00     0.101 C 
BRANCH   5   6
HETATM    6  S1  UNL     1      -5.541  15.166 -19.578  1.00  0.00    -0.163 SA
BRANCH   6   7
HETATM    7  C8  UNL     1      -5.790  13.578 -18.734  1.00  0.00     0.114 C 
BRANCH   7   8
HETATM    8  C7  UNL     1      -6.854  13.721 -17.688  1.00  0.00    -0.027 A 
HETATM    9  C6  UNL     1      -7.393  12.454 -17.360  1.00  0.00     0.041 A 
HETATM   10  C5  UNL     1      -8.283  12.371 -16.327  1.00  0.00     0.025 A 
HETATM   11 CL1  UNL     1      -6.938  11.028 -18.298  1.00  0.00    -0.084 Cl
HETATM   12  C4  UNL     1      -8.636  13.492 -15.636  1.00  0.00     0.009 A 
HETATM   13  C3  UNL     1      -8.124  14.758 -15.927  1.00  0.00    -0.058 A 
HETATM   14  C16 UNL     1      -7.219  14.814 -16.986  1.00  0.00     0.016 A 
BRANCH  13  15
HETATM   15  C2  UNL     1      -8.490  15.858 -15.015  1.00  0.00     0.034 C 
HETATM   16  C1  UNL     1      -9.258  15.505 -13.788  1.00  0.00     0.010 C 
ENDBRANCH  13  15
ENDBRANCH   7   8
ENDBRANCH   6   7
ENDBRANCH   5   6
ENDBRANCH   4   5
ENDBRANCH   1   4
BRANCH   1  17
HETATM   17  C11 UNL     1      -8.485  13.613 -21.241  1.00  0.00     0.273 C 
BRANCH  17  18
HETATM   18  C12 UNL     1      -9.224  12.403 -20.698  1.00  0.00    -0.001 A 
HETATM   19  C13 UNL     1      -9.048  11.182 -21.362  1.00  0.00     0.116 A 
HETATM   20  N2  UNL     1      -9.813  10.146 -20.959  1.00  0.00    -0.202 N 
HETATM   21  C14 UNL     1     -10.699  10.280 -19.967  1.00  0.00     0.675 A 
ATOM     22  H2  UNL     1      -9.712   9.242 -21.422  1.00  0.00     0.183 HD
HETATM   23  N4  UNL     1     -10.855  11.418 -19.347  1.00  0.00    -0.202 N 
HETATM   24  C15 UNL     1     -10.112  12.525 -19.696  1.00  0.00     0.116 A 
ATOM     25  H4  UNL     1     -11.538  11.489 -18.593  1.00  0.00     0.183 HD
BRANCH  21  26
HETATM   26  N3  UNL     1     -11.484   9.232 -19.694  1.00  0.00    -0.234 N 
ATOM     27  H32 UNL     1     -11.109   8.283 -19.681  1.00  0.00     0.174 HD
ATOM     28  H31 UNL     1     -12.451   9.422 -19.432  1.00  0.00     0.174 HD
ENDBRANCH  21  26
ENDBRANCH  17  18
ENDBRANCH   1  17
TORSDOF 9
ENDMDL
MODEL 5
REMARK VINA RESULT: -6.860539333      0.988      1.252
REMARK  9 active torsions:
REMARK  status: ('A' for Active; 'I' for Inactive)
REMARK    1  A    between atoms: C2_2  and  C3_3 
REMARK    2  A    between atoms: C7_8  and  C8_9 
REMARK    3  A    between atoms: C8_9  and  S1_10 
REMARK    4  A    between atoms: S1_10  and  C9_11 
REMARK    5  A    between atoms: C9_11  and  C10_12 
REMARK    6  A    between atoms: C10_12  and  N1_13 
REMARK    7  A    between atoms: N1_13  and  C11_16 
REMARK    8  A    between atoms: C11_16  and  C12_17 
REMARK    9  A    between atoms: C14_21  and  N3_22 
ROOT
HETATM    1  N1  UNL     1      -8.572  14.799 -20.773  1.00  0.00    -0.070 N 
ATOM      2  H11 UNL     1      -9.531  15.093 -20.959  1.00  0.00     0.277 HD
ATOM      3  H12 UNL     1      -8.665  14.570 -19.783  1.00  0.00     0.277 HD
ENDROOT
BRANCH   1   4
HETATM    4  C10 UNL     1      -7.636  15.888 -20.976  1.00  0.00     0.242 C 
BRANCH   4   5
HETATM    5  C9  UNL     1      -6.243  15.327 -21.148  1.00  0.00     0.101 C 
BRANCH   5   6
HETATM    6  S1  UNL     1      -5.363  15.128 -19.629  1.00  0.00    -0.163 SA
BRANCH   6   7
HETATM    7  C8  UNL     1      -5.708  13.521 -18.858  1.00  0.00     0.114 C 
BRANCH   7   8
HETATM    8  C7  UNL     1      -6.799  13.670 -17.841  1.00  0.00    -0.027 A 
HETATM    9  C6  UNL     1      -7.402  12.416 -17.581  1.00  0.00     0.041 A 
HETATM   10  C5  UNL     1      -8.329  12.332 -16.581  1.00  0.00     0.025 A 
HETATM   11 CL1  UNL     1      -6.977  11.008 -18.560  1.00  0.00    -0.084 Cl
HETATM   12  C4  UNL     1      -8.657  13.440 -15.857  1.00  0.00     0.009 A 
HETATM   13  C3  UNL     1      -8.083  14.693 -16.081  1.00  0.00    -0.058 A 
HETATM   14  C16 UNL     1      -7.141  14.750 -17.108  1.00  0.00     0.016 A 
BRANCH  13  15
HETATM   15  C2  UNL     1      -8.432  15.773 -15.139  1.00  0.00     0.034 C 
HETATM   16  C1  UNL     1      -9.216  15.398 -13.928  1.00  0.00     0.010 C 
ENDBRANCH  13  15
ENDBRANCH   7   8
ENDBRANCH   6   7
ENDBRANCH   5   6
ENDBRANCH   4   5
ENDBRANCH   1   4
BRANCH   1  17
HETATM   17  C11 UNL     1      -8.219  13.638 -21.550  1.00  0.00     0.273 C 
BRANCH  17  18
HETATM   18  C12 UNL     1      -9.102  12.481 -21.116  1.00  0.00    -0.001 A 
HETATM   19  C13 UNL     1     -10.014  12.713 -20.079  1.00  0.00     0.116 A 
HETATM   20  N2  UNL     1     -10.695  11.648 -19.607  1.00  0.00    -0.202 N 
HETATM   21  C14 UNL     1     -10.507  10.424 -20.111  1.00  0.00     0.675 A 
ATOM     22  H2  UNL     1     -11.367  11.780 -18.851  1.00  0.00     0.183 HD
HETATM   23  N4  UNL     1      -9.660  10.213 -21.082  1.00  0.00    -0.202 N 
HETATM   24  C15 UNL     1      -8.926  11.247 -21.622  1.00  0.00     0.116 A 
ATOM     25  H4  UNL     1      -9.540   9.268 -21.447  1.00  0.00     0.183 HD
BRANCH  21  26
HETATM   26  N3  UNL     1     -11.150   9.408 -19.523  1.00  0.00    -0.234 N 
ATOM     27  H32 UNL     1     -12.159   9.298 -19.621  1.00  0.00     0.174 HD
ATOM     28  H31 UNL     1     -10.586   8.713 -19.035  1.00  0.00     0.174 HD
ENDBRANCH  21  26
ENDBRANCH  17  18
ENDBRANCH   1  17
TORSDOF 9
ENDMDL
