MODEL 1
REMARK VINA RESULT: -6.747178873      0.000      0.000
REMARK  9 active torsions:
REMARK  status: ('A' for Active; 'I' for Inactive)
REMARK    1  A    between atoms: N1_1  and  C1_4 
REMARK    2  A    between atoms: C4_14  and  N5_15 
REMARK    3  A    between atoms: N6_18  and  C5_19 
REMARK    4  A    between atoms: C5_19  and  C6_20 
REMARK    5  A    between atoms: C6_20  and  C7_21 
REMARK    6  A    between atoms: C7_21  and  C8_22 
REMARK    7  A    between atoms: C8_22  and  C9_23 
REMARK    8  A    between atoms: C9_23  and  C10_24 
REMARK    9  A    between atoms: C10_24  and  C11_25 
ROOT
HETATM    1  C1  UNL     1      -5.548  12.181 -20.274  1.00  0.00     0.679 A 
HETATM    2  N2  UNL     1      -5.366  11.278 -21.255  1.00  0.00    -0.175 N 
ATOM      3  H2  UNL     1      -4.432  11.044 -21.590  1.00  0.00     0.186 HD
HETATM    4  C2  UNL     1      -6.458  10.696 -21.778  1.00  0.00     0.145 A 
HETATM    5  N3  UNL     1      -6.294   9.835 -22.713  1.00  0.00    -0.383 N 
ATOM      6  H31 UNL     1      -7.122   9.392 -23.110  1.00  0.00     0.157 HD
ATOM      7  H32 UNL     1      -5.357   9.603 -23.044  1.00  0.00     0.157 HD
HETATM    8  C3  UNL     1      -7.721  11.008 -21.330  1.00  0.00     0.125 A 
HETATM    9  N4  UNL     1      -8.966  10.606 -21.646  1.00  0.00    -0.317 N 
ATOM     10  H4  UNL     1      -9.190   9.916 -22.364  1.00  0.00     0.169 HD
HETATM   11  C4  UNL     1      -9.870  11.240 -20.885  1.00  0.00     0.254 A 
HETATM   12  N6  UNL     1      -9.229  12.070 -20.057  1.00  0.00    -0.297 N 
HETATM   13  C12 UNL     1      -7.898  11.934 -20.323  1.00  0.00     0.157 A 
HETATM   14  N7  UNL     1      -6.778  12.491 -19.829  1.00  0.00    -0.174 N 
ATOM     15  H7  UNL     1      -6.865  13.181 -19.083  1.00  0.00     0.186 HD
ENDROOT
BRANCH  12  16
HETATM   16  C5  UNL     1      -9.774  12.965 -19.053  1.00  0.00     0.134 C 
BRANCH  16  17
HETATM   17  C6  UNL     1      -9.667  14.428 -19.485  1.00  0.00     0.020 C 
BRANCH  17  18
HETATM   18  C7  UNL     1      -9.260  15.215 -18.262  1.00  0.00     0.002 C 
BRANCH  18  19
HETATM   19  C8  UNL     1      -7.775  15.358 -18.127  1.00  0.00     0.000 C 
BRANCH  19  20
HETATM   20  C9  UNL     1      -7.438  15.276 -16.651  1.00  0.00     0.001 C 
BRANCH  20  21
HETATM   21  C10 UNL     1      -8.662  15.559 -15.815  1.00  0.00     0.011 C 
BRANCH  21  22
HETATM   22  C11 UNL     1      -8.745  14.604 -14.666  1.00  0.00     0.086 C 
HETATM   23  S1  UNL     1      -8.260  12.940 -15.157  1.00  0.00    -0.098 SA
ENDBRANCH  21  22
ENDBRANCH  20  21
ENDBRANCH  19  20
ENDBRANCH  18  19
ENDBRANCH  17  18
ENDBRANCH  16  17
ENDBRANCH  12  16
BRANCH  11  24
HETATM   24  N5  UNL     1     -11.275  11.041 -20.969  1.00  0.00    -0.079 N 
HETATM   25  O1  UNL     1     -11.951  11.332 -21.973  1.00  0.00    -0.529 OA
HETATM   26  O2  UNL     1     -11.975  10.500 -19.912  1.00  0.00    -0.529 OA
ENDBRANCH  11  24
BRANCH   1  27
HETATM   27  N1  UNL     1      -4.491  12.731 -19.782  1.00  0.00    -0.234 N 
ATOM     28  H12 UNL     1      -3.580  12.641 -20.233  1.00  0.00     0.174 HD
ATOM     29  H11 UNL     1      -4.604  13.263 -18.920  1.00  0.00     0.174 HD
ENDBRANCH   1  27
TORSDOF 9
ENDMDL
MODEL 2
REMARK VINA RESULT: -6.727383751      3.410      5.075
REMARK  9 active torsions:
REMARK  status: ('A' for Active; 'I' for Inactive)
REMARK    1  A    between atoms: N1_1  and  C1_4 
REMARK    2  A    between atoms: C4_14  and  N5_15 
REMARK    3  A    between atoms: N6_18  and  C5_19 
REMARK    4  A    between atoms: C5_19  and  C6_20 
REMARK    5  A    between atoms: C6_20  and  C7_21 
REMARK    6  A    between atoms: C7_21  and  C8_22 
REMARK    7  A    between atoms: C8_22  and  C9_23 
REMARK    8  A    between atoms: C9_23  and  C10_24 
REMARK    9  A    between atoms: C10_24  and  C11_25 
ROOT
HETATM    1  C1  UNL     1      -9.644  12.722 -20.894  1.00  0.00     0.679 A 
HETATM    2  N2  UNL     1     -10.277  11.599 -20.511  1.00  0.00    -0.175 N 
ATOM      3  H2  UNL     1     -10.622  10.927 -21.198  1.00  0.00     0.186 HD
HETATM    4  C2  UNL     1     -10.440  11.391 -19.195  1.00  0.00     0.145 A 
HETATM    5  N3  UNL     1     -11.043  10.324 -18.821  1.00  0.00    -0.383 N 
ATOM      6  H31 UNL     1     -11.167  10.166 -17.821  1.00  0.00     0.157 HD
ATOM      7  H32 UNL     1     -11.385   9.654 -19.512  1.00  0.00     0.157 HD
HETATM    8  C3  UNL     1      -9.978  12.293 -18.264  1.00  0.00     0.125 A 
HETATM    9  N4  UNL     1      -9.991  12.361 -16.920  1.00  0.00    -0.317 N 
ATOM     10  H4  UNL     1     -10.402  11.657 -16.306  1.00  0.00     0.169 HD
HETATM   11  C4  UNL     1      -9.387  13.483 -16.502  1.00  0.00     0.254 A 
HETATM   12  N6  UNL     1      -8.970  14.170 -17.569  1.00  0.00    -0.297 N 
HETATM   13  C12 UNL     1      -9.329  13.443 -18.665  1.00  0.00     0.157 A 
HETATM   14  N7  UNL     1      -9.188  13.609 -19.993  1.00  0.00    -0.174 N 
ATOM     15  H7  UNL     1      -8.713  14.446 -20.331  1.00  0.00     0.186 HD
ENDROOT
BRANCH  12  16
HETATM   16  C5  UNL     1      -8.269  15.440 -17.625  1.00  0.00     0.134 C 
BRANCH  16  17
HETATM   17  C6  UNL     1      -6.921  15.371 -16.906  1.00  0.00     0.020 C 
BRANCH  17  18
HETATM   18  C7  UNL     1      -5.939  14.760 -17.878  1.00  0.00     0.002 C 
BRANCH  18  19
HETATM   19  C8  UNL     1      -5.995  15.389 -19.237  1.00  0.00     0.000 C 
BRANCH  19  20
HETATM   20  C9  UNL     1      -5.658  14.317 -20.253  1.00  0.00     0.001 C 
BRANCH  20  21
HETATM   21  C10 UNL     1      -5.642  12.957 -19.599  1.00  0.00     0.011 C 
BRANCH  21  22
HETATM   22  C11 UNL     1      -5.993  11.894 -20.591  1.00  0.00     0.086 C 
HETATM   23  S1  UNL     1      -6.740  10.464 -19.789  1.00  0.00    -0.098 SA
ENDBRANCH  21  22
ENDBRANCH  20  21
ENDBRANCH  19  20
ENDBRANCH  18  19
ENDBRANCH  17  18
ENDBRANCH  16  17
ENDBRANCH  12  16
BRANCH  11  24
HETATM   24  N5  UNL     1      -9.233  13.854 -15.139  1.00  0.00    -0.079 N 
HETATM   25  O1  UNL     1      -8.635  13.156 -14.300  1.00  0.00    -0.529 OA
HETATM   26  O2  UNL     1      -9.753  15.041 -14.668  1.00  0.00    -0.529 OA
ENDBRANCH  11  24
BRANCH   1  27
HETATM   27  N1  UNL     1      -9.495  12.907 -22.162  1.00  0.00    -0.234 N 
ATOM     28  H12 UNL     1     -10.040  12.385 -22.847  1.00  0.00     0.174 HD
ATOM     29  H11 UNL     1      -8.806  13.602 -22.450  1.00  0.00     0.174 HD
ENDBRANCH   1  27
TORSDOF 9
ENDMDL
MODEL 3
REMARK VINA RESULT: -6.623161620      3.295      4.723
REMARK  9 active torsions:
REMARK  status: ('A' for Active; 'I' for Inactive)
REMARK    1  A    between atoms: N1_1  and  C1_4 
REMARK    2  A    between atoms: C4_14  and  N5_15 
REMARK    3  A    between atoms: N6_18  and  C5_19 
REMARK    4  A    between atoms: C5_19  and  C6_20 
REMARK    5  A    between atoms: C6_20  and  C7_21 
REMARK    6  A    between atoms: C7_21  and  C8_22 
REMARK    7  A    between atoms: C8_22  and  C9_23 
REMARK    8  A    between atoms: C9_23  and  C10_24 
REMARK    9  A    between atoms: C10_24  and  C11_25 
ROOT
HETATM    1  C1  UNL     1      -9.357  10.405 -19.539  1.00  0.00     0.679 A 
HETATM    2  N2  UNL     1      -9.070  10.708 -20.818  1.00  0.00    -0.175 N 
ATOM      3  H2  UNL     1      -9.596  10.294 -21.589  1.00  0.00     0.186 HD
HETATM    4  C2  UNL     1      -8.069  11.573 -21.046  1.00  0.00     0.145 A 
HETATM    5  N3  UNL     1      -7.789  11.867 -22.262  1.00  0.00    -0.383 N 
ATOM      6  H31 UNL     1      -7.029  12.524 -22.435  1.00  0.00     0.157 HD
ATOM      7  H32 UNL     1      -8.318  11.451 -23.029  1.00  0.00     0.157 HD
HETATM    8  C3  UNL     1      -7.356  12.134 -20.011  1.00  0.00     0.125 A 
HETATM    9  N4  UNL     1      -6.333  13.004 -19.925  1.00  0.00    -0.317 N 
ATOM     10  H4  UNL     1      -5.869  13.436 -20.724  1.00  0.00     0.169 HD
HETATM   11  C4  UNL     1      -6.010  13.222 -18.641  1.00  0.00     0.254 A 
HETATM   12  N6  UNL     1      -6.820  12.496 -17.865  1.00  0.00    -0.297 N 
HETATM   13  C12 UNL     1      -7.657  11.818 -18.702  1.00  0.00     0.157 A 
HETATM   14  N7  UNL     1      -8.668  10.948 -18.521  1.00  0.00    -0.174 N 
ATOM     15  H7  UNL     1      -8.922  10.690 -17.568  1.00  0.00     0.186 HD
ENDROOT
BRANCH  12  16
HETATM   16  C5  UNL     1      -6.857  12.397 -16.418  1.00  0.00     0.134 C 
BRANCH  16  17
HETATM   17  C6  UNL     1      -8.095  13.083 -15.839  1.00  0.00     0.020 C 
BRANCH  17  18
HETATM   18  C7  UNL     1      -7.739  14.539 -15.651  1.00  0.00     0.002 C 
BRANCH  18  19
HETATM   19  C8  UNL     1      -8.799  15.469 -16.157  1.00  0.00     0.000 C 
BRANCH  19  20
HETATM   20  C9  UNL     1      -8.673  15.532 -17.666  1.00  0.00     0.001 C 
BRANCH  20  21
HETATM   21  C10 UNL     1      -9.769  14.726 -18.319  1.00  0.00     0.011 C 
BRANCH  21  22
HETATM   22  C11 UNL     1      -9.659  14.802 -19.809  1.00  0.00     0.086 C 
HETATM   23  S1  UNL     1      -8.309  15.884 -20.315  1.00  0.00    -0.098 SA
ENDBRANCH  21  22
ENDBRANCH  20  21
ENDBRANCH  19  20
ENDBRANCH  18  19
ENDBRANCH  17  18
ENDBRANCH  16  17
ENDBRANCH  12  16
BRANCH  11  24
HETATM   24  N5  UNL     1      -4.972  14.090 -18.209  1.00  0.00    -0.079 N 
HETATM   25  O1  UNL     1      -3.831  13.697 -17.904  1.00  0.00    -0.529 OA
HETATM   26  O2  UNL     1      -5.185  15.447 -18.104  1.00  0.00    -0.529 OA
ENDBRANCH  11  24
BRANCH   1  27
HETATM   27  N1  UNL     1     -10.321   9.573 -19.336  1.00  0.00    -0.234 N 
ATOM     28  H12 UNL     1     -11.297   9.846 -19.451  1.00  0.00     0.174 HD
ATOM     29  H11 UNL     1     -10.065   8.627 -19.057  1.00  0.00     0.174 HD
ENDBRANCH   1  27
TORSDOF 9
ENDMDL
MODEL 4
REMARK VINA RESULT: -6.542749870      3.259      4.546
REMARK  9 active torsions:
REMARK  status: ('A' for Active; 'I' for Inactive)
REMARK    1  A    between atoms: N1_1  and  C1_4 
REMARK    2  A    between atoms: C4_14  and  N5_15 
REMARK    3  A    between atoms: N6_18  and  C5_19 
REMARK    4  A    between atoms: C5_19  and  C6_20 
REMARK    5  A    between atoms: C6_20  and  C7_21 
REMARK    6  A    between atoms: C7_21  and  C8_22 
REMARK    7  A    between atoms: C8_22  and  C9_23 
REMARK    8  A    between atoms: C9_23  and  C10_24 
REMARK    9  A    between atoms: C10_24  and  C11_25 
ROOT
HETATM    1  C1  UNL     1      -8.690  11.866 -21.215  1.00  0.00     0.679 A 
HETATM    2  N2  UNL     1      -7.974  10.735 -21.348  1.00  0.00    -0.175 N 
ATOM      3  H2  UNL     1      -8.391   9.889 -21.739  1.00  0.00     0.186 HD
HETATM    4  C2  UNL     1      -6.693  10.756 -20.948  1.00  0.00     0.145 A 
HETATM    5  N3  UNL     1      -6.003   9.683 -21.071  1.00  0.00    -0.383 N 
ATOM      6  H31 UNL     1      -5.030   9.699 -20.768  1.00  0.00     0.157 HD
ATOM      7  H32 UNL     1      -6.424   8.840 -21.463  1.00  0.00     0.157 HD
HETATM    8  C3  UNL     1      -6.125  11.893 -20.419  1.00  0.00     0.125 A 
HETATM    9  N4  UNL     1      -4.907  12.213 -19.946  1.00  0.00    -0.317 N 
ATOM     10  H4  UNL     1      -4.113  11.574 -19.901  1.00  0.00     0.169 HD
HETATM   11  C4  UNL     1      -4.883  13.492 -19.541  1.00  0.00     0.254 A 
HETATM   12  N6  UNL     1      -6.090  14.030 -19.743  1.00  0.00    -0.297 N 
HETATM   13  C12 UNL     1      -6.867  13.049 -20.287  1.00  0.00     0.157 A 
HETATM   14  N7  UNL     1      -8.145  12.981 -20.701  1.00  0.00    -0.174 N 
ATOM     15  H7  UNL     1      -8.727  13.815 -20.621  1.00  0.00     0.186 HD
ENDROOT
BRANCH  12  16
HETATM   16  C5  UNL     1      -6.552  15.376 -19.464  1.00  0.00     0.134 C 
BRANCH  16  17
HETATM   17  C6  UNL     1      -7.481  15.412 -18.250  1.00  0.00     0.020 C 
BRANCH  17  18
HETATM   18  C7  UNL     1      -6.606  15.260 -17.027  1.00  0.00     0.002 C 
BRANCH  18  19
HETATM   19  C8  UNL     1      -7.308  15.635 -15.757  1.00  0.00     0.000 C 
BRANCH  19  20
HETATM   20  C9  UNL     1      -8.690  15.014 -15.796  1.00  0.00     0.001 C 
BRANCH  20  21
HETATM   21  C10 UNL     1      -8.800  13.911 -14.772  1.00  0.00     0.011 C 
BRANCH  21  22
HETATM   22  C11 UNL     1      -8.384  12.602 -15.364  1.00  0.00     0.086 C 
HETATM   23  S1  UNL     1      -9.087  12.368 -17.006  1.00  0.00    -0.098 SA
ENDBRANCH  21  22
ENDBRANCH  20  21
ENDBRANCH  19  20
ENDBRANCH  18  19
ENDBRANCH  17  18
ENDBRANCH  16  17
ENDBRANCH  12  16
BRANCH  11  24
HETATM   24  N5  UNL     1      -3.746  14.141 -18.990  1.00  0.00    -0.079 N 
HETATM   25  O1  UNL     1      -3.345  13.956 -17.827  1.00  0.00    -0.529 OA
HETATM   26  O2  UNL     1      -3.010  15.032 -19.741  1.00  0.00    -0.529 OA
ENDBRANCH  11  24
BRANCH   1  27
HETATM   27  N1  UNL     1      -9.920  11.830 -21.603  1.00  0.00    -0.234 N 
ATOM     28  H12 UNL     1     -10.629  11.309 -21.088  1.00  0.00     0.174 HD
ATOM     29  H11 UNL     1     -10.153  12.347 -22.450  1.00  0.00     0.174 HD
ENDBRANCH   1  27
TORSDOF 9
ENDMDL
MODEL 5
REMARK VINA RESULT: -6.514114757      3.462      4.844
REMARK  9 active torsions:
REMARK  status: ('A' for Active; 'I' for Inactive)
REMARK    1  A    between atoms: N1_1  and  C1_4 
REMARK    2  A    between atoms: C4_14  and  N5_15 
REMARK    3  A    between atoms: N6_18  and  C5_19 
REMARK    4  A    between atoms: C5_19  and  C6_20 
REMARK    5  A    between atoms: C6_20  and  C7_21 
REMARK    6  A    between atoms: C7_21  and  C8_22 
REMARK    7  A    between atoms: C8_22  and  C9_23 
REMARK    8  A    between atoms: C9_23  and  C10_24 
REMARK    9  A    between atoms: C10_24  and  C11_25 
ROOT
HETATM    1  C1  UNL     1      -8.617  10.832 -19.206  1.00  0.00     0.679 A 
HETATM    2  N2  UNL     1      -8.455  10.462 -20.489  1.00  0.00    -0.175 N 
ATOM      3  H2  UNL     1      -9.092   9.798 -20.931  1.00  0.00     0.186 HD
HETATM    4  C2  UNL     1      -7.426  10.994 -21.168  1.00  0.00     0.145 A 
HETATM    5  N3  UNL     1      -7.265  10.645 -22.391  1.00  0.00    -0.383 N 
ATOM      6  H31 UNL     1      -6.483  11.050 -22.907  1.00  0.00     0.157 HD
ATOM      7  H32 UNL     1      -7.905   9.983 -22.829  1.00  0.00     0.157 HD
HETATM    8  C3  UNL     1      -6.563  11.888 -20.578  1.00  0.00     0.125 A 
HETATM    9  N4  UNL     1      -5.476  12.568 -20.986  1.00  0.00    -0.317 N 
ATOM     10  H4  UNL     1      -5.075  12.516 -21.922  1.00  0.00     0.169 HD
HETATM   11  C4  UNL     1      -4.996  13.326 -19.988  1.00  0.00     0.254 A 
HETATM   12  N6  UNL     1      -5.763  13.151 -18.908  1.00  0.00    -0.297 N 
HETATM   13  C12 UNL     1      -6.736  12.263 -19.261  1.00  0.00     0.157 A 
HETATM   14  N7  UNL     1      -7.780  11.706 -18.621  1.00  0.00    -0.174 N 
ATOM     15  H7  UNL     1      -7.943  11.958 -17.646  1.00  0.00     0.186 HD
ENDROOT
BRANCH  12  16
HETATM   16  C5  UNL     1      -5.643  13.751 -17.592  1.00  0.00     0.134 C 
BRANCH  16  17
HETATM   17  C6  UNL     1      -6.287  15.137 -17.545  1.00  0.00     0.020 C 
BRANCH  17  18
HETATM   18  C7  UNL     1      -7.285  15.116 -16.411  1.00  0.00     0.002 C 
BRANCH  18  19
HETATM   19  C8  UNL     1      -8.626  15.657 -16.803  1.00  0.00     0.000 C 
BRANCH  19  20
HETATM   20  C9  UNL     1      -9.193  14.746 -17.872  1.00  0.00     0.001 C 
BRANCH  20  21
HETATM   21  C10 UNL     1      -9.461  15.523 -19.138  1.00  0.00     0.011 C 
BRANCH  21  22
HETATM   22  C11 UNL     1      -8.748  14.900 -20.297  1.00  0.00     0.086 C 
HETATM   23  S1  UNL     1      -7.546  16.032 -21.017  1.00  0.00    -0.098 SA
ENDBRANCH  21  22
ENDBRANCH  20  21
ENDBRANCH  19  20
ENDBRANCH  18  19
ENDBRANCH  17  18
ENDBRANCH  16  17
ENDBRANCH  12  16
BRANCH  11  24
HETATM   24  N5  UNL     1      -3.855  14.167 -20.093  1.00  0.00    -0.079 N 
HETATM   25  O1  UNL     1      -2.685  13.749 -20.021  1.00  0.00    -0.529 OA
HETATM   26  O2  UNL     1      -3.995  15.524 -20.285  1.00  0.00    -0.529 OA
ENDBRANCH  11  24
BRANCH   1  27
HETATM   27  N1  UNL     1      -9.609  10.313 -18.567  1.00  0.00    -0.234 N 
ATOM     28  H12 UNL     1      -9.510   9.969 -17.612  1.00  0.00     0.174 HD
ATOM     29  H11 UNL     1     -10.501  10.263 -19.059  1.00  0.00     0.174 HD
ENDBRANCH   1  27
TORSDOF 9
ENDMDL
