MODEL 1
REMARK VINA RESULT: -8.935430627      0.000      0.000
REMARK  7 active torsions:
REMARK  status: ('A' for Active; 'I' for Inactive)
REMARK    1  A    between atoms: N1_1  and  N2_4 
REMARK    2  A    between atoms: N2_4  and  C1_5 
REMARK    3  A    between atoms: C1_5  and  C2_6 
REMARK    4  A    between atoms: C2_6  and  N3_7 
REMARK    5  A    between atoms: N3_7  and  C3_9 
REMARK    6  A    between atoms: C5_11  and  N4_12 
REMARK    7  A    between atoms: N4_12  and  N5_14 
ROOT
HETATM    1  C3  UNL     1      -9.118  12.868 -21.739  1.00  0.00     0.103 A 
HETATM    2  C4  UNL     1      -9.707  11.679 -22.082  1.00  0.00     0.081 A 
HETATM    3  C5  UNL     1     -10.154  10.777 -21.106  1.00  0.00     0.088 A 
HETATM    4  C6  UNL     1      -9.949  11.192 -19.810  1.00  0.00     0.105 A 
HETATM    5  N6  UNL     1     -10.243  10.597 -18.658  1.00  0.00    -0.296 N 
ATOM      6  H6  UNL     1     -10.693   9.686 -18.574  1.00  0.00     0.187 HD
HETATM    7  N7  UNL     1      -9.866  11.358 -17.630  1.00  0.00    -0.297 N 
ATOM      8  H7  UNL     1      -9.981  11.126 -16.643  1.00  0.00     0.187 HD
HETATM    9  C7  UNL     1      -9.309  12.482 -18.115  1.00  0.00     0.087 A 
HETATM   10  C8  UNL     1      -8.777  13.556 -17.306  1.00  0.00    -0.003 A 
HETATM   11  C9  UNL     1      -7.563  14.109 -17.624  1.00  0.00     0.014 A 
HETATM   12  C10 UNL     1      -6.999  15.138 -16.892  1.00  0.00     0.004 A 
HETATM   13  C11 UNL     1      -7.731  15.593 -15.801  1.00  0.00     0.042 A 
HETATM   14  C12 UNL     1      -8.952  15.075 -15.439  1.00  0.00     0.117 A 
HETATM   15  F1  UNL     1      -9.583  15.579 -14.370  1.00  0.00    -0.206 F 
HETATM   16  C13 UNL     1      -9.456  14.043 -16.219  1.00  0.00     0.056 A 
HETATM   17  C14 UNL     1      -9.348  12.402 -19.499  1.00  0.00     0.093 A 
HETATM   18  N8  UNL     1      -8.933  13.241 -20.466  1.00  0.00    -0.339 N 
ATOM     19  H8  UNL     1      -8.493  14.132 -20.237  1.00  0.00     0.167 HD
ENDROOT
BRANCH   1  20
HETATM   20  N3  UNL     1      -8.683  13.746 -22.799  1.00  0.00    -0.375 N 
ATOM     21  H3  UNL     1      -8.757  14.756 -22.683  1.00  0.00     0.161 HD
BRANCH  20  22
HETATM   22  C2  UNL     1      -8.145  13.204 -24.016  1.00  0.00     0.139 C 
BRANCH  22  23
HETATM   23  C1  UNL     1      -8.256  14.234 -25.114  1.00  0.00     0.153 C 
BRANCH  23  24
HETATM   24  N2  UNL     1      -9.477  14.087 -25.870  1.00  0.00    -0.147 NA
BRANCH  24  25
HETATM   25  N1  UNL     1     -10.247  15.236 -25.880  1.00  0.00    -0.348 N 
ATOM     26  H12 UNL     1     -10.268  15.891 -25.099  1.00  0.00     0.172 HD
ATOM     27  H11 UNL     1     -10.781  15.350 -26.742  1.00  0.00     0.172 HD
ENDBRANCH  24  25
ENDBRANCH  23  24
ENDBRANCH  22  23
ENDBRANCH  20  22
ENDBRANCH   1  20
BRANCH   3  28
HETATM   28  N4  UNL     1     -10.745   9.585 -21.515  1.00  0.00    -0.239 N 
ATOM     29  H4  UNL     1     -10.112   8.786 -21.563  1.00  0.00     0.193 HD
BRANCH  28  30
HETATM   30  N5  UNL     1     -12.043   9.315 -21.865  1.00  0.00    -0.038 N 
HETATM   31  O1  UNL     1     -12.542   9.977 -22.818  1.00  0.00    -0.516 OA
HETATM   32  O2  UNL     1     -12.848   8.394 -21.260  1.00  0.00    -0.516 OA
ENDBRANCH  28  30
ENDBRANCH   3  28
TORSDOF 7
ENDMDL
MODEL 2
REMARK VINA RESULT: -8.694530326      1.176      1.670
REMARK  7 active torsions:
REMARK  status: ('A' for Active; 'I' for Inactive)
REMARK    1  A    between atoms: N1_1  and  N2_4 
REMARK    2  A    between atoms: N2_4  and  C1_5 
REMARK    3  A    between atoms: C1_5  and  C2_6 
REMARK    4  A    between atoms: C2_6  and  N3_7 
REMARK    5  A    between atoms: N3_7  and  C3_9 
REMARK    6  A    between atoms: C5_11  and  N4_12 
REMARK    7  A    between atoms: N4_12  and  N5_14 
ROOT
HETATM    1  C3  UNL     1      -9.012  12.894 -21.794  1.00  0.00     0.103 A 
HETATM    2  C4  UNL     1      -9.617  11.716 -22.147  1.00  0.00     0.081 A 
HETATM    3  C5  UNL     1     -10.082  10.814 -21.180  1.00  0.00     0.088 A 
HETATM    4  C6  UNL     1      -9.877  11.217 -19.880  1.00  0.00     0.105 A 
HETATM    5  N6  UNL     1     -10.185  10.619 -18.734  1.00  0.00    -0.296 N 
ATOM      6  H6  UNL     1     -10.650   9.715 -18.658  1.00  0.00     0.187 HD
HETATM    7  N7  UNL     1      -9.802  11.367 -17.698  1.00  0.00    -0.297 N 
ATOM      8  H7  UNL     1      -9.925  11.131 -16.713  1.00  0.00     0.187 HD
HETATM    9  C7  UNL     1      -9.225  12.485 -18.173  1.00  0.00     0.087 A 
HETATM   10  C8  UNL     1      -8.680  13.545 -17.355  1.00  0.00    -0.003 A 
HETATM   11  C9  UNL     1      -7.456  14.082 -17.664  1.00  0.00     0.014 A 
HETATM   12  C10 UNL     1      -6.880  15.097 -16.921  1.00  0.00     0.004 A 
HETATM   13  C11 UNL     1      -7.610  15.556 -15.831  1.00  0.00     0.042 A 
HETATM   14  C12 UNL     1      -8.840  15.054 -15.478  1.00  0.00     0.117 A 
HETATM   15  F1  UNL     1      -9.468  15.561 -14.408  1.00  0.00    -0.206 F 
HETATM   16  C13 UNL     1      -9.357  14.036 -16.268  1.00  0.00     0.056 A 
HETATM   17  C14 UNL     1      -9.259  12.416 -19.558  1.00  0.00     0.093 A 
HETATM   18  N8  UNL     1      -8.827  13.255 -20.517  1.00  0.00    -0.339 N 
ATOM     19  H8  UNL     1      -8.374  14.137 -20.280  1.00  0.00     0.167 HD
ENDROOT
BRANCH   1  20
HETATM   20  N3  UNL     1      -8.558  13.772 -22.846  1.00  0.00    -0.375 N 
ATOM     21  H3  UNL     1      -9.194  14.032 -23.599  1.00  0.00     0.161 HD
BRANCH  20  22
HETATM   22  C2  UNL     1      -7.215  14.282 -22.837  1.00  0.00     0.139 C 
BRANCH  22  23
HETATM   23  C1  UNL     1      -7.250  15.779 -22.651  1.00  0.00     0.153 C 
BRANCH  23  24
HETATM   24  N2  UNL     1      -7.519  16.146 -21.280  1.00  0.00    -0.147 NA
BRANCH  24  25
HETATM   25  N1  UNL     1      -8.722  16.811 -21.126  1.00  0.00    -0.348 N 
ATOM     26  H12 UNL     1      -9.185  17.296 -21.894  1.00  0.00     0.172 HD
ATOM     27  H11 UNL     1      -9.086  16.760 -20.174  1.00  0.00     0.172 HD
ENDBRANCH  24  25
ENDBRANCH  23  24
ENDBRANCH  22  23
ENDBRANCH  20  22
ENDBRANCH   1  20
BRANCH   3  28
HETATM   28  N4  UNL     1     -10.690   9.635 -21.600  1.00  0.00    -0.239 N 
ATOM     29  H4  UNL     1     -10.064   8.832 -21.672  1.00  0.00     0.193 HD
BRANCH  28  30
HETATM   30  N5  UNL     1     -11.996   9.381 -21.932  1.00  0.00    -0.038 N 
HETATM   31  O1  UNL     1     -12.512  10.076 -22.851  1.00  0.00    -0.516 OA
HETATM   32  O2  UNL     1     -12.792   8.442 -21.342  1.00  0.00    -0.516 OA
ENDBRANCH  28  30
ENDBRANCH   3  28
TORSDOF 7
ENDMDL
MODEL 3
REMARK VINA RESULT: -8.622255284      1.929      2.826
REMARK  7 active torsions:
REMARK  status: ('A' for Active; 'I' for Inactive)
REMARK    1  A    between atoms: N1_1  and  N2_4 
REMARK    2  A    between atoms: N2_4  and  C1_5 
REMARK    3  A    between atoms: C1_5  and  C2_6 
REMARK    4  A    between atoms: C2_6  and  N3_7 
REMARK    5  A    between atoms: N3_7  and  C3_9 
REMARK    6  A    between atoms: C5_11  and  N4_12 
REMARK    7  A    between atoms: N4_12  and  N5_14 
ROOT
HETATM    1  C3  UNL     1      -8.126  12.062 -21.636  1.00  0.00     0.103 A 
HETATM    2  C4  UNL     1      -9.007  11.086 -22.023  1.00  0.00     0.081 A 
HETATM    3  C5  UNL     1     -10.004  10.616 -21.156  1.00  0.00     0.088 A 
HETATM    4  C6  UNL     1     -10.010  11.214 -19.916  1.00  0.00     0.105 A 
HETATM    5  N6  UNL     1     -10.801  11.016 -18.868  1.00  0.00    -0.296 N 
ATOM      6  H6  UNL     1     -11.568  10.344 -18.838  1.00  0.00     0.187 HD
HETATM    7  N7  UNL     1     -10.453  11.817 -17.860  1.00  0.00    -0.297 N 
ATOM      8  H7  UNL     1     -10.905  11.858 -16.946  1.00  0.00     0.187 HD
HETATM    9  C7  UNL     1      -9.405  12.562 -18.254  1.00  0.00     0.087 A 
HETATM   10  C8  UNL     1      -8.741  13.552 -17.436  1.00  0.00    -0.003 A 
HETATM   11  C9  UNL     1      -7.370  13.594 -17.396  1.00  0.00     0.014 A 
HETATM   12  C10 UNL     1      -6.676  14.516 -16.635  1.00  0.00     0.004 A 
HETATM   13  C11 UNL     1      -7.442  15.412 -15.899  1.00  0.00     0.042 A 
HETATM   14  C12 UNL     1      -8.817  15.414 -15.902  1.00  0.00     0.117 A 
HETATM   15  F1  UNL     1      -9.469  16.318 -15.159  1.00  0.00    -0.206 F 
HETATM   16  C13 UNL     1      -9.447  14.460 -16.690  1.00  0.00     0.056 A 
HETATM   17  C14 UNL     1      -9.102  12.198 -19.557  1.00  0.00     0.093 A 
HETATM   18  N8  UNL     1      -8.159  12.622 -20.420  1.00  0.00    -0.339 N 
ATOM     19  H8  UNL     1      -7.492  13.347 -20.156  1.00  0.00     0.167 HD
ENDROOT
BRANCH   1  20
HETATM   20  N3  UNL     1      -7.126  12.494 -22.583  1.00  0.00    -0.375 N 
ATOM     21  H3  UNL     1      -7.412  12.927 -23.460  1.00  0.00     0.161 HD
BRANCH  20  22
HETATM   22  C2  UNL     1      -5.730  12.319 -22.295  1.00  0.00     0.139 C 
BRANCH  22  23
HETATM   23  C1  UNL     1      -5.350  10.875 -22.516  1.00  0.00     0.153 C 
BRANCH  23  24
HETATM   24  N2  UNL     1      -5.302  10.135 -21.277  1.00  0.00    -0.147 NA
BRANCH  24  25
HETATM   25  N1  UNL     1      -5.356   8.765 -21.465  1.00  0.00    -0.348 N 
ATOM     26  H12 UNL     1      -4.982   8.309 -22.297  1.00  0.00     0.172 HD
ATOM     27  H11 UNL     1      -5.804   8.275 -20.691  1.00  0.00     0.172 HD
ENDBRANCH  24  25
ENDBRANCH  23  24
ENDBRANCH  22  23
ENDBRANCH  20  22
ENDBRANCH   1  20
BRANCH   3  28
HETATM   28  N4  UNL     1     -10.870   9.624 -21.606  1.00  0.00    -0.239 N 
ATOM     29  H4  UNL     1     -10.675   8.689 -21.248  1.00  0.00     0.193 HD
BRANCH  28  30
HETATM   30  N5  UNL     1     -11.945   9.705 -22.454  1.00  0.00    -0.038 N 
HETATM   31  O1  UNL     1     -12.796   8.773 -22.412  1.00  0.00    -0.516 OA
HETATM   32  O2  UNL     1     -12.168  10.708 -23.352  1.00  0.00    -0.516 OA
ENDBRANCH  28  30
ENDBRANCH   3  28
TORSDOF 7
ENDMDL
MODEL 4
REMARK VINA RESULT: -8.444922755      1.924      2.830
REMARK  7 active torsions:
REMARK  status: ('A' for Active; 'I' for Inactive)
REMARK    1  A    between atoms: N1_1  and  N2_4 
REMARK    2  A    between atoms: N2_4  and  C1_5 
REMARK    3  A    between atoms: C1_5  and  C2_6 
REMARK    4  A    between atoms: C2_6  and  N3_7 
REMARK    5  A    between atoms: N3_7  and  C3_9 
REMARK    6  A    between atoms: C5_11  and  N4_12 
REMARK    7  A    between atoms: N4_12  and  N5_14 
ROOT
HETATM    1  C3  UNL     1      -8.096  11.995 -21.490  1.00  0.00     0.103 A 
HETATM    2  C4  UNL     1      -8.980  11.033 -21.904  1.00  0.00     0.081 A 
HETATM    3  C5  UNL     1     -10.012  10.580 -21.069  1.00  0.00     0.088 A 
HETATM    4  C6  UNL     1     -10.046  11.180 -19.830  1.00  0.00     0.105 A 
HETATM    5  N6  UNL     1     -10.873  10.995 -18.807  1.00  0.00    -0.296 N 
ATOM      6  H6  UNL     1     -11.651  10.336 -18.801  1.00  0.00     0.187 HD
HETATM    7  N7  UNL     1     -10.544  11.791 -17.789  1.00  0.00    -0.297 N 
ATOM      8  H7  UNL     1     -11.024  11.840 -16.890  1.00  0.00     0.187 HD
HETATM    9  C7  UNL     1      -9.472  12.519 -18.150  1.00  0.00     0.087 A 
HETATM   10  C8  UNL     1      -8.819  13.499 -17.312  1.00  0.00    -0.003 A 
HETATM   11  C9  UNL     1      -7.450  13.520 -17.230  1.00  0.00     0.014 A 
HETATM   12  C10 UNL     1      -6.765  14.431 -16.447  1.00  0.00     0.004 A 
HETATM   13  C11 UNL     1      -7.539  15.341 -15.737  1.00  0.00     0.042 A 
HETATM   14  C12 UNL     1      -8.913  15.364 -15.783  1.00  0.00     0.117 A 
HETATM   15  F1  UNL     1      -9.574  16.279 -15.061  1.00  0.00    -0.206 F 
HETATM   16  C13 UNL     1      -9.534  14.419 -16.589  1.00  0.00     0.056 A 
HETATM   17  C14 UNL     1      -9.135  12.149 -19.443  1.00  0.00     0.093 A 
HETATM   18  N8  UNL     1      -8.159  12.557 -20.276  1.00  0.00    -0.339 N 
ATOM     19  H8  UNL     1      -7.489  13.272 -19.992  1.00  0.00     0.167 HD
ENDROOT
BRANCH   1  20
HETATM   20  N3  UNL     1      -7.060  12.411 -22.405  1.00  0.00    -0.375 N 
ATOM     21  H3  UNL     1      -7.234  13.180 -23.052  1.00  0.00     0.161 HD
BRANCH  20  22
HETATM   22  C2  UNL     1      -5.786  11.747 -22.410  1.00  0.00     0.139 C 
BRANCH  22  23
HETATM   23  C1  UNL     1      -4.812  12.528 -21.563  1.00  0.00     0.153 C 
BRANCH  23  24
HETATM   24  N2  UNL     1      -4.943  12.211 -20.160  1.00  0.00    -0.147 NA
BRANCH  24  25
HETATM   25  N1  UNL     1      -4.430  13.194 -19.334  1.00  0.00    -0.348 N 
ATOM     26  H12 UNL     1      -4.711  14.172 -19.403  1.00  0.00     0.172 HD
ATOM     27  H11 UNL     1      -3.752  12.836 -18.661  1.00  0.00     0.172 HD
ENDBRANCH  24  25
ENDBRANCH  23  24
ENDBRANCH  22  23
ENDBRANCH  20  22
ENDBRANCH   1  20
BRANCH   3  28
HETATM   28  N4  UNL     1     -10.879   9.602 -21.545  1.00  0.00    -0.239 N 
ATOM     29  H4  UNL     1     -10.699   8.661 -21.194  1.00  0.00     0.193 HD
BRANCH  28  30
HETATM   30  N5  UNL     1     -11.937   9.702 -22.412  1.00  0.00    -0.038 N 
HETATM   31  O1  UNL     1     -12.823   8.805 -22.360  1.00  0.00    -0.516 OA
HETATM   32  O2  UNL     1     -12.107  10.690 -23.338  1.00  0.00    -0.516 OA
ENDBRANCH  28  30
ENDBRANCH   3  28
TORSDOF 7
ENDMDL
MODEL 5
REMARK VINA RESULT: -8.442923029      4.953      5.374
REMARK  7 active torsions:
REMARK  status: ('A' for Active; 'I' for Inactive)
REMARK    1  A    between atoms: N1_1  and  N2_4 
REMARK    2  A    between atoms: N2_4  and  C1_5 
REMARK    3  A    between atoms: C1_5  and  C2_6 
REMARK    4  A    between atoms: C2_6  and  N3_7 
REMARK    5  A    between atoms: N3_7  and  C3_9 
REMARK    6  A    between atoms: C5_11  and  N4_12 
REMARK    7  A    between atoms: N4_12  and  N5_14 
ROOT
HETATM    1  C3  UNL     1      -7.492  15.725 -20.859  1.00  0.00     0.103 A 
HETATM    2  C4  UNL     1      -6.585  15.155 -21.714  1.00  0.00     0.081 A 
HETATM    3  C5  UNL     1      -5.700  14.157 -21.281  1.00  0.00     0.088 A 
HETATM    4  C6  UNL     1      -5.829  13.818 -19.953  1.00  0.00     0.105 A 
HETATM    5  N6  UNL     1      -5.164  12.929 -19.223  1.00  0.00    -0.296 N 
ATOM      6  H6  UNL     1      -4.414  12.334 -19.574  1.00  0.00     0.187 HD
HETATM    7  N7  UNL     1      -5.615  12.923 -17.968  1.00  0.00    -0.297 N 
ATOM      8  H7  UNL     1      -5.271  12.330 -17.213  1.00  0.00     0.187 HD
HETATM    9  C7  UNL     1      -6.601  13.832 -17.868  1.00  0.00     0.087 A 
HETATM   10  C8  UNL     1      -7.340  14.119 -16.659  1.00  0.00    -0.003 A 
HETATM   11  C9  UNL     1      -7.576  15.422 -16.299  1.00  0.00     0.014 A 
HETATM   12  C10 UNL     1      -8.276  15.763 -15.156  1.00  0.00     0.004 A 
HETATM   13  C11 UNL     1      -8.738  14.708 -14.376  1.00  0.00     0.042 A 
HETATM   14  C12 UNL     1      -8.530  13.387 -14.690  1.00  0.00     0.117 A 
HETATM   15  F1  UNL     1      -9.013  12.439 -13.876  1.00  0.00    -0.206 F 
HETATM   16  C13 UNL     1      -7.819  13.118 -15.853  1.00  0.00     0.056 A 
HETATM   17  C14 UNL     1      -6.757  14.416 -19.116  1.00  0.00     0.093 A 
HETATM   18  N8  UNL     1      -7.590  15.371 -19.571  1.00  0.00    -0.339 N 
ATOM     19  H8  UNL     1      -8.274  15.810 -18.955  1.00  0.00     0.167 HD
ENDROOT
BRANCH   1  20
HETATM   20  N3  UNL     1      -8.371  16.747 -21.376  1.00  0.00    -0.375 N 
ATOM     21  H3  UNL     1      -9.381  16.630 -21.305  1.00  0.00     0.161 HD
BRANCH  20  22
HETATM   22  C2  UNL     1      -7.830  17.927 -21.991  1.00  0.00     0.139 C 
BRANCH  22  23
HETATM   23  C1  UNL     1      -8.956  18.768 -22.539  1.00  0.00     0.153 C 
BRANCH  23  24
HETATM   24  N2  UNL     1     -10.029  18.921 -21.584  1.00  0.00    -0.147 NA
BRANCH  24  25
HETATM   25  N1  UNL     1     -11.078  19.681 -22.068  1.00  0.00    -0.348 N 
ATOM     26  H12 UNL     1     -12.036  19.573 -21.736  1.00  0.00     0.172 HD
ATOM     27  H11 UNL     1     -10.788  20.351 -22.781  1.00  0.00     0.172 HD
ENDBRANCH  24  25
ENDBRANCH  23  24
ENDBRANCH  22  23
ENDBRANCH  20  22
ENDBRANCH   1  20
BRANCH   3  28
HETATM   28  N4  UNL     1      -4.802  13.616 -22.196  1.00  0.00    -0.239 N 
ATOM     29  H4  UNL     1      -5.227  13.240 -23.043  1.00  0.00     0.193 HD
BRANCH  28  30
HETATM   30  N5  UNL     1      -3.436  13.507 -22.137  1.00  0.00    -0.038 N 
HETATM   31  O1  UNL     1      -2.785  13.736 -23.195  1.00  0.00    -0.516 OA
HETATM   32  O2  UNL     1      -2.718  13.162 -21.030  1.00  0.00    -0.516 OA
ENDBRANCH  28  30
ENDBRANCH   3  28
TORSDOF 7
ENDMDL
