MODEL 1
REMARK VINA RESULT: -7.555101794      0.000      0.000
REMARK  9 active torsions:
REMARK  status: ('A' for Active; 'I' for Inactive)
REMARK    1  A    between atoms: N1_1  and  C1_5 
REMARK    2  A    between atoms: C1_5  and  C2_6 
REMARK    3  A    between atoms: C2_6  and  C3_7 
REMARK    4  A    between atoms: C2_6  and  N2_11 
REMARK    5  A    between atoms: C3_7  and  C4_8 
REMARK    6  A    between atoms: N2_11  and  C5_13 
REMARK    7  A    between atoms: C9_19  and  N4_20 
REMARK    8  A    between atoms: N4_20  and  N5_22 
REMARK    9  A    between atoms: N5_22  and  C10_24 
ROOT
HETATM    1  C5  UNL     1      -7.984  11.022 -20.891  1.00  0.00     0.072 A 
HETATM    2  C6  UNL     1      -7.744  11.374 -22.194  1.00  0.00     0.119 A 
HETATM    3  N3  UNL     1      -6.579  11.910 -22.665  1.00  0.00    -0.373 N 
ATOM      4  H3  UNL     1      -6.475  12.146 -23.652  1.00  0.00     0.164 HD
HETATM    5  C7  UNL     1      -5.580  12.117 -21.803  1.00  0.00     0.090 A 
HETATM    6  C8  UNL     1      -5.721  11.800 -20.466  1.00  0.00     0.050 A 
HETATM    7  C9  UNL     1      -6.890  11.265 -20.009  1.00  0.00     0.077 A 
ENDROOT
BRANCH   1   8
HETATM    8  N2  UNL     1      -9.107  10.402 -20.352  1.00  0.00    -0.380 N 
ATOM      9  H2  UNL     1      -8.911   9.464 -20.005  1.00  0.00     0.160 HD
BRANCH   8  10
HETATM   10  C2  UNL     1     -10.442  10.776 -20.179  1.00  0.00     0.117 C 
BRANCH  10  11
HETATM   11  C1  UNL     1     -10.750  10.988 -18.675  1.00  0.00     0.255 C 
BRANCH  11  12
HETATM   12  N1  UNL     1     -10.443  12.346 -18.261  1.00  0.00    -0.077 N 
ATOM     13  H13 UNL     1     -10.017  12.881 -19.018  1.00  0.00     0.274 HD
ATOM     14  H12 UNL     1     -11.290  12.900 -18.136  1.00  0.00     0.274 HD
ATOM     15  H11 UNL     1      -9.861  12.355 -17.423  1.00  0.00     0.274 HD
ENDBRANCH  11  12
ENDBRANCH  10  11
BRANCH  10  16
HETATM   16  C3  UNL     1     -11.538   9.990 -20.776  1.00  0.00     0.139 C 
BRANCH  16  17
HETATM   17  C4  UNL     1     -11.409   9.996 -22.279  1.00  0.00     0.174 C 
HETATM   18  O1  UNL     1     -10.658   9.187 -22.862  1.00  0.00    -0.648 OA
HETATM   19  O2  UNL     1     -12.118  10.893 -23.060  1.00  0.00    -0.648 OA
ENDBRANCH  16  17
ENDBRANCH  10  16
ENDBRANCH   8  10
ENDBRANCH   1   8
BRANCH   7  20
HETATM   20  N4  UNL     1      -7.111  11.006 -18.622  1.00  0.00    -0.297 N 
ATOM     21  H4  UNL     1      -7.708  10.228 -18.343  1.00  0.00     0.187 HD
BRANCH  20  22
HETATM   22  N5  UNL     1      -6.530  11.788 -17.667  1.00  0.00    -0.285 N 
ATOM     23  H5  UNL     1      -5.541  11.607 -17.496  1.00  0.00     0.188 HD
BRANCH  22  24
HETATM   24  C10 UNL     1      -7.103  12.808 -16.884  1.00  0.00     0.119 A 
HETATM   25  C11 UNL     1      -7.799  12.438 -15.725  1.00  0.00     0.051 A 
HETATM   26  C12 UNL     1      -8.336  13.449 -14.957  1.00  0.00     0.029 A 
HETATM   27  C13 UNL     1      -8.225  14.783 -15.269  1.00  0.00     0.049 A 
HETATM   28 CL1  UNL     1      -8.922  16.022 -14.244  1.00  0.00    -0.083 Cl
HETATM   29  C14 UNL     1      -7.524  15.082 -16.433  1.00  0.00     0.113 A 
HETATM   30  N6  UNL     1      -7.002  14.107 -17.180  1.00  0.00    -0.350 N 
ATOM     31  H6  UNL     1      -6.496  14.369 -18.026  1.00  0.00     0.166 HD
ENDBRANCH  22  24
ENDBRANCH  20  22
ENDBRANCH   7  20
TORSDOF 9
ENDMDL
MODEL 2
REMARK VINA RESULT: -7.386652613      2.453      4.155
REMARK  9 active torsions:
REMARK  status: ('A' for Active; 'I' for Inactive)
REMARK    1  A    between atoms: N1_1  and  C1_5 
REMARK    2  A    between atoms: C1_5  and  C2_6 
REMARK    3  A    between atoms: C2_6  and  C3_7 
REMARK    4  A    between atoms: C2_6  and  N2_11 
REMARK    5  A    between atoms: C3_7  and  C4_8 
REMARK    6  A    between atoms: N2_11  and  C5_13 
REMARK    7  A    between atoms: C9_19  and  N4_20 
REMARK    8  A    between atoms: N4_20  and  N5_22 
REMARK    9  A    between atoms: N5_22  and  C10_24 
ROOT
HETATM    1  C5  UNL     1      -8.306  10.713 -20.255  1.00  0.00     0.072 A 
HETATM    2  C6  UNL     1      -9.506  10.755 -20.915  1.00  0.00     0.119 A 
HETATM    3  N3  UNL     1     -10.718  11.003 -20.335  1.00  0.00    -0.373 N 
ATOM      4  H3  UNL     1     -11.571  11.019 -20.894  1.00  0.00     0.164 HD
HETATM    5  C7  UNL     1     -10.759  11.225 -19.019  1.00  0.00     0.090 A 
HETATM    6  C8  UNL     1      -9.605  11.202 -18.260  1.00  0.00     0.050 A 
HETATM    7  C9  UNL     1      -8.401  10.952 -18.852  1.00  0.00     0.077 A 
ENDROOT
BRANCH   1   8
HETATM    8  N2  UNL     1      -7.030  10.545 -20.783  1.00  0.00    -0.380 N 
ATOM      9  H2  UNL     1      -6.433   9.963 -20.196  1.00  0.00     0.160 HD
BRANCH   8  10
HETATM   10  C2  UNL     1      -6.382  10.995 -21.937  1.00  0.00     0.117 C 
BRANCH  10  11
HETATM   11  C1  UNL     1      -5.439   9.894 -22.486  1.00  0.00     0.255 C 
BRANCH  11  12
HETATM   12  N1  UNL     1      -5.346   8.773 -21.567  1.00  0.00    -0.077 N 
ATOM     13  H13 UNL     1      -5.469   9.071 -20.600  1.00  0.00     0.274 HD
ATOM     14  H12 UNL     1      -6.155   8.157 -21.644  1.00  0.00     0.274 HD
ATOM     15  H11 UNL     1      -4.472   8.262 -21.694  1.00  0.00     0.274 HD
ENDBRANCH  11  12
ENDBRANCH  10  11
BRANCH  10  16
HETATM   16  C3  UNL     1      -5.662  12.281 -21.956  1.00  0.00     0.139 C 
BRANCH  16  17
HETATM   17  C4  UNL     1      -5.602  12.852 -20.561  1.00  0.00     0.174 C 
HETATM   18  O1  UNL     1      -4.729  12.476 -19.751  1.00  0.00    -0.648 OA
HETATM   19  O2  UNL     1      -6.507  13.808 -20.132  1.00  0.00    -0.648 OA
ENDBRANCH  16  17
ENDBRANCH  10  16
ENDBRANCH   8  10
ENDBRANCH   1   8
BRANCH   7  20
HETATM   20  N4  UNL     1      -7.198  10.830 -18.094  1.00  0.00    -0.297 N 
ATOM     21  H4  UNL     1      -6.773   9.912 -17.966  1.00  0.00     0.187 HD
BRANCH  20  22
HETATM   22  N5  UNL     1      -6.611  11.930 -17.540  1.00  0.00    -0.285 N 
ATOM     23  H5  UNL     1      -5.614  12.036 -17.730  1.00  0.00     0.188 HD
BRANCH  22  24
HETATM   24  C10 UNL     1      -7.185  12.938 -16.744  1.00  0.00     0.119 A 
HETATM   25  C11 UNL     1      -7.777  12.563 -15.530  1.00  0.00     0.051 A 
HETATM   26  C12 UNL     1      -8.316  13.564 -14.750  1.00  0.00     0.029 A 
HETATM   27  C13 UNL     1      -8.303  14.893 -15.101  1.00  0.00     0.049 A 
HETATM   28 CL1  UNL     1      -8.996  16.120 -14.059  1.00  0.00    -0.083 Cl
HETATM   29  C14 UNL     1      -7.703  15.198 -16.318  1.00  0.00     0.113 A 
HETATM   30  N6  UNL     1      -7.179  14.233 -17.077  1.00  0.00    -0.350 N 
ATOM     31  H6  UNL     1      -6.749  14.498 -17.962  1.00  0.00     0.166 HD
ENDBRANCH  22  24
ENDBRANCH  20  22
ENDBRANCH   7  20
TORSDOF 9
ENDMDL
MODEL 3
REMARK VINA RESULT: -7.352534478      3.351      4.670
REMARK  9 active torsions:
REMARK  status: ('A' for Active; 'I' for Inactive)
REMARK    1  A    between atoms: N1_1  and  C1_5 
REMARK    2  A    between atoms: C1_5  and  C2_6 
REMARK    3  A    between atoms: C2_6  and  C3_7 
REMARK    4  A    between atoms: C2_6  and  N2_11 
REMARK    5  A    between atoms: C3_7  and  C4_8 
REMARK    6  A    between atoms: N2_11  and  C5_13 
REMARK    7  A    between atoms: C9_19  and  N4_20 
REMARK    8  A    between atoms: N4_20  and  N5_22 
REMARK    9  A    between atoms: N5_22  and  C10_24 
ROOT
HETATM    1  C5  UNL     1      -7.646  12.607 -20.482  1.00  0.00     0.072 A 
HETATM    2  C6  UNL     1      -8.796  12.542 -21.223  1.00  0.00     0.119 A 
HETATM    3  N3  UNL     1      -9.806  11.642 -21.034  1.00  0.00    -0.373 N 
ATOM      4  H3  UNL     1     -10.635  11.655 -21.628  1.00  0.00     0.164 HD
HETATM    5  C7  UNL     1      -9.682  10.743 -20.054  1.00  0.00     0.090 A 
HETATM    6  C8  UNL     1      -8.559  10.722 -19.250  1.00  0.00     0.050 A 
HETATM    7  C9  UNL     1      -7.557  11.627 -19.450  1.00  0.00     0.077 A 
ENDROOT
BRANCH   1   8
HETATM    8  N2  UNL     1      -6.614  13.537 -20.561  1.00  0.00    -0.380 N 
ATOM      9  H2  UNL     1      -5.742  13.133 -20.901  1.00  0.00     0.160 HD
BRANCH   8  10
HETATM   10  C2  UNL     1      -6.503  14.902 -20.280  1.00  0.00     0.117 C 
BRANCH  10  11
HETATM   11  C1  UNL     1      -6.975  15.741 -21.495  1.00  0.00     0.255 C 
BRANCH  11  12
HETATM   12  N1  UNL     1      -8.252  16.381 -21.229  1.00  0.00    -0.077 N 
ATOM     13  H13 UNL     1      -9.030  15.825 -21.582  1.00  0.00     0.274 HD
ATOM     14  H12 UNL     1      -8.482  16.358 -20.236  1.00  0.00     0.274 HD
ATOM     15  H11 UNL     1      -8.273  17.331 -21.598  1.00  0.00     0.274 HD
ENDBRANCH  11  12
ENDBRANCH  10  11
BRANCH  10  16
HETATM   16  C3  UNL     1      -5.243  15.477 -19.774  1.00  0.00     0.139 C 
BRANCH  16  17
HETATM   17  C4  UNL     1      -4.225  14.381 -19.579  1.00  0.00     0.174 C 
HETATM   18  O1  UNL     1      -4.216  13.691 -18.539  1.00  0.00    -0.648 OA
HETATM   19  O2  UNL     1      -3.270  14.103 -20.543  1.00  0.00    -0.648 OA
ENDBRANCH  16  17
ENDBRANCH  10  16
ENDBRANCH   8  10
ENDBRANCH   1   8
BRANCH   7  20
HETATM   20  N4  UNL     1      -6.341  11.585 -18.703  1.00  0.00    -0.297 N 
ATOM     21  H4  UNL     1      -5.465  11.366 -19.177  1.00  0.00     0.187 HD
BRANCH  20  22
HETATM   22  N5  UNL     1      -6.340  11.834 -17.362  1.00  0.00    -0.285 N 
ATOM     23  H5  UNL     1      -5.774  11.198 -16.799  1.00  0.00     0.188 HD
BRANCH  22  24
HETATM   24  C10 UNL     1      -7.009  12.843 -16.645  1.00  0.00     0.119 A 
HETATM   25  C11 UNL     1      -7.796  12.464 -15.549  1.00  0.00     0.051 A 
HETATM   26  C12 UNL     1      -8.427  13.465 -14.843  1.00  0.00     0.029 A 
HETATM   27  C13 UNL     1      -8.325  14.799 -15.158  1.00  0.00     0.049 A 
HETATM   28 CL1  UNL     1      -9.145  16.026 -14.212  1.00  0.00    -0.083 Cl
HETATM   29  C14 UNL     1      -7.530  15.109 -16.257  1.00  0.00     0.113 A 
HETATM   30  N6  UNL     1      -6.917  14.143 -16.944  1.00  0.00    -0.350 N 
ATOM     31  H6  UNL     1      -6.344  14.412 -17.743  1.00  0.00     0.166 HD
ENDBRANCH  22  24
ENDBRANCH  20  22
ENDBRANCH   7  20
TORSDOF 9
ENDMDL
MODEL 4
REMARK VINA RESULT: -7.349156619      3.075      4.692
REMARK  9 active torsions:
REMARK  status: ('A' for Active; 'I' for Inactive)
REMARK    1  A    between atoms: N1_1  and  C1_5 
REMARK    2  A    between atoms: C1_5  and  C2_6 
REMARK    3  A    between atoms: C2_6  and  C3_7 
REMARK    4  A    between atoms: C2_6  and  N2_11 
REMARK    5  A    between atoms: C3_7  and  C4_8 
REMARK    6  A    between atoms: N2_11  and  C5_13 
REMARK    7  A    between atoms: C9_19  and  N4_20 
REMARK    8  A    between atoms: N4_20  and  N5_22 
REMARK    9  A    between atoms: N5_22  and  C10_24 
ROOT
HETATM    1  C5  UNL     1      -8.010  12.445 -20.246  1.00  0.00     0.072 A 
HETATM    2  C6  UNL     1      -9.187  12.260 -20.921  1.00  0.00     0.119 A 
HETATM    3  N3  UNL     1     -10.070  11.240 -20.703  1.00  0.00    -0.373 N 
ATOM      4  H3  UNL     1     -10.930  11.169 -21.247  1.00  0.00     0.164 HD
HETATM    5  C7  UNL     1      -9.780  10.339 -19.761  1.00  0.00     0.090 A 
HETATM    6  C8  UNL     1      -8.615  10.434 -19.026  1.00  0.00     0.050 A 
HETATM    7  C9  UNL     1      -7.742  11.457 -19.254  1.00  0.00     0.077 A 
ENDROOT
BRANCH   1   8
HETATM    8  N2  UNL     1      -7.103  13.495 -20.355  1.00  0.00    -0.380 N 
ATOM      9  H2  UNL     1      -7.137  14.131 -19.559  1.00  0.00     0.160 HD
BRANCH   8  10
HETATM   10  C2  UNL     1      -6.155  13.874 -21.309  1.00  0.00     0.117 C 
BRANCH  10  11
HETATM   11  C1  UNL     1      -5.675  12.636 -22.110  1.00  0.00     0.255 C 
BRANCH  11  12
HETATM   12  N1  UNL     1      -4.567  11.975 -21.444  1.00  0.00    -0.077 N 
ATOM     13  H13 UNL     1      -3.892  12.648 -21.082  1.00  0.00     0.274 HD
ATOM     14  H12 UNL     1      -4.857  11.556 -20.561  1.00  0.00     0.274 HD
ATOM     15  H11 UNL     1      -4.122  11.290 -22.056  1.00  0.00     0.274 HD
ENDBRANCH  11  12
ENDBRANCH  10  11
BRANCH  10  16
HETATM   16  C3  UNL     1      -4.976  14.678 -20.937  1.00  0.00     0.139 C 
BRANCH  16  17
HETATM   17  C4  UNL     1      -4.867  14.756 -19.435  1.00  0.00     0.174 C 
HETATM   18  O1  UNL     1      -5.190  15.794 -18.821  1.00  0.00    -0.648 OA
HETATM   19  O2  UNL     1      -4.408  13.684 -18.688  1.00  0.00    -0.648 OA
ENDBRANCH  16  17
ENDBRANCH  10  16
ENDBRANCH   8  10
ENDBRANCH   1   8
BRANCH   7  20
HETATM   20  N4  UNL     1      -6.486  11.543 -18.580  1.00  0.00    -0.297 N 
ATOM     21  H4  UNL     1      -5.623  11.382 -19.099  1.00  0.00     0.187 HD
BRANCH  20  22
HETATM   22  N5  UNL     1      -6.430  11.838 -17.249  1.00  0.00    -0.285 N 
ATOM     23  H5  UNL     1      -5.822  11.236 -16.693  1.00  0.00     0.188 HD
BRANCH  22  24
HETATM   24  C10 UNL     1      -7.091  12.855 -16.535  1.00  0.00     0.119 A 
HETATM   25  C11 UNL     1      -7.809  12.495 -15.387  1.00  0.00     0.051 A 
HETATM   26  C12 UNL     1      -8.433  13.504 -14.686  1.00  0.00     0.029 A 
HETATM   27  C13 UNL     1      -8.388  14.828 -15.054  1.00  0.00     0.049 A 
HETATM   28 CL1  UNL     1      -9.195  16.066 -14.112  1.00  0.00    -0.083 Cl
HETATM   29  C14 UNL     1      -7.660  15.118 -16.204  1.00  0.00     0.113 A 
HETATM   30  N6  UNL     1      -7.054  14.144 -16.886  1.00  0.00    -0.350 N 
ATOM     31  H6  UNL     1      -6.532  14.399 -17.724  1.00  0.00     0.166 HD
ENDBRANCH  22  24
ENDBRANCH  20  22
ENDBRANCH   7  20
TORSDOF 9
ENDMDL
MODEL 5
REMARK VINA RESULT: -7.263557726      1.735      2.355
REMARK  9 active torsions:
REMARK  status: ('A' for Active; 'I' for Inactive)
REMARK    1  A    between atoms: N1_1  and  C1_5 
REMARK    2  A    between atoms: C1_5  and  C2_6 
REMARK    3  A    between atoms: C2_6  and  C3_7 
REMARK    4  A    between atoms: C2_6  and  N2_11 
REMARK    5  A    between atoms: C3_7  and  C4_8 
REMARK    6  A    between atoms: N2_11  and  C5_13 
REMARK    7  A    between atoms: C9_19  and  N4_20 
REMARK    8  A    between atoms: N4_20  and  N5_22 
REMARK    9  A    between atoms: N5_22  and  C10_24 
ROOT
HETATM    1  C5  UNL     1      -7.943  11.440 -21.038  1.00  0.00     0.072 A 
HETATM    2  C6  UNL     1      -6.859  10.660 -20.736  1.00  0.00     0.119 A 
HETATM    3  N3  UNL     1      -5.641  11.126 -20.328  1.00  0.00    -0.373 N 
ATOM      4  H3  UNL     1      -4.878  10.481 -20.121  1.00  0.00     0.164 HD
HETATM    5  C7  UNL     1      -5.472  12.445 -20.208  1.00  0.00     0.090 A 
HETATM    6  C8  UNL     1      -6.503  13.319 -20.491  1.00  0.00     0.050 A 
HETATM    7  C9  UNL     1      -7.714  12.841 -20.898  1.00  0.00     0.077 A 
ENDROOT
BRANCH   1   8
HETATM    8  N2  UNL     1      -9.231  11.041 -21.382  1.00  0.00    -0.380 N 
ATOM      9  H2  UNL     1      -9.380  11.010 -22.390  1.00  0.00     0.160 HD
BRANCH   8  10
HETATM   10  C2  UNL     1     -10.368  10.673 -20.656  1.00  0.00     0.117 C 
BRANCH  10  11
HETATM   11  C1  UNL     1      -9.965  10.177 -19.243  1.00  0.00     0.255 C 
BRANCH  11  12
HETATM   12  N1  UNL     1     -11.108  10.160 -18.346  1.00  0.00    -0.077 N 
ATOM     13  H13 UNL     1     -11.955  10.482 -18.813  1.00  0.00     0.274 HD
ATOM     14  H12 UNL     1     -11.401   9.207 -18.131  1.00  0.00     0.274 HD
ATOM     15  H11 UNL     1     -10.920  10.695 -17.499  1.00  0.00     0.274 HD
ENDBRANCH  11  12
ENDBRANCH  10  11
BRANCH  10  16
HETATM   16  C3  UNL     1     -11.361   9.739 -21.216  1.00  0.00     0.139 C 
BRANCH  16  17
HETATM   17  C4  UNL     1     -11.388   9.865 -22.719  1.00  0.00     0.174 C 
HETATM   18  O1  UNL     1     -10.886   8.983 -23.446  1.00  0.00    -0.648 OA
HETATM   19  O2  UNL     1     -11.970  10.957 -23.341  1.00  0.00    -0.648 OA
ENDBRANCH  16  17
ENDBRANCH  10  16
ENDBRANCH   8  10
ENDBRANCH   1   8
BRANCH   7  20
HETATM   20  N4  UNL     1      -8.778  13.710 -21.286  1.00  0.00    -0.297 N 
ATOM     21  H4  UNL     1      -8.983  13.847 -22.276  1.00  0.00     0.187 HD
BRANCH  20  22
HETATM   22  N5  UNL     1      -9.523  14.360 -20.346  1.00  0.00    -0.285 N 
ATOM     23  H5  UNL     1     -10.311  14.898 -20.708  1.00  0.00     0.188 HD
BRANCH  22  24
HETATM   24  C10 UNL     1      -9.358  14.394 -18.949  1.00  0.00     0.119 A 
HETATM   25  C11 UNL     1      -8.701  15.498 -18.388  1.00  0.00     0.051 A 
HETATM   26  C12 UNL     1      -8.566  15.527 -17.017  1.00  0.00     0.029 A 
HETATM   27  C13 UNL     1      -9.038  14.541 -16.184  1.00  0.00     0.049 A 
HETATM   28 CL1  UNL     1      -8.844  14.644 -14.445  1.00  0.00    -0.083 Cl
HETATM   29  C14 UNL     1      -9.679  13.473 -16.803  1.00  0.00     0.113 A 
HETATM   30  N6  UNL     1      -9.812  13.440 -18.130  1.00  0.00    -0.350 N 
ATOM     31  H6  UNL     1     -10.288  12.638 -18.545  1.00  0.00     0.166 HD
ENDBRANCH  22  24
ENDBRANCH  20  22
ENDBRANCH   7  20
TORSDOF 9
ENDMDL
