MODEL 1
REMARK VINA RESULT: -6.079223758      0.000      0.000
REMARK  5 active torsions:
REMARK  status: ('A' for Active; 'I' for Inactive)
REMARK    1  A    between atoms: C2_2  and  O1_3 
REMARK    2  A    between atoms: O1_3  and  C3_4 
REMARK       I    between atoms: C3_4  and  N1_6 
REMARK    3  A    between atoms: N1_6  and  O3_8 
REMARK    4  A    between atoms: O3_8  and  C5_9 
REMARK    5  A    between atoms: C5_9  and  C6_11 
ROOT
HETATM    1  C3  UNL     1      14.526  22.737  -2.606  1.00  0.00     0.386 C 
HETATM    2  O2  UNL     1      14.923  22.157  -3.634  1.00  0.00    -0.236 OA
HETATM    3  N1  UNL     1      15.113  23.966  -2.241  1.00  0.00    -0.199 N 
HETATM    4  C4  UNL     1      14.618  24.613  -1.033  1.00  0.00     0.191 C 
ENDROOT
BRANCH   3   5
HETATM    5  O3  UNL     1      16.099  24.570  -2.952  1.00  0.00    -0.223 OA
BRANCH   5   6
HETATM    6  C5  UNL     1      16.028  25.837  -3.426  1.00  0.00     0.150 C 
HETATM    7  S1  UNL     1      16.974  26.976  -2.688  1.00  0.00    -0.054 SA
BRANCH   6   8
HETATM    8  C6  UNL     1      15.182  26.295  -4.541  1.00  0.00     0.011 C 
HETATM    9  C7  UNL     1      15.307  25.220  -5.631  1.00  0.00     0.022 C 
HETATM   10  C8  UNL     1      13.724  26.446  -4.181  1.00  0.00     0.022 C 
HETATM   11  C9  UNL     1      15.712  27.573  -5.145  1.00  0.00     0.022 C 
ENDBRANCH   6   8
ENDBRANCH   5   6
ENDBRANCH   3   5
BRANCH   1  12
HETATM   12  O1  UNL     1      13.531  22.172  -1.850  1.00  0.00    -0.303 OA
BRANCH  12  13
HETATM   13  C2  UNL     1      13.595  20.883  -1.273  1.00  0.00     0.176 C 
HETATM   14  C1  UNL     1      14.644  20.767  -0.198  1.00  0.00     0.034 C 
ENDBRANCH  12  13
ENDBRANCH   1  12
TORSDOF 5
ENDMDL
MODEL 2
REMARK VINA RESULT: -6.050855443      0.100      1.149
REMARK  5 active torsions:
REMARK  status: ('A' for Active; 'I' for Inactive)
REMARK    1  A    between atoms: C2_2  and  O1_3 
REMARK    2  A    between atoms: O1_3  and  C3_4 
REMARK       I    between atoms: C3_4  and  N1_6 
REMARK    3  A    between atoms: N1_6  and  O3_8 
REMARK    4  A    between atoms: O3_8  and  C5_9 
REMARK    5  A    between atoms: C5_9  and  C6_11 
ROOT
HETATM    1  C3  UNL     1      14.569  22.801  -2.648  1.00  0.00     0.386 C 
HETATM    2  O2  UNL     1      14.949  22.255  -3.701  1.00  0.00    -0.236 OA
HETATM    3  N1  UNL     1      15.181  24.003  -2.238  1.00  0.00    -0.199 N 
HETATM    4  C4  UNL     1      14.705  24.610  -1.002  1.00  0.00     0.191 C 
ENDROOT
BRANCH   3   5
HETATM    5  O3  UNL     1      16.175  24.616  -2.930  1.00  0.00    -0.223 OA
BRANCH   5   6
HETATM    6  C5  UNL     1      16.073  25.855  -3.469  1.00  0.00     0.150 C 
HETATM    7  S1  UNL     1      16.968  27.060  -2.773  1.00  0.00    -0.054 SA
BRANCH   6   8
HETATM    8  C6  UNL     1      15.235  26.229  -4.620  1.00  0.00     0.011 C 
HETATM    9  C7  UNL     1      15.761  27.590  -5.097  1.00  0.00     0.022 C 
HETATM   10  C8  UNL     1      15.309  25.256  -5.772  1.00  0.00     0.022 C 
HETATM   11  C9  UNL     1      13.800  26.450  -4.208  1.00  0.00     0.022 C 
ENDBRANCH   6   8
ENDBRANCH   5   6
ENDBRANCH   3   5
BRANCH   1  12
HETATM   12  O1  UNL     1      13.568  22.225  -1.910  1.00  0.00    -0.303 OA
BRANCH  12  13
HETATM   13  C2  UNL     1      13.609  20.911  -1.388  1.00  0.00     0.176 C 
HETATM   14  C1  UNL     1      14.570  20.761  -0.238  1.00  0.00     0.034 C 
ENDBRANCH  12  13
ENDBRANCH   1  12
TORSDOF 5
ENDMDL
MODEL 3
REMARK VINA RESULT: -5.758570121      2.350      2.987
REMARK  5 active torsions:
REMARK  status: ('A' for Active; 'I' for Inactive)
REMARK    1  A    between atoms: C2_2  and  O1_3 
REMARK    2  A    between atoms: O1_3  and  C3_4 
REMARK       I    between atoms: C3_4  and  N1_6 
REMARK    3  A    between atoms: N1_6  and  O3_8 
REMARK    4  A    between atoms: O3_8  and  C5_9 
REMARK    5  A    between atoms: C5_9  and  C6_11 
ROOT
HETATM    1  C3  UNL     1      14.135  23.064   0.469  1.00  0.00     0.386 C 
HETATM    2  O2  UNL     1      14.299  24.042   1.223  1.00  0.00    -0.236 OA
HETATM    3  N1  UNL     1      14.466  23.185  -0.896  1.00  0.00    -0.199 N 
HETATM    4  C4  UNL     1      14.262  22.017  -1.741  1.00  0.00     0.191 C 
ENDROOT
BRANCH   3   5
HETATM    5  O3  UNL     1      14.963  24.320  -1.452  1.00  0.00    -0.223 OA
BRANCH   5   6
HETATM    6  C5  UNL     1      14.334  25.031  -2.418  1.00  0.00     0.150 C 
HETATM    7  S1  UNL     1      12.761  25.463  -2.139  1.00  0.00    -0.054 SA
BRANCH   6   8
HETATM    8  C6  UNL     1      14.923  25.457  -3.698  1.00  0.00     0.011 C 
HETATM    9  C7  UNL     1      16.130  26.334  -3.333  1.00  0.00     0.022 C 
HETATM   10  C8  UNL     1      15.404  24.315  -4.560  1.00  0.00     0.022 C 
HETATM   11  C9  UNL     1      13.977  26.342  -4.473  1.00  0.00     0.022 C 
ENDBRANCH   6   8
ENDBRANCH   5   6
ENDBRANCH   3   5
BRANCH   1  12
HETATM   12  O1  UNL     1      13.637  21.893   0.979  1.00  0.00    -0.303 OA
BRANCH  12  13
HETATM   13  C2  UNL     1      12.302  21.708   1.408  1.00  0.00     0.176 C 
HETATM   14  C1  UNL     1      11.555  20.682   0.596  1.00  0.00     0.034 C 
ENDBRANCH  12  13
ENDBRANCH   1  12
TORSDOF 5
ENDMDL
MODEL 4
REMARK VINA RESULT: -5.731881433      2.361      3.025
REMARK  5 active torsions:
REMARK  status: ('A' for Active; 'I' for Inactive)
REMARK    1  A    between atoms: C2_2  and  O1_3 
REMARK    2  A    between atoms: O1_3  and  C3_4 
REMARK       I    between atoms: C3_4  and  N1_6 
REMARK    3  A    between atoms: N1_6  and  O3_8 
REMARK    4  A    between atoms: O3_8  and  C5_9 
REMARK    5  A    between atoms: C5_9  and  C6_11 
ROOT
HETATM    1  C3  UNL     1      14.124  23.061   0.486  1.00  0.00     0.386 C 
HETATM    2  O2  UNL     1      14.294  24.032   1.248  1.00  0.00    -0.236 OA
HETATM    3  N1  UNL     1      14.467  23.188  -0.875  1.00  0.00    -0.199 N 
HETATM    4  C4  UNL     1      14.255  22.027  -1.730  1.00  0.00     0.191 C 
ENDROOT
BRANCH   3   5
HETATM    5  O3  UNL     1      14.983  24.319  -1.419  1.00  0.00    -0.223 OA
BRANCH   5   6
HETATM    6  C5  UNL     1      14.366  25.051  -2.378  1.00  0.00     0.150 C 
HETATM    7  S1  UNL     1      12.776  25.436  -2.132  1.00  0.00    -0.054 SA
BRANCH   6   8
HETATM    8  C6  UNL     1      14.983  25.535  -3.624  1.00  0.00     0.011 C 
HETATM    9  C7  UNL     1      13.882  26.308  -4.364  1.00  0.00     0.022 C 
HETATM   10  C8  UNL     1      16.156  26.461  -3.407  1.00  0.00     0.022 C 
HETATM   11  C9  UNL     1      15.375  24.390  -4.526  1.00  0.00     0.022 C 
ENDBRANCH   6   8
ENDBRANCH   5   6
ENDBRANCH   3   5
BRANCH   1  12
HETATM   12  O1  UNL     1      13.606  21.893   0.984  1.00  0.00    -0.303 OA
BRANCH  12  13
HETATM   13  C2  UNL     1      12.277  21.734   1.440  1.00  0.00     0.176 C 
HETATM   14  C1  UNL     1      11.513  20.679   0.682  1.00  0.00     0.034 C 
ENDBRANCH  12  13
ENDBRANCH   1  12
TORSDOF 5
ENDMDL
MODEL 5
REMARK VINA RESULT: -5.719195270      1.311      1.954
REMARK  5 active torsions:
REMARK  status: ('A' for Active; 'I' for Inactive)
REMARK    1  A    between atoms: C2_2  and  O1_3 
REMARK    2  A    between atoms: O1_3  and  C3_4 
REMARK       I    between atoms: C3_4  and  N1_6 
REMARK    3  A    between atoms: N1_6  and  O3_8 
REMARK    4  A    between atoms: O3_8  and  C5_9 
REMARK    5  A    between atoms: C5_9  and  C6_11 
ROOT
HETATM    1  C3  UNL     1      14.717  23.479  -2.295  1.00  0.00     0.386 C 
HETATM    2  O2  UNL     1      14.636  23.024  -3.452  1.00  0.00    -0.236 OA
HETATM    3  N1  UNL     1      15.658  24.492  -2.020  1.00  0.00    -0.199 N 
HETATM    4  C4  UNL     1      15.718  24.998  -0.655  1.00  0.00     0.191 C 
ENDROOT
BRANCH   3   5
HETATM    5  O3  UNL     1      16.495  25.015  -2.952  1.00  0.00    -0.223 OA
BRANCH   5   6
HETATM    6  C5  UNL     1      16.290  26.198  -3.579  1.00  0.00     0.150 C 
HETATM    7  S1  UNL     1      17.181  27.494  -3.064  1.00  0.00    -0.054 SA
BRANCH   6   8
HETATM    8  C6  UNL     1      15.343  26.438  -4.681  1.00  0.00     0.011 C 
HETATM    9  C7  UNL     1      15.745  27.787  -5.294  1.00  0.00     0.022 C 
HETATM   10  C8  UNL     1      15.385  25.387  -5.764  1.00  0.00     0.022 C 
HETATM   11  C9  UNL     1      13.933  26.610  -4.167  1.00  0.00     0.022 C 
ENDBRANCH   6   8
ENDBRANCH   5   6
ENDBRANCH   3   5
BRANCH   1  12
HETATM   12  O1  UNL     1      13.894  22.987  -1.315  1.00  0.00    -0.303 OA
BRANCH  12  13
HETATM   13  C2  UNL     1      12.493  23.172  -1.277  1.00  0.00     0.176 C 
HETATM   14  C1  UNL     1      12.081  24.616  -1.398  1.00  0.00     0.034 C 
ENDBRANCH  12  13
ENDBRANCH   1  12
TORSDOF 5
ENDMDL
