MODEL 1
REMARK VINA RESULT: -8.594630504      0.000      0.000
REMARK  5 active torsions:
REMARK  status: ('A' for Active; 'I' for Inactive)
REMARK       I    between atoms: N1_1  and  C1_4 
REMARK    1  A    between atoms: N3_6  and  C2_8 
REMARK    2  A    between atoms: C3_11  and  C4_12 
REMARK    3  A    between atoms: N7_17  and  C5_18 
REMARK    4  A    between atoms: C5_18  and  C6_19 
REMARK    5  A    between atoms: C12_25  and  C13_26 
ROOT
HETATM    1  C4  UNL     1       7.749  25.084   6.414  1.00  0.00     0.101 A 
HETATM    2  N5  UNL     1       6.727  25.773   5.832  1.00  0.00    -0.282 N 
ATOM      3  H5  UNL     1       5.913  25.325   5.410  1.00  0.00     0.188 HD
HETATM    4  N6  UNL     1       6.896  27.025   5.871  1.00  0.00    -0.240 N 
ATOM      5  H6  UNL     1       6.255  27.722   5.493  1.00  0.00     0.208 HD
HETATM    6  N7  UNL     1       8.064  27.287   6.494  1.00  0.00    -0.279 N 
HETATM    7  C12 UNL     1       8.586  26.085   6.827  1.00  0.00     0.064 A 
ENDROOT
BRANCH   1   8
HETATM    8  C3  UNL     1       7.789  23.583   6.481  1.00  0.00     0.071 A 
HETATM    9  N4  UNL     1       6.673  22.938   6.849  1.00  0.00    -0.334 N 
HETATM   10  C2  UNL     1       6.635  21.634   6.917  1.00  0.00     0.151 A 
ATOM     11  H4  UNL     1       5.838  23.476   7.081  1.00  0.00     0.168 HD
HETATM   12  S1  UNL     1       8.229  21.175   6.448  1.00  0.00    -0.063 SA
HETATM   13  C19 UNL     1       8.842  22.756   6.194  1.00  0.00     0.085 A 
BRANCH  10  14
HETATM   14  N3  UNL     1       5.711  20.805   7.246  1.00  0.00    -0.311 N 
HETATM   15  C1  UNL     1       4.448  20.924   7.753  1.00  0.00     0.187 C 
HETATM   16  N1  UNL     1       3.789  19.824   8.055  1.00  0.00    -0.373 N 
HETATM   17  N2  UNL     1       3.824  22.176   7.969  1.00  0.00    -0.064 NA
ATOM     18  H12 UNL     1       2.846  19.912   8.434  1.00  0.00     0.158 HD
ATOM     19  H11 UNL     1       4.239  18.922   7.900  1.00  0.00     0.158 HD
ATOM     20  H3  UNL     1       5.983  19.833   7.095  1.00  0.00     0.170 HD
ENDBRANCH  10  14
ENDBRANCH   1   8
BRANCH   7  21
HETATM   21  C13 UNL     1       9.821  25.808   7.601  1.00  0.00     0.040 C 
HETATM   22  C14 UNL     1      11.139  26.075   6.929  1.00  0.00     0.011 C 
HETATM   23  C15 UNL     1      12.292  25.519   7.807  1.00  0.00     0.001 C 
HETATM   24  C16 UNL     1      12.364  26.377   9.012  1.00  0.00     0.000 C 
HETATM   25  C17 UNL     1      11.216  27.342   9.073  1.00  0.00     0.001 C 
HETATM   26  C18 UNL     1       9.906  26.669   8.844  1.00  0.00     0.011 C 
ENDBRANCH   7  21
BRANCH   6  27
HETATM   27  C5  UNL     1       8.559  28.608   6.691  1.00  0.00     0.155 C 
BRANCH  27  28
HETATM   28  C6  UNL     1       7.977  29.434   7.783  1.00  0.00     0.005 C 
HETATM   29  C7  UNL     1       6.803  30.241   7.270  1.00  0.00     0.006 C 
HETATM   30  C8  UNL     1       6.962  31.722   7.475  1.00  0.00     0.000 C 
HETATM   31  C9  UNL     1       7.147  31.959   8.973  1.00  0.00     0.000 C 
HETATM   32  C10 UNL     1       8.251  31.093   9.527  1.00  0.00     0.000 C 
HETATM   33  C11 UNL     1       8.958  30.440   8.362  1.00  0.00     0.006 C 
ENDBRANCH  27  28
ENDBRANCH   6  27
TORSDOF 5
ENDMDL
MODEL 2
REMARK VINA RESULT: -8.476265478     10.028     11.493
REMARK  5 active torsions:
REMARK  status: ('A' for Active; 'I' for Inactive)
REMARK       I    between atoms: N1_1  and  C1_4 
REMARK    1  A    between atoms: N3_6  and  C2_8 
REMARK    2  A    between atoms: C3_11  and  C4_12 
REMARK    3  A    between atoms: N7_17  and  C5_18 
REMARK    4  A    between atoms: C5_18  and  C6_19 
REMARK    5  A    between atoms: C12_25  and  C13_26 
ROOT
HETATM    1  C4  UNL     1      -1.721  19.701   2.409  1.00  0.00     0.101 A 
HETATM    2  N5  UNL     1      -2.142  19.840   1.120  1.00  0.00    -0.282 N 
ATOM      3  H5  UNL     1      -2.506  19.070   0.559  1.00  0.00     0.188 HD
HETATM    4  N6  UNL     1      -2.033  21.025   0.696  1.00  0.00    -0.240 N 
ATOM      5  H6  UNL     1      -2.289  21.347  -0.238  1.00  0.00     0.208 HD
HETATM    6  N7  UNL     1      -1.524  21.795   1.680  1.00  0.00    -0.279 N 
HETATM    7  C12 UNL     1      -1.334  20.972   2.735  1.00  0.00     0.064 A 
ENDROOT
BRANCH   1   8
HETATM    8  C3  UNL     1      -1.736  18.385   3.136  1.00  0.00     0.071 A 
HETATM    9  N4  UNL     1      -0.584  17.707   3.237  1.00  0.00    -0.334 N 
HETATM   10  C2  UNL     1      -0.523  16.563   3.866  1.00  0.00     0.151 A 
ATOM     11  H4  UNL     1       0.261  18.092   2.815  1.00  0.00     0.168 HD
HETATM   12  S1  UNL     1      -2.146  16.326   4.396  1.00  0.00    -0.063 SA
HETATM   13  C19 UNL     1      -2.800  17.770   3.741  1.00  0.00     0.085 A 
BRANCH  10  14
HETATM   14  N3  UNL     1       0.436  15.738   4.084  1.00  0.00    -0.311 N 
HETATM   15  C1  UNL     1       1.394  15.610   5.048  1.00  0.00     0.187 C 
HETATM   16  N1  UNL     1       2.298  14.662   4.911  1.00  0.00    -0.373 N 
HETATM   17  N2  UNL     1       1.458  16.456   6.182  1.00  0.00    -0.064 NA
ATOM     18  H12 UNL     1       3.014  14.566   5.632  1.00  0.00     0.158 HD
ATOM     19  H11 UNL     1       2.252  14.053   4.095  1.00  0.00     0.158 HD
ATOM     20  H3  UNL     1       0.497  15.011   3.371  1.00  0.00     0.170 HD
ENDBRANCH  10  14
ENDBRANCH   1   8
BRANCH   7  21
HETATM   21  C13 UNL     1      -0.868  21.327   4.098  1.00  0.00     0.040 C 
HETATM   22  C14 UNL     1      -1.677  20.828   5.263  1.00  0.00     0.011 C 
HETATM   23  C15 UNL     1      -1.161  21.483   6.572  1.00  0.00     0.001 C 
HETATM   24  C16 UNL     1       0.178  20.909   6.840  1.00  0.00     0.000 C 
HETATM   25  C17 UNL     1       0.655  20.063   5.695  1.00  0.00     0.001 C 
HETATM   26  C18 UNL     1       0.506  20.758   4.385  1.00  0.00     0.011 C 
ENDBRANCH   7  21
BRANCH   6  27
HETATM   27  C5  UNL     1      -1.263  23.186   1.520  1.00  0.00     0.155 C 
BRANCH  27  28
HETATM   28  C6  UNL     1       0.151  23.652   1.514  1.00  0.00     0.005 C 
HETATM   29  C7  UNL     1       0.226  25.113   1.126  1.00  0.00     0.006 C 
HETATM   30  C8  UNL     1       1.097  25.367  -0.074  1.00  0.00     0.000 C 
HETATM   31  C9  UNL     1       2.492  24.838   0.254  1.00  0.00     0.000 C 
HETATM   32  C10 UNL     1       2.431  23.410   0.735  1.00  0.00     0.000 C 
HETATM   33  C11 UNL     1       1.023  22.906   0.519  1.00  0.00     0.006 C 
ENDBRANCH  27  28
ENDBRANCH   6  27
TORSDOF 5
ENDMDL
MODEL 3
REMARK VINA RESULT: -8.426782652     10.195     11.810
REMARK  5 active torsions:
REMARK  status: ('A' for Active; 'I' for Inactive)
REMARK       I    between atoms: N1_1  and  C1_4 
REMARK    1  A    between atoms: N3_6  and  C2_8 
REMARK    2  A    between atoms: C3_11  and  C4_12 
REMARK    3  A    between atoms: N7_17  and  C5_18 
REMARK    4  A    between atoms: C5_18  and  C6_19 
REMARK    5  A    between atoms: C12_25  and  C13_26 
ROOT
HETATM    1  C4  UNL     1      -1.564  19.650   2.342  1.00  0.00     0.101 A 
HETATM    2  N5  UNL     1      -1.963  19.793   1.048  1.00  0.00    -0.282 N 
ATOM      3  H5  UNL     1      -2.278  19.017   0.465  1.00  0.00     0.188 HD
HETATM    4  N6  UNL     1      -1.900  20.990   0.646  1.00  0.00    -0.240 N 
ATOM      5  H6  UNL     1      -2.150  21.317  -0.287  1.00  0.00     0.208 HD
HETATM    6  N7  UNL     1      -1.448  21.764   1.654  1.00  0.00    -0.279 N 
HETATM    7  C12 UNL     1      -1.242  20.931   2.699  1.00  0.00     0.064 A 
ENDROOT
BRANCH   1   8
HETATM    8  C3  UNL     1      -1.533  18.321   3.046  1.00  0.00     0.071 A 
HETATM    9  N4  UNL     1      -2.672  17.870   3.591  1.00  0.00    -0.334 N 
HETATM   10  C2  UNL     1      -2.719  16.719   4.207  1.00  0.00     0.151 A 
ATOM     11  H4  UNL     1      -3.517  18.437   3.524  1.00  0.00     0.168 HD
HETATM   12  S1  UNL     1      -1.101  16.140   4.069  1.00  0.00    -0.063 SA
HETATM   13  C19 UNL     1      -0.468  17.475   3.200  1.00  0.00     0.085 A 
BRANCH  10  14
HETATM   14  N3  UNL     1      -3.664  16.089   4.806  1.00  0.00    -0.311 N 
HETATM   15  C1  UNL     1      -3.902  15.713   6.097  1.00  0.00     0.187 C 
HETATM   16  N1  UNL     1      -4.970  14.985   6.350  1.00  0.00    -0.373 N 
HETATM   17  N2  UNL     1      -3.048  16.069   7.169  1.00  0.00    -0.064 NA
ATOM     18  H12 UNL     1      -5.149  14.704   7.315  1.00  0.00     0.158 HD
ATOM     19  H11 UNL     1      -5.585  14.729   5.579  1.00  0.00     0.158 HD
ATOM     20  H3  UNL     1      -4.409  15.804   4.170  1.00  0.00     0.170 HD
ENDBRANCH  10  14
ENDBRANCH   1   8
BRANCH   7  21
HETATM   21  C13 UNL     1      -0.822  21.282   4.078  1.00  0.00     0.040 C 
HETATM   22  C14 UNL     1      -1.639  20.735   5.216  1.00  0.00     0.011 C 
HETATM   23  C15 UNL     1      -1.179  21.388   6.546  1.00  0.00     0.001 C 
HETATM   24  C16 UNL     1       0.174  20.862   6.837  1.00  0.00     0.000 C 
HETATM   25  C17 UNL     1       0.710  20.052   5.692  1.00  0.00     0.001 C 
HETATM   26  C18 UNL     1       0.565  20.761   4.389  1.00  0.00     0.011 C 
ENDBRANCH   7  21
BRANCH   6  27
HETATM   27  C5  UNL     1      -1.247  23.168   1.525  1.00  0.00     0.155 C 
BRANCH  27  28
HETATM   28  C6  UNL     1       0.144  23.696   1.535  1.00  0.00     0.005 C 
HETATM   29  C7  UNL     1       0.163  25.150   1.115  1.00  0.00     0.006 C 
HETATM   30  C8  UNL     1       1.046  25.416  -0.073  1.00  0.00     0.000 C 
HETATM   31  C9  UNL     1       2.456  24.957   0.294  1.00  0.00     0.000 C 
HETATM   32  C10 UNL     1       2.448  23.538   0.806  1.00  0.00     0.000 C 
HETATM   33  C11 UNL     1       1.069  22.968   0.574  1.00  0.00     0.006 C 
ENDBRANCH  27  28
ENDBRANCH   6  27
TORSDOF 5
ENDMDL
MODEL 4
REMARK VINA RESULT: -8.308476808      7.999     10.581
REMARK  5 active torsions:
REMARK  status: ('A' for Active; 'I' for Inactive)
REMARK       I    between atoms: N1_1  and  C1_4 
REMARK    1  A    between atoms: N3_6  and  C2_8 
REMARK    2  A    between atoms: C3_11  and  C4_12 
REMARK    3  A    between atoms: N7_17  and  C5_18 
REMARK    4  A    between atoms: C5_18  and  C6_19 
REMARK    5  A    between atoms: C12_25  and  C13_26 
ROOT
HETATM    1  C4  UNL     1       2.266  20.693   4.282  1.00  0.00     0.101 A 
HETATM    2  N5  UNL     1       3.106  21.027   3.262  1.00  0.00    -0.282 N 
ATOM      3  H5  UNL     1       4.117  21.105   3.367  1.00  0.00     0.188 HD
HETATM    4  N6  UNL     1       2.497  21.230   2.174  1.00  0.00    -0.240 N 
ATOM      5  H6  UNL     1       2.933  21.491   1.290  1.00  0.00     0.208 HD
HETATM    6  N7  UNL     1       1.175  21.044   2.373  1.00  0.00    -0.279 N 
HETATM    7  C12 UNL     1       1.039  20.713   3.676  1.00  0.00     0.064 A 
ENDROOT
BRANCH   1   8
HETATM    8  C3  UNL     1       2.746  20.417   5.680  1.00  0.00     0.071 A 
HETATM    9  N4  UNL     1       1.981  19.651   6.470  1.00  0.00    -0.334 N 
HETATM   10  C2  UNL     1       2.344  19.362   7.692  1.00  0.00     0.151 A 
ATOM     11  H4  UNL     1       1.098  19.287   6.111  1.00  0.00     0.168 HD
HETATM   12  S1  UNL     1       3.857  20.173   7.847  1.00  0.00    -0.063 SA
HETATM   13  C19 UNL     1       3.904  20.846   6.271  1.00  0.00     0.085 A 
BRANCH  10  14
HETATM   14  N3  UNL     1       1.792  18.675   8.625  1.00  0.00    -0.311 N 
HETATM   15  C1  UNL     1       0.538  18.615   9.163  1.00  0.00     0.187 C 
HETATM   16  N1  UNL     1       0.338  17.825  10.198  1.00  0.00    -0.373 N 
HETATM   17  N2  UNL     1      -0.549  19.369   8.659  1.00  0.00    -0.064 NA
ATOM     18  H12 UNL     1      -0.599  17.780  10.600  1.00  0.00     0.158 HD
ATOM     19  H11 UNL     1       1.121  17.282  10.561  1.00  0.00     0.158 HD
ATOM     20  H3  UNL     1       2.440  18.022   9.067  1.00  0.00     0.170 HD
ENDBRANCH  10  14
ENDBRANCH   1   8
BRANCH   7  21
HETATM   21  C13 UNL     1      -0.200  20.326   4.396  1.00  0.00     0.040 C 
HETATM   22  C14 UNL     1      -1.113  21.429   4.855  1.00  0.00     0.011 C 
HETATM   23  C15 UNL     1      -2.221  20.840   5.768  1.00  0.00     0.001 C 
HETATM   24  C16 UNL     1      -3.105  20.028   4.900  1.00  0.00     0.000 C 
HETATM   25  C17 UNL     1      -2.545  19.892   3.514  1.00  0.00     0.001 C 
HETATM   26  C18 UNL     1      -1.111  19.486   3.527  1.00  0.00     0.011 C 
ENDBRANCH   7  21
BRANCH   6  27
HETATM   27  C5  UNL     1       0.204  21.210   1.344  1.00  0.00     0.155 C 
BRANCH  27  28
HETATM   28  C6  UNL     1      -0.120  22.587   0.882  1.00  0.00     0.005 C 
HETATM   29  C7  UNL     1       0.959  23.104  -0.044  1.00  0.00     0.006 C 
HETATM   30  C8  UNL     1       1.579  24.393   0.423  1.00  0.00     0.000 C 
HETATM   31  C9  UNL     1       0.456  25.421   0.548  1.00  0.00     0.000 C 
HETATM   32  C10 UNL     1      -0.676  24.889   1.391  1.00  0.00     0.000 C 
HETATM   33  C11 UNL     1      -0.219  23.592   2.017  1.00  0.00     0.006 C 
ENDBRANCH  27  28
ENDBRANCH   6  27
TORSDOF 5
ENDMDL
MODEL 5
REMARK VINA RESULT: -8.118029569      3.062      5.104
REMARK  5 active torsions:
REMARK  status: ('A' for Active; 'I' for Inactive)
REMARK       I    between atoms: N1_1  and  C1_4 
REMARK    1  A    between atoms: N3_6  and  C2_8 
REMARK    2  A    between atoms: C3_11  and  C4_12 
REMARK    3  A    between atoms: N7_17  and  C5_18 
REMARK    4  A    between atoms: C5_18  and  C6_19 
REMARK    5  A    between atoms: C12_25  and  C13_26 
ROOT
HETATM    1  C4  UNL     1       8.740  27.439   7.068  1.00  0.00     0.101 A 
HETATM    2  N5  UNL     1       8.453  28.732   7.390  1.00  0.00    -0.282 N 
ATOM      3  H5  UNL     1       9.061  29.320   7.961  1.00  0.00     0.188 HD
HETATM    4  N6  UNL     1       7.353  29.123   6.907  1.00  0.00    -0.240 N 
ATOM      5  H6  UNL     1       6.949  30.052   7.027  1.00  0.00     0.208 HD
HETATM    6  N7  UNL     1       6.800  28.111   6.207  1.00  0.00    -0.279 N 
HETATM    7  C12 UNL     1       7.661  27.074   6.309  1.00  0.00     0.064 A 
ENDROOT
BRANCH   1   8
HETATM    8  C3  UNL     1       9.985  26.737   7.536  1.00  0.00     0.071 A 
HETATM    9  N4  UNL     1       9.900  25.432   7.831  1.00  0.00    -0.334 N 
HETATM   10  C2  UNL     1      10.945  24.758   8.232  1.00  0.00     0.151 A 
ATOM     11  H4  UNL     1       9.001  24.957   7.742  1.00  0.00     0.168 HD
HETATM   12  S1  UNL     1      12.195  25.945   8.228  1.00  0.00    -0.063 SA
HETATM   13  C19 UNL     1      11.238  27.264   7.693  1.00  0.00     0.085 A 
BRANCH  10  14
HETATM   14  N3  UNL     1      11.112  23.533   8.577  1.00  0.00    -0.311 N 
HETATM   15  C1  UNL     1      10.308  22.430   8.628  1.00  0.00     0.187 C 
HETATM   16  N1  UNL     1      10.804  21.316   9.126  1.00  0.00    -0.373 N 
HETATM   17  N2  UNL     1       8.967  22.438   8.174  1.00  0.00    -0.064 NA
ATOM     18  H12 UNL     1      10.204  20.492   9.164  1.00  0.00     0.158 HD
ATOM     19  H11 UNL     1      11.770  21.311   9.453  1.00  0.00     0.158 HD
ATOM     20  H3  UNL     1      12.065  23.338   8.885  1.00  0.00     0.170 HD
ENDBRANCH  10  14
ENDBRANCH   1   8
BRANCH   7  21
HETATM   21  C13 UNL     1       7.572  25.744   5.658  1.00  0.00     0.040 C 
HETATM   22  C14 UNL     1       6.458  24.831   6.087  1.00  0.00     0.011 C 
HETATM   23  C15 UNL     1       6.668  23.426   5.461  1.00  0.00     0.001 C 
HETATM   24  C16 UNL     1       6.428  23.566   4.006  1.00  0.00     0.000 C 
HETATM   25  C17 UNL     1       6.260  25.004   3.609  1.00  0.00     0.001 C 
HETATM   26  C18 UNL     1       7.338  25.868   4.166  1.00  0.00     0.011 C 
ENDBRANCH   7  21
BRANCH   6  27
HETATM   27  C5  UNL     1       5.544  28.221   5.544  1.00  0.00     0.155 C 
BRANCH  27  28
HETATM   28  C6  UNL     1       4.316  28.400   6.365  1.00  0.00     0.005 C 
HETATM   29  C7  UNL     1       4.356  29.722   7.100  1.00  0.00     0.006 C 
HETATM   30  C8  UNL     1       4.229  29.581   8.592  1.00  0.00     0.000 C 
HETATM   31  C9  UNL     1       2.908  28.865   8.871  1.00  0.00     0.000 C 
HETATM   32  C10 UNL     1       2.804  27.588   8.075  1.00  0.00     0.000 C 
HETATM   33  C11 UNL     1       4.147  27.331   7.432  1.00  0.00     0.006 C 
ENDBRANCH  27  28
ENDBRANCH   6  27
TORSDOF 5
ENDMDL
