MODEL 1
REMARK VINA RESULT: -6.726373618      0.000      0.000
REMARK  7 active torsions:
REMARK  status: ('A' for Active; 'I' for Inactive)
REMARK    1  A    between atoms: C8_10  and  O3_11 
REMARK    2  A    between atoms: C8_10  and  C9_13 
REMARK    3  A    between atoms: C9_13  and  C10_14 
REMARK    4  A    between atoms: C10_14  and  C11_15 
REMARK    5  A    between atoms: C11_15  and  O4_16 
REMARK    6  A    between atoms: C15_21  and  C16_22 
REMARK    7  A    between atoms: C16_22  and  O5_23 
ROOT
HETATM    1  O1  UNL     1     -26.559   4.741 104.062  1.00  0.00    -0.298 OA
HETATM    2  C1  UNL     1     -25.483   5.044 103.594  1.00  0.00     0.128 C 
HETATM    3  C2  UNL     1     -24.223   4.416 104.078  1.00  0.00     0.086 C 
HETATM    4  C3  UNL     1     -23.123   4.842 103.094  1.00  0.00     0.040 C 
HETATM    5  C4  UNL     1     -23.563   4.527 101.717  1.00  0.00     0.005 C 
HETATM    6  C5  UNL     1     -22.496   4.328 100.689  1.00  0.00     0.013 C 
HETATM    7  C6  UNL     1     -21.085   4.483 101.196  1.00  0.00     0.082 C 
HETATM    8  C7  UNL     1     -20.892   3.916 102.539  1.00  0.00     0.162 C 
HETATM    9  O2  UNL     1     -19.884   3.252 102.695  1.00  0.00    -0.295 OA
HETATM   10  C8  UNL     1     -21.876   4.171 103.565  1.00  0.00     0.131 C 
HETATM   11  C12 UNL     1     -24.642   5.477 101.297  1.00  0.00    -0.008 C 
HETATM   12  C13 UNL     1     -24.245   6.657 100.501  1.00  0.00     0.015 C 
HETATM   13  C14 UNL     1     -24.764   6.570  99.095  1.00  0.00     0.035 C 
HETATM   14  C15 UNL     1     -26.241   6.418  99.079  1.00  0.00     0.145 C 
HETATM   15  O6  UNL     1     -26.695   5.707 100.190  1.00  0.00    -0.383 OA
HETATM   16  C17 UNL     1     -25.770   4.728 100.560  1.00  0.00     0.178 C 
HETATM   17  C18 UNL     1     -25.388   6.034 102.536  1.00  0.00     0.090 C 
ENDROOT
BRANCH  10  18
HETATM   18  O3  UNL     1     -21.271   5.091 104.473  1.00  0.00    -0.381 OA
ATOM     19  H3  UNL     1     -20.363   5.157 104.197  1.00  0.00     0.211 HD
ENDBRANCH  10  18
BRANCH  10  20
HETATM   20  C9  UNL     1     -22.111   2.958 104.417  1.00  0.00     0.128 C 
BRANCH  20  21
HETATM   21  C10 UNL     1     -21.421   2.544 105.420  1.00  0.00    -0.154 C 
BRANCH  21  22
HETATM   22  C11 UNL     1     -20.661   2.090 106.523  1.00  0.00     0.244 C 
BRANCH  22  23
HETATM   23  O4  UNL     1     -19.896   3.097 107.177  1.00  0.00    -0.390 OA
ATOM     24  H4  UNL     1     -19.249   3.525 106.629  1.00  0.00     0.210 HD
ENDBRANCH  22  23
ENDBRANCH  21  22
ENDBRANCH  20  21
ENDBRANCH  10  20
BRANCH  14  25
HETATM   25  C16 UNL     1     -26.721   5.612  97.878  1.00  0.00     0.196 C 
BRANCH  25  26
HETATM   26  O5  UNL     1     -26.001   5.948  96.737  1.00  0.00    -0.398 OA
ATOM     27  H5  UNL     1     -26.582   6.231  96.041  1.00  0.00     0.209 HD
ENDBRANCH  25  26
ENDBRANCH  14  25
TORSDOF 7
ENDMDL
MODEL 2
REMARK VINA RESULT: -6.543526543      2.073      3.356
REMARK  7 active torsions:
REMARK  status: ('A' for Active; 'I' for Inactive)
REMARK    1  A    between atoms: C8_10  and  O3_11 
REMARK    2  A    between atoms: C8_10  and  C9_13 
REMARK    3  A    between atoms: C9_13  and  C10_14 
REMARK    4  A    between atoms: C10_14  and  C11_15 
REMARK    5  A    between atoms: C11_15  and  O4_16 
REMARK    6  A    between atoms: C15_21  and  C16_22 
REMARK    7  A    between atoms: C16_22  and  O5_23 
ROOT
HETATM    1  O1  UNL     1     -20.811   6.567 103.251  1.00  0.00    -0.298 OA
HETATM    2  C1  UNL     1     -21.488   5.574 103.094  1.00  0.00     0.128 C 
HETATM    3  C2  UNL     1     -21.840   4.687 104.236  1.00  0.00     0.086 C 
HETATM    4  C3  UNL     1     -22.900   3.707 103.710  1.00  0.00     0.040 C 
HETATM    5  C4  UNL     1     -23.993   4.477 103.076  1.00  0.00     0.005 C 
HETATM    6  C5  UNL     1     -25.335   3.823 103.005  1.00  0.00     0.013 C 
HETATM    7  C6  UNL     1     -25.402   2.437 103.593  1.00  0.00     0.082 C 
HETATM    8  C7  UNL     1     -24.607   2.297 104.824  1.00  0.00     0.162 C 
HETATM    9  O2  UNL     1     -25.146   1.702 105.738  1.00  0.00    -0.295 OA
HETATM   10  C8  UNL     1     -23.276   2.853 104.874  1.00  0.00     0.131 C 
HETATM   11  C12 UNL     1     -23.524   5.046 101.773  1.00  0.00    -0.008 C 
HETATM   12  C13 UNL     1     -23.844   4.294 100.541  1.00  0.00     0.015 C 
HETATM   13  C14 UNL     1     -24.834   5.032  99.689  1.00  0.00     0.035 C 
HETATM   14  C15 UNL     1     -24.337   6.387  99.342  1.00  0.00     0.145 C 
HETATM   15  O6  UNL     1     -23.542   6.917 100.359  1.00  0.00    -0.383 OA
HETATM   16  C17 UNL     1     -24.004   6.503 101.611  1.00  0.00     0.178 C 
HETATM   17  C18 UNL     1     -21.984   5.218 101.776  1.00  0.00     0.090 C 
ENDROOT
BRANCH  10  18
HETATM   18  O3  UNL     1     -22.382   1.741 104.833  1.00  0.00    -0.381 OA
ATOM     19  H3  UNL     1     -22.639   1.183 105.558  1.00  0.00     0.211 HD
ENDBRANCH  10  18
BRANCH  10  20
HETATM   20  C9  UNL     1     -22.987   3.470 106.212  1.00  0.00     0.128 C 
BRANCH  20  21
HETATM   21  C10 UNL     1     -22.448   2.921 107.243  1.00  0.00    -0.154 C 
BRANCH  21  22
HETATM   22  C11 UNL     1     -21.855   2.316 108.375  1.00  0.00     0.244 C 
BRANCH  22  23
HETATM   23  O4  UNL     1     -22.776   1.730 109.290  1.00  0.00    -0.390 OA
ATOM     24  H4  UNL     1     -22.838   0.783 109.242  1.00  0.00     0.210 HD
ENDBRANCH  22  23
ENDBRANCH  21  22
ENDBRANCH  20  21
ENDBRANCH  10  20
BRANCH  14  25
HETATM   25  C16 UNL     1     -25.474   7.389  99.175  1.00  0.00     0.196 C 
BRANCH  25  26
HETATM   26  O5  UNL     1     -25.426   7.987  97.921  1.00  0.00    -0.398 OA
ATOM     27  H5  UNL     1     -25.379   8.932  98.000  1.00  0.00     0.209 HD
ENDBRANCH  25  26
ENDBRANCH  14  25
TORSDOF 7
ENDMDL
MODEL 3
REMARK VINA RESULT: -6.437351918      2.483      3.918
REMARK  7 active torsions:
REMARK  status: ('A' for Active; 'I' for Inactive)
REMARK    1  A    between atoms: C8_10  and  O3_11 
REMARK    2  A    between atoms: C8_10  and  C9_13 
REMARK    3  A    between atoms: C9_13  and  C10_14 
REMARK    4  A    between atoms: C10_14  and  C11_15 
REMARK    5  A    between atoms: C11_15  and  O4_16 
REMARK    6  A    between atoms: C15_21  and  C16_22 
REMARK    7  A    between atoms: C16_22  and  O5_23 
ROOT
HETATM    1  O1  UNL     1     -20.180   5.069 100.985  1.00  0.00    -0.298 OA
HETATM    2  C1  UNL     1     -21.176   4.638 101.526  1.00  0.00     0.128 C 
HETATM    3  C2  UNL     1     -21.089   3.649 102.635  1.00  0.00     0.086 C 
HETATM    4  C3  UNL     1     -22.502   3.542 103.228  1.00  0.00     0.040 C 
HETATM    5  C4  UNL     1     -22.989   4.900 103.556  1.00  0.00     0.005 C 
HETATM    6  C5  UNL     1     -24.040   5.011 104.613  1.00  0.00     0.013 C 
HETATM    7  C6  UNL     1     -24.480   3.702 105.215  1.00  0.00     0.082 C 
HETATM    8  C7  UNL     1     -23.368   2.759 105.415  1.00  0.00     0.162 C 
HETATM    9  O2  UNL     1     -23.351   2.177 106.483  1.00  0.00    -0.295 OA
HETATM   10  C8  UNL     1     -22.392   2.582 104.365  1.00  0.00     0.131 C 
HETATM   11  C12 UNL     1     -23.313   5.642 102.296  1.00  0.00    -0.008 C 
HETATM   12  C13 UNL     1     -24.722   5.651 101.849  1.00  0.00     0.015 C 
HETATM   13  C14 UNL     1     -25.325   7.020 101.964  1.00  0.00     0.035 C 
HETATM   14  C15 UNL     1     -24.540   8.017 101.192  1.00  0.00     0.145 C 
HETATM   15  O6  UNL     1     -23.183   7.694 101.170  1.00  0.00    -0.383 OA
HETATM   16  C17 UNL     1     -22.800   7.094 102.373  1.00  0.00     0.178 C 
HETATM   17  C18 UNL     1     -22.494   5.079 101.107  1.00  0.00     0.090 C 
ENDROOT
BRANCH  10  18
HETATM   18  O3  UNL     1     -22.649   1.296 103.801  1.00  0.00    -0.381 OA
ATOM     19  H3  UNL     1     -23.066   0.796 104.493  1.00  0.00     0.211 HD
ENDBRANCH  10  18
BRANCH  10  20
HETATM   20  C9  UNL     1     -21.005   2.439 104.921  1.00  0.00     0.128 C 
BRANCH  20  21
HETATM   21  C10 UNL     1     -20.657   2.129 106.120  1.00  0.00    -0.154 C 
BRANCH  21  22
HETATM   22  C11 UNL     1     -20.274   1.789 107.439  1.00  0.00     0.244 C 
BRANCH  22  23
HETATM   23  O4  UNL     1     -21.353   1.469 108.310  1.00  0.00    -0.390 OA
ATOM     24  H4  UNL     1     -21.483   0.540 108.459  1.00  0.00     0.210 HD
ENDBRANCH  22  23
ENDBRANCH  21  22
ENDBRANCH  20  21
ENDBRANCH  10  20
BRANCH  14  25
HETATM   25  C16 UNL     1     -24.601   9.404 101.822  1.00  0.00     0.196 C 
BRANCH  25  26
HETATM   26  O5  UNL     1     -25.355   9.386 102.988  1.00  0.00    -0.398 OA
ATOM     27  H5  UNL     1     -25.171   8.606 103.498  1.00  0.00     0.209 HD
ENDBRANCH  25  26
ENDBRANCH  14  25
TORSDOF 7
ENDMDL
MODEL 4
REMARK VINA RESULT: -6.395246256      1.701      3.284
REMARK  7 active torsions:
REMARK  status: ('A' for Active; 'I' for Inactive)
REMARK    1  A    between atoms: C8_10  and  O3_11 
REMARK    2  A    between atoms: C8_10  and  C9_13 
REMARK    3  A    between atoms: C9_13  and  C10_14 
REMARK    4  A    between atoms: C10_14  and  C11_15 
REMARK    5  A    between atoms: C11_15  and  O4_16 
REMARK    6  A    between atoms: C15_21  and  C16_22 
REMARK    7  A    between atoms: C16_22  and  O5_23 
ROOT
HETATM    1  O1  UNL     1     -20.238   5.168 101.235  1.00  0.00    -0.298 OA
HETATM    2  C1  UNL     1     -21.169   4.448 101.524  1.00  0.00     0.128 C 
HETATM    3  C2  UNL     1     -21.286   3.836 102.876  1.00  0.00     0.086 C 
HETATM    4  C3  UNL     1     -22.691   3.221 102.951  1.00  0.00     0.040 C 
HETATM    5  C4  UNL     1     -23.686   4.249 102.574  1.00  0.00     0.005 C 
HETATM    6  C5  UNL     1     -25.077   4.075 103.093  1.00  0.00     0.013 C 
HETATM    7  C6  UNL     1     -25.292   2.850 103.945  1.00  0.00     0.082 C 
HETATM    8  C7  UNL     1     -24.158   2.567 104.839  1.00  0.00     0.162 C 
HETATM    9  O2  UNL     1     -24.446   2.271 105.984  1.00  0.00    -0.295 OA
HETATM   10  C8  UNL     1     -22.812   2.650 104.324  1.00  0.00     0.131 C 
HETATM   11  C12 UNL     1     -23.616   4.509 101.101  1.00  0.00    -0.008 C 
HETATM   12  C13 UNL     1     -24.577   3.797 100.232  1.00  0.00     0.015 C 
HETATM   13  C14 UNL     1     -25.574   4.741  99.627  1.00  0.00     0.035 C 
HETATM   14  C15 UNL     1     -24.895   5.817  98.860  1.00  0.00     0.145 C 
HETATM   15  O6  UNL     1     -23.659   6.142  99.419  1.00  0.00    -0.383 OA
HETATM   16  C17 UNL     1     -23.700   6.021 100.810  1.00  0.00     0.178 C 
HETATM   17  C18 UNL     1     -22.209   4.158 100.553  1.00  0.00     0.090 C 
ENDROOT
BRANCH  10  18
HETATM   18  O3  UNL     1     -22.346   1.306 104.218  1.00  0.00    -0.381 OA
ATOM     19  H3  UNL     1     -23.099   0.761 104.414  1.00  0.00     0.211 HD
ENDBRANCH  10  18
BRANCH  10  20
HETATM   20  C9  UNL     1     -21.875   3.256 105.329  1.00  0.00     0.128 C 
BRANCH  20  21
HETATM   21  C10 UNL     1     -21.080   2.653 106.140  1.00  0.00    -0.154 C 
BRANCH  21  22
HETATM   22  C11 UNL     1     -20.206   1.989 107.032  1.00  0.00     0.244 C 
BRANCH  22  23
HETATM   23  O4  UNL     1     -19.058   2.740 107.413  1.00  0.00    -0.390 OA
ATOM     24  H4  UNL     1     -18.226   2.346 107.177  1.00  0.00     0.210 HD
ENDBRANCH  22  23
ENDBRANCH  21  22
ENDBRANCH  20  21
ENDBRANCH  10  20
BRANCH  14  25
HETATM   25  C16 UNL     1     -25.686   7.120  98.878  1.00  0.00     0.196 C 
BRANCH  25  26
HETATM   26  O5  UNL     1     -25.333   7.928  97.805  1.00  0.00    -0.398 OA
ATOM     27  H5  UNL     1     -25.035   8.778  98.105  1.00  0.00     0.209 HD
ENDBRANCH  25  26
ENDBRANCH  14  25
TORSDOF 7
ENDMDL
MODEL 5
REMARK VINA RESULT: -6.333533825      2.371      3.047
REMARK  7 active torsions:
REMARK  status: ('A' for Active; 'I' for Inactive)
REMARK    1  A    between atoms: C8_10  and  O3_11 
REMARK    2  A    between atoms: C8_10  and  C9_13 
REMARK    3  A    between atoms: C9_13  and  C10_14 
REMARK    4  A    between atoms: C10_14  and  C11_15 
REMARK    5  A    between atoms: C11_15  and  O4_16 
REMARK    6  A    between atoms: C15_21  and  C16_22 
REMARK    7  A    between atoms: C16_22  and  O5_23 
ROOT
HETATM    1  O1  UNL     1     -24.868   9.536 101.700  1.00  0.00    -0.298 OA
HETATM    2  C1  UNL     1     -24.142   8.615 101.392  1.00  0.00     0.128 C 
HETATM    3  C2  UNL     1     -23.093   8.111 102.320  1.00  0.00     0.086 C 
HETATM    4  C3  UNL     1     -22.568   6.804 101.708  1.00  0.00     0.040 C 
HETATM    5  C4  UNL     1     -23.714   5.914 101.418  1.00  0.00     0.005 C 
HETATM    6  C5  UNL     1     -23.439   4.446 101.357  1.00  0.00     0.013 C 
HETATM    7  C6  UNL     1     -22.004   4.055 101.597  1.00  0.00     0.082 C 
HETATM    8  C7  UNL     1     -21.359   4.856 102.650  1.00  0.00     0.162 C 
HETATM    9  O2  UNL     1     -20.688   4.235 103.453  1.00  0.00    -0.295 OA
HETATM   10  C8  UNL     1     -21.550   6.287 102.669  1.00  0.00     0.131 C 
HETATM   11  C12 UNL     1     -24.481   6.439 100.243  1.00  0.00    -0.008 C 
HETATM   12  C13 UNL     1     -24.179   5.863  98.916  1.00  0.00     0.015 C 
HETATM   13  C14 UNL     1     -25.329   5.052  98.396  1.00  0.00     0.035 C 
HETATM   14  C15 UNL     1     -26.570   5.864  98.328  1.00  0.00     0.145 C 
HETATM   15  O6  UNL     1     -26.607   6.827  99.337  1.00  0.00    -0.383 OA
HETATM   16  C17 UNL     1     -25.998   6.346 100.499  1.00  0.00     0.178 C 
HETATM   17  C18 UNL     1     -24.276   7.968 100.099  1.00  0.00     0.090 C 
ENDROOT
BRANCH  10  18
HETATM   18  O3  UNL     1     -20.310   6.856 102.250  1.00  0.00    -0.381 OA
ATOM     19  H3  UNL     1     -20.452   7.796 102.245  1.00  0.00     0.211 HD
ENDBRANCH  10  18
BRANCH  10  20
HETATM   20  C9  UNL     1     -21.705   6.803 104.070  1.00  0.00     0.128 C 
BRANCH  20  21
HETATM   21  C10 UNL     1     -20.798   7.283 104.846  1.00  0.00    -0.154 C 
BRANCH  21  22
HETATM   22  C11 UNL     1     -19.801   7.810 105.699  1.00  0.00     0.244 C 
BRANCH  22  23
HETATM   23  O4  UNL     1     -19.469   6.984 106.811  1.00  0.00    -0.390 OA
ATOM     24  H4  UNL     1     -19.139   7.451 107.570  1.00  0.00     0.210 HD
ENDBRANCH  22  23
ENDBRANCH  21  22
ENDBRANCH  20  21
ENDBRANCH  10  20
BRANCH  14  25
HETATM   25  C16 UNL     1     -27.820   5.019  98.549  1.00  0.00     0.196 C 
BRANCH  25  26
HETATM   26  O5  UNL     1     -27.497   3.670  98.629  1.00  0.00    -0.398 OA
ATOM     27  H5  UNL     1     -27.981   3.168  97.984  1.00  0.00     0.209 HD
ENDBRANCH  25  26
ENDBRANCH  14  25
TORSDOF 7
ENDMDL
