MODEL 1
REMARK VINA RESULT: -5.981730448      0.000      0.000
REMARK  6 active torsions:
REMARK  status: ('A' for Active; 'I' for Inactive)
REMARK    1  A    between atoms: C2_2  and  O1_3 
REMARK    2  A    between atoms: C2_2  and  C3_5 
REMARK    3  A    between atoms: C3_5  and  O2_6 
REMARK    4  A    between atoms: O2_6  and  C4_7 
REMARK    5  A    between atoms: C11_16  and  O5_17 
REMARK    6  A    between atoms: C12_19  and  O6_20 
ROOT
HETATM    1  C4  UNL     1     -20.958   2.275 104.113  1.00  0.00     0.294 C 
HETATM    2  O3  UNL     1     -20.060   3.363 104.051  1.00  0.00    -0.328 OA
HETATM    3  C5  UNL     1     -20.570   4.494 103.515  1.00  0.00     0.270 C 
HETATM    4  O4  UNL     1     -20.734   5.434 104.547  1.00  0.00    -0.357 OA
HETATM    5  C6  UNL     1     -20.007   6.597 104.325  1.00  0.00     0.198 C 
HETATM    6  C7  UNL     1     -20.380   7.128 102.973  1.00  0.00    -0.005 C 
HETATM    7  C8  UNL     1     -21.410   6.787 102.186  1.00  0.00    -0.028 C 
HETATM    8  C9  UNL     1     -22.426   5.760 102.531  1.00  0.00     0.039 C 
HETATM    9  C10 UNL     1     -21.784   4.372 102.673  1.00  0.00     0.076 C 
HETATM   10  C11 UNL     1     -22.843   3.457 103.174  1.00  0.00     0.160 C 
HETATM   11  C12 UNL     1     -22.314   2.828 104.457  1.00  0.00     0.202 C 
ENDROOT
BRANCH   1  12
HETATM   12  O2  UNL     1     -20.521   1.478 105.071  1.00  0.00    -0.356 OA
BRANCH  12  13
HETATM   13  C3  UNL     1     -19.600   1.730 105.964  1.00  0.00     0.202 C 
BRANCH  13  14
HETATM   14  C2  UNL     1     -19.792   2.413 107.240  1.00  0.00     0.138 C 
HETATM   15  C1  UNL     1     -21.175   2.126 107.863  1.00  0.00     0.041 C 
BRANCH  14  16
HETATM   16  O1  UNL     1     -19.857   3.824 107.037  1.00  0.00    -0.394 OA
ATOM     17  H1  UNL     1     -19.175   3.955 106.389  1.00  0.00     0.210 HD
ENDBRANCH  14  16
ENDBRANCH  13  14
ENDBRANCH  12  13
ENDBRANCH   1  12
BRANCH  11  18
HETATM   18  O6  UNL     1     -23.240   1.911 104.869  1.00  0.00    -0.388 OA
ATOM     19  H6  UNL     1     -24.143   2.107 104.644  1.00  0.00     0.210 HD
ENDBRANCH  11  18
BRANCH  10  20
HETATM   20  O5  UNL     1     -24.053   4.108 103.430  1.00  0.00    -0.392 OA
ATOM     21  H5  UNL     1     -24.409   3.908 104.288  1.00  0.00     0.210 HD
ENDBRANCH  10  20
TORSDOF 6
ENDMDL
MODEL 2
REMARK VINA RESULT: -5.881028972      2.746      4.023
REMARK  6 active torsions:
REMARK  status: ('A' for Active; 'I' for Inactive)
REMARK    1  A    between atoms: C2_2  and  O1_3 
REMARK    2  A    between atoms: C2_2  and  C3_5 
REMARK    3  A    between atoms: C3_5  and  O2_6 
REMARK    4  A    between atoms: O2_6  and  C4_7 
REMARK    5  A    between atoms: C11_16  and  O5_17 
REMARK    6  A    between atoms: C12_19  and  O6_20 
ROOT
HETATM    1  C4  UNL     1     -20.409   5.975 103.177  1.00  0.00     0.294 C 
HETATM    2  O3  UNL     1     -21.558   6.795 103.139  1.00  0.00    -0.328 OA
HETATM    3  C5  UNL     1     -22.433   6.505 102.151  1.00  0.00     0.270 C 
HETATM    4  O4  UNL     1     -23.574   5.924 102.730  1.00  0.00    -0.357 OA
HETATM    5  C6  UNL     1     -24.730   6.647 102.467  1.00  0.00     0.198 C 
HETATM    6  C7  UNL     1     -24.841   6.820 100.982  1.00  0.00    -0.005 C 
HETATM    7  C8  UNL     1     -24.172   6.193 100.004  1.00  0.00    -0.028 C 
HETATM    8  C9  UNL     1     -23.138   5.151 100.231  1.00  0.00     0.039 C 
HETATM    9  C10 UNL     1     -21.935   5.724 100.994  1.00  0.00     0.076 C 
HETATM   10  C11 UNL     1     -21.040   4.579 101.311  1.00  0.00     0.160 C 
HETATM   11  C12 UNL     1     -20.839   4.578 102.821  1.00  0.00     0.202 C 
ENDROOT
BRANCH   1  12
HETATM   12  O2  UNL     1     -19.951   6.023 104.415  1.00  0.00    -0.356 OA
BRANCH  12  13
HETATM   13  C3  UNL     1     -19.557   7.075 105.082  1.00  0.00     0.202 C 
BRANCH  13  14
HETATM   14  C2  UNL     1     -19.043   7.094 106.449  1.00  0.00     0.138 C 
HETATM   15  C1  UNL     1     -17.534   7.415 106.510  1.00  0.00     0.041 C 
BRANCH  14  16
HETATM   16  O1  UNL     1     -19.079   5.780 107.004  1.00  0.00    -0.394 OA
ATOM     17  H1  UNL     1     -19.594   5.313 106.357  1.00  0.00     0.210 HD
ENDBRANCH  14  16
ENDBRANCH  13  14
ENDBRANCH  12  13
ENDBRANCH   1  12
BRANCH  11  18
HETATM   18  O6  UNL     1     -19.939   3.590 103.109  1.00  0.00    -0.388 OA
ATOM     19  H6  UNL     1     -19.987   2.817 102.558  1.00  0.00     0.210 HD
ENDBRANCH  11  18
BRANCH  10  20
HETATM   20  O5  UNL     1     -21.562   3.348 100.903  1.00  0.00    -0.392 OA
ATOM     21  H5  UNL     1     -21.010   2.901 100.272  1.00  0.00     0.210 HD
ENDBRANCH  10  20
TORSDOF 6
ENDMDL
MODEL 3
REMARK VINA RESULT: -5.732600460      2.438      3.766
REMARK  6 active torsions:
REMARK  status: ('A' for Active; 'I' for Inactive)
REMARK    1  A    between atoms: C2_2  and  O1_3 
REMARK    2  A    between atoms: C2_2  and  C3_5 
REMARK    3  A    between atoms: C3_5  and  O2_6 
REMARK    4  A    between atoms: O2_6  and  C4_7 
REMARK    5  A    between atoms: C11_16  and  O5_17 
REMARK    6  A    between atoms: C12_19  and  O6_20 
ROOT
HETATM    1  C4  UNL     1     -22.047   5.179 102.743  1.00  0.00     0.294 C 
HETATM    2  O3  UNL     1     -22.036   6.583 102.897  1.00  0.00    -0.328 OA
HETATM    3  C5  UNL     1     -22.646   7.270 101.906  1.00  0.00     0.270 C 
HETATM    4  O4  UNL     1     -23.844   7.802 102.412  1.00  0.00    -0.357 OA
HETATM    5  C6  UNL     1     -23.888   9.188 102.328  1.00  0.00     0.198 C 
HETATM    6  C7  UNL     1     -23.621   9.575 100.904  1.00  0.00    -0.005 C 
HETATM    7  C8  UNL     1     -23.621   8.808  99.805  1.00  0.00    -0.028 C 
HETATM    8  C9  UNL     1     -23.900   7.349  99.800  1.00  0.00     0.039 C 
HETATM    9  C10 UNL     1     -22.845   6.581 100.609  1.00  0.00     0.076 C 
HETATM   10  C11 UNL     1     -23.301   5.167 100.678  1.00  0.00     0.160 C 
HETATM   11  C12 UNL     1     -23.379   4.799 102.155  1.00  0.00     0.202 C 
ENDROOT
BRANCH   1  12
HETATM   12  O2  UNL     1     -21.905   4.665 103.950  1.00  0.00    -0.356 OA
BRANCH  12  13
HETATM   13  C3  UNL     1     -20.961   3.866 104.374  1.00  0.00     0.202 C 
BRANCH  13  14
HETATM   14  C2  UNL     1     -21.056   2.419 104.538  1.00  0.00     0.138 C 
HETATM   15  C1  UNL     1     -20.526   1.647 103.311  1.00  0.00     0.041 C 
BRANCH  14  16
HETATM   16  O1  UNL     1     -22.425   2.017 104.559  1.00  0.00    -0.394 OA
ATOM     17  H1  UNL     1     -22.862   2.837 104.759  1.00  0.00     0.210 HD
ENDBRANCH  14  16
ENDBRANCH  13  14
ENDBRANCH  12  13
ENDBRANCH   1  12
BRANCH  11  18
HETATM   18  O6  UNL     1     -23.701   3.472 102.225  1.00  0.00    -0.388 OA
ATOM     19  H6  UNL     1     -24.072   3.097 101.434  1.00  0.00     0.210 HD
ENDBRANCH  11  18
BRANCH  10  20
HETATM   20  O5  UNL     1     -24.545   4.963 100.073  1.00  0.00    -0.392 OA
ATOM     21  H5  UNL     1     -24.667   5.485  99.289  1.00  0.00     0.210 HD
ENDBRANCH  10  20
TORSDOF 6
ENDMDL
MODEL 4
REMARK VINA RESULT: -5.732517405      2.349      3.221
REMARK  6 active torsions:
REMARK  status: ('A' for Active; 'I' for Inactive)
REMARK    1  A    between atoms: C2_2  and  O1_3 
REMARK    2  A    between atoms: C2_2  and  C3_5 
REMARK    3  A    between atoms: C3_5  and  O2_6 
REMARK    4  A    between atoms: O2_6  and  C4_7 
REMARK    5  A    between atoms: C11_16  and  O5_17 
REMARK    6  A    between atoms: C12_19  and  O6_20 
ROOT
HETATM    1  C4  UNL     1     -22.014   4.878 102.880  1.00  0.00     0.294 C 
HETATM    2  O3  UNL     1     -22.002   6.269 103.128  1.00  0.00    -0.328 OA
HETATM    3  C5  UNL     1     -22.566   7.025 102.160  1.00  0.00     0.270 C 
HETATM    4  O4  UNL     1     -23.781   7.532 102.650  1.00  0.00    -0.357 OA
HETATM    5  C6  UNL     1     -23.814   8.920 102.656  1.00  0.00     0.198 C 
HETATM    6  C7  UNL     1     -23.485   9.399 101.273  1.00  0.00    -0.005 C 
HETATM    7  C8  UNL     1     -23.442   8.706 100.126  1.00  0.00    -0.028 C 
HETATM    8  C9  UNL     1     -23.729   7.253 100.013  1.00  0.00     0.039 C 
HETATM    9  C10 UNL     1     -22.713   6.425 100.812  1.00  0.00     0.076 C 
HETATM   10  C11 UNL     1     -23.178   5.013 100.769  1.00  0.00     0.160 C 
HETATM   11  C12 UNL     1     -23.321   4.549 102.214  1.00  0.00     0.202 C 
ENDROOT
BRANCH   1  12
HETATM   12  O2  UNL     1     -21.926   4.284 104.056  1.00  0.00    -0.356 OA
BRANCH  12  13
HETATM   13  C3  UNL     1     -20.865   3.756 104.609  1.00  0.00     0.202 C 
BRANCH  13  14
HETATM   14  C2  UNL     1     -20.775   3.195 105.953  1.00  0.00     0.138 C 
HETATM   15  C1  UNL     1     -22.092   3.342 106.746  1.00  0.00     0.041 C 
BRANCH  14  16
HETATM   16  O1  UNL     1     -19.875   3.967 106.747  1.00  0.00    -0.394 OA
ATOM     17  H1  UNL     1     -19.150   4.093 106.147  1.00  0.00     0.210 HD
ENDBRANCH  14  16
ENDBRANCH  13  14
ENDBRANCH  12  13
ENDBRANCH   1  12
BRANCH  11  18
HETATM   18  O6  UNL     1     -23.652   3.223 102.181  1.00  0.00    -0.388 OA
ATOM     19  H6  UNL     1     -24.540   3.027 101.903  1.00  0.00     0.210 HD
ENDBRANCH  11  18
BRANCH  10  20
HETATM   20  O5  UNL     1     -24.396   4.859 100.100  1.00  0.00    -0.392 OA
ATOM     21  H5  UNL     1     -25.053   4.412 100.621  1.00  0.00     0.210 HD
ENDBRANCH  10  20
TORSDOF 6
ENDMDL
MODEL 5
REMARK VINA RESULT: -5.571157176      3.698      5.469
REMARK  6 active torsions:
REMARK  status: ('A' for Active; 'I' for Inactive)
REMARK    1  A    between atoms: C2_2  and  O1_3 
REMARK    2  A    between atoms: C2_2  and  C3_5 
REMARK    3  A    between atoms: C3_5  and  O2_6 
REMARK    4  A    between atoms: O2_6  and  C4_7 
REMARK    5  A    between atoms: C11_16  and  O5_17 
REMARK    6  A    between atoms: C12_19  and  O6_20 
ROOT
HETATM    1  C4  UNL     1     -22.680   5.911 101.092  1.00  0.00     0.294 C 
HETATM    2  O3  UNL     1     -23.118   6.489  99.880  1.00  0.00    -0.328 OA
HETATM    3  C5  UNL     1     -23.977   7.523 100.020  1.00  0.00     0.270 C 
HETATM    4  O4  UNL     1     -23.303   8.706  99.671  1.00  0.00    -0.357 OA
HETATM    5  C6  UNL     1     -23.911   9.372  98.615  1.00  0.00     0.198 C 
HETATM    6  C7  UNL     1     -25.351   9.592  98.971  1.00  0.00    -0.005 C 
HETATM    7  C8  UNL     1     -25.956   9.471 100.161  1.00  0.00    -0.028 C 
HETATM    8  C9  UNL     1     -25.267   9.074 101.415  1.00  0.00     0.039 C 
HETATM    9  C10 UNL     1     -24.700   7.651 101.308  1.00  0.00     0.076 C 
HETATM   10  C11 UNL     1     -23.899   7.412 102.538  1.00  0.00     0.160 C 
HETATM   11  C12 UNL     1     -22.496   7.026 102.085  1.00  0.00     0.202 C 
ENDROOT
BRANCH   1  12
HETATM   12  O2  UNL     1     -21.528   5.320 100.834  1.00  0.00    -0.356 OA
BRANCH  12  13
HETATM   13  C3  UNL     1     -21.236   4.050 100.948  1.00  0.00     0.202 C 
BRANCH  13  14
HETATM   14  C2  UNL     1     -20.384   3.444 101.967  1.00  0.00     0.138 C 
HETATM   15  C1  UNL     1     -21.125   2.375 102.799  1.00  0.00     0.041 C 
BRANCH  14  16
HETATM   16  O1  UNL     1     -20.053   4.407 102.966  1.00  0.00    -0.394 OA
ATOM     17  H1  UNL     1     -19.916   3.854 103.727  1.00  0.00     0.210 HD
ENDBRANCH  14  16
ENDBRANCH  13  14
ENDBRANCH  12  13
ENDBRANCH   1  12
BRANCH  11  18
HETATM   18  O6  UNL     1     -21.782   6.708 103.207  1.00  0.00    -0.388 OA
ATOM     19  H6  UNL     1     -21.776   5.788 103.444  1.00  0.00     0.210 HD
ENDBRANCH  11  18
BRANCH  10  20
HETATM   20  O5  UNL     1     -23.834   8.531 103.374  1.00  0.00    -0.392 OA
ATOM     21  H5  UNL     1     -22.955   8.712 103.685  1.00  0.00     0.210 HD
ENDBRANCH  10  20
TORSDOF 6
ENDMDL
