MODEL 1
REMARK VINA RESULT: -5.483148094      0.000      0.000
REMARK  7 active torsions:
REMARK  status: ('A' for Active; 'I' for Inactive)
REMARK    1  A    between atoms: O1_2  and  C2_3 
REMARK    2  A    between atoms: C3_4  and  O2_5 
REMARK    3  A    between atoms: C4_7  and  O3_8 
REMARK    4  A    between atoms: C5_10  and  O4_11 
REMARK    5  A    between atoms: C6_13  and  C7_14 
REMARK    6  A    between atoms: C7_14  and  O5_17 
REMARK    7  A    between atoms: C10_19  and  O6_20 
ROOT
HETATM    1  C2  UNL     1     -25.235   6.321 100.470  1.00  0.00     0.181 C 
HETATM    2  C3  UNL     1     -26.253   7.201  99.856  1.00  0.00     0.180 C 
HETATM    3  C4  UNL     1     -25.762   8.046  98.724  1.00  0.00     0.178 C 
HETATM    4  C5  UNL     1     -24.517   8.808  99.007  1.00  0.00     0.159 C 
HETATM    5  C6  UNL     1     -23.539   8.131  99.921  1.00  0.00     0.082 C 
HETATM    6  C10 UNL     1     -23.810   6.710 100.221  1.00  0.00     0.162 C 
ENDROOT
BRANCH   5   7
HETATM    7  C7  UNL     1     -23.144   8.987 101.098  1.00  0.00     0.059 C 
HETATM    8  C8  UNL     1     -24.257   9.546 101.913  1.00  0.00     0.046 C 
HETATM    9  C9  UNL     1     -22.293   8.149 102.033  1.00  0.00     0.046 C 
BRANCH   7  10
HETATM   10  O5  UNL     1     -22.316  10.017 100.645  1.00  0.00    -0.390 OA
ATOM     11  H5  UNL     1     -21.509  10.003 101.147  1.00  0.00     0.210 HD
ENDBRANCH   7  10
ENDBRANCH   5   7
BRANCH   4  12
HETATM   12  O4  UNL     1     -23.955   9.253  97.812  1.00  0.00    -0.392 OA
ATOM     13  H4  UNL     1     -23.527  10.089  97.950  1.00  0.00     0.210 HD
ENDBRANCH   4  12
BRANCH   6  14
HETATM   14  O6  UNL     1     -23.336   5.837  99.220  1.00  0.00    -0.387 OA
HETATM   15  C11 UNL     1     -22.499   4.871  99.683  1.00  0.00     0.202 C 
ENDBRANCH   6  14
BRANCH   3  16
HETATM   16  O3  UNL     1     -26.793   8.901  98.331  1.00  0.00    -0.390 OA
ATOM     17  H3  UNL     1     -26.437   9.776  98.229  1.00  0.00     0.210 HD
ENDBRANCH   3  16
BRANCH   1  18
HETATM   18  O1  UNL     1     -25.456   6.297 101.845  1.00  0.00    -0.385 OA
HETATM   19  C1  UNL     1     -24.557   5.536 102.545  1.00  0.00     0.202 C 
ENDBRANCH   1  18
BRANCH   2  20
HETATM   20  O2  UNL     1     -27.353   6.441  99.467  1.00  0.00    -0.390 OA
ATOM     21  H2  UNL     1     -27.349   6.334  98.523  1.00  0.00     0.210 HD
ENDBRANCH   2  20
TORSDOF 7
ENDMDL
MODEL 2
REMARK VINA RESULT: -5.476062856      3.799      6.637
REMARK  7 active torsions:
REMARK  status: ('A' for Active; 'I' for Inactive)
REMARK    1  A    between atoms: O1_2  and  C2_3 
REMARK    2  A    between atoms: C3_4  and  O2_5 
REMARK    3  A    between atoms: C4_7  and  O3_8 
REMARK    4  A    between atoms: C5_10  and  O4_11 
REMARK    5  A    between atoms: C6_13  and  C7_14 
REMARK    6  A    between atoms: C7_14  and  O5_17 
REMARK    7  A    between atoms: C10_19  and  O6_20 
ROOT
HETATM    1  C2  UNL     1     -22.225   5.044 102.237  1.00  0.00     0.181 C 
HETATM    2  C3  UNL     1     -20.902   4.594 102.717  1.00  0.00     0.180 C 
HETATM    3  C4  UNL     1     -20.714   3.110 102.766  1.00  0.00     0.178 C 
HETATM    4  C5  UNL     1     -21.800   2.366 103.457  1.00  0.00     0.159 C 
HETATM    5  C6  UNL     1     -23.175   2.948 103.313  1.00  0.00     0.082 C 
HETATM    6  C10 UNL     1     -23.321   4.025 102.313  1.00  0.00     0.162 C 
ENDROOT
BRANCH   5   7
HETATM    7  C7  UNL     1     -23.855   3.186 104.639  1.00  0.00     0.059 C 
HETATM    8  C8  UNL     1     -24.893   2.196 105.037  1.00  0.00     0.046 C 
HETATM    9  C9  UNL     1     -22.797   3.175 105.725  1.00  0.00     0.046 C 
BRANCH   7  10
HETATM   10  O5  UNL     1     -24.394   4.475 104.640  1.00  0.00    -0.390 OA
ATOM     11  H5  UNL     1     -23.722   5.087 104.363  1.00  0.00     0.210 HD
ENDBRANCH   7  10
ENDBRANCH   5   7
BRANCH   4  12
HETATM   12  O4  UNL     1     -21.724   1.013 103.132  1.00  0.00    -0.392 OA
ATOM     13  H4  UNL     1     -21.257   0.545 103.814  1.00  0.00     0.210 HD
ENDBRANCH   4  12
BRANCH   6  14
HETATM   14  O6  UNL     1     -23.492   3.537 101.001  1.00  0.00    -0.387 OA
HETATM   15  C11 UNL     1     -23.289   4.471 100.035  1.00  0.00     0.202 C 
ENDBRANCH   6  14
BRANCH   3  16
HETATM   16  O3  UNL     1     -19.474   2.840 103.346  1.00  0.00    -0.390 OA
ATOM     17  H3  UNL     1     -18.793   3.143 102.757  1.00  0.00     0.210 HD
ENDBRANCH   3  16
BRANCH   1  18
HETATM   18  O1  UNL     1     -22.601   6.157 102.985  1.00  0.00    -0.385 OA
HETATM   19  C1  UNL     1     -22.658   7.323 102.267  1.00  0.00     0.202 C 
ENDBRANCH   1  18
BRANCH   2  20
HETATM   20  O2  UNL     1     -19.900   5.195 101.957  1.00  0.00    -0.390 OA
ATOM     21  H2  UNL     1     -19.065   5.103 102.401  1.00  0.00     0.210 HD
ENDBRANCH   2  20
TORSDOF 7
ENDMDL
MODEL 3
REMARK VINA RESULT: -5.311942789      6.230      8.329
REMARK  7 active torsions:
REMARK  status: ('A' for Active; 'I' for Inactive)
REMARK    1  A    between atoms: O1_2  and  C2_3 
REMARK    2  A    between atoms: C3_4  and  O2_5 
REMARK    3  A    between atoms: C4_7  and  O3_8 
REMARK    4  A    between atoms: C5_10  and  O4_11 
REMARK    5  A    between atoms: C6_13  and  C7_14 
REMARK    6  A    between atoms: C7_14  and  O5_17 
REMARK    7  A    between atoms: C10_19  and  O6_20 
ROOT
HETATM    1  C2  UNL     1     -21.444   2.917 106.796  1.00  0.00     0.181 C 
HETATM    2  C3  UNL     1     -20.317   3.831 107.080  1.00  0.00     0.180 C 
HETATM    3  C4  UNL     1     -20.297   5.087 106.268  1.00  0.00     0.178 C 
HETATM    4  C5  UNL     1     -20.447   4.885 104.802  1.00  0.00     0.159 C 
HETATM    5  C6  UNL     1     -21.323   3.738 104.395  1.00  0.00     0.082 C 
HETATM    6  C10 UNL     1     -22.118   3.115 105.473  1.00  0.00     0.162 C 
ENDROOT
BRANCH   5   7
HETATM    7  C7  UNL     1     -20.640   2.783 103.447  1.00  0.00     0.059 C 
HETATM    8  C8  UNL     1     -21.257   1.436 103.307  1.00  0.00     0.046 C 
HETATM    9  C9  UNL     1     -20.630   3.409 102.066  1.00  0.00     0.046 C 
BRANCH   7  10
HETATM   10  O5  UNL     1     -19.299   2.662 103.824  1.00  0.00    -0.390 OA
ATOM     11  H5  UNL     1     -18.778   2.501 103.046  1.00  0.00     0.210 HD
ENDBRANCH   7  10
ENDBRANCH   5   7
BRANCH   4  12
HETATM   12  O4  UNL     1     -20.783   6.093 104.193  1.00  0.00    -0.392 OA
ATOM     13  H4  UNL     1     -20.657   6.024 103.254  1.00  0.00     0.210 HD
ENDBRANCH   4  12
BRANCH   6  14
HETATM   14  O6  UNL     1     -23.315   3.809 105.745  1.00  0.00    -0.387 OA
HETATM   15  C11 UNL     1     -24.351   3.458 104.939  1.00  0.00     0.202 C 
ENDBRANCH   6  14
BRANCH   3  16
HETATM   16  O3  UNL     1     -19.123   5.783 106.559  1.00  0.00    -0.390 OA
ATOM     17  H3  UNL     1     -19.209   6.172 107.422  1.00  0.00     0.210 HD
ENDBRANCH   3  16
BRANCH   1  18
HETATM   18  O1  UNL     1     -20.968   1.609 106.861  1.00  0.00    -0.385 OA
HETATM   19  C1  UNL     1     -19.607   1.513 106.991  1.00  0.00     0.202 C 
ENDBRANCH   1  18
BRANCH   2  20
HETATM   20  O2  UNL     1     -20.283   4.121 108.442  1.00  0.00    -0.390 OA
ATOM     21  H2  UNL     1     -19.437   4.490 108.668  1.00  0.00     0.210 HD
ENDBRANCH   2  20
TORSDOF 7
ENDMDL
MODEL 4
REMARK VINA RESULT: -5.268477497      4.742      7.412
REMARK  7 active torsions:
REMARK  status: ('A' for Active; 'I' for Inactive)
REMARK    1  A    between atoms: O1_2  and  C2_3 
REMARK    2  A    between atoms: C3_4  and  O2_5 
REMARK    3  A    between atoms: C4_7  and  O3_8 
REMARK    4  A    between atoms: C5_10  and  O4_11 
REMARK    5  A    between atoms: C6_13  and  C7_14 
REMARK    6  A    between atoms: C7_14  and  O5_17 
REMARK    7  A    between atoms: C10_19  and  O6_20 
ROOT
HETATM    1  C2  UNL     1     -23.345   3.001 105.305  1.00  0.00     0.181 C 
HETATM    2  C3  UNL     1     -22.127   3.108 106.137  1.00  0.00     0.180 C 
HETATM    3  C4  UNL     1     -21.137   4.135 105.686  1.00  0.00     0.178 C 
HETATM    4  C5  UNL     1     -20.779   4.066 104.245  1.00  0.00     0.159 C 
HETATM    5  C6  UNL     1     -21.879   3.626 103.326  1.00  0.00     0.082 C 
HETATM    6  C10 UNL     1     -23.230   3.558 103.919  1.00  0.00     0.162 C 
ENDROOT
BRANCH   5   7
HETATM    7  C7  UNL     1     -21.486   2.459 102.454  1.00  0.00     0.059 C 
HETATM    8  C8  UNL     1     -20.900   1.281 103.151  1.00  0.00     0.046 C 
HETATM    9  C9  UNL     1     -22.723   1.970 101.727  1.00  0.00     0.046 C 
BRANCH   7  10
HETATM   10  O5  UNL     1     -20.612   2.915 101.463  1.00  0.00    -0.390 OA
ATOM     11  H5  UNL     1     -20.402   2.190 100.886  1.00  0.00     0.210 HD
ENDBRANCH   7  10
ENDBRANCH   5   7
BRANCH   4  12
HETATM   12  O4  UNL     1     -20.163   5.254 103.856  1.00  0.00    -0.392 OA
ATOM     13  H4  UNL     1     -19.262   5.262 104.157  1.00  0.00     0.210 HD
ENDBRANCH   4  12
BRANCH   6  14
HETATM   14  O6  UNL     1     -23.882   4.809 103.946  1.00  0.00    -0.387 OA
HETATM   15  C11 UNL     1     -24.179   5.302 102.715  1.00  0.00     0.202 C 
ENDBRANCH   6  14
BRANCH   3  16
HETATM   16  O3  UNL     1     -20.000   4.036 106.490  1.00  0.00    -0.390 OA
ATOM     17  H3  UNL     1     -19.332   4.613 106.138  1.00  0.00     0.210 HD
ENDBRANCH   3  16
BRANCH   1  18
HETATM   18  O1  UNL     1     -23.691   1.655 105.216  1.00  0.00    -0.385 OA
HETATM   19  C1  UNL     1     -24.942   1.431 104.703  1.00  0.00     0.202 C 
ENDBRANCH   1  18
BRANCH   2  20
HETATM   20  O2  UNL     1     -22.488   3.317 107.467  1.00  0.00    -0.390 OA
ATOM     21  H2  UNL     1     -21.720   3.235 108.021  1.00  0.00     0.210 HD
ENDBRANCH   2  20
TORSDOF 7
ENDMDL
MODEL 5
REMARK VINA RESULT: -5.232920294      4.592      7.386
REMARK  7 active torsions:
REMARK  status: ('A' for Active; 'I' for Inactive)
REMARK    1  A    between atoms: O1_2  and  C2_3 
REMARK    2  A    between atoms: C3_4  and  O2_5 
REMARK    3  A    between atoms: C4_7  and  O3_8 
REMARK    4  A    between atoms: C5_10  and  O4_11 
REMARK    5  A    between atoms: C6_13  and  C7_14 
REMARK    6  A    between atoms: C7_14  and  O5_17 
REMARK    7  A    between atoms: C10_19  and  O6_20 
ROOT
HETATM    1  C2  UNL     1     -21.100   4.641 103.181  1.00  0.00     0.181 C 
HETATM    2  C3  UNL     1     -21.096   3.944 104.485  1.00  0.00     0.180 C 
HETATM    3  C4  UNL     1     -20.558   2.548 104.457  1.00  0.00     0.178 C 
HETATM    4  C5  UNL     1     -21.140   1.676 103.402  1.00  0.00     0.159 C 
HETATM    5  C6  UNL     1     -21.508   2.368 102.123  1.00  0.00     0.082 C 
HETATM    6  C10 UNL     1     -21.025   3.756 101.975  1.00  0.00     0.162 C 
ENDROOT
BRANCH   5   7
HETATM    7  C7  UNL     1     -22.939   2.123 101.713  1.00  0.00     0.059 C 
HETATM    8  C8  UNL     1     -23.164   1.051 100.706  1.00  0.00     0.046 C 
HETATM    9  C9  UNL     1     -23.730   1.739 102.949  1.00  0.00     0.046 C 
BRANCH   7  10
HETATM   10  O5  UNL     1     -23.489   3.327 101.264  1.00  0.00    -0.390 OA
ATOM     11  H5  UNL     1     -23.072   4.044 101.729  1.00  0.00     0.210 HD
ENDBRANCH   7  10
ENDBRANCH   5   7
BRANCH   4  12
HETATM   12  O4  UNL     1     -20.334   0.553 103.223  1.00  0.00    -0.392 OA
ATOM     13  H4  UNL     1     -20.877  -0.206 103.049  1.00  0.00     0.210 HD
ENDBRANCH   4  12
BRANCH   6  14
HETATM   14  O6  UNL     1     -19.692   3.828 101.520  1.00  0.00    -0.387 OA
HETATM   15  C11 UNL     1     -19.535   4.569 100.391  1.00  0.00     0.202 C 
ENDBRANCH   6  14
BRANCH   3  16
HETATM   16  O3  UNL     1     -20.728   1.984 105.722  1.00  0.00    -0.390 OA
ATOM     17  H3  UNL     1     -21.399   2.474 106.183  1.00  0.00     0.210 HD
ENDBRANCH   3  16
BRANCH   1  18
HETATM   18  O1  UNL     1     -22.264   5.402 103.101  1.00  0.00    -0.385 OA
HETATM   19  C1  UNL     1     -22.166   6.495 102.281  1.00  0.00     0.202 C 
ENDBRANCH   1  18
BRANCH   2  20
HETATM   20  O2  UNL     1     -20.418   4.717 105.425  1.00  0.00    -0.390 OA
ATOM     21  H2  UNL     1     -20.264   5.586 105.071  1.00  0.00     0.210 HD
ENDBRANCH   2  20
TORSDOF 7
ENDMDL
