MODEL 1
REMARK VINA RESULT: -5.927309692      0.000      0.000
REMARK  9 active torsions:
REMARK  status: ('A' for Active; 'I' for Inactive)
REMARK    1  A    between atoms: C3_4  and  O1_5 
REMARK    2  A    between atoms: C4_7  and  O2_8 
REMARK    3  A    between atoms: C5_10  and  O3_11 
REMARK    4  A    between atoms: C6_13  and  N2_14 
REMARK    5  A    between atoms: N2_14  and  N3_16 
REMARK    6  A    between atoms: N3_16  and  N4_17 
REMARK    7  A    between atoms: C7_20  and  C8_21 
REMARK    8  A    between atoms: C8_21  and  N5_22 
REMARK    9  A    between atoms: N5_22  and  N6_24 
ROOT
HETATM    1  C1  UNL     1     -18.644   1.241 106.911  1.00  0.00     0.221 C 
HETATM    2  N1  UNL     1     -19.299   1.885 106.206  1.00  0.00    -0.463 NA
HETATM    3  C2  UNL     1     -20.080   2.654 105.316  1.00  0.00     0.200 C 
HETATM    4  C3  UNL     1     -20.116   1.993 103.958  1.00  0.00     0.185 C 
HETATM    5  C4  UNL     1     -21.463   1.531 103.509  1.00  0.00     0.180 C 
HETATM    6  C5  UNL     1     -22.492   2.644 103.530  1.00  0.00     0.175 C 
HETATM    7  C6  UNL     1     -22.197   3.623 104.639  1.00  0.00     0.154 C 
HETATM    8  C7  UNL     1     -21.478   2.878 105.782  1.00  0.00     0.071 C 
ENDROOT
BRANCH   4   9
HETATM    9  O1  UNL     1     -19.447   2.732 102.981  1.00  0.00    -0.390 OA
ATOM     10  H1  UNL     1     -19.781   2.571 102.106  1.00  0.00     0.210 HD
ENDBRANCH   4   9
BRANCH   8  11
HETATM   11  C8  UNL     1     -21.569   3.723 107.027  1.00  0.00     0.151 C 
BRANCH  11  12
HETATM   12  N5  UNL     1     -21.253   2.915 108.170  1.00  0.00    -0.322 N 
ATOM     13  H5  UNL     1     -20.556   3.237 108.842  1.00  0.00     0.181 HD
BRANCH  12  14
HETATM   14  N6  UNL     1     -21.823   1.827 108.347  1.00  0.00    -0.254 N 
HETATM   15  N7  UNL     1     -22.285   0.923 109.077  1.00  0.00    -0.331 N 
ATOM     16  H72 UNL     1     -22.074   1.287 110.007  1.00  0.00     0.178 HD
ATOM     17  H71 UNL     1     -22.753   0.029 109.223  1.00  0.00     0.178 HD
ATOM     18  H6  UNL     1     -22.017   1.498 107.401  1.00  0.00     0.207 HD
ENDBRANCH  12  14
ENDBRANCH  11  12
ENDBRANCH   8  11
BRANCH   5  19
HETATM   19  O2  UNL     1     -21.342   1.078 102.196  1.00  0.00    -0.390 OA
ATOM     20  H2  UNL     1     -21.586   1.791 101.619  1.00  0.00     0.210 HD
ENDBRANCH   5  19
BRANCH   7  21
HETATM   21  N2  UNL     1     -21.318   4.697 104.242  1.00  0.00    -0.245 N 
ATOM     22  H2  UNL     1     -20.378   4.714 104.637  1.00  0.00     0.197 HD
BRANCH  21  23
HETATM   23  N3  UNL     1     -21.625   5.586 103.467  1.00  0.00    -0.248 NA
BRANCH  23  24
HETATM   24  N4  UNL     1     -22.199   6.303 102.661  1.00  0.00    -0.261 N 
ATOM     25  H42 UNL     1     -22.747   5.532 102.278  1.00  0.00     0.193 HD
ATOM     26  H41 UNL     1     -22.527   7.089 102.102  1.00  0.00     0.193 HD
ENDBRANCH  23  24
ENDBRANCH  21  23
ENDBRANCH   7  21
BRANCH   6  27
HETATM   27  O3  UNL     1     -22.633   3.250 102.285  1.00  0.00    -0.391 OA
ATOM     28  H3  UNL     1     -23.459   3.029 101.871  1.00  0.00     0.210 HD
ENDBRANCH   6  27
TORSDOF 9
ENDMDL
MODEL 2
REMARK VINA RESULT: -5.624920802      6.459      8.410
REMARK  9 active torsions:
REMARK  status: ('A' for Active; 'I' for Inactive)
REMARK    1  A    between atoms: C3_4  and  O1_5 
REMARK    2  A    between atoms: C4_7  and  O2_8 
REMARK    3  A    between atoms: C5_10  and  O3_11 
REMARK    4  A    between atoms: C6_13  and  N2_14 
REMARK    5  A    between atoms: N2_14  and  N3_16 
REMARK    6  A    between atoms: N3_16  and  N4_17 
REMARK    7  A    between atoms: C7_20  and  C8_21 
REMARK    8  A    between atoms: C8_21  and  N5_22 
REMARK    9  A    between atoms: N5_22  and  N6_24 
ROOT
HETATM    1  C1  UNL     1     -22.304   6.034 100.521  1.00  0.00     0.221 C 
HETATM    2  N1  UNL     1     -23.074   6.830 100.183  1.00  0.00    -0.463 NA
HETATM    3  C2  UNL     1     -24.013   7.783  99.734  1.00  0.00     0.200 C 
HETATM    4  C3  UNL     1     -24.778   7.238  98.551  1.00  0.00     0.185 C 
HETATM    5  C4  UNL     1     -26.242   7.048  98.770  1.00  0.00     0.180 C 
HETATM    6  C5  UNL     1     -26.925   8.317  99.241  1.00  0.00     0.175 C 
HETATM    7  C6  UNL     1     -25.987   9.148 100.080  1.00  0.00     0.154 C 
HETATM    8  C7  UNL     1     -24.984   8.210 100.782  1.00  0.00     0.071 C 
ENDROOT
BRANCH   4   9
HETATM    9  O1  UNL     1     -24.494   7.919  97.366  1.00  0.00    -0.390 OA
ATOM     10  H1  UNL     1     -24.970   8.739  97.291  1.00  0.00     0.210 HD
ENDBRANCH   4   9
BRANCH   8  11
HETATM   11  C8  UNL     1     -24.347   8.966 101.919  1.00  0.00     0.151 C 
BRANCH  11  12
HETATM   12  N5  UNL     1     -24.069   8.058 102.995  1.00  0.00    -0.322 N 
ATOM     13  H5  UNL     1     -23.518   8.371 103.794  1.00  0.00     0.181 HD
BRANCH  12  14
HETATM   14  N6  UNL     1     -24.496   6.892 102.957  1.00  0.00    -0.254 N 
HETATM   15  N7  UNL     1     -24.355   5.657 103.083  1.00  0.00    -0.331 N 
ATOM     16  H72 UNL     1     -23.376   5.591 103.360  1.00  0.00     0.178 HD
ATOM     17  H71 UNL     1     -24.705   4.699 103.052  1.00  0.00     0.178 HD
ATOM     18  H6  UNL     1     -25.471   6.999 102.679  1.00  0.00     0.207 HD
ENDBRANCH  12  14
ENDBRANCH  11  12
ENDBRANCH   8  11
BRANCH   5  19
HETATM   19  O2  UNL     1     -26.811   6.676  97.553  1.00  0.00    -0.390 OA
ATOM     20  H2  UNL     1     -26.200   6.909  96.864  1.00  0.00     0.210 HD
ENDBRANCH   5  19
BRANCH   7  21
HETATM   21  N2  UNL     1     -25.198  10.081  99.312  1.00  0.00    -0.245 N 
ATOM     22  H2  UNL     1     -24.191  10.099  99.472  1.00  0.00     0.197 HD
BRANCH  21  23
HETATM   23  N3  UNL     1     -25.656  10.850  98.484  1.00  0.00    -0.248 NA
BRANCH  23  24
HETATM   24  N4  UNL     1     -25.823  11.593  97.529  1.00  0.00    -0.261 N 
ATOM     25  H42 UNL     1     -24.946  11.315  97.087  1.00  0.00     0.193 HD
ATOM     26  H41 UNL     1     -26.186  12.272  96.861  1.00  0.00     0.193 HD
ENDBRANCH  23  24
ENDBRANCH  21  23
ENDBRANCH   7  21
BRANCH   6  27
HETATM   27  O3  UNL     1     -27.495   9.026  98.188  1.00  0.00    -0.391 OA
ATOM     28  H3  UNL     1     -28.167   9.629  98.485  1.00  0.00     0.210 HD
ENDBRANCH   6  27
TORSDOF 9
ENDMDL
MODEL 3
REMARK VINA RESULT: -5.594521456      4.446      6.286
REMARK  9 active torsions:
REMARK  status: ('A' for Active; 'I' for Inactive)
REMARK    1  A    between atoms: C3_4  and  O1_5 
REMARK    2  A    between atoms: C4_7  and  O2_8 
REMARK    3  A    between atoms: C5_10  and  O3_11 
REMARK    4  A    between atoms: C6_13  and  N2_14 
REMARK    5  A    between atoms: N2_14  and  N3_16 
REMARK    6  A    between atoms: N3_16  and  N4_17 
REMARK    7  A    between atoms: C7_20  and  C8_21 
REMARK    8  A    between atoms: C8_21  and  N5_22 
REMARK    9  A    between atoms: N5_22  and  N6_24 
ROOT
HETATM    1  C1  UNL     1     -23.027   1.372 100.600  1.00  0.00     0.221 C 
HETATM    2  N1  UNL     1     -22.978   2.459 100.997  1.00  0.00    -0.463 NA
HETATM    3  C2  UNL     1     -22.908   3.769 101.518  1.00  0.00     0.200 C 
HETATM    4  C3  UNL     1     -22.049   3.787 102.760  1.00  0.00     0.185 C 
HETATM    5  C4  UNL     1     -20.799   4.598 102.660  1.00  0.00     0.180 C 
HETATM    6  C5  UNL     1     -21.070   6.029 102.243  1.00  0.00     0.175 C 
HETATM    7  C6  UNL     1     -22.268   6.100 101.329  1.00  0.00     0.154 C 
HETATM    8  C7  UNL     1     -22.380   4.774 100.551  1.00  0.00     0.071 C 
ENDROOT
BRANCH   4   9
HETATM    9  O1  UNL     1     -22.779   4.065 103.917  1.00  0.00    -0.390 OA
ATOM     10  H1  UNL     1     -22.224   4.247 104.666  1.00  0.00     0.210 HD
ENDBRANCH   4   9
BRANCH   8  11
HETATM   11  C8  UNL     1     -23.283   4.997  99.364  1.00  0.00     0.151 C 
BRANCH  11  12
HETATM   12  N5  UNL     1     -22.833   4.185  98.269  1.00  0.00    -0.322 N 
ATOM     13  H5  UNL     1     -21.882   4.290  97.917  1.00  0.00     0.181 HD
BRANCH  12  14
HETATM   14  N6  UNL     1     -23.596   3.356  97.748  1.00  0.00    -0.254 N 
HETATM   15  N7  UNL     1     -23.825   2.274  97.165  1.00  0.00    -0.331 N 
ATOM     16  H72 UNL     1     -22.886   1.885  97.083  1.00  0.00     0.178 HD
ATOM     17  H71 UNL     1     -24.452   1.593  96.736  1.00  0.00     0.178 HD
ATOM     18  H6  UNL     1     -24.519   3.778  97.849  1.00  0.00     0.207 HD
ENDBRANCH  12  14
ENDBRANCH  11  12
ENDBRANCH   8  11
BRANCH   5  19
HETATM   19  O2  UNL     1     -20.203   4.619 103.920  1.00  0.00    -0.390 OA
ATOM     20  H2  UNL     1     -20.855   4.346 104.554  1.00  0.00     0.210 HD
ENDBRANCH   5  19
BRANCH   7  21
HETATM   21  N2  UNL     1     -23.520   6.265 102.029  1.00  0.00    -0.245 N 
ATOM     22  H2  UNL     1     -24.166   5.476 102.041  1.00  0.00     0.197 HD
BRANCH  21  23
HETATM   23  N3  UNL     1     -23.855   7.284 102.607  1.00  0.00    -0.248 NA
BRANCH  23  24
HETATM   24  N4  UNL     1     -23.877   8.336 103.227  1.00  0.00    -0.261 N 
ATOM     25  H42 UNL     1     -22.861   8.424 103.227  1.00  0.00     0.193 HD
ATOM     26  H41 UNL     1     -24.158   9.174 103.735  1.00  0.00     0.193 HD
ENDBRANCH  23  24
ENDBRANCH  21  23
ENDBRANCH   7  21
BRANCH   6  27
HETATM   27  O3  UNL     1     -21.162   6.885 103.337  1.00  0.00    -0.391 OA
ATOM     28  H3  UNL     1     -21.944   6.724 103.851  1.00  0.00     0.210 HD
ENDBRANCH   6  27
TORSDOF 9
ENDMDL
MODEL 4
REMARK VINA RESULT: -5.539217811      4.735      7.887
REMARK  9 active torsions:
REMARK  status: ('A' for Active; 'I' for Inactive)
REMARK    1  A    between atoms: C3_4  and  O1_5 
REMARK    2  A    between atoms: C4_7  and  O2_8 
REMARK    3  A    between atoms: C5_10  and  O3_11 
REMARK    4  A    between atoms: C6_13  and  N2_14 
REMARK    5  A    between atoms: N2_14  and  N3_16 
REMARK    6  A    between atoms: N3_16  and  N4_17 
REMARK    7  A    between atoms: C7_20  and  C8_21 
REMARK    8  A    between atoms: C8_21  and  N5_22 
REMARK    9  A    between atoms: N5_22  and  N6_24 
ROOT
HETATM    1  C1  UNL     1     -24.920   6.836  97.709  1.00  0.00     0.221 C 
HETATM    2  N1  UNL     1     -24.624   6.667  98.816  1.00  0.00    -0.463 NA
HETATM    3  C2  UNL     1     -24.253   6.424 100.156  1.00  0.00     0.200 C 
HETATM    4  C3  UNL     1     -23.301   5.253 100.224  1.00  0.00     0.185 C 
HETATM    5  C4  UNL     1     -21.930   5.573 100.721  1.00  0.00     0.180 C 
HETATM    6  C5  UNL     1     -21.950   6.255 102.074  1.00  0.00     0.175 C 
HETATM    7  C6  UNL     1     -23.186   7.107 102.224  1.00  0.00     0.154 C 
HETATM    8  C7  UNL     1     -23.625   7.597 100.829  1.00  0.00     0.071 C 
ENDROOT
BRANCH   4   9
HETATM    9  O1  UNL     1     -23.858   4.142 100.860  1.00  0.00    -0.390 OA
ATOM     10  H1  UNL     1     -24.219   3.512 100.246  1.00  0.00     0.210 HD
ENDBRANCH   4   9
BRANCH   8  11
HETATM   11  C8  UNL     1     -24.566   8.760 101.011  1.00  0.00     0.151 C 
BRANCH  11  12
HETATM   12  N5  UNL     1     -24.354   9.710  99.956  1.00  0.00    -0.322 N 
ATOM     13  H5  UNL     1     -23.441  10.152  99.849  1.00  0.00     0.181 HD
BRANCH  12  14
HETATM   14  N6  UNL     1     -25.275   9.996  99.175  1.00  0.00    -0.254 N 
HETATM   15  N7  UNL     1     -25.904  10.797  98.450  1.00  0.00    -0.331 N 
ATOM     16  H72 UNL     1     -25.368  11.655  98.582  1.00  0.00     0.178 HD
ATOM     17  H71 UNL     1     -26.661  11.033  97.808  1.00  0.00     0.178 HD
ATOM     18  H6  UNL     1     -25.785   9.119  99.069  1.00  0.00     0.207 HD
ENDBRANCH  12  14
ENDBRANCH  11  12
ENDBRANCH   8  11
BRANCH   5  19
HETATM   19  O2  UNL     1     -21.233   4.373 100.851  1.00  0.00    -0.390 OA
ATOM     20  H2  UNL     1     -20.852   4.351 101.721  1.00  0.00     0.210 HD
ENDBRANCH   5  19
BRANCH   7  21
HETATM   21  N2  UNL     1     -24.315   6.395 102.775  1.00  0.00    -0.245 N 
ATOM     22  H2  UNL     1     -25.250   6.715 102.521  1.00  0.00     0.197 HD
BRANCH  21  23
HETATM   23  N3  UNL     1     -24.225   5.438 103.524  1.00  0.00    -0.248 NA
BRANCH  23  24
HETATM   24  N4  UNL     1     -24.229   4.319 104.015  1.00  0.00    -0.261 N 
ATOM     25  H42 UNL     1     -25.003   4.004 103.430  1.00  0.00     0.193 HD
ATOM     26  H41 UNL     1     -24.033   3.486 104.568  1.00  0.00     0.193 HD
ENDBRANCH  23  24
ENDBRANCH  21  23
ENDBRANCH   7  21
BRANCH   6  27
HETATM   27  O3  UNL     1     -21.776   5.352 103.119  1.00  0.00    -0.391 OA
ATOM     28  H3  UNL     1     -22.251   4.543 102.974  1.00  0.00     0.210 HD
ENDBRANCH   6  27
TORSDOF 9
ENDMDL
MODEL 5
REMARK VINA RESULT: -5.440762369      7.737      9.777
REMARK  9 active torsions:
REMARK  status: ('A' for Active; 'I' for Inactive)
REMARK    1  A    between atoms: C3_4  and  O1_5 
REMARK    2  A    between atoms: C4_7  and  O2_8 
REMARK    3  A    between atoms: C5_10  and  O3_11 
REMARK    4  A    between atoms: C6_13  and  N2_14 
REMARK    5  A    between atoms: N2_14  and  N3_16 
REMARK    6  A    between atoms: N3_16  and  N4_17 
REMARK    7  A    between atoms: C7_20  and  C8_21 
REMARK    8  A    between atoms: C8_21  and  N5_22 
REMARK    9  A    between atoms: N5_22  and  N6_24 
ROOT
HETATM    1  C1  UNL     1     -22.952  10.030 101.083  1.00  0.00     0.221 C 
HETATM    2  N1  UNL     1     -23.642   9.334 100.464  1.00  0.00    -0.463 NA
HETATM    3  C2  UNL     1     -24.455   8.457  99.715  1.00  0.00     0.200 C 
HETATM    4  C3  UNL     1     -24.102   7.024 100.037  1.00  0.00     0.185 C 
HETATM    5  C4  UNL     1     -25.188   6.228 100.683  1.00  0.00     0.180 C 
HETATM    6  C5  UNL     1     -26.470   6.238  99.875  1.00  0.00     0.175 C 
HETATM    7  C6  UNL     1     -26.625   7.544  99.135  1.00  0.00     0.154 C 
HETATM    8  C7  UNL     1     -25.916   8.655  99.934  1.00  0.00     0.071 C 
ENDROOT
BRANCH   4   9
HETATM    9  O1  UNL     1     -23.515   6.358  98.959  1.00  0.00    -0.390 OA
ATOM     10  H1  UNL     1     -24.134   5.819  98.480  1.00  0.00     0.210 HD
ENDBRANCH   4   9
BRANCH   8  11
HETATM   11  C8  UNL     1     -26.421   9.987  99.442  1.00  0.00     0.151 C 
BRANCH  11  12
HETATM   12  N5  UNL     1     -25.498  10.518  98.480  1.00  0.00    -0.322 N 
ATOM     13  H5  UNL     1     -24.558  10.129  98.411  1.00  0.00     0.181 HD
BRANCH  12  14
HETATM   14  N6  UNL     1     -25.838  11.449  97.732  1.00  0.00    -0.254 N 
HETATM   15  N7  UNL     1     -25.639  12.233  96.779  1.00  0.00    -0.331 N 
ATOM     16  H72 UNL     1     -24.712  11.943  96.467  1.00  0.00     0.178 HD
ATOM     17  H71 UNL     1     -25.917  12.998  96.164  1.00  0.00     0.178 HD
ATOM     18  H6  UNL     1     -26.763  11.710  98.073  1.00  0.00     0.207 HD
ENDBRANCH  12  14
ENDBRANCH  11  12
ENDBRANCH   8  11
BRANCH   5  19
HETATM   19  O2  UNL     1     -24.748   4.909 100.783  1.00  0.00    -0.390 OA
ATOM     20  H2  UNL     1     -24.434   4.642  99.927  1.00  0.00     0.210 HD
ENDBRANCH   5  19
BRANCH   7  21
HETATM   21  N2  UNL     1     -26.019   7.540  97.824  1.00  0.00    -0.245 N 
ATOM     22  H2  UNL     1     -25.373   8.296  97.596  1.00  0.00     0.197 HD
BRANCH  21  23
HETATM   23  N3  UNL     1     -26.229   6.694  96.972  1.00  0.00    -0.248 NA
BRANCH  23  24
HETATM   24  N4  UNL     1     -26.744   5.904  96.195  1.00  0.00    -0.261 N 
ATOM     25  H42 UNL     1     -26.828   6.600  95.454  1.00  0.00     0.193 HD
ATOM     26  H41 UNL     1     -27.142   5.078  95.751  1.00  0.00     0.193 HD
ENDBRANCH  23  24
ENDBRANCH  21  23
ENDBRANCH   7  21
BRANCH   6  27
HETATM   27  O3  UNL     1     -26.576   5.123  99.049  1.00  0.00    -0.391 OA
ATOM     28  H3  UNL     1     -27.449   4.748  99.066  1.00  0.00     0.210 HD
ENDBRANCH   6  27
TORSDOF 9
ENDMDL
