MODEL 1
REMARK VINA RESULT: -5.430394767      0.000      0.000
REMARK  4 active torsions:
REMARK  status: ('A' for Active; 'I' for Inactive)
REMARK    1  A    between atoms: C2_2  and  C3_3 
REMARK    2  A    between atoms: C3_3  and  N1_4 
REMARK    3  A    between atoms: C7_8  and  N2_9 
REMARK       I    between atoms: N2_9  and  C8_11 
REMARK       I    between atoms: C8_11  and  N4_16 
REMARK    4  A    between atoms: N3_12  and  C9_14 
ROOT
HETATM    1  N1  UNL     1      20.899  -9.140   5.541  1.00  0.00    -0.341 N 
HETATM    2  C4  UNL     1      19.607  -8.840   5.281  1.00  0.00     0.012 A 
HETATM    3  C5  UNL     1      18.682  -8.640   6.396  1.00  0.00     0.068 C 
HETATM    4  C6  UNL     1      19.158  -8.719   3.981  1.00  0.00     0.073 A 
HETATM    5  C7  UNL     1      20.045  -8.910   2.955  1.00  0.00     0.124 A 
HETATM    6  N5  UNL     1      21.315  -9.205   3.221  1.00  0.00    -0.332 N 
ATOM      7  H5  UNL     1      21.976  -9.346   2.457  1.00  0.00     0.168 HD
HETATM    8  C12 UNL     1      21.725  -9.316   4.490  1.00  0.00     0.081 A 
HETATM    9  C13 UNL     1      23.144  -9.640   4.770  1.00  0.00     0.089 C 
ENDROOT
BRANCH   5  10
HETATM   10  N2  UNL     1      19.718  -8.818   1.697  1.00  0.00    -0.177 N 
HETATM   11  C8  UNL     1      19.003  -7.645   1.319  1.00  0.00     0.675 C 
HETATM   12  N3  UNL     1      17.730  -7.642   1.157  1.00  0.00    -0.227 N 
HETATM   13  N4  UNL     1      19.756  -6.466   1.127  1.00  0.00    -0.231 N 
ATOM     14  H3  UNL     1      17.185  -8.492   1.296  1.00  0.00     0.177 HD
HETATM   15  C11 UNL     1      20.977  -6.543   0.369  1.00  0.00     0.165 C 
ATOM     16  H4  UNL     1      19.440  -5.577   1.517  1.00  0.00     0.177 HD
ATOM     17  H2  UNL     1      19.959  -9.544   1.022  1.00  0.00     0.185 HD
BRANCH  12  18
HETATM   18  C9  UNL     1      17.087  -6.408   0.773  1.00  0.00     0.133 C 
HETATM   19  C10 UNL     1      15.868  -6.780  -0.055  1.00  0.00     0.027 C 
ENDBRANCH  12  18
ENDBRANCH   5  10
BRANCH   1  20
HETATM   20  C3  UNL     1      21.325  -9.255   6.893  1.00  0.00     0.130 C 
BRANCH  20  21
HETATM   21  C2  UNL     1      21.208 -10.625   7.495  1.00  0.00     0.016 C 
HETATM   22  C1  UNL     1      22.591 -10.960   8.070  1.00  0.00     0.006 C 
ENDBRANCH  20  21
ENDBRANCH   1  20
TORSDOF 4
ENDMDL
MODEL 2
REMARK VINA RESULT: -5.424818280      2.437      6.853
REMARK  4 active torsions:
REMARK  status: ('A' for Active; 'I' for Inactive)
REMARK    1  A    between atoms: C2_2  and  C3_3 
REMARK    2  A    between atoms: C3_3  and  N1_4 
REMARK    3  A    between atoms: C7_8  and  N2_9 
REMARK       I    between atoms: N2_9  and  C8_11 
REMARK       I    between atoms: C8_11  and  N4_16 
REMARK    4  A    between atoms: N3_12  and  C9_14 
ROOT
HETATM    1  N1  UNL     1      20.433  -8.449   5.184  1.00  0.00    -0.341 N 
HETATM    2  C4  UNL     1      19.876  -9.095   6.232  1.00  0.00     0.012 A 
HETATM    3  C5  UNL     1      18.449  -8.927   6.499  1.00  0.00     0.068 C 
HETATM    4  C6  UNL     1      20.640  -9.907   7.047  1.00  0.00     0.073 A 
HETATM    5  C7  UNL     1      21.976 -10.048   6.775  1.00  0.00     0.124 A 
HETATM    6  N5  UNL     1      22.514  -9.409   5.740  1.00  0.00    -0.332 N 
ATOM      7  H5  UNL     1      23.508  -9.514   5.537  1.00  0.00     0.168 HD
HETATM    8  C12 UNL     1      21.752  -8.627   4.965  1.00  0.00     0.081 A 
HETATM    9  C13 UNL     1      22.365  -7.926   3.813  1.00  0.00     0.089 C 
ENDROOT
BRANCH   5  10
HETATM   10  N2  UNL     1      22.777 -10.790   7.485  1.00  0.00    -0.177 N 
HETATM   11  C8  UNL     1      22.740 -12.189   7.215  1.00  0.00     0.675 C 
HETATM   12  N3  UNL     1      22.095 -13.011   7.960  1.00  0.00    -0.227 N 
HETATM   13  N4  UNL     1      23.448 -12.646   6.083  1.00  0.00    -0.231 N 
ATOM     14  H3  UNL     1      21.582 -12.683   8.778  1.00  0.00     0.177 HD
HETATM   15  C11 UNL     1      24.782 -12.155   5.859  1.00  0.00     0.165 C 
ATOM     16  H4  UNL     1      23.023 -13.312   5.437  1.00  0.00     0.177 HD
ATOM     17  H2  UNL     1      23.396 -10.393   8.192  1.00  0.00     0.185 HD
BRANCH  12  18
HETATM   18  C9  UNL     1      22.110 -14.412   7.613  1.00  0.00     0.133 C 
HETATM   19  C10 UNL     1      23.268 -15.045   8.370  1.00  0.00     0.027 C 
ENDBRANCH  12  18
ENDBRANCH   5  10
BRANCH   1  20
HETATM   20  C3  UNL     1      19.614  -7.622   4.365  1.00  0.00     0.130 C 
BRANCH  20  21
HETATM   21  C2  UNL     1      19.041  -8.282   3.145  1.00  0.00     0.016 C 
HETATM   22  C1  UNL     1      18.908  -7.179   2.085  1.00  0.00     0.006 C 
ENDBRANCH  20  21
ENDBRANCH   1  20
TORSDOF 4
ENDMDL
MODEL 3
REMARK VINA RESULT: -5.271378310      2.577      7.216
REMARK  4 active torsions:
REMARK  status: ('A' for Active; 'I' for Inactive)
REMARK    1  A    between atoms: C2_2  and  C3_3 
REMARK    2  A    between atoms: C3_3  and  N1_4 
REMARK    3  A    between atoms: C7_8  and  N2_9 
REMARK       I    between atoms: N2_9  and  C8_11 
REMARK       I    between atoms: C8_11  and  N4_16 
REMARK    4  A    between atoms: N3_12  and  C9_14 
ROOT
HETATM    1  N1  UNL     1      20.434  -9.179   5.019  1.00  0.00    -0.341 N 
HETATM    2  C4  UNL     1      21.705  -9.550   4.746  1.00  0.00     0.012 A 
HETATM    3  C5  UNL     1      22.242  -9.327   3.405  1.00  0.00     0.068 C 
HETATM    4  C6  UNL     1      22.494 -10.130   5.719  1.00  0.00     0.073 A 
HETATM    5  C7  UNL     1      21.967 -10.326   6.969  1.00  0.00     0.124 A 
HETATM    6  N5  UNL     1      20.716  -9.958   7.227  1.00  0.00    -0.332 N 
ATOM      7  H5  UNL     1      20.323 -10.103   8.157  1.00  0.00     0.168 HD
HETATM    8  C12 UNL     1      19.971  -9.396   6.267  1.00  0.00     0.081 A 
HETATM    9  C13 UNL     1      18.579  -8.986   6.572  1.00  0.00     0.089 C 
ENDROOT
BRANCH   5  10
HETATM   10  N2  UNL     1      22.632 -10.866   7.951  1.00  0.00    -0.177 N 
HETATM   11  C8  UNL     1      22.877 -12.266   7.847  1.00  0.00     0.675 C 
HETATM   12  N3  UNL     1      22.173 -13.132   8.481  1.00  0.00    -0.227 N 
HETATM   13  N4  UNL     1      23.937 -12.675   7.011  1.00  0.00    -0.231 N 
ATOM     14  H3  UNL     1      21.406 -12.839   9.086  1.00  0.00     0.177 HD
HETATM   15  C11 UNL     1      25.194 -11.978   7.099  1.00  0.00     0.165 C 
ATOM     16  H4  UNL     1      23.816 -13.448   6.356  1.00  0.00     0.177 HD
ATOM     17  H2  UNL     1      22.958 -10.318   8.747  1.00  0.00     0.185 HD
BRANCH  12  18
HETATM   18  C9  UNL     1      22.491 -14.530   8.319  1.00  0.00     0.133 C 
HETATM   19  C10 UNL     1      21.528 -15.088   7.283  1.00  0.00     0.027 C 
ENDBRANCH  12  18
ENDBRANCH   5  10
BRANCH   1  20
HETATM   20  C3  UNL     1      19.650  -8.582   3.992  1.00  0.00     0.130 C 
BRANCH  20  21
HETATM   21  C2  UNL     1      19.618  -7.081   3.992  1.00  0.00     0.016 C 
HETATM   22  C1  UNL     1      19.178  -6.664   2.582  1.00  0.00     0.006 C 
ENDBRANCH  20  21
ENDBRANCH   1  20
TORSDOF 4
ENDMDL
MODEL 4
REMARK VINA RESULT: -5.262799357      0.630      1.963
REMARK  4 active torsions:
REMARK  status: ('A' for Active; 'I' for Inactive)
REMARK    1  A    between atoms: C2_2  and  C3_3 
REMARK    2  A    between atoms: C3_3  and  N1_4 
REMARK    3  A    between atoms: C7_8  and  N2_9 
REMARK       I    between atoms: N2_9  and  C8_11 
REMARK       I    between atoms: C8_11  and  N4_16 
REMARK    4  A    between atoms: N3_12  and  C9_14 
ROOT
HETATM    1  N1  UNL     1      20.908  -9.138   5.386  1.00  0.00    -0.341 N 
HETATM    2  C4  UNL     1      21.828  -9.313   4.411  1.00  0.00     0.012 A 
HETATM    3  C5  UNL     1      23.220  -9.565   4.779  1.00  0.00     0.068 C 
HETATM    4  C6  UNL     1      21.464  -9.260   3.080  1.00  0.00     0.073 A 
HETATM    5  C7  UNL     1      20.152  -9.023   2.762  1.00  0.00     0.124 A 
HETATM    6  N5  UNL     1      19.255  -8.852   3.729  1.00  0.00    -0.332 N 
ATOM      7  H5  UNL     1      18.278  -8.677   3.493  1.00  0.00     0.168 HD
HETATM    8  C12 UNL     1      19.633  -8.909   5.012  1.00  0.00     0.081 A 
HETATM    9  C13 UNL     1      18.620  -8.721   6.078  1.00  0.00     0.089 C 
ENDROOT
BRANCH   5  10
HETATM   10  N2  UNL     1      19.713  -8.954   1.538  1.00  0.00    -0.177 N 
HETATM   11  C8  UNL     1      19.035  -7.752   1.182  1.00  0.00     0.675 C 
HETATM   12  N3  UNL     1      17.754  -7.677   1.138  1.00  0.00    -0.227 N 
HETATM   13  N4  UNL     1      19.832  -6.629   0.874  1.00  0.00    -0.231 N 
ATOM     14  H3  UNL     1      17.176  -8.487   1.361  1.00  0.00     0.177 HD
HETATM   15  C11 UNL     1      20.969  -6.806   0.010  1.00  0.00     0.165 C 
ATOM     16  H4  UNL     1      19.607  -5.710   1.256  1.00  0.00     0.177 HD
ATOM     17  H2  UNL     1      19.846  -9.716   0.873  1.00  0.00     0.185 HD
BRANCH  12  18
HETATM   18  C9  UNL     1      17.150  -6.420   0.767  1.00  0.00     0.133 C 
HETATM   19  C10 UNL     1      15.890  -6.746  -0.019  1.00  0.00     0.027 C 
ENDBRANCH  12  18
ENDBRANCH   5  10
BRANCH   1  20
HETATM   20  C3  UNL     1      21.320  -9.201   6.746  1.00  0.00     0.130 C 
BRANCH  20  21
HETATM   21  C2  UNL     1      21.166 -10.540   7.408  1.00  0.00     0.016 C 
HETATM   22  C1  UNL     1      22.542 -10.890   7.990  1.00  0.00     0.006 C 
ENDBRANCH  20  21
ENDBRANCH   1  20
TORSDOF 4
ENDMDL
MODEL 5
REMARK VINA RESULT: -5.078102918      2.028      4.126
REMARK  4 active torsions:
REMARK  status: ('A' for Active; 'I' for Inactive)
REMARK    1  A    between atoms: C2_2  and  C3_3 
REMARK    2  A    between atoms: C3_3  and  N1_4 
REMARK    3  A    between atoms: C7_8  and  N2_9 
REMARK       I    between atoms: N2_9  and  C8_11 
REMARK       I    between atoms: C8_11  and  N4_16 
REMARK    4  A    between atoms: N3_12  and  C9_14 
ROOT
HETATM    1  N1  UNL     1      23.344 -11.444   6.790  1.00  0.00    -0.341 N 
HETATM    2  C4  UNL     1      22.254 -11.141   7.529  1.00  0.00     0.012 A 
HETATM    3  C5  UNL     1      21.895 -11.998   8.658  1.00  0.00     0.068 C 
HETATM    4  C6  UNL     1      21.484 -10.035   7.229  1.00  0.00     0.073 A 
HETATM    5  C7  UNL     1      21.843  -9.248   6.167  1.00  0.00     0.124 A 
HETATM    6  N5  UNL     1      22.918  -9.554   5.446  1.00  0.00    -0.332 N 
ATOM      7  H5  UNL     1      23.186  -8.968   4.656  1.00  0.00     0.168 HD
HETATM    8  C12 UNL     1      23.648 -10.632   5.757  1.00  0.00     0.081 A 
HETATM    9  C13 UNL     1      24.846 -10.957   4.948  1.00  0.00     0.089 C 
ENDROOT
BRANCH   5  10
HETATM   10  N2  UNL     1      21.181  -8.186   5.806  1.00  0.00    -0.177 N 
HETATM   11  C8  UNL     1      20.147  -8.387   4.845  1.00  0.00     0.675 C 
HETATM   12  N3  UNL     1      20.311  -8.123   3.600  1.00  0.00    -0.227 N 
HETATM   13  N4  UNL     1      18.918  -8.895   5.318  1.00  0.00    -0.231 N 
ATOM     14  H3  UNL     1      21.198  -7.757   3.256  1.00  0.00     0.177 HD
HETATM   15  C11 UNL     1      18.351  -8.328   6.513  1.00  0.00     0.165 C 
ATOM     16  H4  UNL     1      18.441  -9.649   4.822  1.00  0.00     0.177 HD
ATOM     17  H2  UNL     1      21.390  -7.263   6.188  1.00  0.00     0.185 HD
BRANCH  12  18
HETATM   18  C9  UNL     1      19.210  -8.357   2.696  1.00  0.00     0.133 C 
HETATM   19  C10 UNL     1      18.879  -7.024   2.044  1.00  0.00     0.027 C 
ENDBRANCH  12  18
ENDBRANCH   5  10
BRANCH   1  20
HETATM   20  C3  UNL     1      24.115 -12.591   7.129  1.00  0.00     0.130 C 
BRANCH  20  21
HETATM   21  C2  UNL     1      23.704 -13.870   6.458  1.00  0.00     0.016 C 
HETATM   22  C1  UNL     1      23.830 -14.970   7.521  1.00  0.00     0.006 C 
ENDBRANCH  20  21
ENDBRANCH   1  20
TORSDOF 4
ENDMDL
