MODEL 1
REMARK VINA RESULT: -10.520161636      0.000      0.000
REMARK  11 active torsions:
REMARK  status: ('A' for Active; 'I' for Inactive)
REMARK    1  A    between atoms: C3_3  and  N2_32 
REMARK    2  A    between atoms: C4_4  and  C5_5 
REMARK    3  A    between atoms: C5_5  and  C6_6 
REMARK    4  A    between atoms: C6_6  and  C7_7 
REMARK    5  A    between atoms: C7_7  and  C8_8 
REMARK    6  A    between atoms: C8_8  and  C9_9 
REMARK    7  A    between atoms: C9_9  and  C10_10 
REMARK    8  A    between atoms: C15_15  and  C16_16 
REMARK    9  A    between atoms: C17_17  and  C18_18 
REMARK   10  A    between atoms: C20_20  and  C21_21 
REMARK   11  A    between atoms: N2_32  and  S1_34 
ROOT
HETATM    1  C1  UNL     1       0.867  20.176  16.014  1.00  0.00     0.019 C 
HETATM    2  C2  UNL     1       0.529  21.336  15.931  1.00  0.00    -0.059 C 
HETATM    3  C3  UNL     1       0.113  22.703  15.810  1.00  0.00     0.091 C 
HETATM    4  C4  UNL     1      -0.971  23.000  15.125  1.00  0.00     0.013 C 
ENDROOT
BRANCH   3   5
HETATM    5  N2  UNL     1       0.906  23.689  16.448  1.00  0.00    -0.277 N 
ATOM      6  H2  UNL     1       0.490  24.252  17.191  1.00  0.00     0.179 HD
BRANCH   5   7
HETATM    7  S1  UNL     1       2.553  23.969  16.011  1.00  0.00     0.227 S 
HETATM    8  C28 UNL     1       2.702  23.811  14.237  1.00  0.00     0.186 C 
HETATM    9  O2  UNL     1       2.989  25.320  16.488  1.00  0.00    -0.206 OA
HETATM   10  O3  UNL     1       3.454  22.937  16.612  1.00  0.00    -0.206 OA
ENDBRANCH   5   7
ENDBRANCH   3   5
BRANCH   4  11
HETATM   11  C5  UNL     1      -1.483  24.394  14.944  1.00  0.00     0.030 C 
BRANCH  11  12
HETATM   12  C6  UNL     1      -2.095  24.568  13.603  1.00  0.00     0.004 C 
BRANCH  12  13
HETATM   13  C7  UNL     1      -2.843  23.408  13.119  1.00  0.00     0.000 C 
BRANCH  13  14
HETATM   14  C8  UNL     1      -4.248  23.161  13.392  1.00  0.00     0.002 C 
BRANCH  14  15
HETATM   15  C9  UNL     1      -4.684  22.322  14.544  1.00  0.00     0.025 C 
BRANCH  15  16
HETATM   16  C10 UNL     1      -5.945  22.997  15.095  1.00  0.00     0.086 C 
HETATM   17  C11 UNL     1      -7.121  22.809  14.173  1.00  0.00     0.044 C 
HETATM   18  C12 UNL     1      -8.351  23.171  15.028  1.00  0.00     0.014 C 
HETATM   19  C13 UNL     1      -8.382  22.227  16.180  1.00  0.00     0.025 C 
HETATM   20  C14 UNL     1      -9.593  22.945  14.214  1.00  0.00    -0.067 C 
HETATM   21  C26 UNL     1      -8.245  24.589  15.415  1.00  0.00     0.024 C 
HETATM   22  C15 UNL     1      -9.916  21.714  13.848  1.00  0.00     0.004 C 
HETATM   23  C22 UNL     1     -10.414  24.104  13.860  1.00  0.00     0.039 C 
HETATM   24  C23 UNL     1     -10.657  24.970  15.121  1.00  0.00     0.039 C 
HETATM   25  C24 UNL     1      -9.254  25.435  15.471  1.00  0.00    -0.071 C 
HETATM   26  C25 UNL     1      -9.038  26.848  15.867  1.00  0.00     0.044 C 
HETATM   27  C27 UNL     1      -6.910  25.133  15.789  1.00  0.00     0.249 C 
HETATM   28  O1  UNL     1      -6.757  26.132  16.503  1.00  0.00    -0.268 OA
HETATM   29  N1  UNL     1      -5.779  24.414  15.262  1.00  0.00    -0.352 N 
ATOM     30  H1  UNL     1      -4.907  24.886  15.021  1.00  0.00     0.163 HD
BRANCH  22  31
HETATM   31  C16 UNL     1     -11.067  21.382  13.077  1.00  0.00     0.001 C 
HETATM   32  C17 UNL     1     -12.242  20.969  13.420  1.00  0.00     0.006 C 
BRANCH  32  33
HETATM   33  C18 UNL     1     -12.862  20.680  14.682  1.00  0.00    -0.065 C 
HETATM   34  C19 UNL     1     -12.743  19.336  15.346  1.00  0.00     0.048 C 
HETATM   35  C20 UNL     1     -13.575  21.586  15.335  1.00  0.00    -0.005 C 
BRANCH  35  36
HETATM   36  C21 UNL     1     -13.827  22.954  14.889  1.00  0.00     0.142 C 
HETATM   37 CL1  UNL     1     -13.380  24.126  16.181  1.00  0.00    -0.126 Cl
ENDBRANCH  35  36
ENDBRANCH  32  33
ENDBRANCH  22  31
ENDBRANCH  15  16
ENDBRANCH  14  15
ENDBRANCH  13  14
ENDBRANCH  12  13
ENDBRANCH  11  12
ENDBRANCH   4  11
TORSDOF 11
ENDMDL
MODEL 2
REMARK VINA RESULT: -10.449066132      1.275      1.596
REMARK  11 active torsions:
REMARK  status: ('A' for Active; 'I' for Inactive)
REMARK    1  A    between atoms: C3_3  and  N2_32 
REMARK    2  A    between atoms: C4_4  and  C5_5 
REMARK    3  A    between atoms: C5_5  and  C6_6 
REMARK    4  A    between atoms: C6_6  and  C7_7 
REMARK    5  A    between atoms: C7_7  and  C8_8 
REMARK    6  A    between atoms: C8_8  and  C9_9 
REMARK    7  A    between atoms: C9_9  and  C10_10 
REMARK    8  A    between atoms: C15_15  and  C16_16 
REMARK    9  A    between atoms: C17_17  and  C18_18 
REMARK   10  A    between atoms: C20_20  and  C21_21 
REMARK   11  A    between atoms: N2_32  and  S1_34 
ROOT
HETATM    1  C1  UNL     1       0.297  20.467  16.376  1.00  0.00     0.019 C 
HETATM    2  C2  UNL     1       0.187  21.614  16.004  1.00  0.00    -0.059 C 
HETATM    3  C3  UNL     1       0.047  22.963  15.539  1.00  0.00     0.091 C 
HETATM    4  C4  UNL     1      -0.765  23.229  14.537  1.00  0.00     0.013 C 
ENDROOT
BRANCH   3   5
HETATM    5  N2  UNL     1       0.805  23.965  16.195  1.00  0.00    -0.277 N 
ATOM      6  H2  UNL     1       0.328  24.614  16.821  1.00  0.00     0.179 HD
BRANCH   5   7
HETATM    7  S1  UNL     1       2.509  24.124  15.969  1.00  0.00     0.227 S 
HETATM    8  C28 UNL     1       2.883  23.826  14.247  1.00  0.00     0.186 C 
HETATM    9  O2  UNL     1       2.962  25.481  16.411  1.00  0.00    -0.206 OA
HETATM   10  O3  UNL     1       3.256  23.093  16.755  1.00  0.00    -0.206 OA
ENDBRANCH   5   7
ENDBRANCH   3   5
BRANCH   4  11
HETATM   11  C5  UNL     1      -0.977  24.603  13.984  1.00  0.00     0.030 C 
BRANCH  11  12
HETATM   12  C6  UNL     1      -2.424  24.917  13.875  1.00  0.00     0.004 C 
BRANCH  12  13
HETATM   13  C7  UNL     1      -3.159  24.082  12.926  1.00  0.00     0.000 C 
BRANCH  13  14
HETATM   14  C8  UNL     1      -4.522  23.621  13.118  1.00  0.00     0.002 C 
BRANCH  14  15
HETATM   15  C9  UNL     1      -4.862  22.585  14.134  1.00  0.00     0.025 C 
BRANCH  15  16
HETATM   16  C10 UNL     1      -6.127  23.090  14.836  1.00  0.00     0.086 C 
HETATM   17  C11 UNL     1      -7.354  22.869  13.992  1.00  0.00     0.044 C 
HETATM   18  C12 UNL     1      -8.536  23.043  14.966  1.00  0.00     0.014 C 
HETATM   19  C13 UNL     1      -8.389  22.008  16.027  1.00  0.00     0.025 C 
HETATM   20  C14 UNL     1      -9.817  22.769  14.231  1.00  0.00    -0.067 C 
HETATM   21  C26 UNL     1      -8.522  24.427  15.470  1.00  0.00     0.024 C 
HETATM   22  C15 UNL     1     -10.061  21.548  13.780  1.00  0.00     0.004 C 
HETATM   23  C22 UNL     1     -10.762  23.871  14.044  1.00  0.00     0.039 C 
HETATM   24  C23 UNL     1     -10.974  24.603  15.393  1.00  0.00     0.039 C 
HETATM   25  C24 UNL     1      -9.593  25.168  15.677  1.00  0.00    -0.071 C 
HETATM   26  C25 UNL     1      -9.469  26.557  16.181  1.00  0.00     0.044 C 
HETATM   27  C27 UNL     1      -7.213  25.061  15.790  1.00  0.00     0.249 C 
HETATM   28  O1  UNL     1      -7.089  26.008  16.577  1.00  0.00    -0.268 OA
HETATM   29  N1  UNL     1      -6.071  24.498  15.117  1.00  0.00    -0.352 N 
ATOM     30  H1  UNL     1      -5.267  25.068  14.855  1.00  0.00     0.163 HD
BRANCH  22  31
HETATM   31  C16 UNL     1     -11.239  21.175  13.071  1.00  0.00     0.001 C 
HETATM   32  C17 UNL     1     -12.436  20.903  13.474  1.00  0.00     0.006 C 
BRANCH  32  33
HETATM   33  C18 UNL     1     -13.062  20.864  14.765  1.00  0.00    -0.065 C 
HETATM   34  C19 UNL     1     -13.872  22.013  15.300  1.00  0.00     0.048 C 
HETATM   35  C20 UNL     1     -12.962  19.808  15.559  1.00  0.00    -0.005 C 
BRANCH  35  36
HETATM   36  C21 UNL     1     -12.232  18.580  15.255  1.00  0.00     0.142 C 
HETATM   37 CL1  UNL     1     -13.059  17.161  15.994  1.00  0.00    -0.126 Cl
ENDBRANCH  35  36
ENDBRANCH  32  33
ENDBRANCH  22  31
ENDBRANCH  15  16
ENDBRANCH  14  15
ENDBRANCH  13  14
ENDBRANCH  12  13
ENDBRANCH  11  12
ENDBRANCH   4  11
TORSDOF 11
ENDMDL
MODEL 3
REMARK VINA RESULT: -9.878526739      1.403      1.855
REMARK  11 active torsions:
REMARK  status: ('A' for Active; 'I' for Inactive)
REMARK    1  A    between atoms: C3_3  and  N2_32 
REMARK    2  A    between atoms: C4_4  and  C5_5 
REMARK    3  A    between atoms: C5_5  and  C6_6 
REMARK    4  A    between atoms: C6_6  and  C7_7 
REMARK    5  A    between atoms: C7_7  and  C8_8 
REMARK    6  A    between atoms: C8_8  and  C9_9 
REMARK    7  A    between atoms: C9_9  and  C10_10 
REMARK    8  A    between atoms: C15_15  and  C16_16 
REMARK    9  A    between atoms: C17_17  and  C18_18 
REMARK   10  A    between atoms: C20_20  and  C21_21 
REMARK   11  A    between atoms: N2_32  and  S1_34 
ROOT
HETATM    1  C1  UNL     1       1.027  20.024  16.071  1.00  0.00     0.019 C 
HETATM    2  C2  UNL     1       0.618  21.162  16.001  1.00  0.00    -0.059 C 
HETATM    3  C3  UNL     1       0.117  22.501  15.898  1.00  0.00     0.091 C 
HETATM    4  C4  UNL     1      -1.026  22.728  15.284  1.00  0.00     0.013 C 
ENDROOT
BRANCH   3   5
HETATM    5  N2  UNL     1       0.891  23.538  16.476  1.00  0.00    -0.277 N 
ATOM      6  H2  UNL     1       0.557  23.987  17.329  1.00  0.00     0.179 HD
BRANCH   5   7
HETATM    7  S1  UNL     1       2.382  24.065  15.784  1.00  0.00     0.227 S 
HETATM    8  C28 UNL     1       2.121  24.375  14.043  1.00  0.00     0.186 C 
HETATM    9  O2  UNL     1       2.878  25.285  16.498  1.00  0.00    -0.206 OA
HETATM   10  O3  UNL     1       3.429  23.000  15.878  1.00  0.00    -0.206 OA
ENDBRANCH   5   7
ENDBRANCH   3   5
BRANCH   4  11
HETATM   11  C5  UNL     1      -1.628  24.088  15.127  1.00  0.00     0.030 C 
BRANCH  11  12
HETATM   12  C6  UNL     1      -2.024  24.337  13.719  1.00  0.00     0.004 C 
BRANCH  12  13
HETATM   13  C7  UNL     1      -2.934  23.340  13.156  1.00  0.00     0.000 C 
BRANCH  13  14
HETATM   14  C8  UNL     1      -4.369  23.517  13.023  1.00  0.00     0.002 C 
BRANCH  14  15
HETATM   15  C9  UNL     1      -5.333  22.742  13.854  1.00  0.00     0.025 C 
BRANCH  15  16
HETATM   16  C10 UNL     1      -6.149  23.785  14.626  1.00  0.00     0.086 C 
HETATM   17  C11 UNL     1      -7.506  23.992  14.009  1.00  0.00     0.044 C 
HETATM   18  C12 UNL     1      -8.320  24.728  15.092  1.00  0.00     0.014 C 
HETATM   19  C13 UNL     1      -8.374  23.837  16.285  1.00  0.00     0.025 C 
HETATM   20  C14 UNL     1      -9.726  24.920  14.598  1.00  0.00    -0.067 C 
HETATM   21  C26 UNL     1      -7.685  26.033  15.343  1.00  0.00     0.024 C 
HETATM   22  C15 UNL     1     -10.498  23.861  14.402  1.00  0.00     0.004 C 
HETATM   23  C22 UNL     1     -10.198  26.284  14.356  1.00  0.00     0.039 C 
HETATM   24  C23 UNL     1      -9.850  27.174  15.575  1.00  0.00     0.039 C 
HETATM   25  C24 UNL     1      -8.332  27.159  15.564  1.00  0.00    -0.071 C 
HETATM   26  C25 UNL     1      -7.594  28.424  15.800  1.00  0.00     0.044 C 
HETATM   27  C27 UNL     1      -6.197  26.114  15.366  1.00  0.00     0.249 C 
HETATM   28  O1  UNL     1      -5.573  27.006  15.954  1.00  0.00    -0.268 OA
HETATM   29  N1  UNL     1      -5.509  25.071  14.650  1.00  0.00    -0.352 N 
ATOM     30  H1  UNL     1      -4.616  25.237  14.186  1.00  0.00     0.163 HD
BRANCH  22  31
HETATM   31  C16 UNL     1     -11.842  23.924  13.936  1.00  0.00     0.001 C 
HETATM   32  C17 UNL     1     -12.838  23.111  14.070  1.00  0.00     0.006 C 
BRANCH  32  33
HETATM   33  C18 UNL     1     -13.001  21.843  14.723  1.00  0.00    -0.065 C 
HETATM   34  C19 UNL     1     -13.748  21.697  16.020  1.00  0.00     0.048 C 
HETATM   35  C20 UNL     1     -12.501  20.725  14.215  1.00  0.00    -0.005 C 
BRANCH  35  36
HETATM   36  C21 UNL     1     -11.742  20.620  12.971  1.00  0.00     0.142 C 
HETATM   37 CL1  UNL     1     -12.855  20.350  11.581  1.00  0.00    -0.126 Cl
ENDBRANCH  35  36
ENDBRANCH  32  33
ENDBRANCH  22  31
ENDBRANCH  15  16
ENDBRANCH  14  15
ENDBRANCH  13  14
ENDBRANCH  12  13
ENDBRANCH  11  12
ENDBRANCH   4  11
TORSDOF 11
ENDMDL
MODEL 4
REMARK VINA RESULT: -9.814425208      2.738      3.748
REMARK  11 active torsions:
REMARK  status: ('A' for Active; 'I' for Inactive)
REMARK    1  A    between atoms: C3_3  and  N2_32 
REMARK    2  A    between atoms: C4_4  and  C5_5 
REMARK    3  A    between atoms: C5_5  and  C6_6 
REMARK    4  A    between atoms: C6_6  and  C7_7 
REMARK    5  A    between atoms: C7_7  and  C8_8 
REMARK    6  A    between atoms: C8_8  and  C9_9 
REMARK    7  A    between atoms: C9_9  and  C10_10 
REMARK    8  A    between atoms: C15_15  and  C16_16 
REMARK    9  A    between atoms: C17_17  and  C18_18 
REMARK   10  A    between atoms: C20_20  and  C21_21 
REMARK   11  A    between atoms: N2_32  and  S1_34 
ROOT
HETATM    1  C1  UNL     1      -5.400  27.579  13.447  1.00  0.00     0.019 C 
HETATM    2  C2  UNL     1      -4.434  26.852  13.368  1.00  0.00    -0.059 C 
HETATM    3  C3  UNL     1      -3.278  26.007  13.293  1.00  0.00     0.091 C 
HETATM    4  C4  UNL     1      -2.369  26.055  14.244  1.00  0.00     0.013 C 
ENDROOT
BRANCH   3   5
HETATM    5  N2  UNL     1      -3.169  25.143  12.175  1.00  0.00    -0.277 N 
ATOM      6  H2  UNL     1      -3.623  24.231  12.210  1.00  0.00     0.179 HD
BRANCH   5   7
HETATM    7  S1  UNL     1      -2.292  25.584  10.755  1.00  0.00     0.227 S 
HETATM    8  C28 UNL     1      -1.640  24.097  10.007  1.00  0.00     0.186 C 
HETATM    9  O2  UNL     1      -3.181  26.337   9.814  1.00  0.00    -0.206 OA
HETATM   10  O3  UNL     1      -1.116  26.446  11.092  1.00  0.00    -0.206 OA
ENDBRANCH   5   7
ENDBRANCH   3   5
BRANCH   4  11
HETATM   11  C5  UNL     1      -1.132  25.214  14.252  1.00  0.00     0.030 C 
BRANCH  11  12
HETATM   12  C6  UNL     1      -1.234  24.125  15.256  1.00  0.00     0.004 C 
BRANCH  12  13
HETATM   13  C7  UNL     1      -2.198  23.077  14.923  1.00  0.00     0.000 C 
BRANCH  13  14
HETATM   14  C8  UNL     1      -3.561  23.023  15.420  1.00  0.00     0.002 C 
BRANCH  14  15
HETATM   15  C9  UNL     1      -4.671  22.460  14.600  1.00  0.00     0.025 C 
BRANCH  15  16
HETATM   16  C10 UNL     1      -5.957  23.075  15.163  1.00  0.00     0.086 C 
HETATM   17  C11 UNL     1      -7.121  22.872  14.231  1.00  0.00     0.044 C 
HETATM   18  C12 UNL     1      -8.367  23.167  15.090  1.00  0.00     0.014 C 
HETATM   19  C13 UNL     1      -8.369  22.190  16.214  1.00  0.00     0.025 C 
HETATM   20  C14 UNL     1      -9.597  22.921  14.264  1.00  0.00    -0.067 C 
HETATM   21  C26 UNL     1      -8.312  24.576  15.517  1.00  0.00     0.024 C 
HETATM   22  C15 UNL     1      -9.876  21.691  13.861  1.00  0.00     0.004 C 
HETATM   23  C22 UNL     1     -10.456  24.060  13.938  1.00  0.00     0.039 C 
HETATM   24  C23 UNL     1     -10.734  24.881  15.222  1.00  0.00     0.039 C 
HETATM   25  C24 UNL     1      -9.350  25.385  15.592  1.00  0.00    -0.071 C 
HETATM   26  C25 UNL     1      -9.185  26.793  16.028  1.00  0.00     0.044 C 
HETATM   27  C27 UNL     1      -6.998  25.155  15.912  1.00  0.00     0.249 C 
HETATM   28  O1  UNL     1      -6.883  26.139  16.655  1.00  0.00    -0.268 OA
HETATM   29  N1  UNL     1      -5.840  24.492  15.371  1.00  0.00    -0.352 N 
ATOM     30  H1  UNL     1      -4.984  25.000  15.148  1.00  0.00     0.163 HD
BRANCH  22  31
HETATM   31  C16 UNL     1     -11.011  21.341  13.075  1.00  0.00     0.001 C 
HETATM   32  C17 UNL     1     -12.193  20.934  13.405  1.00  0.00     0.006 C 
BRANCH  32  33
HETATM   33  C18 UNL     1     -12.836  20.671  14.661  1.00  0.00    -0.065 C 
HETATM   34  C19 UNL     1     -12.681  19.362  15.385  1.00  0.00     0.048 C 
HETATM   35  C20 UNL     1     -13.604  21.573  15.255  1.00  0.00    -0.005 C 
BRANCH  35  36
HETATM   36  C21 UNL     1     -13.899  22.910  14.745  1.00  0.00     0.142 C 
HETATM   37 CL1  UNL     1     -13.574  24.148  16.011  1.00  0.00    -0.126 Cl
ENDBRANCH  35  36
ENDBRANCH  32  33
ENDBRANCH  22  31
ENDBRANCH  15  16
ENDBRANCH  14  15
ENDBRANCH  13  14
ENDBRANCH  12  13
ENDBRANCH  11  12
ENDBRANCH   4  11
TORSDOF 11
ENDMDL
MODEL 5
REMARK VINA RESULT: -9.768425751      1.955      2.727
REMARK  11 active torsions:
REMARK  status: ('A' for Active; 'I' for Inactive)
REMARK    1  A    between atoms: C3_3  and  N2_32 
REMARK    2  A    between atoms: C4_4  and  C5_5 
REMARK    3  A    between atoms: C5_5  and  C6_6 
REMARK    4  A    between atoms: C6_6  and  C7_7 
REMARK    5  A    between atoms: C7_7  and  C8_8 
REMARK    6  A    between atoms: C8_8  and  C9_9 
REMARK    7  A    between atoms: C9_9  and  C10_10 
REMARK    8  A    between atoms: C15_15  and  C16_16 
REMARK    9  A    between atoms: C17_17  and  C18_18 
REMARK   10  A    between atoms: C20_20  and  C21_21 
REMARK   11  A    between atoms: N2_32  and  S1_34 
ROOT
HETATM    1  C1  UNL     1      -2.752  27.959  16.374  1.00  0.00     0.019 C 
HETATM    2  C2  UNL     1      -2.610  27.065  15.568  1.00  0.00    -0.059 C 
HETATM    3  C3  UNL     1      -2.465  26.014  14.603  1.00  0.00     0.091 C 
HETATM    4  C4  UNL     1      -3.185  26.035  13.501  1.00  0.00     0.013 C 
ENDROOT
BRANCH   3   5
HETATM    5  N2  UNL     1      -1.535  24.985  14.889  1.00  0.00    -0.277 N 
ATOM      6  H2  UNL     1      -1.804  24.242  15.535  1.00  0.00     0.179 HD
BRANCH   5   7
HETATM    7  S1  UNL     1       0.038  24.944  14.181  1.00  0.00     0.227 S 
HETATM    8  C28 UNL     1       1.250  24.876  15.494  1.00  0.00     0.186 C 
HETATM    9  O2  UNL     1       0.156  23.774  13.254  1.00  0.00    -0.206 OA
HETATM   10  O3  UNL     1       0.315  26.195  13.407  1.00  0.00    -0.206 OA
ENDBRANCH   5   7
ENDBRANCH   3   5
BRANCH   4  11
HETATM   11  C5  UNL     1      -3.103  24.986  12.438  1.00  0.00     0.030 C 
BRANCH  11  12
HETATM   12  C6  UNL     1      -4.200  23.995  12.581  1.00  0.00     0.004 C 
BRANCH  12  13
HETATM   13  C7  UNL     1      -3.860  22.821  13.384  1.00  0.00     0.000 C 
BRANCH  13  14
HETATM   14  C8  UNL     1      -4.630  22.351  14.522  1.00  0.00     0.002 C 
BRANCH  14  15
HETATM   15  C9  UNL     1      -4.590  23.052  15.837  1.00  0.00     0.025 C 
BRANCH  15  16
HETATM   16  C10 UNL     1      -5.960  23.721  15.992  1.00  0.00     0.086 C 
HETATM   17  C11 UNL     1      -6.904  23.312  14.893  1.00  0.00     0.044 C 
HETATM   18  C12 UNL     1      -8.299  23.725  15.401  1.00  0.00     0.014 C 
HETATM   19  C13 UNL     1      -8.548  22.976  16.665  1.00  0.00     0.025 C 
HETATM   20  C14 UNL     1      -9.330  23.290  14.399  1.00  0.00    -0.067 C 
HETATM   21  C26 UNL     1      -8.322  25.190  15.555  1.00  0.00     0.024 C 
HETATM   22  C15 UNL     1      -9.530  21.998  14.188  1.00  0.00     0.004 C 
HETATM   23  C22 UNL     1     -10.090  24.322  13.691  1.00  0.00     0.039 C 
HETATM   24  C23 UNL     1     -10.624  25.360  14.709  1.00  0.00     0.039 C 
HETATM   25  C24 UNL     1      -9.344  25.966  15.256  1.00  0.00    -0.071 C 
HETATM   26  C25 UNL     1      -9.261  27.435  15.442  1.00  0.00     0.044 C 
HETATM   27  C27 UNL     1      -7.115  25.873  16.099  1.00  0.00     0.249 C 
HETATM   28  O1  UNL     1      -7.149  26.981  16.648  1.00  0.00    -0.268 OA
HETATM   29  N1  UNL     1      -5.876  25.155  15.947  1.00  0.00    -0.352 N 
ATOM     30  H1  UNL     1      -4.987  25.638  15.815  1.00  0.00     0.163 HD
BRANCH  22  31
HETATM   31  C16 UNL     1     -10.478  21.473  13.264  1.00  0.00     0.001 C 
HETATM   32  C17 UNL     1     -11.639  20.933  13.436  1.00  0.00     0.006 C 
BRANCH  32  33
HETATM   33  C18 UNL     1     -12.436  20.643  14.595  1.00  0.00    -0.065 C 
HETATM   34  C19 UNL     1     -12.386  19.312  15.292  1.00  0.00     0.048 C 
HETATM   35  C20 UNL     1     -13.261  21.539  15.118  1.00  0.00    -0.005 C 
BRANCH  35  36
HETATM   36  C21 UNL     1     -13.475  22.894  14.616  1.00  0.00     0.142 C 
HETATM   37 CL1  UNL     1     -13.285  24.092  15.947  1.00  0.00    -0.126 Cl
ENDBRANCH  35  36
ENDBRANCH  32  33
ENDBRANCH  22  31
ENDBRANCH  15  16
ENDBRANCH  14  15
ENDBRANCH  13  14
ENDBRANCH  12  13
ENDBRANCH  11  12
ENDBRANCH   4  11
TORSDOF 11
ENDMDL
