MODEL 1
REMARK VINA RESULT: -8.667604697      0.000      0.000
REMARK  10 active torsions:
REMARK  status: ('A' for Active; 'I' for Inactive)
REMARK    1  A    between atoms: C2_2  and  C3_3 
REMARK    2  A    between atoms: C3_3  and  C4_4 
REMARK    3  A    between atoms: C4_4  and  C5_5 
REMARK    4  A    between atoms: C5_5  and  N1_6 
REMARK    5  A    between atoms: N1_6  and  C6_8 
REMARK    6  A    between atoms: C6_8  and  O1_9 
REMARK    7  A    between atoms: C6_8  and  C7_11 
REMARK    8  A    between atoms: C21_25  and  N2_26 
REMARK    9  A    between atoms: C30_35  and  O2_36 
REMARK   10  A    between atoms: O2_36  and  C31_37 
ROOT
HETATM    1  C7  UNL     1      -6.863  23.983  14.130  1.00  0.00     0.095 C 
HETATM    2  C8  UNL     1      -5.567  23.106  14.184  1.00  0.00     0.024 C 
HETATM    3  C9  UNL     1      -5.058  23.940  13.119  1.00  0.00     0.027 C 
HETATM    4  C10 UNL     1      -3.719  24.409  12.853  1.00  0.00     0.005 C 
HETATM    5  C11 UNL     1      -2.898  23.290  12.323  1.00  0.00     0.007 C 
HETATM    6  C12 UNL     1      -1.596  23.732  11.790  1.00  0.00     0.014 C 
HETATM    7  C13 UNL     1      -1.061  25.052  12.166  1.00  0.00    -0.015 C 
HETATM    8  C14 UNL     1       0.304  24.832  12.794  1.00  0.00     0.020 C 
HETATM    9  C15 UNL     1      -1.925  25.916  13.065  1.00  0.00    -0.060 C 
HETATM   10  C16 UNL     1      -1.590  27.171  13.132  1.00  0.00    -0.079 C 
HETATM   11  C17 UNL     1      -2.309  28.129  13.934  1.00  0.00     0.043 C 
HETATM   12  C18 UNL     1      -0.361  27.681  12.399  1.00  0.00     0.039 C 
HETATM   13  C19 UNL     1      -0.376  27.186  11.008  1.00  0.00    -0.003 C 
HETATM   14  C20 UNL     1      -1.337  27.966  10.131  1.00  0.00     0.041 C 
HETATM   15  C21 UNL     1      -1.895  26.983   9.147  1.00  0.00     0.223 C 
HETATM   16  C24 UNL     1      -1.735  25.598   9.758  1.00  0.00     0.041 C 
HETATM   17  C25 UNL     1      -0.773  25.776  10.850  1.00  0.00     0.004 C 
HETATM   18  C26 UNL     1      -2.988  25.300  13.834  1.00  0.00    -0.015 C 
HETATM   19  C27 UNL     1      -2.118  24.398  14.789  1.00  0.00     0.020 C 
HETATM   20  C28 UNL     1      -3.966  25.863  14.696  1.00  0.00     0.017 C 
HETATM   21  C29 UNL     1      -5.389  26.070  14.290  1.00  0.00     0.040 C 
HETATM   22  C30 UNL     1      -6.088  25.043  13.491  1.00  0.00     0.076 C 
ENDROOT
BRANCH   1  23
HETATM   23  C6  UNL     1      -7.500  24.035  15.420  1.00  0.00     0.118 C 
BRANCH  23  24
HETATM   24  N1  UNL     1      -8.794  24.376  15.798  1.00  0.00    -0.374 N 
ATOM     25  H1  UNL     1      -9.275  23.773  16.466  1.00  0.00     0.161 HD
BRANCH  24  26
HETATM   26  C5  UNL     1      -9.493  25.528  15.302  1.00  0.00     0.121 C 
BRANCH  26  27
HETATM   27  C4  UNL     1      -9.010  26.848  15.788  1.00  0.00     0.020 C 
BRANCH  27  28
HETATM   28  C3  UNL     1      -9.833  27.929  15.071  1.00  0.00     0.001 C 
BRANCH  28  29
HETATM   29  C2  UNL     1      -9.404  29.280  15.615  1.00  0.00    -0.004 C 
HETATM   30  C1  UNL     1      -9.355  29.195  17.123  1.00  0.00     0.005 C 
ENDBRANCH  28  29
ENDBRANCH  27  28
ENDBRANCH  26  27
ENDBRANCH  24  26
ENDBRANCH  23  24
BRANCH  23  31
HETATM   31  O1  UNL     1      -6.740  23.703  16.423  1.00  0.00    -0.349 OA
ATOM     32  H1  UNL     1      -5.933  24.204  16.465  1.00  0.00     0.219 HD
ENDBRANCH  23  31
ENDBRANCH   1  23
BRANCH  22  33
HETATM   33  O2  UNL     1      -6.477  25.601  12.290  1.00  0.00    -0.379 OA
BRANCH  33  34
HETATM   34  C31 UNL     1      -7.647  26.097  12.005  1.00  0.00     0.164 C 
HETATM   35  C32 UNL     1      -7.882  27.518  12.444  1.00  0.00     0.033 C 
ENDBRANCH  33  34
ENDBRANCH  22  33
BRANCH  15  36
HETATM   36  N2  UNL     1      -1.405  27.096   7.816  1.00  0.00     0.084 N 
HETATM   37  C22 UNL     1      -0.814  25.930   7.250  1.00  0.00     0.309 C 
HETATM   38  C23 UNL     1      -0.473  28.193   7.669  1.00  0.00     0.309 C 
ENDBRANCH  15  36
TORSDOF 10
ENDMDL
MODEL 2
REMARK VINA RESULT: -8.617922814      1.399      2.031
REMARK  10 active torsions:
REMARK  status: ('A' for Active; 'I' for Inactive)
REMARK    1  A    between atoms: C2_2  and  C3_3 
REMARK    2  A    between atoms: C3_3  and  C4_4 
REMARK    3  A    between atoms: C4_4  and  C5_5 
REMARK    4  A    between atoms: C5_5  and  N1_6 
REMARK    5  A    between atoms: N1_6  and  C6_8 
REMARK    6  A    between atoms: C6_8  and  O1_9 
REMARK    7  A    between atoms: C6_8  and  C7_11 
REMARK    8  A    between atoms: C21_25  and  N2_26 
REMARK    9  A    between atoms: C30_35  and  O2_36 
REMARK   10  A    between atoms: O2_36  and  C31_37 
ROOT
HETATM    1  C7  UNL     1      -8.765  24.034  13.737  1.00  0.00     0.095 C 
HETATM    2  C8  UNL     1      -7.629  23.205  14.423  1.00  0.00     0.024 C 
HETATM    3  C9  UNL     1      -6.732  23.782  13.448  1.00  0.00     0.027 C 
HETATM    4  C10 UNL     1      -5.353  24.191  13.568  1.00  0.00     0.005 C 
HETATM    5  C11 UNL     1      -4.480  22.990  13.609  1.00  0.00     0.007 C 
HETATM    6  C12 UNL     1      -3.047  23.313  13.478  1.00  0.00     0.014 C 
HETATM    7  C13 UNL     1      -2.582  24.688  13.723  1.00  0.00    -0.015 C 
HETATM    8  C14 UNL     1      -1.530  24.630  14.816  1.00  0.00     0.020 C 
HETATM    9  C15 UNL     1      -3.638  25.725  14.060  1.00  0.00    -0.060 C 
HETATM   10  C16 UNL     1      -3.259  26.966  13.966  1.00  0.00    -0.079 C 
HETATM   11  C17 UNL     1      -4.140  28.073  14.243  1.00  0.00     0.043 C 
HETATM   12  C18 UNL     1      -1.822  27.310  13.614  1.00  0.00     0.039 C 
HETATM   13  C19 UNL     1      -1.399  26.514  12.444  1.00  0.00    -0.003 C 
HETATM   14  C20 UNL     1      -1.948  27.066  11.143  1.00  0.00     0.041 C 
HETATM   15  C21 UNL     1      -2.205  25.880  10.263  1.00  0.00     0.223 C 
HETATM   16  C24 UNL     1      -2.358  24.671  11.173  1.00  0.00     0.041 C 
HETATM   17  C25 UNL     1      -1.815  25.100  12.466  1.00  0.00     0.004 C 
HETATM   18  C26 UNL     1      -4.938  25.288  14.525  1.00  0.00    -0.015 C 
HETATM   19  C27 UNL     1      -4.509  24.634  15.893  1.00  0.00     0.020 C 
HETATM   20  C28 UNL     1      -6.109  26.021  14.853  1.00  0.00     0.017 C 
HETATM   21  C29 UNL     1      -7.292  26.118  13.945  1.00  0.00     0.040 C 
HETATM   22  C30 UNL     1      -7.747  24.930  13.194  1.00  0.00     0.076 C 
ENDROOT
BRANCH   1  23
HETATM   23  C6  UNL     1      -9.797  24.369  14.683  1.00  0.00     0.118 C 
BRANCH  23  24
HETATM   24  N1  UNL     1     -10.976  25.094  14.546  1.00  0.00    -0.374 N 
ATOM     25  H1  UNL     1     -11.857  24.581  14.528  1.00  0.00     0.161 HD
BRANCH  24  26
HETATM   26  C5  UNL     1     -11.023  26.525  14.428  1.00  0.00     0.121 C 
BRANCH  26  27
HETATM   27  C4  UNL     1     -10.243  27.292  15.433  1.00  0.00     0.020 C 
BRANCH  27  28
HETATM   28  C3  UNL     1      -9.821  28.614  14.774  1.00  0.00     0.001 C 
BRANCH  28  29
HETATM   29  C2  UNL     1      -8.838  29.306  15.702  1.00  0.00    -0.004 C 
HETATM   30  C1  UNL     1      -9.360  29.201  17.116  1.00  0.00     0.005 C 
ENDBRANCH  28  29
ENDBRANCH  27  28
ENDBRANCH  26  27
ENDBRANCH  24  26
ENDBRANCH  23  24
BRANCH  23  31
HETATM   31  O1  UNL     1      -9.607  23.917  15.888  1.00  0.00    -0.349 OA
ATOM     32  H1  UNL     1      -9.141  23.089  15.910  1.00  0.00     0.219 HD
ENDBRANCH  23  31
ENDBRANCH   1  23
BRANCH  22  33
HETATM   33  O2  UNL     1      -7.666  25.198  11.843  1.00  0.00    -0.379 OA
BRANCH  33  34
HETATM   34  C31 UNL     1      -7.261  26.308  11.292  1.00  0.00     0.164 C 
HETATM   35  C32 UNL     1      -5.770  26.480  11.183  1.00  0.00     0.033 C 
ENDBRANCH  33  34
ENDBRANCH  22  33
BRANCH  15  36
HETATM   36  N2  UNL     1      -1.286  25.696   9.193  1.00  0.00     0.084 N 
HETATM   37  C22 UNL     1      -1.351  26.635   8.123  1.00  0.00     0.309 C 
HETATM   38  C23 UNL     1      -1.363  24.365   8.630  1.00  0.00     0.309 C 
ENDBRANCH  15  36
TORSDOF 10
ENDMDL
MODEL 3
REMARK VINA RESULT: -8.594129812      2.285      3.398
REMARK  10 active torsions:
REMARK  status: ('A' for Active; 'I' for Inactive)
REMARK    1  A    between atoms: C2_2  and  C3_3 
REMARK    2  A    between atoms: C3_3  and  C4_4 
REMARK    3  A    between atoms: C4_4  and  C5_5 
REMARK    4  A    between atoms: C5_5  and  N1_6 
REMARK    5  A    between atoms: N1_6  and  C6_8 
REMARK    6  A    between atoms: C6_8  and  O1_9 
REMARK    7  A    between atoms: C6_8  and  C7_11 
REMARK    8  A    between atoms: C21_25  and  N2_26 
REMARK    9  A    between atoms: C30_35  and  O2_36 
REMARK   10  A    between atoms: O2_36  and  C31_37 
ROOT
HETATM    1  C7  UNL     1      -9.166  24.234  13.690  1.00  0.00     0.095 C 
HETATM    2  C8  UNL     1      -8.111  23.362  14.448  1.00  0.00     0.024 C 
HETATM    3  C9  UNL     1      -7.138  23.868  13.506  1.00  0.00     0.027 C 
HETATM    4  C10 UNL     1      -5.746  24.207  13.686  1.00  0.00     0.005 C 
HETATM    5  C11 UNL     1      -4.942  22.962  13.795  1.00  0.00     0.007 C 
HETATM    6  C12 UNL     1      -3.490  23.205  13.728  1.00  0.00     0.014 C 
HETATM    7  C13 UNL     1      -2.963  24.559  13.968  1.00  0.00    -0.015 C 
HETATM    8  C14 UNL     1      -1.969  24.470  15.113  1.00  0.00     0.020 C 
HETATM    9  C15 UNL     1      -3.976  25.658  14.230  1.00  0.00    -0.060 C 
HETATM   10  C16 UNL     1      -3.527  26.874  14.131  1.00  0.00    -0.079 C 
HETATM   11  C17 UNL     1      -4.359  28.033  14.341  1.00  0.00     0.043 C 
HETATM   12  C18 UNL     1      -2.058  27.133  13.842  1.00  0.00     0.039 C 
HETATM   13  C19 UNL     1      -1.623  26.289  12.712  1.00  0.00    -0.003 C 
HETATM   14  C20 UNL     1      -2.077  26.839  11.374  1.00  0.00     0.041 C 
HETATM   15  C21 UNL     1      -2.356  25.649  10.506  1.00  0.00     0.223 C 
HETATM   16  C24 UNL     1      -2.618  24.471  11.433  1.00  0.00     0.041 C 
HETATM   17  C25 UNL     1      -2.115  24.900  12.741  1.00  0.00     0.004 C 
HETATM   18  C26 UNL     1      -5.319  25.302  14.640  1.00  0.00    -0.015 C 
HETATM   19  C27 UNL     1      -4.993  24.657  16.040  1.00  0.00     0.020 C 
HETATM   20  C28 UNL     1      -6.463  26.103  14.895  1.00  0.00     0.017 C 
HETATM   21  C29 UNL     1      -7.594  26.242  13.928  1.00  0.00     0.040 C 
HETATM   22  C30 UNL     1      -8.076  25.062  13.179  1.00  0.00     0.076 C 
ENDROOT
BRANCH   1  23
HETATM   23  C6  UNL     1     -10.223  24.646  14.576  1.00  0.00     0.118 C 
BRANCH  23  24
HETATM   24  N1  UNL     1     -11.453  25.247  14.332  1.00  0.00    -0.374 N 
ATOM     25  H1  UNL     1     -11.495  25.988  13.633  1.00  0.00     0.161 HD
BRANCH  24  26
HETATM   26  C5  UNL     1     -12.667  24.883  15.007  1.00  0.00     0.121 C 
BRANCH  26  27
HETATM   27  C4  UNL     1     -13.868  24.707  14.149  1.00  0.00     0.020 C 
BRANCH  27  28
HETATM   28  C3  UNL     1     -13.402  24.054  12.839  1.00  0.00     0.001 C 
BRANCH  28  29
HETATM   29  C2  UNL     1     -13.286  22.558  13.079  1.00  0.00    -0.004 C 
HETATM   30  C1  UNL     1     -12.002  22.071  12.448  1.00  0.00     0.005 C 
ENDBRANCH  28  29
ENDBRANCH  27  28
ENDBRANCH  26  27
ENDBRANCH  24  26
ENDBRANCH  23  24
BRANCH  23  31
HETATM   31  O1  UNL     1     -10.002  24.419  15.838  1.00  0.00    -0.349 OA
ATOM     32  H1  UNL     1      -9.132  24.678  16.120  1.00  0.00     0.219 HD
ENDBRANCH  23  31
ENDBRANCH   1  23
BRANCH  22  33
HETATM   33  O2  UNL     1      -7.916  25.295  11.829  1.00  0.00    -0.379 OA
BRANCH  33  34
HETATM   34  C31 UNL     1      -7.389  26.352  11.277  1.00  0.00     0.164 C 
HETATM   35  C32 UNL     1      -5.884  26.381  11.221  1.00  0.00     0.033 C 
ENDBRANCH  33  34
ENDBRANCH  22  33
BRANCH  15  36
HETATM   36  N2  UNL     1      -1.398  25.391   9.487  1.00  0.00     0.084 N 
HETATM   37  C22 UNL     1      -1.276  26.372   8.460  1.00  0.00     0.309 C 
HETATM   38  C23 UNL     1      -1.600  24.103   8.860  1.00  0.00     0.309 C 
ENDBRANCH  15  36
TORSDOF 10
ENDMDL
MODEL 4
REMARK VINA RESULT: -8.575574736      1.467      2.350
REMARK  10 active torsions:
REMARK  status: ('A' for Active; 'I' for Inactive)
REMARK    1  A    between atoms: C2_2  and  C3_3 
REMARK    2  A    between atoms: C3_3  and  C4_4 
REMARK    3  A    between atoms: C4_4  and  C5_5 
REMARK    4  A    between atoms: C5_5  and  N1_6 
REMARK    5  A    between atoms: N1_6  and  C6_8 
REMARK    6  A    between atoms: C6_8  and  O1_9 
REMARK    7  A    between atoms: C6_8  and  C7_11 
REMARK    8  A    between atoms: C21_25  and  N2_26 
REMARK    9  A    between atoms: C30_35  and  O2_36 
REMARK   10  A    between atoms: O2_36  and  C31_37 
ROOT
HETATM    1  C7  UNL     1      -7.017  24.151  14.023  1.00  0.00     0.095 C 
HETATM    2  C8  UNL     1      -5.758  23.223  14.052  1.00  0.00     0.024 C 
HETATM    3  C9  UNL     1      -5.210  24.072  13.019  1.00  0.00     0.027 C 
HETATM    4  C10 UNL     1      -3.851  24.496  12.776  1.00  0.00     0.005 C 
HETATM    5  C11 UNL     1      -3.071  23.364  12.211  1.00  0.00     0.007 C 
HETATM    6  C12 UNL     1      -1.750  23.772  11.700  1.00  0.00     0.014 C 
HETATM    7  C13 UNL     1      -1.166  25.056  12.124  1.00  0.00    -0.015 C 
HETATM    8  C14 UNL     1       0.186  24.761  12.750  1.00  0.00     0.020 C 
HETATM    9  C15 UNL     1      -2.000  25.923  13.049  1.00  0.00    -0.060 C 
HETATM   10  C16 UNL     1      -1.617  27.160  13.160  1.00  0.00    -0.079 C 
HETATM   11  C17 UNL     1      -2.302  28.118  13.991  1.00  0.00     0.043 C 
HETATM   12  C18 UNL     1      -0.364  27.646  12.452  1.00  0.00     0.039 C 
HETATM   13  C19 UNL     1      -0.390  27.200  11.044  1.00  0.00    -0.003 C 
HETATM   14  C20 UNL     1      -1.314  28.047  10.190  1.00  0.00     0.041 C 
HETATM   15  C21 UNL     1      -1.904  27.121   9.170  1.00  0.00     0.223 C 
HETATM   16  C24 UNL     1      -1.802  25.711   9.733  1.00  0.00     0.041 C 
HETATM   17  C25 UNL     1      -0.842  25.813  10.835  1.00  0.00     0.004 C 
HETATM   18  C26 UNL     1      -3.092  25.323  13.790  1.00  0.00    -0.015 C 
HETATM   19  C27 UNL     1      -2.264  24.355  14.718  1.00  0.00     0.020 C 
HETATM   20  C28 UNL     1      -4.052  25.894  14.667  1.00  0.00     0.017 C 
HETATM   21  C29 UNL     1      -5.463  26.172  14.262  1.00  0.00     0.040 C 
HETATM   22  C30 UNL     1      -6.197  25.201  13.424  1.00  0.00     0.076 C 
ENDROOT
BRANCH   1  23
HETATM   23  C6  UNL     1      -7.660  24.184  15.310  1.00  0.00     0.118 C 
BRANCH  23  24
HETATM   24  N1  UNL     1      -8.914  24.636  15.706  1.00  0.00    -0.374 N 
ATOM     25  H1  UNL     1      -9.011  25.027  16.643  1.00  0.00     0.161 HD
BRANCH  24  26
HETATM   26  C5  UNL     1     -10.081  24.584  14.871  1.00  0.00     0.121 C 
BRANCH  26  27
HETATM   27  C4  UNL     1     -10.665  23.237  14.642  1.00  0.00     0.020 C 
BRANCH  27  28
HETATM   28  C3  UNL     1     -10.707  23.007  13.124  1.00  0.00     0.001 C 
BRANCH  28  29
HETATM   29  C2  UNL     1     -11.720  21.910  12.845  1.00  0.00    -0.004 C 
HETATM   30  C1  UNL     1     -12.851  22.499  12.035  1.00  0.00     0.005 C 
ENDBRANCH  28  29
ENDBRANCH  27  28
ENDBRANCH  26  27
ENDBRANCH  24  26
ENDBRANCH  23  24
BRANCH  23  31
HETATM   31  O1  UNL     1      -6.951  23.706  16.291  1.00  0.00    -0.349 OA
ATOM     32  H1  UNL     1      -6.947  24.264  17.060  1.00  0.00     0.219 HD
ENDBRANCH  23  31
ENDBRANCH   1  23
BRANCH  22  33
HETATM   33  O2  UNL     1      -6.556  25.815  12.242  1.00  0.00    -0.379 OA
BRANCH  33  34
HETATM   34  C31 UNL     1      -7.712  26.347  11.960  1.00  0.00     0.164 C 
HETATM   35  C32 UNL     1      -8.186  27.422  12.902  1.00  0.00     0.033 C 
ENDBRANCH  33  34
ENDBRANCH  22  33
BRANCH  15  36
HETATM   36  N2  UNL     1      -1.402  27.261   7.846  1.00  0.00     0.084 N 
HETATM   37  C22 UNL     1      -0.869  26.089   7.237  1.00  0.00     0.309 C 
HETATM   38  C23 UNL     1      -0.413  28.312   7.745  1.00  0.00     0.309 C 
ENDBRANCH  15  36
TORSDOF 10
ENDMDL
MODEL 5
REMARK VINA RESULT: -8.496226250      2.322      4.278
REMARK  10 active torsions:
REMARK  status: ('A' for Active; 'I' for Inactive)
REMARK    1  A    between atoms: C2_2  and  C3_3 
REMARK    2  A    between atoms: C3_3  and  C4_4 
REMARK    3  A    between atoms: C4_4  and  C5_5 
REMARK    4  A    between atoms: C5_5  and  N1_6 
REMARK    5  A    between atoms: N1_6  and  C6_8 
REMARK    6  A    between atoms: C6_8  and  O1_9 
REMARK    7  A    between atoms: C6_8  and  C7_11 
REMARK    8  A    between atoms: C21_25  and  N2_26 
REMARK    9  A    between atoms: C30_35  and  O2_36 
REMARK   10  A    between atoms: O2_36  and  C31_37 
ROOT
HETATM    1  C7  UNL     1      -7.257  25.123  14.859  1.00  0.00     0.095 C 
HETATM    2  C8  UNL     1      -6.726  26.472  14.269  1.00  0.00     0.024 C 
HETATM    3  C9  UNL     1      -5.401  26.002  14.609  1.00  0.00     0.027 C 
HETATM    4  C10 UNL     1      -4.141  26.179  13.928  1.00  0.00     0.005 C 
HETATM    5  C11 UNL     1      -3.660  27.571  14.126  1.00  0.00     0.007 C 
HETATM    6  C12 UNL     1      -2.269  27.770  13.682  1.00  0.00     0.014 C 
HETATM    7  C13 UNL     1      -1.646  26.796  12.769  1.00  0.00    -0.015 C 
HETATM    8  C14 UNL     1      -1.180  27.553  11.538  1.00  0.00     0.020 C 
HETATM    9  C15 UNL     1      -2.480  25.594  12.368  1.00  0.00    -0.060 C 
HETATM   10  C16 UNL     1      -1.825  24.608  11.828  1.00  0.00    -0.079 C 
HETATM   11  C17 UNL     1      -2.464  23.390  11.397  1.00  0.00     0.043 C 
HETATM   12  C18 UNL     1      -0.333  24.725  11.566  1.00  0.00     0.039 C 
HETATM   13  C19 UNL     1       0.340  25.240  12.775  1.00  0.00    -0.003 C 
HETATM   14  C20 UNL     1       0.517  24.170  13.834  1.00  0.00     0.041 C 
HETATM   15  C21 UNL     1       0.382  24.864  15.155  1.00  0.00     0.223 C 
HETATM   16  C24 UNL     1      -0.403  26.145  14.910  1.00  0.00     0.041 C 
HETATM   17  C25 UNL     1      -0.358  26.343  13.458  1.00  0.00     0.004 C 
HETATM   18  C26 UNL     1      -3.919  25.642  12.531  1.00  0.00    -0.015 C 
HETATM   19  C27 UNL     1      -4.252  26.779  11.491  1.00  0.00     0.020 C 
HETATM   20  C28 UNL     1      -4.920  24.663  12.295  1.00  0.00     0.017 C 
HETATM   21  C29 UNL     1      -5.569  23.880  13.390  1.00  0.00     0.040 C 
HETATM   22  C30 UNL     1      -5.932  24.543  14.659  1.00  0.00     0.076 C 
ENDROOT
BRANCH   1  23
HETATM   23  C6  UNL     1      -8.481  24.728  14.212  1.00  0.00     0.118 C 
BRANCH  23  24
HETATM   24  N1  UNL     1      -9.462  25.467  13.558  1.00  0.00    -0.374 N 
ATOM     25  H1  UNL     1      -9.381  25.585  12.549  1.00  0.00     0.161 HD
BRANCH  24  26
HETATM   26  C5  UNL     1     -10.580  26.074  14.225  1.00  0.00     0.121 C 
BRANCH  26  27
HETATM   27  C4  UNL     1     -10.254  27.089  15.261  1.00  0.00     0.020 C 
BRANCH  27  28
HETATM   28  C3  UNL     1      -9.901  28.393  14.530  1.00  0.00     0.001 C 
BRANCH  28  29
HETATM   29  C2  UNL     1      -8.967  29.191  15.423  1.00  0.00    -0.004 C 
HETATM   30  C1  UNL     1      -9.393  28.991  16.859  1.00  0.00     0.005 C 
ENDBRANCH  28  29
ENDBRANCH  27  28
ENDBRANCH  26  27
ENDBRANCH  24  26
ENDBRANCH  23  24
BRANCH  23  31
HETATM   31  O1  UNL     1      -8.727  23.451  14.233  1.00  0.00    -0.349 OA
ATOM     32  H1  UNL     1      -7.945  22.919  14.327  1.00  0.00     0.219 HD
ENDBRANCH  23  31
ENDBRANCH   1  23
BRANCH  22  33
HETATM   33  O2  UNL     1      -5.243  23.939  15.691  1.00  0.00    -0.379 OA
BRANCH  33  34
HETATM   34  C31 UNL     1      -5.684  23.716  16.897  1.00  0.00     0.164 C 
HETATM   35  C32 UNL     1      -6.734  22.644  17.024  1.00  0.00     0.033 C 
ENDBRANCH  33  34
ENDBRANCH  22  33
BRANCH  15  36
HETATM   36  N2  UNL     1       1.591  25.049  15.882  1.00  0.00     0.084 N 
HETATM   37  C22 UNL     1       2.227  26.317  15.754  1.00  0.00     0.309 C 
HETATM   38  C23 UNL     1       2.567  24.022  15.587  1.00  0.00     0.309 C 
ENDBRANCH  15  36
TORSDOF 10
ENDMDL
