MODEL 1
REMARK VINA RESULT: -9.066770295      0.000      0.000
REMARK  7 active torsions:
REMARK  status: ('A' for Active; 'I' for Inactive)
REMARK    1  A    between atoms: S1_2  and  C2_4 
REMARK    2  A    between atoms: S1_2  and  O2_7 
REMARK    3  A    between atoms: C2_4  and  C3_5 
REMARK    4  A    between atoms: O2_7  and  C5_8 
REMARK    5  A    between atoms: C12_15  and  C13_16 
REMARK    6  A    between atoms: C13_16  and  O3_17 
REMARK    7  A    between atoms: C15_19  and  C16_20 
ROOT
HETATM    1  C5  UNL     1      -7.149  25.805  14.391  1.00  0.00     0.148 C 
HETATM    2  C6  UNL     1      -5.896  25.545  15.218  1.00  0.00     0.040 C 
HETATM    3  C7  UNL     1      -4.893  26.601  14.802  1.00  0.00     0.005 C 
HETATM    4  C8  UNL     1      -3.610  26.003  14.350  1.00  0.00    -0.035 C 
HETATM    5  C9  UNL     1      -3.373  24.792  15.272  1.00  0.00     0.016 C 
HETATM    6  C10 UNL     1      -2.412  26.878  14.471  1.00  0.00     0.011 C 
HETATM    7  C11 UNL     1      -1.587  27.011  13.248  1.00  0.00     0.017 C 
HETATM    8  C12 UNL     1      -1.302  25.757  12.486  1.00  0.00     0.009 C 
HETATM    9  C15 UNL     1      -1.125  26.090  11.057  1.00  0.00    -0.069 C 
HETATM   10  C19 UNL     1      -1.800  25.208  10.295  1.00  0.00    -0.022 C 
HETATM   11  C20 UNL     1      -2.501  24.198  11.156  1.00  0.00     0.033 C 
HETATM   12  C21 UNL     1      -2.490  24.797  12.509  1.00  0.00     0.009 C 
HETATM   13  C22 UNL     1      -3.778  25.424  12.965  1.00  0.00    -0.001 C 
HETATM   14  C23 UNL     1      -4.449  26.278  11.974  1.00  0.00     0.006 C 
HETATM   15  C24 UNL     1      -5.296  27.397  12.445  1.00  0.00     0.011 C 
HETATM   16  C25 UNL     1      -5.570  27.539  13.881  1.00  0.00    -0.030 C 
HETATM   17  C26 UNL     1      -5.330  28.993  14.325  1.00  0.00     0.016 C 
HETATM   18  C27 UNL     1      -7.051  27.303  14.228  1.00  0.00    -0.013 C 
HETATM   19  C28 UNL     1      -7.984  27.862  13.216  1.00  0.00     0.018 C 
HETATM   20  C29 UNL     1      -7.343  27.931  15.571  1.00  0.00     0.018 C 
ENDROOT
BRANCH   1  21
HETATM   21  O2  UNL     1      -8.242  25.460  15.141  1.00  0.00    -0.300 OA
BRANCH  21  22
HETATM   22  S1  UNL     1      -8.932  24.015  14.740  1.00  0.00     0.053 S 
HETATM   23  C1  UNL     1     -10.407  24.258  14.188  1.00  0.00     0.144 C 
HETATM   24  O1  UNL     1      -8.283  23.364  13.520  1.00  0.00    -0.244 OA
BRANCH  22  25
HETATM   25  C2  UNL     1      -8.964  22.864  16.080  1.00  0.00     0.123 C 
BRANCH  25  26
HETATM   26  C3  UNL     1     -10.373  22.456  16.436  1.00  0.00     0.009 C 
HETATM   27  C4  UNL     1     -10.727  22.788  17.865  1.00  0.00     0.006 C 
ENDBRANCH  25  26
ENDBRANCH  22  25
ENDBRANCH  21  22
ENDBRANCH   1  21
BRANCH   8  28
HETATM   28  C13 UNL     1      -0.129  25.080  13.135  1.00  0.00     0.181 C 
BRANCH  28  29
HETATM   29  O3  UNL     1      -0.381  23.964  13.864  1.00  0.00    -0.395 OA
HETATM   30  C14 UNL     1       0.281  23.916  15.077  1.00  0.00     0.201 C 
ENDBRANCH  28  29
ENDBRANCH   8  28
BRANCH   9  31
HETATM   31  C16 UNL     1      -0.439  27.236  10.405  1.00  0.00     0.007 C 
HETATM   32  C17 UNL     1      -1.396  28.310   9.919  1.00  0.00     0.014 C 
HETATM   33  C18 UNL     1       0.466  26.893   9.270  1.00  0.00     0.014 C 
ENDBRANCH   9  31
TORSDOF 7
ENDMDL
MODEL 2
REMARK VINA RESULT: -8.955875521      1.069      1.233
REMARK  7 active torsions:
REMARK  status: ('A' for Active; 'I' for Inactive)
REMARK    1  A    between atoms: S1_2  and  C2_4 
REMARK    2  A    between atoms: S1_2  and  O2_7 
REMARK    3  A    between atoms: C2_4  and  C3_5 
REMARK    4  A    between atoms: O2_7  and  C5_8 
REMARK    5  A    between atoms: C12_15  and  C13_16 
REMARK    6  A    between atoms: C13_16  and  O3_17 
REMARK    7  A    between atoms: C15_19  and  C16_20 
ROOT
HETATM    1  C5  UNL     1      -7.152  25.779  14.477  1.00  0.00     0.148 C 
HETATM    2  C6  UNL     1      -5.891  25.537  15.298  1.00  0.00     0.040 C 
HETATM    3  C7  UNL     1      -4.899  26.597  14.865  1.00  0.00     0.005 C 
HETATM    4  C8  UNL     1      -3.615  26.007  14.409  1.00  0.00    -0.035 C 
HETATM    5  C9  UNL     1      -3.361  24.805  15.340  1.00  0.00     0.016 C 
HETATM    6  C10 UNL     1      -2.424  26.892  14.515  1.00  0.00     0.011 C 
HETATM    7  C11 UNL     1      -1.608  27.022  13.285  1.00  0.00     0.017 C 
HETATM    8  C12 UNL     1      -1.319  25.764  12.531  1.00  0.00     0.009 C 
HETATM    9  C15 UNL     1      -1.154  26.087  11.099  1.00  0.00    -0.069 C 
HETATM   10  C19 UNL     1      -1.827  25.193  10.348  1.00  0.00    -0.022 C 
HETATM   11  C20 UNL     1      -2.513  24.184  11.223  1.00  0.00     0.033 C 
HETATM   12  C21 UNL     1      -2.498  24.795  12.571  1.00  0.00     0.009 C 
HETATM   13  C22 UNL     1      -3.788  25.414  13.031  1.00  0.00    -0.001 C 
HETATM   14  C23 UNL     1      -4.473  26.255  12.037  1.00  0.00     0.006 C 
HETATM   15  C24 UNL     1      -5.326  27.370  12.505  1.00  0.00     0.011 C 
HETATM   16  C25 UNL     1      -5.591  27.521  13.942  1.00  0.00    -0.030 C 
HETATM   17  C26 UNL     1      -5.360  28.981  14.372  1.00  0.00     0.016 C 
HETATM   18  C27 UNL     1      -7.068  27.276  14.301  1.00  0.00    -0.013 C 
HETATM   19  C28 UNL     1      -8.013  27.819  13.291  1.00  0.00     0.018 C 
HETATM   20  C29 UNL     1      -7.356  27.913  15.641  1.00  0.00     0.018 C 
ENDROOT
BRANCH   1  21
HETATM   21  O2  UNL     1      -8.237  25.431  15.238  1.00  0.00    -0.300 OA
BRANCH  21  22
HETATM   22  S1  UNL     1      -9.081  24.123  14.687  1.00  0.00     0.053 S 
HETATM   23  C1  UNL     1      -8.344  23.506  13.416  1.00  0.00     0.144 C 
HETATM   24  O1  UNL     1      -9.028  22.934  15.644  1.00  0.00    -0.244 OA
BRANCH  22  25
HETATM   25  C2  UNL     1     -10.763  24.496  14.295  1.00  0.00     0.123 C 
BRANCH  25  26
HETATM   26  C3  UNL     1     -11.164  25.865  14.790  1.00  0.00     0.009 C 
HETATM   27  C4  UNL     1     -12.225  25.803  15.862  1.00  0.00     0.006 C 
ENDBRANCH  25  26
ENDBRANCH  22  25
ENDBRANCH  21  22
ENDBRANCH   1  21
BRANCH   8  28
HETATM   28  C13 UNL     1      -0.135  25.103  13.178  1.00  0.00     0.181 C 
BRANCH  28  29
HETATM   29  O3  UNL     1      -0.366  23.966  13.883  1.00  0.00    -0.395 OA
HETATM   30  C14 UNL     1       0.285  23.911  15.100  1.00  0.00     0.201 C 
ENDBRANCH  28  29
ENDBRANCH   8  28
BRANCH   9  31
HETATM   31  C16 UNL     1      -0.482  27.232  10.432  1.00  0.00     0.007 C 
HETATM   32  C17 UNL     1      -1.451  28.299   9.954  1.00  0.00     0.014 C 
HETATM   33  C18 UNL     1       0.410  26.889   9.288  1.00  0.00     0.014 C 
ENDBRANCH   9  31
TORSDOF 7
ENDMDL
MODEL 3
REMARK VINA RESULT: -8.837167486      1.982      4.604
REMARK  7 active torsions:
REMARK  status: ('A' for Active; 'I' for Inactive)
REMARK    1  A    between atoms: S1_2  and  C2_4 
REMARK    2  A    between atoms: S1_2  and  O2_7 
REMARK    3  A    between atoms: C2_4  and  C3_5 
REMARK    4  A    between atoms: O2_7  and  C5_8 
REMARK    5  A    between atoms: C12_15  and  C13_16 
REMARK    6  A    between atoms: C13_16  and  O3_17 
REMARK    7  A    between atoms: C15_19  and  C16_20 
ROOT
HETATM    1  C5  UNL     1      -6.746  25.811  14.648  1.00  0.00     0.148 C 
HETATM    2  C6  UNL     1      -6.161  25.869  13.242  1.00  0.00     0.040 C 
HETATM    3  C7  UNL     1      -5.118  24.773  13.177  1.00  0.00     0.005 C 
HETATM    4  C8  UNL     1      -3.789  25.293  12.763  1.00  0.00    -0.035 C 
HETATM    5  C9  UNL     1      -4.082  26.377  11.708  1.00  0.00     0.016 C 
HETATM    6  C10 UNL     1      -2.880  24.304  12.122  1.00  0.00     0.011 C 
HETATM    7  C11 UNL     1      -1.516  24.220  12.695  1.00  0.00     0.017 C 
HETATM    8  C12 UNL     1      -0.830  25.514  12.997  1.00  0.00     0.009 C 
HETATM    9  C15 UNL     1       0.106  25.311  14.122  1.00  0.00    -0.069 C 
HETATM   10  C19 UNL     1      -0.011  26.324  15.002  1.00  0.00    -0.022 C 
HETATM   11  C20 UNL     1      -1.053  27.303  14.541  1.00  0.00     0.033 C 
HETATM   12  C21 UNL     1      -1.809  26.571  13.501  1.00  0.00     0.009 C 
HETATM   13  C22 UNL     1      -3.145  26.022  13.918  1.00  0.00    -0.001 C 
HETATM   14  C23 UNL     1      -3.168  25.338  15.220  1.00  0.00     0.006 C 
HETATM   15  C24 UNL     1      -4.155  24.260  15.449  1.00  0.00     0.011 C 
HETATM   16  C25 UNL     1      -5.186  24.000  14.435  1.00  0.00    -0.030 C 
HETATM   17  C26 UNL     1      -5.264  22.492  14.133  1.00  0.00     0.016 C 
HETATM   18  C27 UNL     1      -6.604  24.334  14.931  1.00  0.00    -0.013 C 
HETATM   19  C28 UNL     1      -6.826  23.969  16.354  1.00  0.00     0.018 C 
HETATM   20  C29 UNL     1      -7.608  23.603  14.070  1.00  0.00     0.018 C 
ENDROOT
BRANCH   1  21
HETATM   21  O2  UNL     1      -8.065  26.177  14.584  1.00  0.00    -0.300 OA
BRANCH  21  22
HETATM   22  S1  UNL     1      -8.369  27.748  14.992  1.00  0.00     0.053 S 
HETATM   23  C1  UNL     1      -9.901  28.086  14.715  1.00  0.00     0.144 C 
HETATM   24  O1  UNL     1      -8.297  27.997  16.497  1.00  0.00    -0.244 OA
BRANCH  22  25
HETATM   25  C2  UNL     1      -7.328  28.899  14.149  1.00  0.00     0.123 C 
BRANCH  25  26
HETATM   26  C3  UNL     1      -6.074  29.201  14.933  1.00  0.00     0.009 C 
HETATM   27  C4  UNL     1      -4.837  29.196  14.068  1.00  0.00     0.006 C 
ENDBRANCH  25  26
ENDBRANCH  22  25
ENDBRANCH  21  22
ENDBRANCH   1  21
BRANCH   8  28
HETATM   28  C13 UNL     1      -0.204  26.010  11.725  1.00  0.00     0.181 C 
BRANCH  28  29
HETATM   29  O3  UNL     1       0.110  25.084  10.784  1.00  0.00    -0.395 OA
HETATM   30  C14 UNL     1      -0.027  25.527   9.483  1.00  0.00     0.201 C 
ENDBRANCH  28  29
ENDBRANCH   8  28
BRANCH   9  31
HETATM   31  C16 UNL     1       1.017  24.180  14.438  1.00  0.00     0.007 C 
HETATM   32  C17 UNL     1       0.429  23.199  15.436  1.00  0.00     0.014 C 
HETATM   33  C18 UNL     1       2.377  24.552  14.921  1.00  0.00     0.014 C 
ENDBRANCH   9  31
TORSDOF 7
ENDMDL
MODEL 4
REMARK VINA RESULT: -8.786925985      2.264      7.688
REMARK  7 active torsions:
REMARK  status: ('A' for Active; 'I' for Inactive)
REMARK    1  A    between atoms: S1_2  and  C2_4 
REMARK    2  A    between atoms: S1_2  and  O2_7 
REMARK    3  A    between atoms: C2_4  and  C3_5 
REMARK    4  A    between atoms: O2_7  and  C5_8 
REMARK    5  A    between atoms: C12_15  and  C13_16 
REMARK    6  A    between atoms: C13_16  and  O3_17 
REMARK    7  A    between atoms: C15_19  and  C16_20 
ROOT
HETATM    1  C5  UNL     1      -2.289  24.838  13.715  1.00  0.00     0.148 C 
HETATM    2  C6  UNL     1      -3.446  23.999  13.183  1.00  0.00     0.040 C 
HETATM    3  C7  UNL     1      -4.445  24.981  12.606  1.00  0.00     0.005 C 
HETATM    4  C8  UNL     1      -5.797  24.813  13.198  1.00  0.00    -0.035 C 
HETATM    5  C9  UNL     1      -5.974  23.294  13.393  1.00  0.00     0.016 C 
HETATM    6  C10 UNL     1      -6.933  25.275  12.355  1.00  0.00     0.011 C 
HETATM    7  C11 UNL     1      -7.891  26.192  13.015  1.00  0.00     0.017 C 
HETATM    8  C12 UNL     1      -8.318  25.838  14.404  1.00  0.00     0.009 C 
HETATM    9  C15 UNL     1      -8.649  27.077  15.137  1.00  0.00    -0.069 C 
HETATM   10  C19 UNL     1      -8.108  27.037  16.370  1.00  0.00    -0.022 C 
HETATM   11  C20 UNL     1      -7.354  25.754  16.571  1.00  0.00     0.033 C 
HETATM   12  C21 UNL     1      -7.178  25.213  15.206  1.00  0.00     0.009 C 
HETATM   13  C22 UNL     1      -5.820  25.399  14.590  1.00  0.00    -0.001 C 
HETATM   14  C23 UNL     1      -5.234  26.740  14.747  1.00  0.00     0.006 C 
HETATM   15  C24 UNL     1      -4.291  27.236  13.721  1.00  0.00     0.011 C 
HETATM   16  C25 UNL     1      -3.842  26.330  12.655  1.00  0.00    -0.030 C 
HETATM   17  C26 UNL     1      -3.964  27.022  11.285  1.00  0.00     0.016 C 
HETATM   18  C27 UNL     1      -2.341  25.999  12.751  1.00  0.00    -0.013 C 
HETATM   19  C28 UNL     1      -1.512  27.162  13.162  1.00  0.00     0.018 C 
HETATM   20  C29 UNL     1      -1.865  25.502  11.406  1.00  0.00     0.018 C 
ENDROOT
BRANCH   1  21
HETATM   21  O2  UNL     1      -1.131  24.123  13.564  1.00  0.00    -0.300 OA
BRANCH  21  22
HETATM   22  S1  UNL     1      -0.308  23.831  14.966  1.00  0.00     0.053 S 
HETATM   23  C1  UNL     1      -1.191  24.287  16.211  1.00  0.00     0.144 C 
HETATM   24  O1  UNL     1      -0.152  22.342  15.266  1.00  0.00    -0.244 OA
BRANCH  22  25
HETATM   25  C2  UNL     1       1.274  24.616  15.019  1.00  0.00     0.123 C 
BRANCH  25  26
HETATM   26  C3  UNL     1       1.182  26.028  15.545  1.00  0.00     0.009 C 
HETATM   27  C4  UNL     1       2.530  26.596  15.914  1.00  0.00     0.006 C 
ENDBRANCH  25  26
ENDBRANCH  22  25
ENDBRANCH  21  22
ENDBRANCH   1  21
BRANCH   8  28
HETATM   28  C13 UNL     1      -9.433  24.838  14.301  1.00  0.00     0.181 C 
BRANCH  28  29
HETATM   29  O3  UNL     1      -9.153  23.555  14.647  1.00  0.00    -0.395 OA
HETATM   30  C14 UNL     1     -10.162  22.923  15.348  1.00  0.00     0.201 C 
ENDBRANCH  28  29
ENDBRANCH   8  28
BRANCH   9  31
HETATM   31  C16 UNL     1      -9.358  28.307  14.697  1.00  0.00     0.007 C 
HETATM   32  C17 UNL     1      -9.345  29.411  15.739  1.00  0.00     0.014 C 
HETATM   33  C18 UNL     1     -10.770  28.122  14.255  1.00  0.00     0.014 C 
ENDBRANCH   9  31
TORSDOF 7
ENDMDL
MODEL 5
REMARK VINA RESULT: -8.704829152      2.416      7.600
REMARK  7 active torsions:
REMARK  status: ('A' for Active; 'I' for Inactive)
REMARK    1  A    between atoms: S1_2  and  C2_4 
REMARK    2  A    between atoms: S1_2  and  O2_7 
REMARK    3  A    between atoms: C2_4  and  C3_5 
REMARK    4  A    between atoms: O2_7  and  C5_8 
REMARK    5  A    between atoms: C12_15  and  C13_16 
REMARK    6  A    between atoms: C13_16  and  O3_17 
REMARK    7  A    between atoms: C15_19  and  C16_20 
ROOT
HETATM    1  C5  UNL     1      -2.003  25.380  13.885  1.00  0.00     0.148 C 
HETATM    2  C6  UNL     1      -2.904  24.224  13.468  1.00  0.00     0.040 C 
HETATM    3  C7  UNL     1      -4.095  24.851  12.772  1.00  0.00     0.005 C 
HETATM    4  C8  UNL     1      -5.382  24.432  13.384  1.00  0.00    -0.035 C 
HETATM    5  C9  UNL     1      -5.190  22.953  13.773  1.00  0.00     0.016 C 
HETATM    6  C10 UNL     1      -6.571  24.492  12.491  1.00  0.00     0.011 C 
HETATM    7  C11 UNL     1      -7.743  25.222  13.029  1.00  0.00     0.017 C 
HETATM    8  C12 UNL     1      -8.111  24.950  14.453  1.00  0.00     0.009 C 
HETATM    9  C15 UNL     1      -8.755  26.153  15.022  1.00  0.00    -0.069 C 
HETATM   10  C19 UNL     1      -8.258  26.401  16.249  1.00  0.00    -0.022 C 
HETATM   11  C20 UNL     1      -7.220  25.378  16.612  1.00  0.00     0.033 C 
HETATM   12  C21 UNL     1      -6.878  24.729  15.326  1.00  0.00     0.009 C 
HETATM   13  C22 UNL     1      -5.588  25.164  14.689  1.00  0.00    -0.001 C 
HETATM   14  C23 UNL     1      -5.351  26.616  14.671  1.00  0.00     0.006 C 
HETATM   15  C24 UNL     1      -4.527  27.196  13.587  1.00  0.00     0.011 C 
HETATM   16  C25 UNL     1      -3.840  26.302  12.646  1.00  0.00    -0.030 C 
HETATM   17  C26 UNL     1      -4.087  26.765  11.199  1.00  0.00     0.016 C 
HETATM   18  C27 UNL     1      -2.308  26.364  12.780  1.00  0.00    -0.013 C 
HETATM   19  C28 UNL     1      -1.799  27.736  13.036  1.00  0.00     0.018 C 
HETATM   20  C29 UNL     1      -1.685  25.834  11.509  1.00  0.00     0.018 C 
ENDROOT
BRANCH   1  21
HETATM   21  O2  UNL     1      -0.701  24.958  13.825  1.00  0.00    -0.300 OA
BRANCH  21  22
HETATM   22  S1  UNL     1      -0.017  24.608  15.286  1.00  0.00     0.053 S 
HETATM   23  C1  UNL     1       0.991  25.771  15.699  1.00  0.00     0.144 C 
HETATM   24  O1  UNL     1      -1.012  24.679  16.442  1.00  0.00    -0.244 OA
BRANCH  22  25
HETATM   25  C2  UNL     1       0.811  23.047  15.310  1.00  0.00     0.123 C 
BRANCH  25  26
HETATM   26  C3  UNL     1      -0.068  21.954  15.868  1.00  0.00     0.009 C 
HETATM   27  C4  UNL     1       0.504  20.577  15.635  1.00  0.00     0.006 C 
ENDBRANCH  25  26
ENDBRANCH  22  25
ENDBRANCH  21  22
ENDBRANCH   1  21
BRANCH   8  28
HETATM   28  C13 UNL     1      -8.946  23.703  14.482  1.00  0.00     0.181 C 
BRANCH  28  29
HETATM   29  O3  UNL     1      -9.920  23.584  13.544  1.00  0.00    -0.395 OA
HETATM   30  C14 UNL     1     -10.879  22.634  13.838  1.00  0.00     0.201 C 
ENDBRANCH  28  29
ENDBRANCH   8  28
BRANCH   9  31
HETATM   31  C16 UNL     1      -9.729  27.106  14.429  1.00  0.00     0.007 C 
HETATM   32  C17 UNL     1      -9.603  28.513  14.984  1.00  0.00     0.014 C 
HETATM   33  C18 UNL     1     -11.164  26.713  14.521  1.00  0.00     0.014 C 
ENDBRANCH   9  31
TORSDOF 7
ENDMDL
