MODEL 1
REMARK VINA RESULT: -9.438669731      0.000      0.000
REMARK  7 active torsions:
REMARK  status: ('A' for Active; 'I' for Inactive)
REMARK    1  A    between atoms: O1_2  and  C2_3 
REMARK    2  A    between atoms: C2_3  and  C3_4 
REMARK    3  A    between atoms: C3_4  and  O2_5 
REMARK    4  A    between atoms: O2_5  and  C4_6 
REMARK    5  A    between atoms: C24_26  and  C25_27 
REMARK    6  A    between atoms: C25_27  and  C26_28 
REMARK    7  A    between atoms: C26_28  and  C27_29 
ROOT
HETATM    1  C4  UNL     1      -7.888  24.664  13.036  1.00  0.00     0.126 C 
HETATM    2  C5  UNL     1      -7.170  23.476  13.623  1.00  0.00     0.033 C 
HETATM    3  C6  UNL     1      -5.718  23.551  13.731  1.00  0.00     0.012 C 
HETATM    4  C7  UNL     1      -5.136  24.933  14.098  1.00  0.00    -0.035 C 
HETATM    5  C8  UNL     1      -5.663  25.181  15.499  1.00  0.00     0.016 C 
HETATM    6  C9  UNL     1      -5.854  25.855  13.140  1.00  0.00     0.001 C 
HETATM    7  C10 UNL     1      -5.092  27.071  12.847  1.00  0.00     0.007 C 
HETATM    8  C11 UNL     1      -3.783  26.679  12.223  1.00  0.00     0.011 C 
HETATM    9  C12 UNL     1      -3.026  25.579  12.862  1.00  0.00    -0.032 C 
HETATM   10  C13 UNL     1      -2.784  24.510  11.772  1.00  0.00     0.016 C 
HETATM   11  C14 UNL     1      -3.655  24.918  14.026  1.00  0.00     0.003 C 
HETATM   12  C15 UNL     1      -2.979  25.238  15.367  1.00  0.00     0.011 C 
HETATM   13  C16 UNL     1      -1.535  25.507  15.323  1.00  0.00    -0.006 C 
HETATM   14  C17 UNL     1      -1.359  27.035  15.406  1.00  0.00     0.006 C 
HETATM   15  C18 UNL     1      -1.718  27.419  13.990  1.00  0.00     0.011 C 
HETATM   16  C19 UNL     1      -1.626  26.140  13.145  1.00  0.00    -0.029 C 
HETATM   17  C20 UNL     1      -0.971  26.542  11.860  1.00  0.00     0.016 C 
HETATM   18  C21 UNL     1      -0.811  25.284  14.035  1.00  0.00    -0.036 C 
HETATM   19  C22 UNL     1      -0.460  23.932  13.672  1.00  0.00     0.016 C 
HETATM   20  C23 UNL     1       0.539  26.009  14.206  1.00  0.00     0.016 C 
HETATM   21  C24 UNL     1      -7.283  25.978  13.571  1.00  0.00     0.019 C 
ENDROOT
BRANCH  21  22
HETATM   22  C25 UNL     1      -8.105  27.077  13.000  1.00  0.00     0.010 C 
BRANCH  22  23
HETATM   23  C26 UNL     1      -8.708  28.076  13.903  1.00  0.00     0.036 C 
BRANCH  23  24
HETATM   24  C27 UNL     1      -7.968  28.239  15.210  1.00  0.00     0.222 C 
HETATM   25  C28 UNL     1      -6.883  29.310  15.133  1.00  0.00     0.037 C 
HETATM   26  C29 UNL     1      -6.828  29.951  16.492  1.00  0.00     0.032 C 
HETATM   27  C30 UNL     1      -7.830  29.182  17.297  1.00  0.00     0.272 C 
HETATM   28  N1  UNL     1      -8.811  28.664  16.314  1.00  0.00     0.088 N 
HETATM   29  C31 UNL     1      -9.639  29.798  15.971  1.00  0.00     0.310 C 
ENDBRANCH  23  24
ENDBRANCH  22  23
ENDBRANCH  21  22
BRANCH   1  30
HETATM   30  O2  UNL     1      -9.222  24.524  13.325  1.00  0.00    -0.383 OA
BRANCH  30  31
HETATM   31  C3  UNL     1      -9.453  23.321  13.966  1.00  0.00     0.194 C 
BRANCH  31  32
HETATM   32  C2  UNL     1     -10.887  23.159  14.382  1.00  0.00     0.193 C 
BRANCH  32  33
HETATM   33  O1  UNL     1     -11.473  22.011  13.911  1.00  0.00    -0.394 OA
HETATM   34  C1  UNL     1     -12.288  22.168  12.822  1.00  0.00     0.201 C 
ENDBRANCH  32  33
ENDBRANCH  31  32
ENDBRANCH  30  31
ENDBRANCH   1  30
TORSDOF 7
ENDMDL
MODEL 2
REMARK VINA RESULT: -9.192260997      3.429      8.039
REMARK  7 active torsions:
REMARK  status: ('A' for Active; 'I' for Inactive)
REMARK    1  A    between atoms: O1_2  and  C2_3 
REMARK    2  A    between atoms: C2_3  and  C3_4 
REMARK    3  A    between atoms: C3_4  and  O2_5 
REMARK    4  A    between atoms: O2_5  and  C4_6 
REMARK    5  A    between atoms: C24_26  and  C25_27 
REMARK    6  A    between atoms: C25_27  and  C26_28 
REMARK    7  A    between atoms: C26_28  and  C27_29 
ROOT
HETATM    1  C4  UNL     1      -2.560  25.279  11.979  1.00  0.00     0.126 C 
HETATM    2  C5  UNL     1      -3.261  26.332  11.159  1.00  0.00     0.033 C 
HETATM    3  C6  UNL     1      -4.594  26.741  11.584  1.00  0.00     0.012 C 
HETATM    4  C7  UNL     1      -4.825  26.817  13.109  1.00  0.00    -0.035 C 
HETATM    5  C8  UNL     1      -3.894  27.927  13.557  1.00  0.00     0.016 C 
HETATM    6  C9  UNL     1      -4.270  25.496  13.590  1.00  0.00     0.001 C 
HETATM    7  C10 UNL     1      -4.883  25.046  14.841  1.00  0.00     0.007 C 
HETATM    8  C11 UNL     1      -6.359  24.877  14.619  1.00  0.00     0.011 C 
HETATM    9  C12 UNL     1      -7.069  25.962  13.904  1.00  0.00    -0.032 C 
HETATM   10  C13 UNL     1      -7.772  25.312  12.690  1.00  0.00     0.016 C 
HETATM   11  C14 UNL     1      -6.251  27.092  13.413  1.00  0.00     0.003 C 
HETATM   12  C15 UNL     1      -6.464  28.401  14.188  1.00  0.00     0.011 C 
HETATM   13  C16 UNL     1      -7.802  28.611  14.758  1.00  0.00    -0.006 C 
HETATM   14  C17 UNL     1      -7.706  28.287  16.261  1.00  0.00     0.006 C 
HETATM   15  C18 UNL     1      -7.703  26.778  16.206  1.00  0.00     0.011 C 
HETATM   16  C19 UNL     1      -8.227  26.382  14.818  1.00  0.00    -0.029 C 
HETATM   17  C20 UNL     1      -9.146  25.221  15.041  1.00  0.00     0.016 C 
HETATM   18  C21 UNL     1      -8.883  27.643  14.405  1.00  0.00    -0.036 C 
HETATM   19  C22 UNL     1      -9.530  27.776  13.122  1.00  0.00     0.016 C 
HETATM   20  C23 UNL     1     -10.000  27.901  15.437  1.00  0.00     0.016 C 
HETATM   21  C24 UNL     1      -2.776  25.535  13.484  1.00  0.00     0.019 C 
ENDROOT
BRANCH  21  22
HETATM   22  C25 UNL     1      -1.987  24.500  14.200  1.00  0.00     0.010 C 
BRANCH  22  23
HETATM   23  C26 UNL     1      -1.037  24.911  15.252  1.00  0.00     0.036 C 
BRANCH  23  24
HETATM   24  C27 UNL     1       0.392  25.016  14.773  1.00  0.00     0.222 C 
HETATM   25  C28 UNL     1       1.279  25.777  15.756  1.00  0.00     0.037 C 
HETATM   26  C29 UNL     1       2.641  25.145  15.668  1.00  0.00     0.032 C 
HETATM   27  C30 UNL     1       2.490  24.103  14.603  1.00  0.00     0.272 C 
HETATM   28  N1  UNL     1       1.054  23.733  14.615  1.00  0.00     0.088 N 
HETATM   29  C31 UNL     1       0.892  22.881  15.771  1.00  0.00     0.310 C 
ENDBRANCH  23  24
ENDBRANCH  22  23
ENDBRANCH  21  22
BRANCH   1  30
HETATM   30  O2  UNL     1      -1.237  25.284  11.612  1.00  0.00    -0.383 OA
BRANCH  30  31
HETATM   31  C3  UNL     1      -0.988  26.311  10.721  1.00  0.00     0.194 C 
BRANCH  31  32
HETATM   32  C2  UNL     1       0.060  25.948   9.707  1.00  0.00     0.193 C 
BRANCH  32  33
HETATM   33  O1  UNL     1      -0.097  24.692   9.178  1.00  0.00    -0.394 OA
HETATM   34  C1  UNL     1      -1.020  24.586   8.171  1.00  0.00     0.201 C 
ENDBRANCH  32  33
ENDBRANCH  31  32
ENDBRANCH  30  31
ENDBRANCH   1  30
TORSDOF 7
ENDMDL
MODEL 3
REMARK VINA RESULT: -9.174091360      1.948      4.764
REMARK  7 active torsions:
REMARK  status: ('A' for Active; 'I' for Inactive)
REMARK    1  A    between atoms: O1_2  and  C2_3 
REMARK    2  A    between atoms: C2_3  and  C3_4 
REMARK    3  A    between atoms: C3_4  and  O2_5 
REMARK    4  A    between atoms: O2_5  and  C4_6 
REMARK    5  A    between atoms: C24_26  and  C25_27 
REMARK    6  A    between atoms: C25_27  and  C26_28 
REMARK    7  A    between atoms: C26_28  and  C27_29 
ROOT
HETATM    1  C4  UNL     1      -7.031  26.768  15.288  1.00  0.00     0.126 C 
HETATM    2  C5  UNL     1      -6.624  27.995  14.513  1.00  0.00     0.033 C 
HETATM    3  C6  UNL     1      -5.367  27.943  13.778  1.00  0.00     0.012 C 
HETATM    4  C7  UNL     1      -5.025  26.591  13.116  1.00  0.00    -0.035 C 
HETATM    5  C8  UNL     1      -6.114  26.416  12.076  1.00  0.00     0.016 C 
HETATM    6  C9  UNL     1      -5.265  25.608  14.238  1.00  0.00     0.001 C 
HETATM    7  C10 UNL     1      -4.470  24.386  14.101  1.00  0.00     0.007 C 
HETATM    8  C11 UNL     1      -3.014  24.757  14.110  1.00  0.00     0.011 C 
HETATM    9  C12 UNL     1      -2.596  25.899  13.266  1.00  0.00    -0.032 C 
HETATM   10  C13 UNL     1      -1.886  26.907  14.199  1.00  0.00     0.016 C 
HETATM   11  C14 UNL     1      -3.660  26.618  12.533  1.00  0.00     0.003 C 
HETATM   12  C15 UNL     1      -3.643  26.382  11.016  1.00  0.00     0.011 C 
HETATM   13  C16 UNL     1      -2.330  26.127  10.410  1.00  0.00    -0.006 C 
HETATM   14  C17 UNL     1      -2.230  24.608  10.173  1.00  0.00     0.006 C 
HETATM   15  C18 UNL     1      -1.940  24.140  11.580  1.00  0.00     0.011 C 
HETATM   16  C19 UNL     1      -1.469  25.371  12.370  1.00  0.00    -0.029 C 
HETATM   17  C20 UNL     1      -0.324  24.904  13.214  1.00  0.00     0.016 C 
HETATM   18  C21 UNL     1      -1.113  26.285  11.262  1.00  0.00    -0.036 C 
HETATM   19  C22 UNL     1      -0.618  27.618  11.510  1.00  0.00     0.016 C 
HETATM   20  C23 UNL     1       0.016  25.586  10.478  1.00  0.00     0.016 C 
HETATM   21  C24 UNL     1      -6.740  25.494  14.470  1.00  0.00     0.019 C 
ENDROOT
BRANCH  21  22
HETATM   22  C25 UNL     1      -7.246  24.356  15.280  1.00  0.00     0.010 C 
BRANCH  22  23
HETATM   23  C26 UNL     1      -8.160  23.376  14.663  1.00  0.00     0.036 C 
BRANCH  23  24
HETATM   24  C27 UNL     1      -9.583  23.867  14.537  1.00  0.00     0.222 C 
HETATM   25  C28 UNL     1     -10.427  22.975  13.630  1.00  0.00     0.037 C 
HETATM   26  C29 UNL     1     -11.820  22.999  14.197  1.00  0.00     0.032 C 
HETATM   27  C30 UNL     1     -11.725  23.944  15.355  1.00  0.00     0.272 C 
HETATM   28  N1  UNL     1     -10.311  23.888  15.794  1.00  0.00     0.088 N 
HETATM   29  C31 UNL     1     -10.189  22.647  16.524  1.00  0.00     0.310 C 
ENDBRANCH  23  24
ENDBRANCH  22  23
ENDBRANCH  21  22
BRANCH   1  30
HETATM   30  O2  UNL     1      -8.355  26.910  15.620  1.00  0.00    -0.383 OA
BRANCH  30  31
HETATM   31  C3  UNL     1      -9.040  27.551  14.604  1.00  0.00     0.194 C 
BRANCH  31  32
HETATM   32  C2  UNL     1     -10.053  28.530  15.126  1.00  0.00     0.193 C 
BRANCH  32  33
HETATM   33  O1  UNL     1      -9.500  29.589  15.800  1.00  0.00    -0.394 OA
HETATM   34  C1  UNL     1      -9.665  29.575  17.160  1.00  0.00     0.201 C 
ENDBRANCH  32  33
ENDBRANCH  31  32
ENDBRANCH  30  31
ENDBRANCH   1  30
TORSDOF 7
ENDMDL
MODEL 4
REMARK VINA RESULT: -9.060122514      3.762      8.244
REMARK  7 active torsions:
REMARK  status: ('A' for Active; 'I' for Inactive)
REMARK    1  A    between atoms: O1_2  and  C2_3 
REMARK    2  A    between atoms: C2_3  and  C3_4 
REMARK    3  A    between atoms: C3_4  and  O2_5 
REMARK    4  A    between atoms: O2_5  and  C4_6 
REMARK    5  A    between atoms: C24_26  and  C25_27 
REMARK    6  A    between atoms: C25_27  and  C26_28 
REMARK    7  A    between atoms: C26_28  and  C27_29 
ROOT
HETATM    1  C4  UNL     1      -0.928  25.168  13.760  1.00  0.00     0.126 C 
HETATM    2  C5  UNL     1      -1.469  24.885  15.139  1.00  0.00     0.033 C 
HETATM    3  C6  UNL     1      -2.881  25.156  15.378  1.00  0.00     0.012 C 
HETATM    4  C7  UNL     1      -3.838  24.845  14.207  1.00  0.00    -0.035 C 
HETATM    5  C8  UNL     1      -3.732  23.341  14.049  1.00  0.00     0.016 C 
HETATM    6  C9  UNL     1      -3.148  25.505  13.036  1.00  0.00     0.001 C 
HETATM    7  C10 UNL     1      -4.079  25.890  11.974  1.00  0.00     0.007 C 
HETATM    8  C11 UNL     1      -5.074  26.864  12.536  1.00  0.00     0.011 C 
HETATM    9  C12 UNL     1      -5.685  26.535  13.844  1.00  0.00    -0.032 C 
HETATM   10  C13 UNL     1      -5.406  27.733  14.782  1.00  0.00     0.016 C 
HETATM   11  C14 UNL     1      -5.215  25.304  14.515  1.00  0.00     0.003 C 
HETATM   12  C15 UNL     1      -6.246  24.166  14.525  1.00  0.00     0.011 C 
HETATM   13  C16 UNL     1      -7.660  24.565  14.554  1.00  0.00    -0.006 C 
HETATM   14  C17 UNL     1      -8.200  24.410  13.120  1.00  0.00     0.006 C 
HETATM   15  C18 UNL     1      -7.614  25.647  12.481  1.00  0.00     0.011 C 
HETATM   16  C19 UNL     1      -7.203  26.586  13.625  1.00  0.00    -0.029 C 
HETATM   17  C20 UNL     1      -7.609  27.961  13.195  1.00  0.00     0.016 C 
HETATM   18  C21 UNL     1      -7.984  26.011  14.743  1.00  0.00    -0.036 C 
HETATM   19  C22 UNL     1      -7.915  26.560  16.076  1.00  0.00     0.016 C 
HETATM   20  C23 UNL     1      -9.466  26.142  14.340  1.00  0.00     0.016 C 
HETATM   21  C24 UNL     1      -1.931  24.706  12.683  1.00  0.00     0.019 C 
ENDROOT
BRANCH  21  22
HETATM   22  C25 UNL     1      -1.275  24.953  11.373  1.00  0.00     0.010 C 
BRANCH  22  23
HETATM   23  C26 UNL     1      -0.793  26.309  11.047  1.00  0.00     0.036 C 
BRANCH  23  24
HETATM   24  C27 UNL     1      -0.341  26.465   9.614  1.00  0.00     0.222 C 
HETATM   25  C28 UNL     1      -0.668  25.239   8.765  1.00  0.00     0.037 C 
HETATM   26  C29 UNL     1      -0.971  25.752   7.385  1.00  0.00     0.032 C 
HETATM   27  C30 UNL     1      -0.744  27.229   7.489  1.00  0.00     0.272 C 
HETATM   28  N1  UNL     1      -0.980  27.565   8.913  1.00  0.00     0.088 N 
HETATM   29  C31 UNL     1      -2.417  27.559   9.070  1.00  0.00     0.310 C 
ENDBRANCH  23  24
ENDBRANCH  22  23
ENDBRANCH  21  22
BRANCH   1  30
HETATM   30  O2  UNL     1       0.294  24.551  13.663  1.00  0.00    -0.383 OA
BRANCH  30  31
HETATM   31  C3  UNL     1       0.875  24.432  14.912  1.00  0.00     0.194 C 
BRANCH  31  32
HETATM   32  C2  UNL     1       2.343  24.122  14.834  1.00  0.00     0.193 C 
BRANCH  32  33
HETATM   33  O1  UNL     1       3.142  25.095  15.379  1.00  0.00    -0.394 OA
HETATM   34  C1  UNL     1       2.500  26.246  15.753  1.00  0.00     0.201 C 
ENDBRANCH  32  33
ENDBRANCH  31  32
ENDBRANCH  30  31
ENDBRANCH   1  30
TORSDOF 7
ENDMDL
MODEL 5
REMARK VINA RESULT: -9.043500442      1.967      4.490
REMARK  7 active torsions:
REMARK  status: ('A' for Active; 'I' for Inactive)
REMARK    1  A    between atoms: O1_2  and  C2_3 
REMARK    2  A    between atoms: C2_3  and  C3_4 
REMARK    3  A    between atoms: C3_4  and  O2_5 
REMARK    4  A    between atoms: O2_5  and  C4_6 
REMARK    5  A    between atoms: C24_26  and  C25_27 
REMARK    6  A    between atoms: C25_27  and  C26_28 
REMARK    7  A    between atoms: C26_28  and  C27_29 
ROOT
HETATM    1  C4  UNL     1      -7.453  27.487  15.512  1.00  0.00     0.126 C 
HETATM    2  C5  UNL     1      -7.089  28.536  14.492  1.00  0.00     0.033 C 
HETATM    3  C6  UNL     1      -5.824  28.380  13.785  1.00  0.00     0.012 C 
HETATM    4  C7  UNL     1      -5.422  26.933  13.427  1.00  0.00    -0.035 C 
HETATM    5  C8  UNL     1      -6.495  26.496  12.448  1.00  0.00     0.016 C 
HETATM    6  C9  UNL     1      -5.632  26.203  14.733  1.00  0.00     0.001 C 
HETATM    7  C10 UNL     1      -4.787  25.014  14.859  1.00  0.00     0.007 C 
HETATM    8  C11 UNL     1      -3.348  25.438  14.790  1.00  0.00     0.011 C 
HETATM    9  C12 UNL     1      -2.969  26.390  13.721  1.00  0.00    -0.032 C 
HETATM   10  C13 UNL     1      -2.309  27.602  14.417  1.00  0.00     0.016 C 
HETATM   11  C14 UNL     1      -4.055  26.892  12.852  1.00  0.00     0.003 C 
HETATM   12  C15 UNL     1      -4.016  26.338  11.420  1.00  0.00     0.011 C 
HETATM   13  C16 UNL     1      -2.688  26.014  10.881  1.00  0.00    -0.006 C 
HETATM   14  C17 UNL     1      -2.525  24.485  10.975  1.00  0.00     0.006 C 
HETATM   15  C18 UNL     1      -2.228  24.341  12.448  1.00  0.00     0.011 C 
HETATM   16  C19 UNL     1      -1.814  25.730  12.958  1.00  0.00    -0.029 C 
HETATM   17  C20 UNL     1      -0.659  25.501  13.881  1.00  0.00     0.016 C 
HETATM   18  C21 UNL     1      -1.486  26.400  11.680  1.00  0.00    -0.036 C 
HETATM   19  C22 UNL     1      -1.047  27.775  11.637  1.00  0.00     0.016 C 
HETATM   20  C23 UNL     1      -0.323  25.597  11.063  1.00  0.00     0.016 C 
HETATM   21  C24 UNL     1      -7.104  26.080  14.984  1.00  0.00     0.019 C 
ENDROOT
BRANCH  21  22
HETATM   22  C25 UNL     1      -7.570  25.121  16.019  1.00  0.00     0.010 C 
BRANCH  22  23
HETATM   23  C26 UNL     1      -8.078  23.799  15.606  1.00  0.00     0.036 C 
BRANCH  23  24
HETATM   24  C27 UNL     1      -9.415  23.853  14.904  1.00  0.00     0.222 C 
HETATM   25  C28 UNL     1      -9.463  22.947  13.676  1.00  0.00     0.037 C 
HETATM   26  C29 UNL     1     -10.875  22.436  13.587  1.00  0.00     0.032 C 
HETATM   27  C30 UNL     1     -11.580  23.116  14.720  1.00  0.00     0.272 C 
HETATM   28  N1  UNL     1     -10.527  23.403  15.724  1.00  0.00     0.088 N 
HETATM   29  C31 UNL     1     -10.261  22.136  16.367  1.00  0.00     0.310 C 
ENDBRANCH  23  24
ENDBRANCH  22  23
ENDBRANCH  21  22
BRANCH   1  30
HETATM   30  O2  UNL     1      -8.784  27.642  15.805  1.00  0.00    -0.383 OA
BRANCH  30  31
HETATM   31  C3  UNL     1      -9.487  28.020  14.676  1.00  0.00     0.194 C 
BRANCH  31  32
HETATM   32  C2  UNL     1     -10.728  27.200  14.473  1.00  0.00     0.193 C 
BRANCH  32  33
HETATM   33  O1  UNL     1     -11.226  26.655  15.629  1.00  0.00    -0.394 OA
HETATM   34  C1  UNL     1     -12.540  26.271  15.584  1.00  0.00     0.201 C 
ENDBRANCH  32  33
ENDBRANCH  31  32
ENDBRANCH  30  31
ENDBRANCH   1  30
TORSDOF 7
ENDMDL
