MODEL 1
REMARK VINA RESULT: -8.117668457      0.000      0.000
REMARK  9 active torsions:
REMARK  status: ('A' for Active; 'I' for Inactive)
REMARK    1  A    between atoms: C1_2  and  C2_3 
REMARK    2  A    between atoms: C2_3  and  C3_4 
REMARK    3  A    between atoms: C2_3  and  C18_30 
REMARK       I    between atoms: C3_4  and  N1_6 
REMARK    4  A    between atoms: N1_6  and  C4_8 
REMARK    5  A    between atoms: C4_8  and  C5_9 
REMARK    6  A    between atoms: C4_8  and  C6_12 
REMARK       I    between atoms: C6_12  and  N2_14 
REMARK    7  A    between atoms: N2_14  and  C7_16 
REMARK    8  A    between atoms: C10_19  and  O6_20 
REMARK    9  A    between atoms: O6_20  and  C11_21 
ROOT
HETATM    1  C6  UNL     1      -0.562  -0.545  11.937  1.00  0.00     0.255 C 
HETATM    2  O5  UNL     1      -1.323  -1.201  11.191  1.00  0.00    -0.270 OA
HETATM    3  N2  UNL     1       0.783  -0.373  11.636  1.00  0.00    -0.325 N 
ATOM      4  H2  UNL     1       1.314   0.173  12.314  1.00  0.00     0.169 HD
ENDROOT
BRANCH   1   5
HETATM    5  C4  UNL     1      -1.206   0.032  13.163  1.00  0.00     0.279 C 
BRANCH   5   6
HETATM    6  N1  UNL     1      -1.619   1.394  12.933  1.00  0.00    -0.338 N 
HETATM    7  C3  UNL     1      -2.954   1.703  12.612  1.00  0.00     0.231 C 
HETATM    8  O2  UNL     1      -3.784   0.750  12.534  1.00  0.00    -0.273 OA
ATOM      9  H1  UNL     1      -0.932   2.146  13.002  1.00  0.00     0.163 HD
BRANCH   7  10
HETATM   10  C2  UNL     1      -3.409   3.114  12.367  1.00  0.00     0.163 C 
BRANCH  10  11
HETATM   11  C1  UNL     1      -4.539   3.474  13.236  1.00  0.00     0.247 C 
HETATM   12  O1  UNL     1      -4.389   4.133  14.223  1.00  0.00    -0.306 OA
ENDBRANCH  10  11
BRANCH  10  13
HETATM   13  C18 UNL     1      -3.771   3.283  10.885  1.00  0.00     0.149 C 
HETATM   14 BR1  UNL     1      -2.202   3.194   9.795  1.00  0.00    -0.078 Br
HETATM   15 BR2  UNL     1      -4.739   4.930  10.680  1.00  0.00    -0.078 Br
ENDBRANCH  10  13
ENDBRANCH   7  10
ENDBRANCH   5   6
BRANCH   5  16
HETATM   16  C5  UNL     1      -0.222  -0.025  14.282  1.00  0.00     0.206 C 
HETATM   17  O3  UNL     1      -0.014   0.967  15.023  1.00  0.00    -0.646 OA
HETATM   18  O4  UNL     1       0.479  -1.183  14.518  1.00  0.00    -0.646 OA
ENDBRANCH   5  16
ENDBRANCH   1   5
BRANCH   3  19
HETATM   19  C7  UNL     1       1.520  -0.840  10.534  1.00  0.00     0.035 A 
HETATM   20  C8  UNL     1       2.118  -2.094  10.574  1.00  0.00     0.032 A 
HETATM   21  C9  UNL     1       2.853  -2.557   9.515  1.00  0.00     0.039 A 
HETATM   22  C10 UNL     1       3.045  -1.824   8.363  1.00  0.00     0.076 A 
HETATM   23  C16 UNL     1       2.460  -0.584   8.313  1.00  0.00     0.039 A 
HETATM   24  C17 UNL     1       1.703  -0.099   9.394  1.00  0.00     0.032 A 
BRANCH  22  25
HETATM   25  O6  UNL     1       3.788  -2.331   7.332  1.00  0.00    -0.309 OA
BRANCH  25  26
HETATM   26  C11 UNL     1       5.134  -2.208   7.147  1.00  0.00     0.091 A 
HETATM   27  C12 UNL     1       5.782  -1.004   7.310  1.00  0.00     0.040 A 
HETATM   28  C13 UNL     1       7.154  -0.908   7.116  1.00  0.00     0.020 A 
HETATM   29  C14 UNL     1       7.855  -2.057   6.753  1.00  0.00     0.088 A 
HETATM   30  N3  UNL     1       7.219  -3.219   6.597  1.00  0.00    -0.373 N 
HETATM   31  C15 UNL     1       5.869  -3.313   6.788  1.00  0.00     0.124 A 
ATOM     32  H3  UNL     1       7.747  -4.050   6.331  1.00  0.00     0.164 HD
ENDBRANCH  25  26
ENDBRANCH  22  25
ENDBRANCH   3  19
TORSDOF 9
ENDMDL
MODEL 2
REMARK VINA RESULT: -8.109290620      1.289      1.782
REMARK  9 active torsions:
REMARK  status: ('A' for Active; 'I' for Inactive)
REMARK    1  A    between atoms: C1_2  and  C2_3 
REMARK    2  A    between atoms: C2_3  and  C3_4 
REMARK    3  A    between atoms: C2_3  and  C18_30 
REMARK       I    between atoms: C3_4  and  N1_6 
REMARK    4  A    between atoms: N1_6  and  C4_8 
REMARK    5  A    between atoms: C4_8  and  C5_9 
REMARK    6  A    between atoms: C4_8  and  C6_12 
REMARK       I    between atoms: C6_12  and  N2_14 
REMARK    7  A    between atoms: N2_14  and  C7_16 
REMARK    8  A    between atoms: C10_19  and  O6_20 
REMARK    9  A    between atoms: O6_20  and  C11_21 
ROOT
HETATM    1  C6  UNL     1      -0.623  -0.557  11.849  1.00  0.00     0.255 C 
HETATM    2  O5  UNL     1      -1.234  -1.524  11.340  1.00  0.00    -0.270 OA
HETATM    3  N2  UNL     1       0.658  -0.208  11.440  1.00  0.00    -0.325 N 
ATOM      4  H2  UNL     1       1.066   0.591  11.924  1.00  0.00     0.169 HD
ENDROOT
BRANCH   1   5
HETATM    5  C4  UNL     1      -1.370   0.183  12.919  1.00  0.00     0.279 C 
BRANCH   5   6
HETATM    6  N1  UNL     1      -1.910   1.417  12.407  1.00  0.00    -0.338 N 
HETATM    7  C3  UNL     1      -3.222   1.481  11.902  1.00  0.00     0.231 C 
HETATM    8  O2  UNL     1      -3.917   0.421  11.911  1.00  0.00    -0.273 OA
ATOM      9  H1  UNL     1      -1.333   2.258  12.410  1.00  0.00     0.163 HD
BRANCH   7  10
HETATM   10  C2  UNL     1      -3.809   2.754  11.362  1.00  0.00     0.163 C 
BRANCH  10  11
HETATM   11  C1  UNL     1      -3.008   3.290  10.253  1.00  0.00     0.247 C 
HETATM   12  O1  UNL     1      -1.938   2.834   9.971  1.00  0.00    -0.306 OA
ENDBRANCH  10  11
BRANCH  10  13
HETATM   13  C18 UNL     1      -3.939   3.778  12.500  1.00  0.00     0.149 C 
HETATM   14 BR1  UNL     1      -3.829   2.910  14.201  1.00  0.00    -0.078 Br
HETATM   15 BR2  UNL     1      -5.577   4.752  12.255  1.00  0.00    -0.078 Br
ENDBRANCH  10  13
ENDBRANCH   7  10
ENDBRANCH   5   6
BRANCH   5  16
HETATM   16  C5  UNL     1      -0.430   0.460  14.043  1.00  0.00     0.206 C 
HETATM   17  O3  UNL     1      -0.335   1.604  14.551  1.00  0.00    -0.646 OA
HETATM   18  O4  UNL     1       0.356  -0.551  14.542  1.00  0.00    -0.646 OA
ENDBRANCH   5  16
ENDBRANCH   1   5
BRANCH   3  19
HETATM   19  C7  UNL     1       1.473  -0.793  10.456  1.00  0.00     0.035 A 
HETATM   20  C8  UNL     1       1.708  -0.128   9.257  1.00  0.00     0.032 A 
HETATM   21  C9  UNL     1       2.486  -0.692   8.282  1.00  0.00     0.039 A 
HETATM   22  C10 UNL     1       3.076  -1.930   8.420  1.00  0.00     0.076 A 
HETATM   23  C16 UNL     1       2.850  -2.596   9.598  1.00  0.00     0.039 A 
HETATM   24  C17 UNL     1       2.052  -2.027  10.607  1.00  0.00     0.032 A 
BRANCH  22  25
HETATM   25  O6  UNL     1       3.846  -2.451   7.415  1.00  0.00    -0.309 OA
BRANCH  25  26
HETATM   26  C11 UNL     1       5.174  -2.231   7.195  1.00  0.00     0.091 A 
HETATM   27  C12 UNL     1       5.741  -0.987   7.359  1.00  0.00     0.040 A 
HETATM   28  C13 UNL     1       7.096  -0.791   7.129  1.00  0.00     0.020 A 
HETATM   29  C14 UNL     1       7.866  -1.883   6.727  1.00  0.00     0.088 A 
HETATM   30  N3  UNL     1       7.307  -3.085   6.571  1.00  0.00    -0.373 N 
HETATM   31  C15 UNL     1       5.974  -3.276   6.798  1.00  0.00     0.124 A 
ATOM     32  H3  UNL     1       7.885  -3.873   6.277  1.00  0.00     0.164 HD
ENDBRANCH  25  26
ENDBRANCH  22  25
ENDBRANCH   3  19
TORSDOF 9
ENDMDL
MODEL 3
REMARK VINA RESULT: -7.997188526      1.361      1.915
REMARK  9 active torsions:
REMARK  status: ('A' for Active; 'I' for Inactive)
REMARK    1  A    between atoms: C1_2  and  C2_3 
REMARK    2  A    between atoms: C2_3  and  C3_4 
REMARK    3  A    between atoms: C2_3  and  C18_30 
REMARK       I    between atoms: C3_4  and  N1_6 
REMARK    4  A    between atoms: N1_6  and  C4_8 
REMARK    5  A    between atoms: C4_8  and  C5_9 
REMARK    6  A    between atoms: C4_8  and  C6_12 
REMARK       I    between atoms: C6_12  and  N2_14 
REMARK    7  A    between atoms: N2_14  and  C7_16 
REMARK    8  A    between atoms: C10_19  and  O6_20 
REMARK    9  A    between atoms: O6_20  and  C11_21 
ROOT
HETATM    1  C6  UNL     1      -0.425  -0.728  11.844  1.00  0.00     0.255 C 
HETATM    2  O5  UNL     1      -1.216  -1.196  10.993  1.00  0.00    -0.270 OA
HETATM    3  N2  UNL     1       0.943  -0.669  11.612  1.00  0.00    -0.325 N 
ATOM      4  H2  UNL     1       1.496  -0.276  12.373  1.00  0.00     0.169 HD
ENDROOT
BRANCH   1   5
HETATM    5  C4  UNL     1      -1.061  -0.242  13.112  1.00  0.00     0.279 C 
BRANCH   5   6
HETATM    6  N1  UNL     1      -1.446   1.142  12.997  1.00  0.00    -0.338 N 
HETATM    7  C3  UNL     1      -2.769   1.504  12.679  1.00  0.00     0.231 C 
HETATM    8  O2  UNL     1      -3.614   0.577  12.500  1.00  0.00    -0.273 OA
ATOM      9  H1  UNL     1      -0.749   1.871  13.147  1.00  0.00     0.163 HD
BRANCH   7  10
HETATM   10  C2  UNL     1      -3.195   2.939  12.552  1.00  0.00     0.163 C 
BRANCH  10  11
HETATM   11  C1  UNL     1      -4.044   3.351  13.679  1.00  0.00     0.247 C 
HETATM   12  O1  UNL     1      -3.578   3.696  14.726  1.00  0.00    -0.306 OA
ENDBRANCH  10  11
BRANCH  10  13
HETATM   13  C18 UNL     1      -3.915   3.140  11.211  1.00  0.00     0.149 C 
HETATM   14 BR1  UNL     1      -2.650   3.444   9.809  1.00  0.00    -0.078 Br
HETATM   15 BR2  UNL     1      -5.178   4.574  11.409  1.00  0.00    -0.078 Br
ENDBRANCH  10  13
ENDBRANCH   7  10
ENDBRANCH   5   6
BRANCH   5  16
HETATM   16  C5  UNL     1      -0.083  -0.413  14.224  1.00  0.00     0.206 C 
HETATM   17  O3  UNL     1       0.074   0.472  15.101  1.00  0.00    -0.646 OA
HETATM   18  O4  UNL     1       0.671  -1.560  14.303  1.00  0.00    -0.646 OA
ENDBRANCH   5  16
ENDBRANCH   1   5
BRANCH   3  19
HETATM   19  C7  UNL     1       1.677  -1.072  10.483  1.00  0.00     0.035 A 
HETATM   20  C8  UNL     1       2.302  -2.314  10.463  1.00  0.00     0.032 A 
HETATM   21  C9  UNL     1       3.035  -2.714   9.377  1.00  0.00     0.039 A 
HETATM   22  C10 UNL     1       3.198  -1.929   8.256  1.00  0.00     0.076 A 
HETATM   23  C16 UNL     1       2.587  -0.700   8.266  1.00  0.00     0.039 A 
HETATM   24  C17 UNL     1       1.832  -0.278   9.375  1.00  0.00     0.032 A 
BRANCH  22  25
HETATM   25  O6  UNL     1       3.941  -2.374   7.196  1.00  0.00    -0.309 OA
BRANCH  25  26
HETATM   26  C11 UNL     1       4.106  -3.665   6.790  1.00  0.00     0.091 A 
HETATM   27  C12 UNL     1       3.134  -4.333   6.080  1.00  0.00     0.040 A 
HETATM   28  C13 UNL     1       3.329  -5.647   5.678  1.00  0.00     0.020 A 
HETATM   29  C14 UNL     1       4.530  -6.272   6.012  1.00  0.00     0.088 A 
HETATM   30  N3  UNL     1       5.467  -5.617   6.701  1.00  0.00    -0.373 N 
HETATM   31  C15 UNL     1       5.273  -4.324   7.095  1.00  0.00     0.124 A 
ATOM     32  H3  UNL     1       6.340  -6.089   6.936  1.00  0.00     0.164 HD
ENDBRANCH  25  26
ENDBRANCH  22  25
ENDBRANCH   3  19
TORSDOF 9
ENDMDL
MODEL 4
REMARK VINA RESULT: -7.988128593      2.090      2.941
REMARK  9 active torsions:
REMARK  status: ('A' for Active; 'I' for Inactive)
REMARK    1  A    between atoms: C1_2  and  C2_3 
REMARK    2  A    between atoms: C2_3  and  C3_4 
REMARK    3  A    between atoms: C2_3  and  C18_30 
REMARK       I    between atoms: C3_4  and  N1_6 
REMARK    4  A    between atoms: N1_6  and  C4_8 
REMARK    5  A    between atoms: C4_8  and  C5_9 
REMARK    6  A    between atoms: C4_8  and  C6_12 
REMARK       I    between atoms: C6_12  and  N2_14 
REMARK    7  A    between atoms: N2_14  and  C7_16 
REMARK    8  A    between atoms: C10_19  and  O6_20 
REMARK    9  A    between atoms: O6_20  and  C11_21 
ROOT
HETATM    1  C6  UNL     1      -0.267  -1.156  11.753  1.00  0.00     0.255 C 
HETATM    2  O5  UNL     1      -0.803  -2.235  11.414  1.00  0.00    -0.270 OA
HETATM    3  N2  UNL     1       0.978  -0.776  11.266  1.00  0.00    -0.325 N 
ATOM      4  H2  UNL     1       1.325   0.118  11.612  1.00  0.00     0.169 HD
ENDROOT
BRANCH   1   5
HETATM    5  C4  UNL     1      -1.061  -0.318  12.710  1.00  0.00     0.279 C 
BRANCH   5   6
HETATM    6  N1  UNL     1      -1.555   0.872  12.062  1.00  0.00    -0.338 N 
HETATM    7  C3  UNL     1      -2.889   0.957  11.620  1.00  0.00     0.231 C 
HETATM    8  O2  UNL     1      -3.644  -0.043  11.809  1.00  0.00    -0.273 OA
ATOM      9  H1  UNL     1      -0.929   1.664  11.922  1.00  0.00     0.163 HD
BRANCH   7  10
HETATM   10  C2  UNL     1      -3.428   2.184  10.942  1.00  0.00     0.163 C 
BRANCH  10  11
HETATM   11  C1  UNL     1      -2.347   3.026  10.410  1.00  0.00     0.247 C 
HETATM   12  O1  UNL     1      -1.452   2.567   9.762  1.00  0.00    -0.306 OA
ENDBRANCH  10  11
BRANCH  10  13
HETATM   13  C18 UNL     1      -4.308   2.966  11.928  1.00  0.00     0.149 C 
HETATM   14 BR1  UNL     1      -4.742   4.689  11.221  1.00  0.00    -0.078 Br
HETATM   15 BR2  UNL     1      -3.397   3.053  13.618  1.00  0.00    -0.078 Br
ENDBRANCH  10  13
ENDBRANCH   7  10
ENDBRANCH   5   6
BRANCH   5  16
HETATM   16  C5  UNL     1      -0.181   0.049  13.856  1.00  0.00     0.206 C 
HETATM   17  O3  UNL     1      -0.106   1.231  14.274  1.00  0.00    -0.646 OA
HETATM   18  O4  UNL     1       0.570  -0.919  14.479  1.00  0.00    -0.646 OA
ENDBRANCH   5  16
ENDBRANCH   1   5
BRANCH   3  19
HETATM   19  C7  UNL     1       1.829  -1.443  10.368  1.00  0.00     0.035 A 
HETATM   20  C8  UNL     1       2.186  -0.841   9.166  1.00  0.00     0.032 A 
HETATM   21  C9  UNL     1       3.001  -1.484   8.273  1.00  0.00     0.039 A 
HETATM   22  C10 UNL     1       3.510  -2.745   8.501  1.00  0.00     0.076 A 
HETATM   23  C16 UNL     1       3.163  -3.349   9.684  1.00  0.00     0.039 A 
HETATM   24  C17 UNL     1       2.327  -2.698  10.608  1.00  0.00     0.032 A 
BRANCH  22  25
HETATM   25  O6  UNL     1       4.321  -3.346   7.577  1.00  0.00    -0.309 OA
BRANCH  25  26
HETATM   26  C11 UNL     1       4.178  -4.592   7.041  1.00  0.00     0.091 A 
HETATM   27  C12 UNL     1       3.190  -4.880   6.126  1.00  0.00     0.040 A 
HETATM   28  C13 UNL     1       3.067  -6.157   5.596  1.00  0.00     0.020 A 
HETATM   29  C14 UNL     1       3.967  -7.138   6.014  1.00  0.00     0.088 A 
HETATM   30  N3  UNL     1       4.921  -6.850   6.901  1.00  0.00    -0.373 N 
HETATM   31  C15 UNL     1       5.040  -5.593   7.421  1.00  0.00     0.124 A 
ATOM     32  H3  UNL     1       5.570  -7.579   7.195  1.00  0.00     0.164 HD
ENDBRANCH  25  26
ENDBRANCH  22  25
ENDBRANCH   3  19
TORSDOF 9
ENDMDL
MODEL 5
REMARK VINA RESULT: -7.972720229      4.334     10.257
REMARK  9 active torsions:
REMARK  status: ('A' for Active; 'I' for Inactive)
REMARK    1  A    between atoms: C1_2  and  C2_3 
REMARK    2  A    between atoms: C2_3  and  C3_4 
REMARK    3  A    between atoms: C2_3  and  C18_30 
REMARK       I    between atoms: C3_4  and  N1_6 
REMARK    4  A    between atoms: N1_6  and  C4_8 
REMARK    5  A    between atoms: C4_8  and  C5_9 
REMARK    6  A    between atoms: C4_8  and  C6_12 
REMARK       I    between atoms: C6_12  and  N2_14 
REMARK    7  A    between atoms: N2_14  and  C7_16 
REMARK    8  A    between atoms: C10_19  and  O6_20 
REMARK    9  A    between atoms: O6_20  and  C11_21 
ROOT
HETATM    1  C6  UNL     1       1.486   0.280   8.902  1.00  0.00     0.255 C 
HETATM    2  O5  UNL     1       1.806   0.116  10.101  1.00  0.00    -0.270 OA
HETATM    3  N2  UNL     1       0.244   0.787   8.543  1.00  0.00    -0.325 N 
ATOM      4  H2  UNL     1       0.083   0.874   7.539  1.00  0.00     0.169 HD
ENDROOT
BRANCH   1   5
HETATM    5  C4  UNL     1       2.532  -0.107   7.900  1.00  0.00     0.279 C 
BRANCH   5   6
HETATM    6  N1  UNL     1       3.451  -1.065   8.461  1.00  0.00    -0.338 N 
HETATM    7  C3  UNL     1       3.472  -2.399   8.013  1.00  0.00     0.231 C 
HETATM    8  O2  UNL     1       2.660  -2.734   7.100  1.00  0.00    -0.273 OA
ATOM      9  H1  UNL     1       4.096  -0.772   9.195  1.00  0.00     0.163 HD
BRANCH   7  10
HETATM   10  C2  UNL     1       4.420  -3.417   8.582  1.00  0.00     0.163 C 
BRANCH  10  11
HETATM   11  C1  UNL     1       5.821  -3.040   8.348  1.00  0.00     0.247 C 
HETATM   12  O1  UNL     1       6.129  -1.930   8.024  1.00  0.00    -0.306 OA
ENDBRANCH  10  11
BRANCH  10  13
HETATM   13  C18 UNL     1       4.107  -4.795   7.982  1.00  0.00     0.149 C 
HETATM   14 BR1  UNL     1       4.116  -6.138   9.344  1.00  0.00    -0.078 Br
HETATM   15 BR2  UNL     1       5.366  -5.144   6.572  1.00  0.00    -0.078 Br
ENDBRANCH  10  13
ENDBRANCH   7  10
ENDBRANCH   5   6
BRANCH   5  16
HETATM   16  C5  UNL     1       3.263   1.125   7.483  1.00  0.00     0.206 C 
HETATM   17  O3  UNL     1       4.484   1.094   7.189  1.00  0.00    -0.646 OA
HETATM   18  O4  UNL     1       2.598   2.326   7.417  1.00  0.00    -0.646 OA
ENDBRANCH   5  16
ENDBRANCH   1   5
BRANCH   3  19
HETATM   19  C7  UNL     1      -0.825   1.198   9.358  1.00  0.00     0.035 A 
HETATM   20  C8  UNL     1      -1.144   2.548   9.464  1.00  0.00     0.032 A 
HETATM   21  C9  UNL     1      -2.171   2.966  10.267  1.00  0.00     0.039 A 
HETATM   22  C10 UNL     1      -2.941   2.095  11.009  1.00  0.00     0.076 A 
HETATM   23  C16 UNL     1      -2.634   0.761  10.913  1.00  0.00     0.039 A 
HETATM   24  C17 UNL     1      -1.582   0.320  10.091  1.00  0.00     0.032 A 
BRANCH  22  25
HETATM   25  O6  UNL     1      -3.958   2.563  11.797  1.00  0.00    -0.309 OA
BRANCH  25  26
HETATM   26  C11 UNL     1      -4.457   3.831  11.832  1.00  0.00     0.091 A 
HETATM   27  C12 UNL     1      -4.660   4.564  10.684  1.00  0.00     0.040 A 
HETATM   28  C13 UNL     1      -5.170   5.853  10.749  1.00  0.00     0.020 A 
HETATM   29  C14 UNL     1      -5.471   6.386  12.002  1.00  0.00     0.088 A 
HETATM   30  N3  UNL     1      -5.271   5.669  13.109  1.00  0.00    -0.373 N 
HETATM   31  C15 UNL     1      -4.769   4.400  13.044  1.00  0.00     0.124 A 
ATOM     32  H3  UNL     1      -5.497   6.074  14.018  1.00  0.00     0.164 HD
ENDBRANCH  25  26
ENDBRANCH  22  25
ENDBRANCH   3  19
TORSDOF 9
ENDMDL
