MODEL 1
REMARK VINA RESULT: -9.515690236      0.000      0.000
REMARK  10 active torsions:
REMARK  status: ('A' for Active; 'I' for Inactive)
REMARK    1  A    between atoms: N1_2  and  C1_4 
REMARK    2  A    between atoms: C4_11  and  O3_12 
REMARK    3  A    between atoms: C4_11  and  C5_14 
REMARK    4  A    between atoms: C6_15  and  C7_16 
REMARK    5  A    between atoms: C7_16  and  O4_17 
REMARK    6  A    between atoms: C8_20  and  C9_21 
REMARK    7  A    between atoms: C12_24  and  C13_25 
REMARK    8  A    between atoms: C13_25  and  C14_26 
REMARK    9  A    between atoms: C14_26  and  C15_27 
REMARK   10  A    between atoms: C23_36  and  O6_37 
ROOT
HETATM    1  C5  UNL     1      21.009   2.669   2.594  1.00  0.00     0.086 C 
HETATM    2  C6  UNL     1      21.117   4.111   2.783  1.00  0.00     0.155 C 
HETATM    3  O5  UNL     1      22.439   4.490   2.405  1.00  0.00    -0.371 OA
HETATM    4  C8  UNL     1      23.230   3.373   2.685  1.00  0.00     0.184 C 
HETATM    5  C23 UNL     1      22.369   2.336   1.961  1.00  0.00     0.161 C 
ENDROOT
BRANCH   4   6
HETATM    6  C9  UNL     1      24.516   3.582   1.964  1.00  0.00    -0.027 A 
HETATM    7  C10 UNL     1      24.981   4.843   1.656  1.00  0.00     0.010 A 
HETATM    8  C11 UNL     1      26.167   5.063   0.990  1.00  0.00     0.007 A 
HETATM    9  C12 UNL     1      26.945   4.014   0.601  1.00  0.00    -0.058 A 
HETATM   10  C21 UNL     1      26.490   2.735   0.905  1.00  0.00     0.007 A 
HETATM   11  C22 UNL     1      25.297   2.515   1.574  1.00  0.00     0.010 A 
BRANCH   9  12
HETATM   12  C13 UNL     1      28.229   4.200  -0.117  1.00  0.00     0.043 C 
BRANCH  12  13
HETATM   13  C14 UNL     1      28.155   3.923  -1.585  1.00  0.00     0.043 C 
BRANCH  13  14
HETATM   14  C15 UNL     1      28.545   2.546  -1.957  1.00  0.00    -0.058 A 
HETATM   15  C16 UNL     1      29.323   1.771  -1.124  1.00  0.00     0.010 A 
HETATM   16  C17 UNL     1      29.692   0.484  -1.463  1.00  0.00     0.043 A 
HETATM   17  C18 UNL     1      29.290  -0.070  -2.659  1.00  0.00     0.116 A 
HETATM   18  F1  UNL     1      29.645  -1.339  -3.010  1.00  0.00    -0.206 F 
HETATM   19  C19 UNL     1      28.515   0.679  -3.509  1.00  0.00     0.043 A 
HETATM   20  C20 UNL     1      28.151   1.974  -3.153  1.00  0.00     0.010 A 
ENDBRANCH  13  14
ENDBRANCH  12  13
ENDBRANCH   9  12
ENDBRANCH   4   6
BRANCH   5  21
HETATM   21  O6  UNL     1      22.460   2.710   0.640  1.00  0.00    -0.392 OA
ATOM     22  H6  UNL     1      22.878   2.055   0.093  1.00  0.00     0.210 HD
ENDBRANCH   5  21
BRANCH   2  23
HETATM   23  C7  UNL     1      21.082   4.547   4.259  1.00  0.00     0.196 C 
BRANCH  23  24
HETATM   24  O4  UNL     1      21.318   5.938   4.341  1.00  0.00    -0.398 OA
ATOM     25  H4  UNL     1      21.055   6.251   5.199  1.00  0.00     0.209 HD
ENDBRANCH  23  24
ENDBRANCH   2  23
BRANCH   1  26
HETATM   26  C4  UNL     1      19.967   2.029   1.829  1.00  0.00     0.106 C 
HETATM   27  C3  UNL     1      18.711   1.560   2.397  1.00  0.00     0.292 C 
HETATM   28  N2  UNL     1      18.798   0.224   3.011  1.00  0.00    -0.056 N 
HETATM   29  S1  UNL     1      17.885   2.538   3.628  1.00  0.00    -0.059 SA
HETATM   30  C2  UNL     1      18.993  -0.801   2.048  1.00  0.00     0.265 C 
ATOM     31  H22 UNL     1      17.982   0.033   3.592  1.00  0.00     0.278 HD
ATOM     32  H21 UNL     1      19.521   0.196   3.729  1.00  0.00     0.278 HD
HETATM   33  C1  UNL     1      19.588  -0.229   0.779  1.00  0.00     0.184 C 
HETATM   34  C24 UNL     1      20.618   0.794   1.157  1.00  0.00     0.074 C 
BRANCH  33  35
HETATM   35  N1  UNL     1      20.245  -1.255   0.027  1.00  0.00    -0.149 N 
HETATM   36  O1  UNL     1      21.487  -1.329   0.051  1.00  0.00    -0.536 OA
HETATM   37  O2  UNL     1      19.589  -2.188  -0.739  1.00  0.00    -0.536 OA
ENDBRANCH  33  35
BRANCH  26  38
HETATM   38  O3  UNL     1      19.647   2.837   0.706  1.00  0.00    -0.386 OA
ATOM     39  H3  UNL     1      20.364   2.757   0.087  1.00  0.00     0.210 HD
ENDBRANCH  26  38
ENDBRANCH   1  26
TORSDOF 10
ENDMDL
MODEL 2
REMARK VINA RESULT: -9.468713083      2.921      4.090
REMARK  10 active torsions:
REMARK  status: ('A' for Active; 'I' for Inactive)
REMARK    1  A    between atoms: N1_2  and  C1_4 
REMARK    2  A    between atoms: C4_11  and  O3_12 
REMARK    3  A    between atoms: C4_11  and  C5_14 
REMARK    4  A    between atoms: C6_15  and  C7_16 
REMARK    5  A    between atoms: C7_16  and  O4_17 
REMARK    6  A    between atoms: C8_20  and  C9_21 
REMARK    7  A    between atoms: C12_24  and  C13_25 
REMARK    8  A    between atoms: C13_25  and  C14_26 
REMARK    9  A    between atoms: C14_26  and  C15_27 
REMARK   10  A    between atoms: C23_36  and  O6_37 
ROOT
HETATM    1  C5  UNL     1      21.460  -0.936   1.527  1.00  0.00     0.086 C 
HETATM    2  C6  UNL     1      20.552   0.115   1.081  1.00  0.00     0.155 C 
HETATM    3  O5  UNL     1      21.287   1.338   1.082  1.00  0.00    -0.371 OA
HETATM    4  C8  UNL     1      22.238   1.187   2.094  1.00  0.00     0.184 C 
HETATM    5  C23 UNL     1      22.787  -0.169   1.649  1.00  0.00     0.161 C 
ENDROOT
BRANCH   4   6
HETATM    6  C9  UNL     1      23.249   2.259   1.875  1.00  0.00    -0.027 A 
HETATM    7  C10 UNL     1      24.476   2.242   2.505  1.00  0.00     0.010 A 
HETATM    8  C11 UNL     1      25.428   3.221   2.319  1.00  0.00     0.007 A 
HETATM    9  C12 UNL     1      25.185   4.269   1.483  1.00  0.00    -0.058 A 
HETATM   10  C21 UNL     1      23.953   4.300   0.840  1.00  0.00     0.007 A 
HETATM   11  C22 UNL     1      22.996   3.317   1.027  1.00  0.00     0.010 A 
BRANCH   9  12
HETATM   12  C13 UNL     1      26.178   5.346   1.251  1.00  0.00     0.043 C 
BRANCH  12  13
HETATM   13  C14 UNL     1      27.582   4.858   1.086  1.00  0.00     0.043 C 
BRANCH  13  14
HETATM   14  C15 UNL     1      27.812   4.099  -0.163  1.00  0.00    -0.058 A 
HETATM   15  C16 UNL     1      28.091   4.740  -1.350  1.00  0.00     0.010 A 
HETATM   16  C17 UNL     1      28.307   4.040  -2.520  1.00  0.00     0.043 A 
HETATM   17  C18 UNL     1      28.249   2.663  -2.537  1.00  0.00     0.116 A 
HETATM   18  F1  UNL     1      28.460   1.956  -3.684  1.00  0.00    -0.206 F 
HETATM   19  C19 UNL     1      27.972   1.998  -1.369  1.00  0.00     0.043 A 
HETATM   20  C20 UNL     1      27.757   2.717  -0.197  1.00  0.00     0.010 A 
ENDBRANCH  13  14
ENDBRANCH  12  13
ENDBRANCH   9  12
ENDBRANCH   4   6
BRANCH   5  21
HETATM   21  O6  UNL     1      23.370   0.103   0.433  1.00  0.00    -0.392 OA
ATOM     22  H6  UNL     1      22.889   0.745  -0.078  1.00  0.00     0.210 HD
ENDBRANCH   5  21
BRANCH   2  23
HETATM   23  C7  UNL     1      19.428   0.430   2.085  1.00  0.00     0.196 C 
BRANCH  23  24
HETATM   24  O4  UNL     1      18.657   1.509   1.599  1.00  0.00    -0.398 OA
ATOM     25  H4  UNL     1      17.867   1.591   2.121  1.00  0.00     0.209 HD
ENDBRANCH  23  24
ENDBRANCH   2  23
BRANCH   1  26
HETATM   26  C4  UNL     1      21.692  -2.164   0.807  1.00  0.00     0.106 C 
HETATM   27  C3  UNL     1      20.794  -3.309   0.837  1.00  0.00     0.292 C 
HETATM   28  N2  UNL     1      20.994  -4.191   1.999  1.00  0.00    -0.056 N 
HETATM   29  S1  UNL     1      19.037  -3.046   0.804  1.00  0.00    -0.059 SA
HETATM   30  C2  UNL     1      22.229  -4.891   1.939  1.00  0.00     0.265 C 
ATOM     31  H22 UNL     1      20.211  -4.835   2.110  1.00  0.00     0.278 HD
ATOM     32  H21 UNL     1      20.907  -3.674   2.873  1.00  0.00     0.278 HD
HETATM   33  C1  UNL     1      23.204  -4.165   1.037  1.00  0.00     0.184 C 
HETATM   34  C24 UNL     1      23.070  -2.692   1.282  1.00  0.00     0.074 C 
BRANCH  33  35
HETATM   35  N1  UNL     1      24.550  -4.540   1.352  1.00  0.00    -0.149 N 
HETATM   36  O1  UNL     1      25.389  -3.655   1.597  1.00  0.00    -0.536 OA
HETATM   37  O2  UNL     1      24.995  -5.839   1.405  1.00  0.00    -0.536 OA
ENDBRANCH  33  35
BRANCH  26  38
HETATM   38  O3  UNL     1      21.950  -1.865  -0.557  1.00  0.00    -0.386 OA
ATOM     39  H3  UNL     1      21.547  -1.025  -0.743  1.00  0.00     0.210 HD
ENDBRANCH  26  38
ENDBRANCH   1  26
TORSDOF 10
ENDMDL
MODEL 3
REMARK VINA RESULT: -9.390176805      1.918      2.544
REMARK  10 active torsions:
REMARK  status: ('A' for Active; 'I' for Inactive)
REMARK    1  A    between atoms: N1_2  and  C1_4 
REMARK    2  A    between atoms: C4_11  and  O3_12 
REMARK    3  A    between atoms: C4_11  and  C5_14 
REMARK    4  A    between atoms: C6_15  and  C7_16 
REMARK    5  A    between atoms: C7_16  and  O4_17 
REMARK    6  A    between atoms: C8_20  and  C9_21 
REMARK    7  A    between atoms: C12_24  and  C13_25 
REMARK    8  A    between atoms: C13_25  and  C14_26 
REMARK    9  A    between atoms: C14_26  and  C15_27 
REMARK   10  A    between atoms: C23_36  and  O6_37 
ROOT
HETATM    1  C5  UNL     1      21.274   1.951   1.907  1.00  0.00     0.086 C 
HETATM    2  C6  UNL     1      20.592   3.168   1.483  1.00  0.00     0.155 C 
HETATM    3  O5  UNL     1      21.595   4.155   1.245  1.00  0.00    -0.371 OA
HETATM    4  C8  UNL     1      22.634   3.832   2.121  1.00  0.00     0.184 C 
HETATM    5  C23 UNL     1      22.750   2.352   1.754  1.00  0.00     0.161 C 
ENDROOT
BRANCH   4   6
HETATM    6  C9  UNL     1      23.828   4.585   1.645  1.00  0.00    -0.027 A 
HETATM    7  C10 UNL     1      23.712   5.720   0.870  1.00  0.00     0.010 A 
HETATM    8  C11 UNL     1      24.800   6.435   0.418  1.00  0.00     0.007 A 
HETATM    9  C12 UNL     1      26.065   6.033   0.728  1.00  0.00    -0.058 A 
HETATM   10  C21 UNL     1      26.199   4.891   1.508  1.00  0.00     0.007 A 
HETATM   11  C22 UNL     1      25.105   4.173   1.962  1.00  0.00     0.010 A 
BRANCH   9  12
HETATM   12  C13 UNL     1      27.267   6.769   0.264  1.00  0.00     0.043 C 
BRANCH  12  13
HETATM   13  C14 UNL     1      28.507   5.936   0.198  1.00  0.00     0.043 C 
BRANCH  13  14
HETATM   14  C15 UNL     1      28.456   4.863  -0.819  1.00  0.00    -0.058 A 
HETATM   15  C16 UNL     1      28.410   3.534  -0.458  1.00  0.00     0.010 A 
HETATM   16  C17 UNL     1      28.362   2.526  -1.400  1.00  0.00     0.043 A 
HETATM   17  C18 UNL     1      28.359   2.822  -2.746  1.00  0.00     0.116 A 
HETATM   18  F1  UNL     1      28.313   1.839  -3.691  1.00  0.00    -0.206 F 
HETATM   19  C19 UNL     1      28.405   4.137  -3.135  1.00  0.00     0.043 A 
HETATM   20  C20 UNL     1      28.453   5.142  -2.174  1.00  0.00     0.010 A 
ENDBRANCH  13  14
ENDBRANCH  12  13
ENDBRANCH   9  12
ENDBRANCH   4   6
BRANCH   5  21
HETATM   21  O6  UNL     1      23.172   2.379   0.444  1.00  0.00    -0.392 OA
ATOM     22  H6  UNL     1      24.116   2.310   0.353  1.00  0.00     0.210 HD
ENDBRANCH   5  21
BRANCH   2  23
HETATM   23  C7  UNL     1      19.763   3.834   2.595  1.00  0.00     0.196 C 
BRANCH  23  24
HETATM   24  O4  UNL     1      18.680   4.533   2.017  1.00  0.00    -0.398 OA
ATOM     25  H4  UNL     1      17.981   4.614   2.656  1.00  0.00     0.209 HD
ENDBRANCH  23  24
ENDBRANCH   2  23
BRANCH   1  26
HETATM   26  C4  UNL     1      21.074   0.658   1.299  1.00  0.00     0.106 C 
HETATM   27  C3  UNL     1      19.992  -0.249   1.651  1.00  0.00     0.292 C 
HETATM   28  N2  UNL     1      20.271  -1.077   2.837  1.00  0.00    -0.056 N 
HETATM   29  S1  UNL     1      18.368   0.402   1.964  1.00  0.00    -0.059 SA
HETATM   30  C2  UNL     1      21.286  -2.041   2.596  1.00  0.00     0.265 C 
ATOM     31  H22 UNL     1      19.420  -1.517   3.186  1.00  0.00     0.278 HD
ATOM     32  H21 UNL     1      20.498  -0.497   3.645  1.00  0.00     0.278 HD
HETATM   33  C1  UNL     1      22.152  -1.615   1.430  1.00  0.00     0.184 C 
HETATM   34  C24 UNL     1      22.385  -0.136   1.527  1.00  0.00     0.074 C 
BRANCH  33  35
HETATM   35  N1  UNL     1      23.427  -2.264   1.491  1.00  0.00    -0.149 N 
HETATM   36  O1  UNL     1      24.428  -1.613   1.843  1.00  0.00    -0.536 OA
HETATM   37  O2  UNL     1      23.633  -3.587   1.183  1.00  0.00    -0.536 OA
ENDBRANCH  33  35
BRANCH  26  38
HETATM   38  O3  UNL     1      21.063   0.801  -0.114  1.00  0.00    -0.386 OA
ATOM     39  H3  UNL     1      21.957   0.964  -0.389  1.00  0.00     0.210 HD
ENDBRANCH  26  38
ENDBRANCH   1  26
TORSDOF 10
ENDMDL
MODEL 4
REMARK VINA RESULT: -9.328502836      1.250      1.821
REMARK  10 active torsions:
REMARK  status: ('A' for Active; 'I' for Inactive)
REMARK    1  A    between atoms: N1_2  and  C1_4 
REMARK    2  A    between atoms: C4_11  and  O3_12 
REMARK    3  A    between atoms: C4_11  and  C5_14 
REMARK    4  A    between atoms: C6_15  and  C7_16 
REMARK    5  A    between atoms: C7_16  and  O4_17 
REMARK    6  A    between atoms: C8_20  and  C9_21 
REMARK    7  A    between atoms: C12_24  and  C13_25 
REMARK    8  A    between atoms: C13_25  and  C14_26 
REMARK    9  A    between atoms: C14_26  and  C15_27 
REMARK   10  A    between atoms: C23_36  and  O6_37 
ROOT
HETATM    1  C5  UNL     1      21.126   2.994   2.600  1.00  0.00     0.086 C 
HETATM    2  C6  UNL     1      20.855   4.384   2.952  1.00  0.00     0.155 C 
HETATM    3  O5  UNL     1      22.009   5.143   2.599  1.00  0.00    -0.371 OA
HETATM    4  C8  UNL     1      23.081   4.258   2.736  1.00  0.00     0.184 C 
HETATM    5  C23 UNL     1      22.495   3.110   1.912  1.00  0.00     0.161 C 
ENDROOT
BRANCH   4   6
HETATM    6  C9  UNL     1      24.229   4.882   2.023  1.00  0.00    -0.027 A 
HETATM    7  C10 UNL     1      24.133   6.126   1.435  1.00  0.00     0.010 A 
HETATM    8  C11 UNL     1      25.181   6.725   0.770  1.00  0.00     0.007 A 
HETATM    9  C12 UNL     1      26.384   6.092   0.667  1.00  0.00    -0.058 A 
HETATM   10  C21 UNL     1      26.498   4.838   1.256  1.00  0.00     0.007 A 
HETATM   11  C22 UNL     1      25.444   4.236   1.923  1.00  0.00     0.010 A 
BRANCH   9  12
HETATM   12  C13 UNL     1      27.541   6.697  -0.037  1.00  0.00     0.043 C 
BRANCH  12  13
HETATM   13  C14 UNL     1      28.746   5.814  -0.103  1.00  0.00     0.043 C 
BRANCH  13  14
HETATM   14  C15 UNL     1      28.625   4.702  -1.071  1.00  0.00    -0.058 A 
HETATM   15  C16 UNL     1      28.500   4.939  -2.423  1.00  0.00     0.010 A 
HETATM   16  C17 UNL     1      28.387   3.907  -3.334  1.00  0.00     0.043 A 
HETATM   17  C18 UNL     1      28.394   2.594  -2.914  1.00  0.00     0.116 A 
HETATM   18  F1  UNL     1      28.282   1.563  -3.799  1.00  0.00    -0.206 F 
HETATM   19  C19 UNL     1      28.516   2.329  -1.573  1.00  0.00     0.043 A 
HETATM   20  C20 UNL     1      28.630   3.379  -0.667  1.00  0.00     0.010 A 
ENDBRANCH  13  14
ENDBRANCH  12  13
ENDBRANCH   9  12
ENDBRANCH   4   6
BRANCH   5  21
HETATM   21  O6  UNL     1      22.421   3.633   0.641  1.00  0.00    -0.392 OA
ATOM     22  H6  UNL     1      23.263   3.673   0.202  1.00  0.00     0.210 HD
ENDBRANCH   5  21
BRANCH   2  23
HETATM   23  C7  UNL     1      20.773   4.634   4.469  1.00  0.00     0.196 C 
BRANCH  23  24
HETATM   24  O4  UNL     1      20.894   6.019   4.721  1.00  0.00    -0.398 OA
ATOM     25  H4  UNL     1      20.398   6.241   5.501  1.00  0.00     0.209 HD
ENDBRANCH  23  24
ENDBRANCH   2  23
BRANCH   1  26
HETATM   26  C4  UNL     1      20.258   2.182   1.784  1.00  0.00     0.106 C 
HETATM   27  C3  UNL     1      19.103   1.457   2.294  1.00  0.00     0.292 C 
HETATM   28  N2  UNL     1      19.436   0.148   2.882  1.00  0.00    -0.056 N 
HETATM   29  S1  UNL     1      18.060   2.216   3.515  1.00  0.00    -0.059 SA
HETATM   30  C2  UNL     1      19.862  -0.790   1.906  1.00  0.00     0.265 C 
ATOM     31  H22 UNL     1      18.656  -0.217   3.429  1.00  0.00     0.278 HD
ATOM     32  H21 UNL     1      20.126   0.244   3.627  1.00  0.00     0.278 HD
HETATM   33  C1  UNL     1      20.370  -0.075   0.672  1.00  0.00     0.184 C 
HETATM   34  C24 UNL     1      21.163   1.120   1.110  1.00  0.00     0.074 C 
BRANCH  33  35
HETATM   35  N1  UNL     1      21.243  -0.928  -0.077  1.00  0.00    -0.149 N 
HETATM   36  O1  UNL     1      22.351  -0.498  -0.444  1.00  0.00    -0.536 OA
HETATM   37  O2  UNL     1      20.940  -2.222  -0.428  1.00  0.00    -0.536 OA
ENDBRANCH  33  35
BRANCH  26  38
HETATM   38  O3  UNL     1      19.819   2.942   0.667  1.00  0.00    -0.386 OA
ATOM     39  H3  UNL     1      19.537   2.327   0.000  1.00  0.00     0.210 HD
ENDBRANCH  26  38
ENDBRANCH   1  26
TORSDOF 10
ENDMDL
MODEL 5
REMARK VINA RESULT: -9.311960646      2.229      4.059
REMARK  10 active torsions:
REMARK  status: ('A' for Active; 'I' for Inactive)
REMARK    1  A    between atoms: N1_2  and  C1_4 
REMARK    2  A    between atoms: C4_11  and  O3_12 
REMARK    3  A    between atoms: C4_11  and  C5_14 
REMARK    4  A    between atoms: C6_15  and  C7_16 
REMARK    5  A    between atoms: C7_16  and  O4_17 
REMARK    6  A    between atoms: C8_20  and  C9_21 
REMARK    7  A    between atoms: C12_24  and  C13_25 
REMARK    8  A    between atoms: C13_25  and  C14_26 
REMARK    9  A    between atoms: C14_26  and  C15_27 
REMARK   10  A    between atoms: C23_36  and  O6_37 
ROOT
HETATM    1  C5  UNL     1      21.148   1.326   2.754  1.00  0.00     0.086 C 
HETATM    2  C6  UNL     1      21.605   0.410   1.714  1.00  0.00     0.155 C 
HETATM    3  O5  UNL     1      22.819   0.942   1.186  1.00  0.00    -0.371 OA
HETATM    4  C8  UNL     1      22.703   2.326   1.333  1.00  0.00     0.184 C 
HETATM    5  C23 UNL     1      22.306   2.335   2.810  1.00  0.00     0.161 C 
ENDROOT
BRANCH   4   6
HETATM    6  C9  UNL     1      24.074   2.879   1.155  1.00  0.00    -0.027 A 
HETATM    7  C10 UNL     1      24.346   4.220   1.327  1.00  0.00     0.010 A 
HETATM    8  C11 UNL     1      25.606   4.756   1.168  1.00  0.00     0.007 A 
HETATM    9  C12 UNL     1      26.656   3.958   0.826  1.00  0.00    -0.058 A 
HETATM   10  C21 UNL     1      26.399   2.604   0.650  1.00  0.00     0.007 A 
HETATM   11  C22 UNL     1      25.132   2.065   0.808  1.00  0.00     0.010 A 
BRANCH   9  12
HETATM   12  C13 UNL     1      28.030   4.489   0.644  1.00  0.00     0.043 C 
BRANCH  12  13
HETATM   13  C14 UNL     1      28.477   4.553  -0.781  1.00  0.00     0.043 C 
BRANCH  13  14
HETATM   14  C15 UNL     1      28.721   3.229  -1.394  1.00  0.00    -0.058 A 
HETATM   15  C16 UNL     1      28.250   2.924  -2.653  1.00  0.00     0.010 A 
HETATM   16  C17 UNL     1      28.474   1.691  -3.233  1.00  0.00     0.043 A 
HETATM   17  C18 UNL     1      29.181   0.717  -2.563  1.00  0.00     0.116 A 
HETATM   18  F1  UNL     1      29.411  -0.507  -3.120  1.00  0.00    -0.206 F 
HETATM   19  C19 UNL     1      29.662   0.992  -1.307  1.00  0.00     0.043 A 
HETATM   20  C20 UNL     1      29.429   2.240  -0.736  1.00  0.00     0.010 A 
ENDBRANCH  13  14
ENDBRANCH  12  13
ENDBRANCH   9  12
ENDBRANCH   4   6
BRANCH   5  21
HETATM   21  O6  UNL     1      23.424   1.843   3.445  1.00  0.00    -0.392 OA
ATOM     22  H6  UNL     1      23.920   1.232   2.912  1.00  0.00     0.210 HD
ENDBRANCH   5  21
BRANCH   2  23
HETATM   23  C7  UNL     1      20.707   0.394   0.464  1.00  0.00     0.196 C 
BRANCH  23  24
HETATM   24  O4  UNL     1      21.400  -0.222  -0.602  1.00  0.00    -0.398 OA
ATOM     25  H4  UNL     1      20.943  -0.046  -1.417  1.00  0.00     0.209 HD
ENDBRANCH  23  24
ENDBRANCH   2  23
BRANCH   1  26
HETATM   26  C4  UNL     1      20.813   0.921   4.097  1.00  0.00     0.106 C 
HETATM   27  C3  UNL     1      19.588   0.222   4.456  1.00  0.00     0.292 C 
HETATM   28  N2  UNL     1      18.432   1.112   4.654  1.00  0.00    -0.056 N 
HETATM   29  S1  UNL     1      18.961  -1.053   3.389  1.00  0.00    -0.059 SA
HETATM   30  C2  UNL     1      18.564   1.919   5.815  1.00  0.00     0.265 C 
ATOM     31  H22 UNL     1      17.559   0.584   4.670  1.00  0.00     0.278 HD
ATOM     32  H21 UNL     1      18.261   1.684   3.827  1.00  0.00     0.278 HD
HETATM   33  C1  UNL     1      20.021   2.047   6.206  1.00  0.00     0.184 C 
HETATM   34  C24 UNL     1      20.835   2.210   4.957  1.00  0.00     0.074 C 
BRANCH  33  35
HETATM   35  N1  UNL     1      20.221   3.213   7.014  1.00  0.00    -0.149 N 
HETATM   36  O1  UNL     1      19.735   3.253   8.158  1.00  0.00    -0.536 OA
HETATM   37  O2  UNL     1      20.930   4.318   6.609  1.00  0.00    -0.536 OA
ENDBRANCH  33  35
BRANCH  26  38
HETATM   38  O3  UNL     1      21.896   0.185   4.649  1.00  0.00    -0.386 OA
ATOM     39  H3  UNL     1      22.107  -0.509   4.035  1.00  0.00     0.210 HD
ENDBRANCH  26  38
ENDBRANCH   1  26
TORSDOF 10
ENDMDL
