MODEL 1
REMARK VINA RESULT: -8.956371557      0.000      0.000
REMARK  13 active torsions:
REMARK  status: ('A' for Active; 'I' for Inactive)
REMARK    1  A    between atoms: C2_2  and  C3_3 
REMARK    2  A    between atoms: C3_3  and  C4_4 
REMARK    3  A    between atoms: C4_4  and  C5_5 
REMARK    4  A    between atoms: C5_5  and  C6_6 
REMARK    5  A    between atoms: C7_7  and  C8_8 
REMARK    6  A    between atoms: N2_12  and  C10_14 
REMARK    7  A    between atoms: C10_14  and  C11_15 
REMARK    8  A    between atoms: C11_15  and  O1_16 
REMARK    9  A    between atoms: N3_29  and  C22_30 
REMARK   10  A    between atoms: C23_32  and  C24_33 
REMARK   11  A    between atoms: C24_33  and  O3_34 
REMARK   12  A    between atoms: C25_36  and  O4_37 
REMARK   13  A    between atoms: C26_39  and  O5_40 
ROOT
HETATM    1  C8  UNL     1      26.849   1.401  -0.255  1.00  0.00     0.167 A 
HETATM    2  N1  UNL     1      25.742   1.677   0.444  1.00  0.00    -0.319 N 
ATOM      3  H1  UNL     1      25.401   2.637   0.505  1.00  0.00     0.169 HD
HETATM    4  C9  UNL     1      25.060   0.660   1.084  1.00  0.00     0.144 A 
HETATM    5  N2  UNL     1      24.007   0.945   1.743  1.00  0.00    -0.371 N 
ATOM      6  H2  UNL     1      23.750   1.932   1.741  1.00  0.00     0.161 HD
HETATM    7  C20 UNL     1      25.527  -0.627   0.996  1.00  0.00     0.175 A 
HETATM    8  F1  UNL     1      24.923  -1.674   1.590  1.00  0.00    -0.201 F 
HETATM    9  C21 UNL     1      26.662  -0.890   0.277  1.00  0.00     0.142 A 
HETATM   10  N3  UNL     1      27.302   0.137  -0.336  1.00  0.00    -0.303 N 
ENDROOT
BRANCH   5  11
HETATM   11  C10 UNL     1      23.143   0.105   2.474  1.00  0.00     0.159 C 
BRANCH  11  12
HETATM   12  C11 UNL     1      22.138   0.928   3.315  1.00  0.00     0.075 C 
HETATM   13  C12 UNL     1      22.453   2.368   3.077  1.00  0.00     0.043 C 
HETATM   14  C13 UNL     1      21.421   3.313   3.602  1.00  0.00    -0.015 C 
HETATM   15  C14 UNL     1      21.752   4.699   3.036  1.00  0.00     0.010 C 
HETATM   16  C15 UNL     1      20.037   2.974   3.115  1.00  0.00     0.013 C 
HETATM   17  C16 UNL     1      19.726   1.514   3.405  1.00  0.00    -0.045 C 
HETATM   18  C17 UNL     1      18.373   1.220   2.802  1.00  0.00     0.015 C 
HETATM   19  C18 UNL     1      19.612   1.330   4.893  1.00  0.00     0.015 C 
HETATM   20  C19 UNL     1      20.765   0.632   2.783  1.00  0.00     0.048 C 
BRANCH  12  21
HETATM   21  O1  UNL     1      22.289   0.538   4.644  1.00  0.00    -0.388 OA
ATOM     22  H1  UNL     1      23.219   0.528   4.833  1.00  0.00     0.210 HD
ENDBRANCH  12  21
ENDBRANCH  11  12
ENDBRANCH   5  11
BRANCH   1  23
HETATM   23  C7  UNL     1      27.547   2.498  -0.919  1.00  0.00    -0.030 C 
HETATM   24  C6  UNL     1      28.115   3.400  -1.487  1.00  0.00    -0.098 C 
BRANCH  24  25
HETATM   25  C5  UNL     1      28.792   4.489  -2.198  1.00  0.00     0.094 C 
BRANCH  25  26
HETATM   26  C4  UNL     1      28.116   5.771  -1.793  1.00  0.00     0.012 C 
BRANCH  26  27
HETATM   27  C3  UNL     1      28.311   6.080  -0.339  1.00  0.00     0.000 C 
BRANCH  27  28
HETATM   28  C2  UNL     1      27.013   6.599   0.235  1.00  0.00    -0.005 C 
HETATM   29  C1  UNL     1      26.307   5.492   1.024  1.00  0.00     0.005 C 
ENDBRANCH  27  28
ENDBRANCH  26  27
ENDBRANCH  25  26
ENDBRANCH  24  25
ENDBRANCH   1  23
BRANCH  10  30
HETATM   30  C22 UNL     1      28.491  -0.116  -1.094  1.00  0.00     0.261 C 
HETATM   31  O2  UNL     1      28.377  -1.365  -1.665  1.00  0.00    -0.353 OA
HETATM   32  C23 UNL     1      29.486  -2.111  -1.381  1.00  0.00     0.179 C 
HETATM   33  C25 UNL     1      30.236  -1.458  -0.268  1.00  0.00     0.182 C 
HETATM   34  C26 UNL     1      29.756  -0.046  -0.310  1.00  0.00     0.198 C 
BRANCH  32  35
HETATM   35  C24 UNL     1      30.383  -2.274  -2.609  1.00  0.00     0.198 C 
BRANCH  35  36
HETATM   36  O3  UNL     1      30.056  -3.392  -3.334  1.00  0.00    -0.398 OA
ATOM     37  H3  UNL     1      30.803  -3.968  -3.453  1.00  0.00     0.209 HD
ENDBRANCH  35  36
ENDBRANCH  32  35
BRANCH  33  38
HETATM   38  O4  UNL     1      31.609  -1.537  -0.575  1.00  0.00    -0.390 OA
ATOM     39  H4  UNL     1      31.858  -0.720  -0.989  1.00  0.00     0.210 HD
ENDBRANCH  33  38
BRANCH  34  40
HETATM   40  O5  UNL     1      29.621   0.543   0.939  1.00  0.00    -0.388 OA
ATOM     41  H5  UNL     1      30.160   1.315   1.066  1.00  0.00     0.210 HD
ENDBRANCH  34  40
ENDBRANCH  10  30
TORSDOF 13
ENDMDL
MODEL 2
REMARK VINA RESULT: -8.776482013      2.216      8.535
REMARK  13 active torsions:
REMARK  status: ('A' for Active; 'I' for Inactive)
REMARK    1  A    between atoms: C2_2  and  C3_3 
REMARK    2  A    between atoms: C3_3  and  C4_4 
REMARK    3  A    between atoms: C4_4  and  C5_5 
REMARK    4  A    between atoms: C5_5  and  C6_6 
REMARK    5  A    between atoms: C7_7  and  C8_8 
REMARK    6  A    between atoms: N2_12  and  C10_14 
REMARK    7  A    between atoms: C10_14  and  C11_15 
REMARK    8  A    between atoms: C11_15  and  O1_16 
REMARK    9  A    between atoms: N3_29  and  C22_30 
REMARK   10  A    between atoms: C23_32  and  C24_33 
REMARK   11  A    between atoms: C24_33  and  O3_34 
REMARK   12  A    between atoms: C25_36  and  O4_37 
REMARK   13  A    between atoms: C26_39  and  O5_40 
ROOT
HETATM    1  C8  UNL     1      24.292   3.686   1.842  1.00  0.00     0.167 A 
HETATM    2  N1  UNL     1      25.319   2.992   1.338  1.00  0.00    -0.319 N 
ATOM      3  H1  UNL     1      26.160   3.478   1.027  1.00  0.00     0.169 HD
HETATM    4  C9  UNL     1      25.239   1.616   1.239  1.00  0.00     0.144 A 
HETATM    5  N2  UNL     1      26.230   0.976   0.756  1.00  0.00    -0.371 N 
ATOM      6  H2  UNL     1      27.022   1.554   0.475  1.00  0.00     0.161 HD
HETATM    7  C20 UNL     1      24.103   0.973   1.660  1.00  0.00     0.175 A 
HETATM    8  F1  UNL     1      23.944  -0.363   1.597  1.00  0.00    -0.201 F 
HETATM    9  C21 UNL     1      23.061   1.699   2.173  1.00  0.00     0.142 A 
HETATM   10  N3  UNL     1      23.181   3.048   2.253  1.00  0.00    -0.303 N 
ENDROOT
BRANCH   5  11
HETATM   11  C10 UNL     1      26.398  -0.408   0.551  1.00  0.00     0.159 C 
BRANCH  11  12
HETATM   12  C11 UNL     1      27.659  -0.701  -0.296  1.00  0.00     0.075 C 
HETATM   13  C12 UNL     1      27.502   0.049  -1.577  1.00  0.00     0.043 C 
HETATM   14  C13 UNL     1      28.740   0.095  -2.413  1.00  0.00    -0.015 C 
HETATM   15  C14 UNL     1      28.494   1.118  -3.527  1.00  0.00     0.010 C 
HETATM   16  C15 UNL     1      29.933   0.588  -1.639  1.00  0.00     0.013 C 
HETATM   17  C16 UNL     1      30.094  -0.218  -0.359  1.00  0.00    -0.045 C 
HETATM   18  C17 UNL     1      31.239   0.395   0.411  1.00  0.00     0.015 C 
HETATM   19  C18 UNL     1      30.488  -1.623  -0.719  1.00  0.00     0.015 C 
HETATM   20  C19 UNL     1      28.838  -0.150   0.454  1.00  0.00     0.048 C 
BRANCH  12  21
HETATM   21  O1  UNL     1      27.735  -2.082  -0.466  1.00  0.00    -0.388 OA
ATOM     22  H1  UNL     1      28.531  -2.265  -0.950  1.00  0.00     0.210 HD
ENDBRANCH  12  21
ENDBRANCH  11  12
ENDBRANCH   5  11
BRANCH   1  23
HETATM   23  C7  UNL     1      24.407   5.138   1.933  1.00  0.00    -0.030 C 
HETATM   24  C6  UNL     1      24.522   6.338   2.000  1.00  0.00    -0.098 C 
BRANCH  24  25
HETATM   25  C5  UNL     1      24.683   7.795   2.068  1.00  0.00     0.094 C 
BRANCH  25  26
HETATM   26  C4  UNL     1      25.425   8.217   0.829  1.00  0.00     0.012 C 
BRANCH  26  27
HETATM   27  C3  UNL     1      26.847   7.744   0.830  1.00  0.00     0.000 C 
BRANCH  27  28
HETATM   28  C2  UNL     1      27.072   6.851  -0.367  1.00  0.00    -0.005 C 
HETATM   29  C1  UNL     1      27.675   5.515   0.079  1.00  0.00     0.005 C 
ENDBRANCH  27  28
ENDBRANCH  26  27
ENDBRANCH  25  26
ENDBRANCH  24  25
ENDBRANCH   1  23
BRANCH  10  30
HETATM   30  C22 UNL     1      22.103   3.828   2.786  1.00  0.00     0.261 C 
HETATM   31  O2  UNL     1      21.567   3.141   3.855  1.00  0.00    -0.353 OA
HETATM   32  C23 UNL     1      20.213   3.030   3.706  1.00  0.00     0.179 C 
HETATM   33  C25 UNL     1      19.854   3.351   2.294  1.00  0.00     0.182 C 
HETATM   34  C26 UNL     1      21.021   4.146   1.813  1.00  0.00     0.198 C 
BRANCH  32  35
HETATM   35  C24 UNL     1      19.465   3.949   4.672  1.00  0.00     0.198 C 
BRANCH  35  36
HETATM   36  O3  UNL     1      18.305   3.374   5.127  1.00  0.00    -0.398 OA
ATOM     37  H3  UNL     1      18.474   2.580   5.622  1.00  0.00     0.209 HD
ENDBRANCH  35  36
ENDBRANCH  32  35
BRANCH  33  38
HETATM   38  O4  UNL     1      18.683   4.134   2.320  1.00  0.00    -0.390 OA
ATOM     39  H4  UNL     1      18.948   5.045   2.355  1.00  0.00     0.210 HD
ENDBRANCH  33  38
BRANCH  34  40
HETATM   40  O5  UNL     1      21.360   3.908   0.488  1.00  0.00    -0.388 OA
ATOM     41  H5  UNL     1      20.646   3.576  -0.043  1.00  0.00     0.210 HD
ENDBRANCH  34  40
ENDBRANCH  10  30
TORSDOF 13
ENDMDL
MODEL 3
REMARK VINA RESULT: -8.641558908      1.238      1.933
REMARK  13 active torsions:
REMARK  status: ('A' for Active; 'I' for Inactive)
REMARK    1  A    between atoms: C2_2  and  C3_3 
REMARK    2  A    between atoms: C3_3  and  C4_4 
REMARK    3  A    between atoms: C4_4  and  C5_5 
REMARK    4  A    between atoms: C5_5  and  C6_6 
REMARK    5  A    between atoms: C7_7  and  C8_8 
REMARK    6  A    between atoms: N2_12  and  C10_14 
REMARK    7  A    between atoms: C10_14  and  C11_15 
REMARK    8  A    between atoms: C11_15  and  O1_16 
REMARK    9  A    between atoms: N3_29  and  C22_30 
REMARK   10  A    between atoms: C23_32  and  C24_33 
REMARK   11  A    between atoms: C24_33  and  O3_34 
REMARK   12  A    between atoms: C25_36  and  O4_37 
REMARK   13  A    between atoms: C26_39  and  O5_40 
ROOT
HETATM    1  C8  UNL     1      26.849   1.800  -0.121  1.00  0.00     0.167 A 
HETATM    2  N1  UNL     1      25.812   2.145   0.650  1.00  0.00    -0.319 N 
ATOM      3  H1  UNL     1      25.552   3.127   0.748  1.00  0.00     0.169 HD
HETATM    4  C9  UNL     1      25.093   1.170   1.314  1.00  0.00     0.144 A 
HETATM    5  N2  UNL     1      24.107   1.521   2.043  1.00  0.00    -0.371 N 
ATOM      6  H2  UNL     1      23.929   2.525   2.073  1.00  0.00     0.161 HD
HETATM    7  C20 UNL     1      25.452  -0.147   1.177  1.00  0.00     0.175 A 
HETATM    8  F1  UNL     1      24.806  -1.157   1.789  1.00  0.00    -0.201 F 
HETATM    9  C21 UNL     1      26.517  -0.481   0.384  1.00  0.00     0.142 A 
HETATM   10  N3  UNL     1      27.197   0.507  -0.251  1.00  0.00    -0.303 N 
ENDROOT
BRANCH   5  11
HETATM   11  C10 UNL     1      23.227   0.735   2.812  1.00  0.00     0.159 C 
BRANCH  11  12
HETATM   12  C11 UNL     1      21.774   0.846   2.293  1.00  0.00     0.075 C 
HETATM   13  C12 UNL     1      21.636  -0.141   1.182  1.00  0.00     0.043 C 
HETATM   14  C13 UNL     1      20.228  -0.359   0.731  1.00  0.00    -0.015 C 
HETATM   15  C14 UNL     1      20.236  -1.580  -0.195  1.00  0.00     0.010 C 
HETATM   16  C15 UNL     1      19.309  -0.699   1.874  1.00  0.00     0.013 C 
HETATM   17  C16 UNL     1      19.440   0.343   2.975  1.00  0.00    -0.045 C 
HETATM   18  C17 UNL     1      18.573  -0.113   4.124  1.00  0.00     0.015 C 
HETATM   19  C18 UNL     1      18.883   1.647   2.475  1.00  0.00     0.015 C 
HETATM   20  C19 UNL     1      20.866   0.446   3.421  1.00  0.00     0.048 C 
BRANCH  12  21
HETATM   21  O1  UNL     1      21.575   2.166   1.892  1.00  0.00    -0.388 OA
ATOM     22  H1  UNL     1      20.701   2.222   1.525  1.00  0.00     0.210 HD
ENDBRANCH  12  21
ENDBRANCH  11  12
ENDBRANCH   5  11
BRANCH   1  23
HETATM   23  C7  UNL     1      27.589   2.855  -0.809  1.00  0.00    -0.030 C 
HETATM   24  C6  UNL     1      28.184   3.739  -1.376  1.00  0.00    -0.098 C 
BRANCH  24  25
HETATM   25  C5  UNL     1      28.887   4.830  -2.059  1.00  0.00     0.094 C 
BRANCH  25  26
HETATM   26  C4  UNL     1      28.171   6.106  -1.711  1.00  0.00     0.012 C 
BRANCH  26  27
HETATM   27  C3  UNL     1      28.244   6.416  -0.246  1.00  0.00     0.000 C 
BRANCH  27  28
HETATM   28  C2  UNL     1      26.903   6.935   0.217  1.00  0.00    -0.005 C 
HETATM   29  C1  UNL     1      26.168   5.855   1.017  1.00  0.00     0.005 C 
ENDBRANCH  27  28
ENDBRANCH  26  27
ENDBRANCH  25  26
ENDBRANCH  24  25
ENDBRANCH   1  23
BRANCH  10  30
HETATM   30  C22 UNL     1      28.314   0.180  -1.086  1.00  0.00     0.261 C 
HETATM   31  O2  UNL     1      28.020  -0.988  -1.756  1.00  0.00    -0.353 OA
HETATM   32  C23 UNL     1      29.035  -1.888  -1.593  1.00  0.00     0.179 C 
HETATM   33  C25 UNL     1      29.904  -1.438  -0.467  1.00  0.00     0.182 C 
HETATM   34  C26 UNL     1      29.607   0.021  -0.363  1.00  0.00     0.198 C 
BRANCH  32  35
HETATM   35  C24 UNL     1      29.856  -2.047  -2.873  1.00  0.00     0.198 C 
BRANCH  35  36
HETATM   36  O3  UNL     1      30.320  -3.330  -3.025  1.00  0.00    -0.398 OA
ATOM     37  H3  UNL     1      31.004  -3.383  -3.683  1.00  0.00     0.209 HD
ENDBRANCH  35  36
ENDBRANCH  32  35
BRANCH  33  38
HETATM   38  O4  UNL     1      31.242  -1.657  -0.847  1.00  0.00    -0.390 OA
ATOM     39  H4  UNL     1      31.788  -1.491  -0.088  1.00  0.00     0.210 HD
ENDBRANCH  33  38
BRANCH  34  40
HETATM   40  O5  UNL     1      29.596   0.505   0.938  1.00  0.00    -0.388 OA
ATOM     41  H5  UNL     1      30.202   0.066   1.522  1.00  0.00     0.210 HD
ENDBRANCH  34  40
ENDBRANCH  10  30
TORSDOF 13
ENDMDL
MODEL 4
REMARK VINA RESULT: -8.540793894      1.002      1.729
REMARK  13 active torsions:
REMARK  status: ('A' for Active; 'I' for Inactive)
REMARK    1  A    between atoms: C2_2  and  C3_3 
REMARK    2  A    between atoms: C3_3  and  C4_4 
REMARK    3  A    between atoms: C4_4  and  C5_5 
REMARK    4  A    between atoms: C5_5  and  C6_6 
REMARK    5  A    between atoms: C7_7  and  C8_8 
REMARK    6  A    between atoms: N2_12  and  C10_14 
REMARK    7  A    between atoms: C10_14  and  C11_15 
REMARK    8  A    between atoms: C11_15  and  O1_16 
REMARK    9  A    between atoms: N3_29  and  C22_30 
REMARK   10  A    between atoms: C23_32  and  C24_33 
REMARK   11  A    between atoms: C24_33  and  O3_34 
REMARK   12  A    between atoms: C25_36  and  O4_37 
REMARK   13  A    between atoms: C26_39  and  O5_40 
ROOT
HETATM    1  C8  UNL     1      26.920   1.854  -0.049  1.00  0.00     0.167 A 
HETATM    2  N1  UNL     1      25.942   2.223   0.785  1.00  0.00    -0.319 N 
ATOM      3  H1  UNL     1      25.722   3.212   0.909  1.00  0.00     0.169 HD
HETATM    4  C9  UNL     1      25.230   1.264   1.480  1.00  0.00     0.144 A 
HETATM    5  N2  UNL     1      24.301   1.639   2.269  1.00  0.00    -0.371 N 
ATOM      6  H2  UNL     1      24.160   2.647   2.321  1.00  0.00     0.161 HD
HETATM    7  C20 UNL     1      25.535  -0.062   1.308  1.00  0.00     0.175 A 
HETATM    8  F1  UNL     1      24.892  -1.057   1.946  1.00  0.00    -0.201 F 
HETATM    9  C21 UNL     1      26.541  -0.422   0.450  1.00  0.00     0.142 A 
HETATM   10  N3  UNL     1      27.215   0.551  -0.213  1.00  0.00    -0.303 N 
ENDROOT
BRANCH   5  11
HETATM   11  C10 UNL     1      23.441   0.873   3.081  1.00  0.00     0.159 C 
BRANCH  11  12
HETATM   12  C11 UNL     1      21.980   0.948   2.578  1.00  0.00     0.075 C 
HETATM   13  C12 UNL     1      21.125   0.351   3.647  1.00  0.00     0.043 C 
HETATM   14  C13 UNL     1      19.660   0.573   3.451  1.00  0.00    -0.015 C 
HETATM   15  C14 UNL     1      18.964   0.154   4.750  1.00  0.00     0.010 C 
HETATM   16  C15 UNL     1      19.326   2.026   3.239  1.00  0.00     0.013 C 
HETATM   17  C16 UNL     1      20.182   2.600   2.120  1.00  0.00    -0.045 C 
HETATM   18  C17 UNL     1      19.869   4.074   2.034  1.00  0.00     0.015 C 
HETATM   19  C18 UNL     1      19.765   1.969   0.821  1.00  0.00     0.015 C 
HETATM   20  C19 UNL     1      21.634   2.403   2.430  1.00  0.00     0.048 C 
BRANCH  12  21
HETATM   21  O1  UNL     1      21.919   0.261   1.368  1.00  0.00    -0.388 OA
ATOM     22  H1  UNL     1      22.492  -0.493   1.441  1.00  0.00     0.210 HD
ENDBRANCH  12  21
ENDBRANCH  11  12
ENDBRANCH   5  11
BRANCH   1  23
HETATM   23  C7  UNL     1      27.654   2.891  -0.768  1.00  0.00    -0.030 C 
HETATM   24  C6  UNL     1      28.242   3.756  -1.370  1.00  0.00    -0.098 C 
BRANCH  24  25
HETATM   25  C5  UNL     1      28.935   4.818  -2.108  1.00  0.00     0.094 C 
BRANCH  25  26
HETATM   26  C4  UNL     1      28.266   6.117  -1.747  1.00  0.00     0.012 C 
BRANCH  26  27
HETATM   27  C3  UNL     1      28.347   6.408  -0.279  1.00  0.00     0.000 C 
BRANCH  27  28
HETATM   28  C2  UNL     1      27.032   6.990   0.183  1.00  0.00    -0.005 C 
HETATM   29  C1  UNL     1      26.224   5.931   0.941  1.00  0.00     0.005 C 
ENDBRANCH  27  28
ENDBRANCH  26  27
ENDBRANCH  25  26
ENDBRANCH  24  25
ENDBRANCH   1  23
BRANCH  10  30
HETATM   30  C22 UNL     1      28.270   0.197  -1.115  1.00  0.00     0.261 C 
HETATM   31  O2  UNL     1      27.888  -0.939  -1.796  1.00  0.00    -0.353 OA
HETATM   32  C23 UNL     1      28.868  -1.886  -1.710  1.00  0.00     0.179 C 
HETATM   33  C25 UNL     1      29.816  -1.504  -0.623  1.00  0.00     0.182 C 
HETATM   34  C26 UNL     1      29.591  -0.038  -0.469  1.00  0.00     0.198 C 
BRANCH  32  35
HETATM   35  C24 UNL     1      29.611  -2.048  -3.037  1.00  0.00     0.198 C 
BRANCH  35  36
HETATM   36  O3  UNL     1      30.026  -3.341  -3.235  1.00  0.00    -0.398 OA
ATOM     37  H3  UNL     1      29.291  -3.936  -3.332  1.00  0.00     0.209 HD
ENDBRANCH  35  36
ENDBRANCH  32  35
BRANCH  33  38
HETATM   38  O4  UNL     1      31.121  -1.772  -1.081  1.00  0.00    -0.390 OA
ATOM     39  H4  UNL     1      31.229  -2.715  -1.105  1.00  0.00     0.210 HD
ENDBRANCH  33  38
BRANCH  34  40
HETATM   40  O5  UNL     1      29.672   0.413   0.842  1.00  0.00    -0.388 OA
ATOM     41  H5  UNL     1      29.633  -0.277   1.494  1.00  0.00     0.210 HD
ENDBRANCH  34  40
ENDBRANCH  10  30
TORSDOF 13
ENDMDL
MODEL 5
REMARK VINA RESULT: -8.535855397      4.957      7.893
REMARK  13 active torsions:
REMARK  status: ('A' for Active; 'I' for Inactive)
REMARK    1  A    between atoms: C2_2  and  C3_3 
REMARK    2  A    between atoms: C3_3  and  C4_4 
REMARK    3  A    between atoms: C4_4  and  C5_5 
REMARK    4  A    between atoms: C5_5  and  C6_6 
REMARK    5  A    between atoms: C7_7  and  C8_8 
REMARK    6  A    between atoms: N2_12  and  C10_14 
REMARK    7  A    between atoms: C10_14  and  C11_15 
REMARK    8  A    between atoms: C11_15  and  O1_16 
REMARK    9  A    between atoms: N3_29  and  C22_30 
REMARK   10  A    between atoms: C23_32  and  C24_33 
REMARK   11  A    between atoms: C24_33  and  O3_34 
REMARK   12  A    between atoms: C25_36  and  O4_37 
REMARK   13  A    between atoms: C26_39  and  O5_40 
ROOT
HETATM    1  C8  UNL     1      25.394  -1.687   0.854  1.00  0.00     0.167 A 
HETATM    2  N1  UNL     1      25.423  -3.024   0.902  1.00  0.00    -0.319 N 
ATOM      3  H1  UNL     1      26.292  -3.523   0.709  1.00  0.00     0.169 HD
HETATM    4  C9  UNL     1      24.275  -3.728   1.213  1.00  0.00     0.144 A 
HETATM    5  N2  UNL     1      24.327  -5.001   1.253  1.00  0.00    -0.371 N 
ATOM      6  H2  UNL     1      25.241  -5.403   1.046  1.00  0.00     0.161 HD
HETATM    7  C20 UNL     1      23.113  -3.046   1.469  1.00  0.00     0.175 A 
HETATM    8  F1  UNL     1      21.952  -3.655   1.778  1.00  0.00    -0.201 F 
HETATM    9  C21 UNL     1      23.101  -1.678   1.415  1.00  0.00     0.142 A 
HETATM   10  N3  UNL     1      24.250  -1.025   1.106  1.00  0.00    -0.303 N 
ENDROOT
BRANCH   5  11
HETATM   11  C10 UNL     1      23.314  -5.937   1.541  1.00  0.00     0.159 C 
BRANCH  11  12
HETATM   12  C11 UNL     1      23.115  -6.927   0.368  1.00  0.00     0.075 C 
HETATM   13  C12 UNL     1      21.686  -7.358   0.405  1.00  0.00     0.043 C 
HETATM   14  C13 UNL     1      21.246  -8.113  -0.807  1.00  0.00    -0.015 C 
HETATM   15  C14 UNL     1      19.719  -8.229  -0.734  1.00  0.00     0.010 C 
HETATM   16  C15 UNL     1      21.556  -7.376  -2.083  1.00  0.00     0.013 C 
HETATM   17  C16 UNL     1      23.025  -6.983  -2.113  1.00  0.00    -0.045 C 
HETATM   18  C17 UNL     1      23.240  -6.164  -3.363  1.00  0.00     0.015 C 
HETATM   19  C18 UNL     1      23.857  -8.229  -2.237  1.00  0.00     0.015 C 
HETATM   20  C19 UNL     1      23.366  -6.168  -0.904  1.00  0.00     0.048 C 
BRANCH  12  21
HETATM   21  O1  UNL     1      24.017  -7.974   0.550  1.00  0.00    -0.388 OA
ATOM     22  H1  UNL     1      24.383  -8.183  -0.301  1.00  0.00     0.210 HD
ENDBRANCH  12  21
ENDBRANCH  11  12
ENDBRANCH   5  11
BRANCH   1  23
HETATM   23  C7  UNL     1      26.623  -0.972   0.523  1.00  0.00    -0.030 C 
HETATM   24  C6  UNL     1      27.633  -0.379   0.229  1.00  0.00    -0.098 C 
BRANCH  24  25
HETATM   25  C5  UNL     1      28.848   0.349  -0.150  1.00  0.00     0.094 C 
BRANCH  25  26
HETATM   26  C4  UNL     1      28.621   0.904  -1.530  1.00  0.00     0.012 C 
BRANCH  26  27
HETATM   27  C3  UNL     1      29.095   2.320  -1.657  1.00  0.00     0.000 C 
BRANCH  27  28
HETATM   28  C2  UNL     1      28.359   2.988  -2.795  1.00  0.00    -0.005 C 
HETATM   29  C1  UNL     1      28.565   4.505  -2.737  1.00  0.00     0.005 C 
ENDBRANCH  27  28
ENDBRANCH  26  27
ENDBRANCH  25  26
ENDBRANCH  24  25
ENDBRANCH   1  23
BRANCH  10  30
HETATM   30  C22 UNL     1      24.260   0.406   1.044  1.00  0.00     0.261 C 
HETATM   31  O2  UNL     1      23.809   0.890   2.253  1.00  0.00    -0.353 OA
HETATM   32  C23 UNL     1      22.803   1.792   2.049  1.00  0.00     0.179 C 
HETATM   33  C25 UNL     1      22.307   1.654   0.648  1.00  0.00     0.182 C 
HETATM   34  C26 UNL     1      23.442   0.989  -0.056  1.00  0.00     0.198 C 
BRANCH  32  35
HETATM   35  C24 UNL     1      23.269   3.224   2.314  1.00  0.00     0.198 C 
BRANCH  35  36
HETATM   36  O3  UNL     1      22.400   3.900   3.133  1.00  0.00    -0.398 OA
ATOM     37  H3  UNL     1      21.761   4.398   2.636  1.00  0.00     0.209 HD
ENDBRANCH  35  36
ENDBRANCH  32  35
BRANCH  33  38
HETATM   38  O4  UNL     1      22.087   2.950   0.144  1.00  0.00    -0.390 OA
ATOM     39  H4  UNL     1      22.847   3.191  -0.371  1.00  0.00     0.210 HD
ENDBRANCH  33  38
BRANCH  34  40
HETATM   40  O5  UNL     1      23.050   0.072  -1.021  1.00  0.00    -0.388 OA
ATOM     41  H5  UNL     1      23.167  -0.835  -0.767  1.00  0.00     0.210 HD
ENDBRANCH  34  40
ENDBRANCH  10  30
TORSDOF 13
ENDMDL
