MODEL 1
REMARK VINA RESULT: -8.172611999      0.000      0.000
REMARK  4 active torsions:
REMARK  status: ('A' for Active; 'I' for Inactive)
REMARK    1  A    between atoms: C2_2  and  S1_3 
REMARK    2  A    between atoms: S1_3  and  C3_4 
REMARK    3  A    between atoms: C3_4  and  C4_5 
REMARK    4  A    between atoms: C12_14  and  C13_15 
ROOT
HETATM    1  C4  UNL     1       2.354  -1.335  -1.293  1.00  0.00     0.051 C 
HETATM    2  C5  UNL     1       3.672  -0.658  -1.075  1.00  0.00     0.013 C 
HETATM    3  C6  UNL     1       4.867  -1.384  -1.592  1.00  0.00     0.032 C 
HETATM    4  C7  UNL     1       4.613  -2.200  -2.810  1.00  0.00     0.120 C 
HETATM    5  C8  UNL     1       5.731  -3.237  -2.962  1.00  0.00     0.039 C 
HETATM    6  O1  UNL     1       3.419  -2.837  -2.867  1.00  0.00    -0.355 OA
HETATM    7  C9  UNL     1       2.588  -2.741  -1.764  1.00  0.00     0.141 C 
HETATM    8  C10 UNL     1       3.217  -3.472  -0.592  1.00  0.00     0.063 C 
HETATM    9  C11 UNL     1       2.356  -4.615  -0.075  1.00  0.00     0.025 C 
HETATM   10  C12 UNL     1       2.292  -5.586  -1.284  1.00  0.00     0.134 C 
HETATM   11  C20 UNL     1       1.373  -4.868  -2.200  1.00  0.00     0.230 C 
HETATM   12  O6  UNL     1       0.652  -5.491  -2.997  1.00  0.00    -0.273 OA
HETATM   13  N3  UNL     1       1.362  -3.431  -2.115  1.00  0.00    -0.328 N 
ATOM     14  H3  UNL     1       0.506  -2.908  -2.299  1.00  0.00     0.165 HD
ENDROOT
BRANCH  10  15
HETATM   15  C13 UNL     1       1.760  -6.900  -0.825  1.00  0.00     0.100 C 
HETATM   16  N1  UNL     1       0.791  -6.981   0.016  1.00  0.00    -0.280 N 
HETATM   17  S2  UNL     1       0.090  -8.412   0.621  1.00  0.00     0.258 S 
ATOM     18  H1  UNL     1       0.404  -6.101   0.355  1.00  0.00     0.178 HD
HETATM   19  O2  UNL     1      -1.419  -8.264   0.547  1.00  0.00    -0.203 OA
HETATM   20  O3  UNL     1       0.494  -8.662   2.045  1.00  0.00    -0.203 OA
HETATM   21  C14 UNL     1       0.623  -9.752  -0.425  1.00  0.00     0.160 C 
HETATM   22  C15 UNL     1       0.771 -10.980   0.442  1.00  0.00     0.076 C 
HETATM   23  C18 UNL     1      -0.438  -9.942  -1.484  1.00  0.00     0.076 C 
HETATM   24  N2  UNL     1       1.904  -9.437  -1.002  1.00  0.00    -0.332 N 
HETATM   25  C16 UNL     1       0.667 -12.262  -0.332  1.00  0.00     0.171 C 
HETATM   26  O4  UNL     1      -0.333 -12.266  -1.278  1.00  0.00    -0.391 OA
HETATM   27  C17 UNL     1      -0.139 -11.252  -2.210  1.00  0.00     0.171 C 
HETATM   28  C19 UNL     1       2.336  -8.122  -1.350  1.00  0.00     0.267 C 
ATOM     29  H2  UNL     1       2.548 -10.209  -1.175  1.00  0.00     0.164 HD
HETATM   30  O5  UNL     1       3.303  -8.063  -2.186  1.00  0.00    -0.266 OA
ENDBRANCH  10  15
BRANCH   1  31
HETATM   31  C3  UNL     1       1.392  -0.524  -2.079  1.00  0.00     0.083 C 
BRANCH  31  32
HETATM   32  S1  UNL     1       2.110   0.744  -3.113  1.00  0.00    -0.169 SA
BRANCH  32  33
HETATM   33  C2  UNL     1       2.355   0.110  -4.784  1.00  0.00     0.069 C 
HETATM   34  C1  UNL     1       3.807   0.181  -5.209  1.00  0.00     0.016 C 
ENDBRANCH  32  33
ENDBRANCH  31  32
ENDBRANCH   1  31
TORSDOF 4
ENDMDL
MODEL 2
REMARK VINA RESULT: -8.161423437      2.210      3.555
REMARK  4 active torsions:
REMARK  status: ('A' for Active; 'I' for Inactive)
REMARK    1  A    between atoms: C2_2  and  S1_3 
REMARK    2  A    between atoms: S1_3  and  C3_4 
REMARK    3  A    between atoms: C3_4  and  C4_5 
REMARK    4  A    between atoms: C12_14  and  C13_15 
ROOT
HETATM    1  C4  UNL     1       4.682  -2.171  -3.043  1.00  0.00     0.051 C 
HETATM    2  C5  UNL     1       4.365  -0.969  -3.878  1.00  0.00     0.013 C 
HETATM    3  C6  UNL     1       3.062  -0.305  -3.591  1.00  0.00     0.032 C 
HETATM    4  C7  UNL     1       2.626  -0.392  -2.171  1.00  0.00     0.120 C 
HETATM    5  C8  UNL     1       1.120  -0.118  -2.090  1.00  0.00     0.039 C 
HETATM    6  O1  UNL     1       2.890  -1.556  -1.532  1.00  0.00    -0.355 OA
HETATM    7  C9  UNL     1       3.460  -2.579  -2.273  1.00  0.00     0.141 C 
HETATM    8  C10 UNL     1       2.463  -3.069  -3.306  1.00  0.00     0.063 C 
HETATM    9  C11 UNL     1       2.109  -4.540  -3.138  1.00  0.00     0.025 C 
HETATM   10  C12 UNL     1       1.432  -4.584  -1.742  1.00  0.00     0.134 C 
HETATM   11  C20 UNL     1       2.596  -4.418  -0.838  1.00  0.00     0.230 C 
HETATM   12  O6  UNL     1       2.593  -4.913   0.302  1.00  0.00    -0.273 OA
HETATM   13  N3  UNL     1       3.712  -3.664  -1.344  1.00  0.00    -0.328 N 
ATOM     14  H3  UNL     1       4.664  -3.890  -1.056  1.00  0.00     0.165 HD
ENDROOT
BRANCH  10  15
HETATM   15  C13 UNL     1       0.740  -5.893  -1.578  1.00  0.00     0.100 C 
HETATM   16  N1  UNL     1       1.255  -6.849  -0.890  1.00  0.00    -0.280 N 
HETATM   17  S2  UNL     1       0.574  -8.388  -0.624  1.00  0.00     0.258 S 
ATOM     18  H1  UNL     1       2.162  -6.668  -0.460  1.00  0.00     0.178 HD
HETATM   19  O2  UNL     1       0.697  -8.708   0.855  1.00  0.00    -0.203 OA
HETATM   20  O3  UNL     1       1.279  -9.447  -1.420  1.00  0.00    -0.203 OA
HETATM   21  C14 UNL     1      -1.145  -8.299  -1.086  1.00  0.00     0.160 C 
HETATM   22  C15 UNL     1      -1.535  -9.641  -1.660  1.00  0.00     0.076 C 
HETATM   23  C18 UNL     1      -1.929  -7.979   0.166  1.00  0.00     0.076 C 
HETATM   24  N2  UNL     1      -1.323  -7.293  -2.100  1.00  0.00    -0.332 N 
HETATM   25  C16 UNL     1      -3.010  -9.908  -1.578  1.00  0.00     0.171 C 
HETATM   26  O4  UNL     1      -3.582  -9.536  -0.382  1.00  0.00    -0.391 OA
HETATM   27  C17 UNL     1      -3.409  -8.175  -0.152  1.00  0.00     0.171 C 
HETATM   28  C19 UNL     1      -0.555  -6.094  -2.196  1.00  0.00     0.267 C 
ATOM     29  H2  UNL     1      -2.051  -7.448  -2.798  1.00  0.00     0.164 HD
HETATM   30  O5  UNL     1      -1.083  -5.156  -2.888  1.00  0.00    -0.266 OA
ENDBRANCH  10  15
BRANCH   1  31
HETATM   31  C3  UNL     1       5.941  -2.041  -2.268  1.00  0.00     0.083 C 
BRANCH  31  32
HETATM   32  S1  UNL     1       7.056  -0.756  -2.812  1.00  0.00    -0.169 SA
BRANCH  32  33
HETATM   33  C2  UNL     1       6.973   0.650  -1.684  1.00  0.00     0.069 C 
HETATM   34  C1  UNL     1       5.900   0.469  -0.632  1.00  0.00     0.016 C 
ENDBRANCH  32  33
ENDBRANCH  31  32
ENDBRANCH   1  31
TORSDOF 4
ENDMDL
MODEL 3
REMARK VINA RESULT: -8.128123709      1.800      2.219
REMARK  4 active torsions:
REMARK  status: ('A' for Active; 'I' for Inactive)
REMARK    1  A    between atoms: C2_2  and  S1_3 
REMARK    2  A    between atoms: S1_3  and  C3_4 
REMARK    3  A    between atoms: C3_4  and  C4_5 
REMARK    4  A    between atoms: C12_14  and  C13_15 
ROOT
HETATM    1  C4  UNL     1       2.528  -0.608  -2.390  1.00  0.00     0.051 C 
HETATM    2  C5  UNL     1       3.603   0.349  -1.978  1.00  0.00     0.013 C 
HETATM    3  C6  UNL     1       4.986  -0.206  -1.941  1.00  0.00     0.032 C 
HETATM    4  C7  UNL     1       5.249  -1.273  -2.944  1.00  0.00     0.120 C 
HETATM    5  C8  UNL     1       6.483  -2.073  -2.515  1.00  0.00     0.039 C 
HETATM    6  O1  UNL     1       4.233  -2.136  -3.182  1.00  0.00    -0.355 OA
HETATM    7  C9  UNL     1       3.085  -2.002  -2.418  1.00  0.00     0.141 C 
HETATM    8  C10 UNL     1       3.394  -2.354  -0.975  1.00  0.00     0.063 C 
HETATM    9  C11 UNL     1       2.572  -3.527  -0.461  1.00  0.00     0.025 C 
HETATM   10  C12 UNL     1       3.031  -4.703  -1.364  1.00  0.00     0.134 C 
HETATM   11  C20 UNL     1       2.369  -4.373  -2.649  1.00  0.00     0.230 C 
HETATM   12  O6  UNL     1       2.033  -5.268  -3.442  1.00  0.00    -0.273 OA
HETATM   13  N3  UNL     1       2.141  -2.979  -2.924  1.00  0.00    -0.328 N 
ATOM     14  H3  UNL     1       1.328  -2.683  -3.466  1.00  0.00     0.165 HD
ENDROOT
BRANCH  10  15
HETATM   15  C13 UNL     1       2.558  -5.985  -0.770  1.00  0.00     0.100 C 
HETATM   16  N1  UNL     1       1.331  -6.358  -0.853  1.00  0.00    -0.280 N 
HETATM   17  S2  UNL     1       0.661  -7.792  -0.222  1.00  0.00     0.258 S 
ATOM     18  H1  UNL     1       0.694  -5.732  -1.347  1.00  0.00     0.178 HD
HETATM   19  O2  UNL     1      -0.206  -8.420  -1.298  1.00  0.00    -0.203 OA
HETATM   20  O3  UNL     1      -0.179  -7.518   0.992  1.00  0.00    -0.203 OA
HETATM   21  C14 UNL     1       2.012  -8.879   0.184  1.00  0.00     0.160 C 
HETATM   22  C15 UNL     1       1.611  -9.673   1.405  1.00  0.00     0.076 C 
HETATM   23  C18 UNL     1       2.241  -9.774  -1.012  1.00  0.00     0.076 C 
HETATM   24  N2  UNL     1       3.182  -8.103   0.501  1.00  0.00    -0.332 N 
HETATM   25  C16 UNL     1       2.359 -10.969   1.536  1.00  0.00     0.171 C 
HETATM   26  O4  UNL     1       2.506 -11.653   0.350  1.00  0.00    -0.391 OA
HETATM   27  C17 UNL     1       3.195 -10.886  -0.583  1.00  0.00     0.171 C 
HETATM   28  C19 UNL     1       3.507  -6.847  -0.092  1.00  0.00     0.267 C 
ATOM     29  H2  UNL     1       3.824  -8.478   1.200  1.00  0.00     0.164 HD
HETATM   30  O5  UNL     1       4.733  -6.493   0.004  1.00  0.00    -0.266 OA
ENDBRANCH  10  15
BRANCH   1  31
HETATM   31  C3  UNL     1       1.771  -0.172  -3.590  1.00  0.00     0.083 C 
BRANCH  31  32
HETATM   32  S1  UNL     1       0.583   1.135  -3.324  1.00  0.00    -0.169 SA
BRANCH  32  33
HETATM   33  C2  UNL     1       0.021   1.118  -1.610  1.00  0.00     0.069 C 
HETATM   34  C1  UNL     1       0.837   2.048  -0.737  1.00  0.00     0.016 C 
ENDBRANCH  32  33
ENDBRANCH  31  32
ENDBRANCH   1  31
TORSDOF 4
ENDMDL
MODEL 4
REMARK VINA RESULT: -7.973124488      2.143      3.667
REMARK  4 active torsions:
REMARK  status: ('A' for Active; 'I' for Inactive)
REMARK    1  A    between atoms: C2_2  and  S1_3 
REMARK    2  A    between atoms: S1_3  and  C3_4 
REMARK    3  A    between atoms: C3_4  and  C4_5 
REMARK    4  A    between atoms: C12_14  and  C13_15 
ROOT
HETATM    1  C4  UNL     1       4.589  -1.769  -3.056  1.00  0.00     0.051 C 
HETATM    2  C5  UNL     1       4.197  -0.648  -3.969  1.00  0.00     0.013 C 
HETATM    3  C6  UNL     1       2.825  -0.101  -3.772  1.00  0.00     0.032 C 
HETATM    4  C7  UNL     1       2.334  -0.157  -2.368  1.00  0.00     0.120 C 
HETATM    5  C8  UNL     1       0.808  -0.028  -2.364  1.00  0.00     0.039 C 
HETATM    6  O1  UNL     1       2.679  -1.256  -1.656  1.00  0.00    -0.355 OA
HETATM    7  C9  UNL     1       3.377  -2.255  -2.316  1.00  0.00     0.141 C 
HETATM    8  C10 UNL     1       2.480  -2.892  -3.361  1.00  0.00     0.063 C 
HETATM    9  C11 UNL     1       2.260  -4.380  -3.127  1.00  0.00     0.025 C 
HETATM   10  C12 UNL     1       1.527  -4.419  -1.760  1.00  0.00     0.134 C 
HETATM   11  C20 UNL     1       2.627  -4.094  -0.819  1.00  0.00     0.230 C 
HETATM   12  O6  UNL     1       2.619  -4.529   0.345  1.00  0.00    -0.273 OA
HETATM   13  N3  UNL     1       3.688  -3.262  -1.320  1.00  0.00    -0.328 N 
ATOM     14  H3  UNL     1       4.643  -3.379  -0.981  1.00  0.00     0.165 HD
ENDROOT
BRANCH  10  15
HETATM   15  C13 UNL     1       0.956  -5.779  -1.552  1.00  0.00     0.100 C 
HETATM   16  N1  UNL     1       1.595  -6.690  -0.909  1.00  0.00    -0.280 N 
HETATM   17  S2  UNL     1       1.061  -8.279  -0.602  1.00  0.00     0.258 S 
ATOM     18  H1  UNL     1       2.513  -6.437  -0.546  1.00  0.00     0.178 HD
HETATM   19  O2  UNL     1       1.317  -8.587   0.862  1.00  0.00    -0.203 OA
HETATM   20  O3  UNL     1       1.789  -9.278  -1.453  1.00  0.00    -0.203 OA
HETATM   21  C14 UNL     1      -0.689  -8.329  -0.938  1.00  0.00     0.160 C 
HETATM   22  C15 UNL     1      -1.011  -9.698  -1.489  1.00  0.00     0.076 C 
HETATM   23  C18 UNL     1      -1.402  -8.072   0.369  1.00  0.00     0.076 C 
HETATM   24  N2  UNL     1      -1.021  -7.341  -1.930  1.00  0.00    -0.332 N 
HETATM   25  C16 UNL     1      -2.450 -10.083  -1.301  1.00  0.00     0.171 C 
HETATM   26  O4  UNL     1      -2.961  -9.757  -0.065  1.00  0.00    -0.391 OA
HETATM   27  C17 UNL     1      -2.882  -8.387   0.159  1.00  0.00     0.171 C 
HETATM   28  C19 UNL     1      -0.360  -6.084  -2.076  1.00  0.00     0.267 C 
ATOM     29  H2  UNL     1      -1.782  -7.554  -2.575  1.00  0.00     0.164 HD
HETATM   30  O5  UNL     1      -1.011  -5.192  -2.723  1.00  0.00    -0.266 OA
ENDBRANCH  10  15
BRANCH   1  31
HETATM   31  C3  UNL     1       5.793  -1.478  -2.239  1.00  0.00     0.083 C 
BRANCH  31  32
HETATM   32  S1  UNL     1       7.349  -2.012  -2.936  1.00  0.00    -0.169 SA
BRANCH  32  33
HETATM   33  C2  UNL     1       7.668  -3.730  -2.490  1.00  0.00     0.069 C 
HETATM   34  C1  UNL     1       6.681  -4.677  -3.141  1.00  0.00     0.016 C 
ENDBRANCH  32  33
ENDBRANCH  31  32
ENDBRANCH   1  31
TORSDOF 4
ENDMDL
MODEL 5
REMARK VINA RESULT: -7.797670322      2.345      8.418
REMARK  4 active torsions:
REMARK  status: ('A' for Active; 'I' for Inactive)
REMARK    1  A    between atoms: C2_2  and  S1_3 
REMARK    2  A    between atoms: S1_3  and  C3_4 
REMARK    3  A    between atoms: C3_4  and  C4_5 
REMARK    4  A    between atoms: C12_14  and  C13_15 
ROOT
HETATM    1  C4  UNL     1       0.473  -8.538  -0.652  1.00  0.00     0.051 C 
HETATM    2  C5  UNL     1       0.909  -9.875  -1.165  1.00  0.00     0.013 C 
HETATM    3  C6  UNL     1       2.377 -10.128  -1.149  1.00  0.00     0.032 C 
HETATM    4  C7  UNL     1       3.107  -9.454  -0.042  1.00  0.00     0.120 C 
HETATM    5  C8  UNL     1       4.598  -9.386  -0.389  1.00  0.00     0.039 C 
HETATM    6  O1  UNL     1       2.681  -8.211   0.288  1.00  0.00    -0.355 OA
HETATM    7  C9  UNL     1       1.673  -7.654  -0.481  1.00  0.00     0.141 C 
HETATM    8  C10 UNL     1       2.195  -7.388  -1.881  1.00  0.00     0.063 C 
HETATM    9  C11 UNL     1       2.135  -5.917  -2.267  1.00  0.00     0.025 C 
HETATM   10  C12 UNL     1       3.094  -5.244  -1.249  1.00  0.00     0.134 C 
HETATM   11  C20 UNL     1       2.291  -5.292  -0.003  1.00  0.00     0.230 C 
HETATM   12  O6  UNL     1       2.432  -4.429   0.880  1.00  0.00    -0.273 OA
HETATM   13  N3  UNL     1       1.354  -6.376   0.127  1.00  0.00    -0.328 N 
ATOM     14  H3  UNL     1       0.480  -6.249   0.637  1.00  0.00     0.165 HD
ENDROOT
BRANCH  10  15
HETATM   15  C13 UNL     1       3.392  -3.857  -1.705  1.00  0.00     0.100 C 
HETATM   16  N1  UNL     1       2.490  -2.942  -1.722  1.00  0.00    -0.280 N 
HETATM   17  S2  UNL     1       2.695  -1.324  -2.217  1.00  0.00     0.258 S 
ATOM     18  H1  UNL     1       1.558  -3.210  -1.408  1.00  0.00     0.178 HD
HETATM   19  O2  UNL     1       2.047  -0.428  -1.178  1.00  0.00    -0.203 OA
HETATM   20  O3  UNL     1       2.058  -1.073  -3.553  1.00  0.00    -0.203 OA
HETATM   21  C14 UNL     1       4.447  -1.006  -2.290  1.00  0.00     0.160 C 
HETATM   22  C15 UNL     1       4.690  -0.037  -3.423  1.00  0.00     0.076 C 
HETATM   23  C18 UNL     1       4.850  -0.418  -0.958  1.00  0.00     0.076 C 
HETATM   24  N2  UNL     1       5.152  -2.229  -2.568  1.00  0.00    -0.332 N 
HETATM   25  C16 UNL     1       5.968   0.736  -3.270  1.00  0.00     0.171 C 
HETATM   26  O4  UNL     1       6.204   1.182  -1.989  1.00  0.00    -0.391 OA
HETATM   27  C17 UNL     1       6.274   0.116  -1.098  1.00  0.00     0.171 C 
HETATM   28  C19 UNL     1       4.737  -3.522  -2.127  1.00  0.00     0.267 C 
ATOM     29  H2  UNL     1       6.008  -2.169  -3.120  1.00  0.00     0.164 HD
HETATM   30  O5  UNL     1       5.649  -4.420  -2.120  1.00  0.00    -0.266 OA
ENDBRANCH  10  15
BRANCH   1  31
HETATM   31  C3  UNL     1      -0.461  -8.617   0.499  1.00  0.00     0.083 C 
BRANCH  31  32
HETATM   32  S1  UNL     1      -2.163  -8.203   0.146  1.00  0.00    -0.169 SA
BRANCH  32  33
HETATM   33  C2  UNL     1      -2.439  -8.197  -1.637  1.00  0.00     0.069 C 
HETATM   34  C1  UNL     1      -2.427  -6.795  -2.208  1.00  0.00     0.016 C 
ENDBRANCH  32  33
ENDBRANCH  31  32
ENDBRANCH   1  31
TORSDOF 4
ENDMDL
