MODEL 1
REMARK VINA RESULT: -9.176711818      0.000      0.000
REMARK  9 active torsions:
REMARK  status: ('A' for Active; 'I' for Inactive)
REMARK    1  A    between atoms: O1_2  and  C2_3 
REMARK    2  A    between atoms: C8_9  and  O2_10 
REMARK    3  A    between atoms: O2_10  and  C9_11 
REMARK    4  A    between atoms: C9_11  and  C10_12 
REMARK    5  A    between atoms: C10_12  and  O3_13 
REMARK    6  A    between atoms: C10_12  and  C11_15 
REMARK    7  A    between atoms: C14_18  and  O4_19 
REMARK    8  A    between atoms: C16_22  and  C17_23 
REMARK    9  A    between atoms: C17_23  and  O5_24 
ROOT
HETATM    1  O2  UNL     1      -1.482   3.601   7.841  1.00  0.00    -0.346 OA
ENDROOT
BRANCH   1   2
HETATM    2  C8  UNL     1      -1.912   3.020   8.986  1.00  0.00     0.103 A 
HETATM    3  C7  UNL     1      -2.850   3.645   9.777  1.00  0.00     0.014 A 
HETATM    4  C6  UNL     1      -3.428   4.844   9.437  1.00  0.00     0.016 A 
HETATM    5  C21 UNL     1      -3.273   3.032  10.965  1.00  0.00     0.034 A 
HETATM    6  C5  UNL     1      -4.389   5.447  10.213  1.00  0.00     0.010 A 
HETATM    7  C3  UNL     1      -4.820   4.868  11.383  1.00  0.00    -0.028 A 
HETATM    8  C2  UNL     1      -4.232   3.649  11.731  1.00  0.00     0.087 A 
HETATM    9  C4  UNL     1      -5.851   5.474  12.248  1.00  0.00     0.051 C 
HETATM   10  C20 UNL     1      -2.735   1.808  11.298  1.00  0.00     0.071 A 
HETATM   11  C19 UNL     1      -1.797   1.212  10.476  1.00  0.00     0.081 A 
HETATM   12 CL3  UNL     1      -3.253   0.951  12.714  1.00  0.00    -0.081 Cl
HETATM   13  C18 UNL     1      -1.354   1.776   9.310  1.00  0.00     0.091 A 
HETATM   14 CL2  UNL     1      -1.101  -0.362  10.899  1.00  0.00    -0.081 Cl
HETATM   15 CL1  UNL     1      -0.164   0.991   8.296  1.00  0.00    -0.079 Cl
BRANCH   8  16
HETATM   16  O1  UNL     1      -4.687   3.085  12.932  1.00  0.00    -0.354 OA
HETATM   17  C1  UNL     1      -4.032   3.647  14.096  1.00  0.00     0.210 C 
ENDBRANCH   8  16
ENDBRANCH   1   2
BRANCH   1  18
HETATM   18  C9  UNL     1      -0.442   4.428   7.533  1.00  0.00     0.210 C 
BRANCH  18  19
HETATM   19  C10 UNL     1      -0.391   5.809   8.058  1.00  0.00     0.176 C 
BRANCH  19  20
HETATM   20  O3  UNL     1       0.692   5.994   8.916  1.00  0.00    -0.390 OA
ATOM     21  H3  UNL     1       0.894   6.915   9.033  1.00  0.00     0.210 HD
ENDBRANCH  19  20
BRANCH  19  22
HETATM   22  C11 UNL     1      -0.200   6.832   6.932  1.00  0.00     0.088 C 
HETATM   23  C12 UNL     1       0.970   7.733   7.294  1.00  0.00     0.049 C 
HETATM   24  C13 UNL     1       0.199   6.057   5.709  1.00  0.00     0.072 C 
HETATM   25  C14 UNL     1      -0.079   6.927   4.503  1.00  0.00     0.123 C 
HETATM   26  C15 UNL     1      -1.588   7.103   4.444  1.00  0.00     0.066 C 
HETATM   27  C16 UNL     1      -2.181   7.307   5.810  1.00  0.00     0.148 C 
HETATM   28  O6  UNL     1      -1.294   7.621   6.784  1.00  0.00    -0.370 OA
BRANCH  25  29
HETATM   29  O4  UNL     1       0.340   6.303   3.345  1.00  0.00    -0.395 OA
ATOM     30  H4  UNL     1       0.080   6.805   2.581  1.00  0.00     0.210 HD
ENDBRANCH  25  29
BRANCH  27  31
HETATM   31  C17 UNL     1      -3.128   8.514   5.688  1.00  0.00     0.196 C 
BRANCH  31  32
HETATM   32  O5  UNL     1      -4.015   8.572   6.733  1.00  0.00    -0.398 OA
ATOM     33  H5  UNL     1      -4.044   9.437   7.123  1.00  0.00     0.209 HD
ENDBRANCH  31  32
ENDBRANCH  27  31
ENDBRANCH  19  22
ENDBRANCH  18  19
ENDBRANCH   1  18
TORSDOF 9
ENDMDL
MODEL 2
REMARK VINA RESULT: -9.039714347      1.105      1.730
REMARK  9 active torsions:
REMARK  status: ('A' for Active; 'I' for Inactive)
REMARK    1  A    between atoms: O1_2  and  C2_3 
REMARK    2  A    between atoms: C8_9  and  O2_10 
REMARK    3  A    between atoms: O2_10  and  C9_11 
REMARK    4  A    between atoms: C9_11  and  C10_12 
REMARK    5  A    between atoms: C10_12  and  O3_13 
REMARK    6  A    between atoms: C10_12  and  C11_15 
REMARK    7  A    between atoms: C14_18  and  O4_19 
REMARK    8  A    between atoms: C16_22  and  C17_23 
REMARK    9  A    between atoms: C17_23  and  O5_24 
ROOT
HETATM    1  O2  UNL     1      -1.538   3.191   7.944  1.00  0.00    -0.346 OA
ENDROOT
BRANCH   1   2
HETATM    2  C8  UNL     1      -1.908   2.670   9.138  1.00  0.00     0.103 A 
HETATM    3  C7  UNL     1      -2.825   3.322   9.931  1.00  0.00     0.014 A 
HETATM    4  C6  UNL     1      -3.442   4.488   9.547  1.00  0.00     0.016 A 
HETATM    5  C21 UNL     1      -3.185   2.772  11.169  1.00  0.00     0.034 A 
HETATM    6  C5  UNL     1      -4.383   5.116  10.328  1.00  0.00     0.010 A 
HETATM    7  C3  UNL     1      -4.752   4.599  11.546  1.00  0.00    -0.028 A 
HETATM    8  C2  UNL     1      -4.125   3.414  11.938  1.00  0.00     0.087 A 
HETATM    9  C4  UNL     1      -5.760   5.234  12.418  1.00  0.00     0.051 C 
HETATM   10  C20 UNL     1      -2.608   1.579  11.548  1.00  0.00     0.071 A 
HETATM   11  C19 UNL     1      -1.692   0.954  10.723  1.00  0.00     0.081 A 
HETATM   12 CL3  UNL     1      -3.047   0.797  13.032  1.00  0.00    -0.081 Cl
HETATM   13  C18 UNL     1      -1.309   1.458   9.509  1.00  0.00     0.091 A 
HETATM   14 CL2  UNL     1      -0.945  -0.578  11.206  1.00  0.00    -0.081 Cl
HETATM   15 CL1  UNL     1      -0.146   0.638   8.491  1.00  0.00    -0.079 Cl
BRANCH   8  16
HETATM   16  O1  UNL     1      -4.517   2.912  13.188  1.00  0.00    -0.354 OA
HETATM   17  C1  UNL     1      -3.787   3.514  14.286  1.00  0.00     0.210 C 
ENDBRANCH   8  16
ENDBRANCH   1   2
BRANCH   1  18
HETATM   18  C9  UNL     1      -0.464   3.920   7.521  1.00  0.00     0.210 C 
BRANCH  18  19
HETATM   19  C10 UNL     1       0.066   5.032   8.339  1.00  0.00     0.176 C 
BRANCH  19  20
HETATM   20  O3  UNL     1       1.456   5.102   8.272  1.00  0.00    -0.390 OA
ATOM     21  H3  UNL     1       1.851   5.051   9.134  1.00  0.00     0.210 HD
ENDBRANCH  19  20
BRANCH  19  22
HETATM   22  C11 UNL     1      -0.438   6.389   7.835  1.00  0.00     0.088 C 
HETATM   23  C12 UNL     1      -1.301   7.014   8.921  1.00  0.00     0.049 C 
HETATM   24  C13 UNL     1       0.772   7.264   7.672  1.00  0.00     0.072 C 
HETATM   25  C14 UNL     1       0.397   8.397   6.742  1.00  0.00     0.123 C 
HETATM   26  C15 UNL     1       0.121   7.762   5.387  1.00  0.00     0.066 C 
HETATM   27  C16 UNL     1      -0.633   6.468   5.520  1.00  0.00     0.148 C 
HETATM   28  O6  UNL     1      -1.209   6.256   6.726  1.00  0.00    -0.370 OA
BRANCH  25  29
HETATM   29  O4  UNL     1       1.445   9.286   6.609  1.00  0.00    -0.395 OA
ATOM     30  H4  UNL     1       1.159  10.076   6.165  1.00  0.00     0.210 HD
ENDBRANCH  25  29
BRANCH  27  31
HETATM   31  C17 UNL     1      -1.785   6.541   4.502  1.00  0.00     0.196 C 
BRANCH  31  32
HETATM   32  O5  UNL     1      -1.384   6.145   3.251  1.00  0.00    -0.398 OA
ATOM     33  H5  UNL     1      -0.752   5.438   3.291  1.00  0.00     0.209 HD
ENDBRANCH  31  32
ENDBRANCH  27  31
ENDBRANCH  19  22
ENDBRANCH  18  19
ENDBRANCH   1  18
TORSDOF 9
ENDMDL
MODEL 3
REMARK VINA RESULT: -8.993035792      1.286      2.215
REMARK  9 active torsions:
REMARK  status: ('A' for Active; 'I' for Inactive)
REMARK    1  A    between atoms: O1_2  and  C2_3 
REMARK    2  A    between atoms: C8_9  and  O2_10 
REMARK    3  A    between atoms: O2_10  and  C9_11 
REMARK    4  A    between atoms: C9_11  and  C10_12 
REMARK    5  A    between atoms: C10_12  and  O3_13 
REMARK    6  A    between atoms: C10_12  and  C11_15 
REMARK    7  A    between atoms: C14_18  and  O4_19 
REMARK    8  A    between atoms: C16_22  and  C17_23 
REMARK    9  A    between atoms: C17_23  and  O5_24 
ROOT
HETATM    1  O2  UNL     1      -1.475   3.224   7.903  1.00  0.00    -0.346 OA
ENDROOT
BRANCH   1   2
HETATM    2  C8  UNL     1      -1.878   2.704   9.087  1.00  0.00     0.103 A 
HETATM    3  C7  UNL     1      -2.799   3.370   9.865  1.00  0.00     0.014 A 
HETATM    4  C6  UNL     1      -3.387   4.548   9.474  1.00  0.00     0.016 A 
HETATM    5  C21 UNL     1      -3.194   2.821  11.093  1.00  0.00     0.034 A 
HETATM    6  C5  UNL     1      -4.332   5.190  10.238  1.00  0.00     0.010 A 
HETATM    7  C3  UNL     1      -4.735   4.675  11.447  1.00  0.00    -0.028 A 
HETATM    8  C2  UNL     1      -4.136   3.477  11.847  1.00  0.00     0.087 A 
HETATM    9  C4  UNL     1      -5.747   5.325  12.302  1.00  0.00     0.051 C 
HETATM   10  C20 UNL     1      -2.645   1.617  11.478  1.00  0.00     0.071 A 
HETATM   11  C19 UNL     1      -1.725   0.979  10.668  1.00  0.00     0.081 A 
HETATM   12 CL3  UNL     1      -3.128   0.836  12.950  1.00  0.00    -0.081 Cl
HETATM   13  C18 UNL     1      -1.309   1.480   9.464  1.00  0.00     0.091 A 
HETATM   14 CL2  UNL     1      -1.016  -0.569  11.159  1.00  0.00    -0.081 Cl
HETATM   15 CL1  UNL     1      -0.141   0.643   8.466  1.00  0.00    -0.079 Cl
BRANCH   8  16
HETATM   16  O1  UNL     1      -4.562   2.978  13.086  1.00  0.00    -0.354 OA
HETATM   17  C1  UNL     1      -3.863   3.582  14.202  1.00  0.00     0.210 C 
ENDBRANCH   8  16
ENDBRANCH   1   2
BRANCH   1  18
HETATM   18  C9  UNL     1      -0.410   3.984   7.516  1.00  0.00     0.210 C 
BRANCH  18  19
HETATM   19  C10 UNL     1      -0.223   5.351   8.047  1.00  0.00     0.176 C 
BRANCH  19  20
HETATM   20  O3  UNL     1       1.087   5.564   8.470  1.00  0.00    -0.390 OA
ATOM     21  H3  UNL     1       1.449   4.794   8.892  1.00  0.00     0.210 HD
ENDBRANCH  19  20
BRANCH  19  22
HETATM   22  C11 UNL     1      -0.484   6.412   6.971  1.00  0.00     0.088 C 
HETATM   23  C12 UNL     1      -1.983   6.494   6.731  1.00  0.00     0.049 C 
HETATM   24  C13 UNL     1      -0.055   7.729   7.552  1.00  0.00     0.072 C 
HETATM   25  C14 UNL     1       0.167   8.687   6.403  1.00  0.00     0.123 C 
HETATM   26  C15 UNL     1       1.350   8.142   5.617  1.00  0.00     0.066 C 
HETATM   27  C16 UNL     1       1.296   6.644   5.495  1.00  0.00     0.148 C 
HETATM   28  O6  UNL     1       0.102   6.082   5.792  1.00  0.00    -0.370 OA
BRANCH  25  29
HETATM   29  O4  UNL     1       0.490   9.945   6.872  1.00  0.00    -0.395 OA
ATOM     30  H4  UNL     1      -0.064  10.180   7.608  1.00  0.00     0.210 HD
ENDBRANCH  25  29
BRANCH  27  31
HETATM   31  C17 UNL     1       1.560   6.329   4.011  1.00  0.00     0.196 C 
BRANCH  31  32
HETATM   32  O5  UNL     1       0.395   6.276   3.288  1.00  0.00    -0.398 OA
ATOM     33  H5  UNL     1       0.170   7.123   2.921  1.00  0.00     0.209 HD
ENDBRANCH  31  32
ENDBRANCH  27  31
ENDBRANCH  19  22
ENDBRANCH  18  19
ENDBRANCH   1  18
TORSDOF 9
ENDMDL
MODEL 4
REMARK VINA RESULT: -8.915534678      2.226      4.054
REMARK  9 active torsions:
REMARK  status: ('A' for Active; 'I' for Inactive)
REMARK    1  A    between atoms: O1_2  and  C2_3 
REMARK    2  A    between atoms: C8_9  and  O2_10 
REMARK    3  A    between atoms: O2_10  and  C9_11 
REMARK    4  A    between atoms: C9_11  and  C10_12 
REMARK    5  A    between atoms: C10_12  and  O3_13 
REMARK    6  A    between atoms: C10_12  and  C11_15 
REMARK    7  A    between atoms: C14_18  and  O4_19 
REMARK    8  A    between atoms: C16_22  and  C17_23 
REMARK    9  A    between atoms: C17_23  and  O5_24 
ROOT
HETATM    1  O2  UNL     1      -3.723   5.764   8.511  1.00  0.00    -0.346 OA
ENDROOT
BRANCH   1   2
HETATM    2  C8  UNL     1      -3.613   4.796   9.451  1.00  0.00     0.103 A 
HETATM    3  C7  UNL     1      -2.729   3.753   9.280  1.00  0.00     0.014 A 
HETATM    4  C6  UNL     1      -1.891   3.661   8.195  1.00  0.00     0.016 A 
HETATM    5  C21 UNL     1      -2.639   2.754  10.259  1.00  0.00     0.034 A 
HETATM    6  C5  UNL     1      -0.986   2.637   8.047  1.00  0.00     0.010 A 
HETATM    7  C3  UNL     1      -0.879   1.644   8.991  1.00  0.00    -0.028 A 
HETATM    8  C2  UNL     1      -1.732   1.736  10.094  1.00  0.00     0.087 A 
HETATM    9  C4  UNL     1       0.078   0.526   8.878  1.00  0.00     0.051 C 
HETATM   10  C20 UNL     1      -3.441   2.856  11.375  1.00  0.00     0.071 A 
HETATM   11  C19 UNL     1      -4.315   3.919  11.511  1.00  0.00     0.081 A 
HETATM   12 CL3  UNL     1      -3.345   1.700  12.664  1.00  0.00    -0.081 Cl
HETATM   13  C18 UNL     1      -4.437   4.914  10.578  1.00  0.00     0.091 A 
HETATM   14 CL2  UNL     1      -5.350   4.056  12.942  1.00  0.00    -0.081 Cl
HETATM   15 CL1  UNL     1      -5.556   6.244  10.785  1.00  0.00    -0.079 Cl
BRANCH   8  16
HETATM   16  O1  UNL     1      -1.604   0.706  11.038  1.00  0.00    -0.354 OA
HETATM   17  C1  UNL     1      -2.215  -0.533  10.600  1.00  0.00     0.210 C 
ENDBRANCH   8  16
ENDBRANCH   1   2
BRANCH   1  18
HETATM   18  C9  UNL     1      -3.108   6.966   8.314  1.00  0.00     0.210 C 
BRANCH  18  19
HETATM   19  C10 UNL     1      -2.304   7.214   7.099  1.00  0.00     0.176 C 
BRANCH  19  20
HETATM   20  O3  UNL     1      -2.593   8.456   6.535  1.00  0.00    -0.390 OA
ATOM     21  H3  UNL     1      -2.744   9.116   7.200  1.00  0.00     0.210 HD
ENDBRANCH  19  20
BRANCH  19  22
HETATM   22  C11 UNL     1      -0.803   7.248   7.415  1.00  0.00     0.088 C 
HETATM   23  C12 UNL     1      -0.613   6.890   8.881  1.00  0.00     0.049 C 
HETATM   24  C13 UNL     1      -0.168   6.154   6.605  1.00  0.00     0.072 C 
HETATM   25  C14 UNL     1       1.310   6.459   6.503  1.00  0.00     0.123 C 
HETATM   26  C15 UNL     1       1.426   7.738   5.689  1.00  0.00     0.066 C 
HETATM   27  C16 UNL     1       0.363   8.734   6.060  1.00  0.00     0.148 C 
HETATM   28  O6  UNL     1      -0.281   8.486   7.225  1.00  0.00    -0.370 OA
BRANCH  25  29
HETATM   29  O4  UNL     1       1.971   5.447   5.834  1.00  0.00    -0.395 OA
ATOM     30  H4  UNL     1       2.107   5.681   4.923  1.00  0.00     0.210 HD
ENDBRANCH  25  29
BRANCH  27  31
HETATM   31  C17 UNL     1       1.088  10.079   6.250  1.00  0.00     0.196 C 
BRANCH  31  32
HETATM   32  O5  UNL     1       0.478  11.089   5.549  1.00  0.00    -0.398 OA
ATOM     33  H5  UNL     1       1.010  11.383   4.820  1.00  0.00     0.209 HD
ENDBRANCH  31  32
ENDBRANCH  27  31
ENDBRANCH  19  22
ENDBRANCH  18  19
ENDBRANCH   1  18
TORSDOF 9
ENDMDL
MODEL 5
REMARK VINA RESULT: -8.830396250      2.769      4.517
REMARK  9 active torsions:
REMARK  status: ('A' for Active; 'I' for Inactive)
REMARK    1  A    between atoms: O1_2  and  C2_3 
REMARK    2  A    between atoms: C8_9  and  O2_10 
REMARK    3  A    between atoms: O2_10  and  C9_11 
REMARK    4  A    between atoms: C9_11  and  C10_12 
REMARK    5  A    between atoms: C10_12  and  O3_13 
REMARK    6  A    between atoms: C10_12  and  C11_15 
REMARK    7  A    between atoms: C14_18  and  O4_19 
REMARK    8  A    between atoms: C16_22  and  C17_23 
REMARK    9  A    between atoms: C17_23  and  O5_24 
ROOT
HETATM    1  O2  UNL     1      -3.215   5.505   7.674  1.00  0.00    -0.346 OA
ENDROOT
BRANCH   1   2
HETATM    2  C8  UNL     1      -3.723   5.250   8.903  1.00  0.00     0.103 A 
HETATM    3  C7  UNL     1      -3.337   4.127   9.599  1.00  0.00     0.014 A 
HETATM    4  C6  UNL     1      -2.399   3.243   9.122  1.00  0.00     0.016 A 
HETATM    5  C21 UNL     1      -3.884   3.874  10.866  1.00  0.00     0.034 A 
HETATM    6  C5  UNL     1      -1.991   2.143   9.837  1.00  0.00     0.010 A 
HETATM    7  C3  UNL     1      -2.513   1.871  11.079  1.00  0.00    -0.028 A 
HETATM    8  C2  UNL     1      -3.469   2.768  11.565  1.00  0.00     0.087 A 
HETATM    9  C4  UNL     1      -2.106   0.705  11.886  1.00  0.00     0.051 C 
HETATM   10  C20 UNL     1      -4.793   4.775  11.377  1.00  0.00     0.071 A 
HETATM   11  C19 UNL     1      -5.154   5.892  10.647  1.00  0.00     0.081 A 
HETATM   12 CL3  UNL     1      -5.467   4.574  12.962  1.00  0.00    -0.081 Cl
HETATM   13  C18 UNL     1      -4.648   6.175   9.407  1.00  0.00     0.091 A 
HETATM   14 CL2  UNL     1      -6.324   7.053  11.299  1.00  0.00    -0.081 Cl
HETATM   15 CL1  UNL     1      -5.130   7.600   8.513  1.00  0.00    -0.079 Cl
BRANCH   8  16
HETATM   16  O1  UNL     1      -3.988   2.463  12.832  1.00  0.00    -0.354 OA
HETATM   17  C1  UNL     1      -3.093   2.839  13.908  1.00  0.00     0.210 C 
ENDBRANCH   8  16
ENDBRANCH   1   2
BRANCH   1  18
HETATM   18  C9  UNL     1      -2.202   6.295   7.214  1.00  0.00     0.210 C 
BRANCH  18  19
HETATM   19  C10 UNL     1      -1.094   5.720   6.422  1.00  0.00     0.176 C 
BRANCH  19  20
HETATM   20  O3  UNL     1      -0.893   6.419   5.234  1.00  0.00    -0.390 OA
ATOM     21  H3  UNL     1      -0.558   5.855   4.547  1.00  0.00     0.210 HD
ENDBRANCH  19  20
BRANCH  19  22
HETATM   22  C11 UNL     1       0.238   5.804   7.177  1.00  0.00     0.088 C 
HETATM   23  C12 UNL     1       0.001   6.531   8.491  1.00  0.00     0.049 C 
HETATM   24  C13 UNL     1       0.631   4.394   7.516  1.00  0.00     0.072 C 
HETATM   25  C14 UNL     1       2.116   4.388   7.805  1.00  0.00     0.123 C 
HETATM   26  C15 UNL     1       2.806   4.739   6.495  1.00  0.00     0.066 C 
HETATM   27  C16 UNL     1       2.075   5.822   5.752  1.00  0.00     0.148 C 
HETATM   28  O6  UNL     1       1.164   6.510   6.480  1.00  0.00    -0.370 OA
BRANCH  25  29
HETATM   29  O4  UNL     1       2.531   3.132   8.200  1.00  0.00    -0.395 OA
ATOM     30  H4  UNL     1       3.330   2.885   7.749  1.00  0.00     0.210 HD
ENDBRANCH  25  29
BRANCH  27  31
HETATM   31  C17 UNL     1       3.145   6.845   5.329  1.00  0.00     0.196 C 
BRANCH  31  32
HETATM   32  O5  UNL     1       4.414   6.349   5.491  1.00  0.00    -0.398 OA
ATOM     33  H5  UNL     1       4.471   5.436   5.234  1.00  0.00     0.209 HD
ENDBRANCH  31  32
ENDBRANCH  27  31
ENDBRANCH  19  22
ENDBRANCH  18  19
ENDBRANCH   1  18
TORSDOF 9
ENDMDL
