MODEL 1
REMARK VINA RESULT: -8.106024751      0.000      0.000
REMARK  5 active torsions:
REMARK  status: ('A' for Active; 'I' for Inactive)
REMARK    1  A    between atoms: C1_2  and  C2_4 
REMARK    2  A    between atoms: C2_4  and  C3_5 
REMARK    3  A    between atoms: C3_5  and  C4_6 
REMARK    4  A    between atoms: C3_5  and  C5_9 
REMARK    5  A    between atoms: C11_15  and  C12_16 
ROOT
HETATM    1  C5  UNL     1      -0.192   3.542  83.993  1.00  0.00     0.241 C 
HETATM    2  C6  UNL     1      -0.278   4.704  83.011  1.00  0.00     0.072 C 
HETATM    3  C7  UNL     1      -0.021   5.438  84.326  1.00  0.00     0.227 C 
HETATM    4  C8  UNL     1      -0.422   6.835  84.451  1.00  0.00     0.036 C 
HETATM    5  C9  UNL     1      -1.625   6.883  85.404  1.00  0.00     0.005 C 
HETATM    6  C10 UNL     1      -2.691   6.105  84.658  1.00  0.00     0.047 C 
HETATM    7  C11 UNL     1      -2.277   4.642  84.716  1.00  0.00     0.323 C 
HETATM    8  N1  UNL     1      -0.891   4.435  84.909  1.00  0.00     0.113 N 
ENDROOT
BRANCH   1   9
HETATM    9  C3  UNL     1      -0.785   2.259  83.635  1.00  0.00     0.130 C 
BRANCH   9  10
HETATM   10  C2  UNL     1      -0.266   1.647  82.353  1.00  0.00     0.130 C 
BRANCH  10  11
HETATM   11  C1  UNL     1      -1.183   1.782  81.206  1.00  0.00     0.173 C 
HETATM   12  O1  UNL     1      -0.986   1.186  80.124  1.00  0.00    -0.648 OA
HETATM   13  O2  UNL     1      -2.305   2.587  81.312  1.00  0.00    -0.648 OA
ENDBRANCH  10  11
ENDBRANCH   9  10
BRANCH   9  14
HETATM   14  C4  UNL     1      -0.585   1.284  84.729  1.00  0.00     0.179 C 
HETATM   15  O3  UNL     1      -1.277   0.247  84.745  1.00  0.00    -0.648 OA
HETATM   16  O4  UNL     1       0.342   1.485  85.729  1.00  0.00    -0.648 OA
ENDBRANCH   9  14
ENDBRANCH   1   9
BRANCH   7  17
HETATM   17  C12 UNL     1      -3.090   4.097  85.831  1.00  0.00     0.207 C 
HETATM   18  O5  UNL     1      -3.238   2.860  85.901  1.00  0.00    -0.646 OA
HETATM   19  O6  UNL     1      -3.678   4.903  86.776  1.00  0.00    -0.646 OA
ENDBRANCH   7  17
TORSDOF 5
ENDMDL
MODEL 2
REMARK VINA RESULT: -8.048221978      2.181      4.086
REMARK  5 active torsions:
REMARK  status: ('A' for Active; 'I' for Inactive)
REMARK    1  A    between atoms: C1_2  and  C2_4 
REMARK    2  A    between atoms: C2_4  and  C3_5 
REMARK    3  A    between atoms: C3_5  and  C4_6 
REMARK    4  A    between atoms: C3_5  and  C5_9 
REMARK    5  A    between atoms: C11_15  and  C12_16 
ROOT
HETATM    1  C5  UNL     1      -2.145   3.657  85.190  1.00  0.00     0.241 C 
HETATM    2  C6  UNL     1      -2.827   4.927  85.686  1.00  0.00     0.072 C 
HETATM    3  C7  UNL     1      -2.845   5.145  84.174  1.00  0.00     0.227 C 
HETATM    4  C8  UNL     1      -2.946   6.504  83.653  1.00  0.00     0.036 C 
HETATM    5  C9  UNL     1      -1.583   6.863  83.041  1.00  0.00     0.005 C 
HETATM    6  C10 UNL     1      -0.649   6.835  84.234  1.00  0.00     0.047 C 
HETATM    7  C11 UNL     1      -0.470   5.372  84.610  1.00  0.00     0.323 C 
HETATM    8  N1  UNL     1      -1.531   4.531  84.198  1.00  0.00     0.113 N 
ENDROOT
BRANCH   1   9
HETATM    9  C3  UNL     1      -1.305   2.893  86.105  1.00  0.00     0.130 C 
BRANCH   9  10
HETATM   10  C2  UNL     1      -1.988   2.437  87.375  1.00  0.00     0.130 C 
BRANCH  10  11
HETATM   11  C1  UNL     1      -2.931   1.319  87.183  1.00  0.00     0.173 C 
HETATM   12  O1  UNL     1      -2.600   0.129  87.383  1.00  0.00    -0.648 OA
HETATM   13  O2  UNL     1      -4.229   1.574  86.773  1.00  0.00    -0.648 OA
ENDBRANCH  10  11
ENDBRANCH   9  10
BRANCH   9  14
HETATM   14  C4  UNL     1      -0.759   1.702  85.418  1.00  0.00     0.179 C 
HETATM   15  O3  UNL     1       0.352   1.261  85.772  1.00  0.00    -0.648 OA
HETATM   16  O4  UNL     1      -1.438   1.067  84.402  1.00  0.00    -0.648 OA
ENDBRANCH   9  14
ENDBRANCH   1   9
BRANCH   7  17
HETATM   17  C12 UNL     1       0.819   5.006  83.974  1.00  0.00     0.207 C 
HETATM   18  O5  UNL     1       1.766   5.816  84.058  1.00  0.00    -0.646 OA
HETATM   19  O6  UNL     1       1.000   3.820  83.306  1.00  0.00    -0.646 OA
ENDBRANCH   7  17
TORSDOF 5
ENDMDL
MODEL 3
REMARK VINA RESULT: -7.767893190      1.140      1.447
REMARK  5 active torsions:
REMARK  status: ('A' for Active; 'I' for Inactive)
REMARK    1  A    between atoms: C1_2  and  C2_4 
REMARK    2  A    between atoms: C2_4  and  C3_5 
REMARK    3  A    between atoms: C3_5  and  C4_6 
REMARK    4  A    between atoms: C3_5  and  C5_9 
REMARK    5  A    between atoms: C11_15  and  C12_16 
ROOT
HETATM    1  C5  UNL     1       0.276   3.506  84.008  1.00  0.00     0.241 C 
HETATM    2  C6  UNL     1       0.979   4.322  82.930  1.00  0.00     0.072 C 
HETATM    3  C7  UNL     1       1.020   5.287  84.114  1.00  0.00     0.227 C 
HETATM    4  C8  UNL     1       1.157   6.717  83.861  1.00  0.00     0.036 C 
HETATM    5  C9  UNL     1      -0.190   7.373  84.200  1.00  0.00     0.005 C 
HETATM    6  C10 UNL     1      -1.139   6.759  83.191  1.00  0.00     0.047 C 
HETATM    7  C11 UNL     1      -1.354   5.316  83.621  1.00  0.00     0.323 C 
HETATM    8  N1  UNL     1      -0.307   4.781  84.408  1.00  0.00     0.113 N 
ENDROOT
BRANCH   1   9
HETATM    9  C3  UNL     1      -0.592   2.401  83.615  1.00  0.00     0.130 C 
BRANCH   9  10
HETATM   10  C2  UNL     1      -0.255   1.761  82.288  1.00  0.00     0.130 C 
BRANCH  10  11
HETATM   11  C1  UNL     1      -1.369   1.757  81.321  1.00  0.00     0.173 C 
HETATM   12  O1  UNL     1      -1.556   0.810  80.526  1.00  0.00    -0.648 OA
HETATM   13  O2  UNL     1      -2.249   2.826  81.278  1.00  0.00    -0.648 OA
ENDBRANCH  10  11
ENDBRANCH   9  10
BRANCH   9  14
HETATM   14  C4  UNL     1      -0.576   1.349  84.656  1.00  0.00     0.179 C 
HETATM   15  O3  UNL     1      -1.341   0.373  84.535  1.00  0.00    -0.648 OA
HETATM   16  O4  UNL     1       0.257   1.415  85.751  1.00  0.00    -0.648 OA
ENDBRANCH   9  14
ENDBRANCH   1   9
BRANCH   7  17
HETATM   17  C12 UNL     1      -2.644   5.362  84.353  1.00  0.00     0.207 C 
HETATM   18  O5  UNL     1      -3.541   6.112  83.916  1.00  0.00    -0.646 OA
HETATM   19  O6  UNL     1      -2.876   4.614  85.482  1.00  0.00    -0.646 OA
ENDBRANCH   7  17
TORSDOF 5
ENDMDL
MODEL 4
REMARK VINA RESULT: -7.738254184      1.589      4.653
REMARK  5 active torsions:
REMARK  status: ('A' for Active; 'I' for Inactive)
REMARK    1  A    between atoms: C1_2  and  C2_4 
REMARK    2  A    between atoms: C2_4  and  C3_5 
REMARK    3  A    between atoms: C3_5  and  C4_6 
REMARK    4  A    between atoms: C3_5  and  C5_9 
REMARK    5  A    between atoms: C11_15  and  C12_16 
ROOT
HETATM    1  C5  UNL     1      -0.792   4.517  83.711  1.00  0.00     0.241 C 
HETATM    2  C6  UNL     1       0.700   4.310  83.947  1.00  0.00     0.072 C 
HETATM    3  C7  UNL     1       0.690   4.829  82.510  1.00  0.00     0.227 C 
HETATM    4  C8  UNL     1       1.815   4.520  81.634  1.00  0.00     0.036 C 
HETATM    5  C9  UNL     1       1.318   3.508  80.590  1.00  0.00     0.005 C 
HETATM    6  C10 UNL     1       0.964   2.293  81.425  1.00  0.00     0.047 C 
HETATM    7  C11 UNL     1      -0.308   2.644  82.181  1.00  0.00     0.323 C 
HETATM    8  N1  UNL     1      -0.513   4.032  82.365  1.00  0.00     0.113 N 
ENDROOT
BRANCH   1   9
HETATM    9  C3  UNL     1      -1.751   3.813  84.553  1.00  0.00     0.130 C 
BRANCH   9  10
HETATM   10  C2  UNL     1      -1.177   3.203  85.812  1.00  0.00     0.130 C 
BRANCH  10  11
HETATM   11  C1  UNL     1      -1.000   1.740  85.747  1.00  0.00     0.173 C 
HETATM   12  O1  UNL     1      -1.971   0.954  85.731  1.00  0.00    -0.648 OA
HETATM   13  O2  UNL     1       0.276   1.202  85.700  1.00  0.00    -0.648 OA
ENDBRANCH  10  11
ENDBRANCH   9  10
BRANCH   9  14
HETATM   14  C4  UNL     1      -2.852   4.723  84.939  1.00  0.00     0.179 C 
HETATM   15  O3  UNL     1      -3.312   5.506  84.086  1.00  0.00    -0.648 OA
HETATM   16  O4  UNL     1      -3.383   4.732  86.210  1.00  0.00    -0.648 OA
ENDBRANCH   9  14
ENDBRANCH   1   9
BRANCH   7  17
HETATM   17  C12 UNL     1      -1.378   2.019  81.365  1.00  0.00     0.207 C 
HETATM   18  O5  UNL     1      -2.366   2.717  81.057  1.00  0.00    -0.646 OA
HETATM   19  O6  UNL     1      -1.316   0.712  80.946  1.00  0.00    -0.646 OA
ENDBRANCH   7  17
TORSDOF 5
ENDMDL
MODEL 5
REMARK VINA RESULT: -7.719127244      1.589      4.564
REMARK  5 active torsions:
REMARK  status: ('A' for Active; 'I' for Inactive)
REMARK    1  A    between atoms: C1_2  and  C2_4 
REMARK    2  A    between atoms: C2_4  and  C3_5 
REMARK    3  A    between atoms: C3_5  and  C4_6 
REMARK    4  A    between atoms: C3_5  and  C5_9 
REMARK    5  A    between atoms: C11_15  and  C12_16 
ROOT
HETATM    1  C5  UNL     1      -0.805   4.528  83.724  1.00  0.00     0.241 C 
HETATM    2  C6  UNL     1       0.694   4.348  83.936  1.00  0.00     0.072 C 
HETATM    3  C7  UNL     1       0.651   4.839  82.490  1.00  0.00     0.227 C 
HETATM    4  C8  UNL     1       1.764   4.528  81.600  1.00  0.00     0.036 C 
HETATM    5  C9  UNL     1       1.265   3.488  80.586  1.00  0.00     0.005 C 
HETATM    6  C10 UNL     1       0.945   2.286  81.451  1.00  0.00     0.047 C 
HETATM    7  C11 UNL     1      -0.320   2.633  82.222  1.00  0.00     0.323 C 
HETATM    8  N1  UNL     1      -0.542   4.021  82.383  1.00  0.00     0.113 N 
ENDROOT
BRANCH   1   9
HETATM    9  C3  UNL     1      -1.738   3.827  84.597  1.00  0.00     0.130 C 
BRANCH   9  10
HETATM   10  C2  UNL     1      -1.129   3.239  85.849  1.00  0.00     0.130 C 
BRANCH  10  11
HETATM   11  C1  UNL     1      -0.885   1.786  85.777  1.00  0.00     0.173 C 
HETATM   12  O1  UNL     1       0.269   1.307  85.751  1.00  0.00    -0.648 OA
HETATM   13  O2  UNL     1      -1.956   0.908  85.738  1.00  0.00    -0.648 OA
ENDBRANCH  10  11
ENDBRANCH   9  10
BRANCH   9  14
HETATM   14  C4  UNL     1      -2.838   4.733  84.996  1.00  0.00     0.179 C 
HETATM   15  O3  UNL     1      -3.286   5.540  84.159  1.00  0.00    -0.648 OA
HETATM   16  O4  UNL     1      -3.381   4.710  86.262  1.00  0.00    -0.648 OA
ENDBRANCH   9  14
ENDBRANCH   1   9
BRANCH   7  17
HETATM   17  C12 UNL     1      -1.394   1.975  81.439  1.00  0.00     0.207 C 
HETATM   18  O5  UNL     1      -1.372   0.731  81.341  1.00  0.00    -0.646 OA
HETATM   19  O6  UNL     1      -2.398   2.685  80.826  1.00  0.00    -0.646 OA
ENDBRANCH   7  17
TORSDOF 5
ENDMDL
