MODEL 1
REMARK VINA RESULT: -6.980787755      0.000      0.000
REMARK  5 active torsions:
REMARK  status: ('A' for Active; 'I' for Inactive)
REMARK    1  A    between atoms: N2_3  and  C2_5 
REMARK    2  A    between atoms: C3_8  and  C4_9 
REMARK    3  A    between atoms: C4_9  and  N4_10 
REMARK       I    between atoms: N4_10  and  C5_12 
REMARK       I    between atoms: C5_12  and  N5_14 
REMARK    4  A    between atoms: N5_14  and  C6_16 
REMARK    5  A    between atoms: C6_16  and  C7_17 
ROOT
HETATM    1  N1  UNL     1      -0.806   0.743  82.753  1.00  0.00    -0.172 NA
HETATM    2  C1  UNL     1      -0.076   1.166  81.956  1.00  0.00     0.183 C 
HETATM    3  N2  UNL     1       0.823   1.661  80.998  1.00  0.00    -0.283 N 
ATOM      4  H2  UNL     1       1.090   1.109  80.183  1.00  0.00     0.179 HD
ENDROOT
BRANCH   3   5
HETATM    5  C2  UNL     1       1.348   2.971  81.216  1.00  0.00     0.087 C 
HETATM    6  N3  UNL     1       1.305   3.474  82.391  1.00  0.00    -0.372 N 
HETATM    7  C3  UNL     1       1.731   4.705  82.895  1.00  0.00     0.110 C 
ATOM      8  H3  UNL     1       0.882   2.862  83.090  1.00  0.00     0.161 HD
HETATM    9  C10 UNL     1       1.267   5.942  82.191  1.00  0.00     0.100 C 
HETATM   10  S1  UNL     1       1.994   6.201  80.585  1.00  0.00    -0.167 SA
HETATM   11  C11 UNL     1       1.256   4.862  79.575  1.00  0.00     0.081 C 
HETATM   12  C12 UNL     1       1.885   3.604  80.053  1.00  0.00     0.087 C 
BRANCH   7  13
HETATM   13  C4  UNL     1       1.227   4.823  84.324  1.00  0.00     0.150 C 
BRANCH  13  14
HETATM   14  N4  UNL     1      -0.042   4.190  84.505  1.00  0.00    -0.341 N 
HETATM   15  C5  UNL     1      -0.226   3.036  85.308  1.00  0.00     0.316 C 
HETATM   16  O1  UNL     1       0.816   2.577  85.877  1.00  0.00    -0.247 OA
HETATM   17  N5  UNL     1      -1.502   2.436  85.464  1.00  0.00    -0.343 N 
ATOM     18  H5  UNL     1      -2.293   2.862  84.981  1.00  0.00     0.164 HD
ATOM     19  H4  UNL     1      -0.854   4.588  84.034  1.00  0.00     0.164 HD
BRANCH  17  20
HETATM   20  C6  UNL     1      -1.749   1.260  86.264  1.00  0.00     0.129 C 
BRANCH  20  21
HETATM   21  C7  UNL     1      -2.831   1.505  87.280  1.00  0.00     0.003 A 
HETATM   22  C8  UNL     1      -3.113   2.915  87.683  1.00  0.00     0.007 A 
HETATM   23  C9  UNL     1      -4.082   2.167  86.816  1.00  0.00     0.007 A 
ENDBRANCH  20  21
ENDBRANCH  17  20
ENDBRANCH  13  14
ENDBRANCH   7  13
ENDBRANCH   3   5
TORSDOF 5
ENDMDL
MODEL 2
REMARK VINA RESULT: -6.907273787      1.687      2.032
REMARK  5 active torsions:
REMARK  status: ('A' for Active; 'I' for Inactive)
REMARK    1  A    between atoms: N2_3  and  C2_5 
REMARK    2  A    between atoms: C3_8  and  C4_9 
REMARK    3  A    between atoms: C4_9  and  N4_10 
REMARK       I    between atoms: N4_10  and  C5_12 
REMARK       I    between atoms: C5_12  and  N5_14 
REMARK    4  A    between atoms: N5_14  and  C6_16 
REMARK    5  A    between atoms: C6_16  and  C7_17 
ROOT
HETATM    1  N1  UNL     1      -1.167   0.504  84.746  1.00  0.00    -0.172 NA
HETATM    2  C1  UNL     1      -0.752   0.585  83.664  1.00  0.00     0.183 C 
HETATM    3  N2  UNL     1      -0.238   0.663  82.360  1.00  0.00    -0.283 N 
ATOM      4  H2  UNL     1      -0.443  -0.054  81.664  1.00  0.00     0.179 HD
ENDROOT
BRANCH   3   5
HETATM    5  C2  UNL     1       0.583   1.789  82.052  1.00  0.00     0.087 C 
HETATM    6  N3  UNL     1       0.344   2.910  82.620  1.00  0.00    -0.372 N 
HETATM    7  C3  UNL     1       0.964   4.158  82.518  1.00  0.00     0.110 C 
ATOM      8  H3  UNL     1      -0.445   2.889  83.266  1.00  0.00     0.161 HD
HETATM    9  C10 UNL     1       1.158   4.728  81.148  1.00  0.00     0.100 C 
HETATM   10  S1  UNL     1       2.386   3.893  80.163  1.00  0.00    -0.167 SA
HETATM   11  C11 UNL     1       1.607   2.271  79.817  1.00  0.00     0.081 C 
HETATM   12  C12 UNL     1       1.623   1.534  81.107  1.00  0.00     0.087 C 
BRANCH   7  13
HETATM   13  C4  UNL     1       0.111   5.165  83.272  1.00  0.00     0.150 C 
BRANCH  13  14
HETATM   14  N4  UNL     1      -0.400   4.632  84.497  1.00  0.00    -0.341 N 
HETATM   15  C5  UNL     1      -1.706   4.096  84.625  1.00  0.00     0.316 C 
HETATM   16  O1  UNL     1      -2.423   4.109  83.573  1.00  0.00    -0.247 OA
HETATM   17  N5  UNL     1      -2.178   3.576  85.857  1.00  0.00    -0.343 N 
ATOM     18  H5  UNL     1      -1.547   3.595  86.658  1.00  0.00     0.164 HD
ATOM     19  H4  UNL     1       0.204   4.638  85.318  1.00  0.00     0.164 HD
BRANCH  17  20
HETATM   20  C6  UNL     1      -3.498   3.022  86.048  1.00  0.00     0.129 C 
BRANCH  20  21
HETATM   21  C7  UNL     1      -3.591   2.259  87.341  1.00  0.00     0.003 A 
HETATM   22  C8  UNL     1      -2.346   1.641  87.886  1.00  0.00     0.007 A 
HETATM   23  C9  UNL     1      -2.940   2.851  88.543  1.00  0.00     0.007 A 
ENDBRANCH  20  21
ENDBRANCH  17  20
ENDBRANCH  13  14
ENDBRANCH   7  13
ENDBRANCH   3   5
TORSDOF 5
ENDMDL
MODEL 3
REMARK VINA RESULT: -6.650820180      1.133      1.326
REMARK  5 active torsions:
REMARK  status: ('A' for Active; 'I' for Inactive)
REMARK    1  A    between atoms: N2_3  and  C2_5 
REMARK    2  A    between atoms: C3_8  and  C4_9 
REMARK    3  A    between atoms: C4_9  and  N4_10 
REMARK       I    between atoms: N4_10  and  C5_12 
REMARK       I    between atoms: C5_12  and  N5_14 
REMARK    4  A    between atoms: N5_14  and  C6_16 
REMARK    5  A    between atoms: C6_16  and  C7_17 
ROOT
HETATM    1  N1  UNL     1      -0.848   1.081  83.096  1.00  0.00    -0.172 NA
HETATM    2  C1  UNL     1      -0.186   1.384  82.191  1.00  0.00     0.183 C 
HETATM    3  N2  UNL     1       0.629   1.732  81.102  1.00  0.00    -0.283 N 
ATOM      4  H2  UNL     1       0.688   1.143  80.272  1.00  0.00     0.179 HD
ENDROOT
BRANCH   3   5
HETATM    5  C2  UNL     1       1.370   2.948  81.208  1.00  0.00     0.087 C 
HETATM    6  N3  UNL     1       1.404   3.564  82.328  1.00  0.00    -0.372 N 
HETATM    7  C3  UNL     1       2.032   4.747  82.723  1.00  0.00     0.110 C 
ATOM      8  H3  UNL     1       0.873   3.106  83.070  1.00  0.00     0.161 HD
HETATM    9  C10 UNL     1       1.797   5.970  81.893  1.00  0.00     0.100 C 
HETATM   10  S1  UNL     1       2.575   5.940  80.290  1.00  0.00    -0.167 SA
HETATM   11  C11 UNL     1       1.626   4.655  79.392  1.00  0.00     0.081 C 
HETATM   12  C12 UNL     1       2.021   3.361  80.006  1.00  0.00     0.087 C 
BRANCH   7  13
HETATM   13  C4  UNL     1       1.541   5.091  84.120  1.00  0.00     0.150 C 
BRANCH  13  14
HETATM   14  N4  UNL     1       0.659   4.095  84.645  1.00  0.00    -0.341 N 
HETATM   15  C5  UNL     1      -0.708   4.340  84.928  1.00  0.00     0.316 C 
HETATM   16  O1  UNL     1      -1.128   5.517  84.686  1.00  0.00    -0.247 OA
HETATM   17  N5  UNL     1      -1.552   3.326  85.448  1.00  0.00    -0.343 N 
ATOM     18  H5  UNL     1      -1.147   2.405  85.613  1.00  0.00     0.164 HD
ATOM     19  H4  UNL     1       1.032   3.163  84.825  1.00  0.00     0.164 HD
BRANCH  17  20
HETATM   20  C6  UNL     1      -2.949   3.518  85.758  1.00  0.00     0.129 C 
BRANCH  20  21
HETATM   21  C7  UNL     1      -3.411   2.562  86.824  1.00  0.00     0.003 A 
HETATM   22  C8  UNL     1      -2.402   1.649  87.437  1.00  0.00     0.007 A 
HETATM   23  C9  UNL     1      -2.951   2.805  88.220  1.00  0.00     0.007 A 
ENDBRANCH  20  21
ENDBRANCH  17  20
ENDBRANCH  13  14
ENDBRANCH   7  13
ENDBRANCH   3   5
TORSDOF 5
ENDMDL
MODEL 4
REMARK VINA RESULT: -6.476244500      1.248      1.375
REMARK  5 active torsions:
REMARK  status: ('A' for Active; 'I' for Inactive)
REMARK    1  A    between atoms: N2_3  and  C2_5 
REMARK    2  A    between atoms: C3_8  and  C4_9 
REMARK    3  A    between atoms: C4_9  and  N4_10 
REMARK       I    between atoms: N4_10  and  C5_12 
REMARK       I    between atoms: C5_12  and  N5_14 
REMARK    4  A    between atoms: N5_14  and  C6_16 
REMARK    5  A    between atoms: C6_16  and  C7_17 
ROOT
HETATM    1  N1  UNL     1       0.004   0.991  80.019  1.00  0.00    -0.172 NA
HETATM    2  C1  UNL     1       0.964   1.409  80.520  1.00  0.00     0.183 C 
HETATM    3  N2  UNL     1       2.118   1.907  81.147  1.00  0.00    -0.283 N 
ATOM      4  H2  UNL     1       2.791   1.285  81.594  1.00  0.00     0.179 HD
ENDROOT
BRANCH   3   5
HETATM    5  C2  UNL     1       2.305   3.323  81.132  1.00  0.00     0.087 C 
HETATM    6  N3  UNL     1       2.194   3.979  82.224  1.00  0.00    -0.372 N 
HETATM    7  C3  UNL     1       2.320   5.340  82.511  1.00  0.00     0.110 C 
ATOM      8  H3  UNL     1       1.972   3.402  83.036  1.00  0.00     0.161 HD
HETATM    9  C10 UNL     1       1.526   6.302  81.682  1.00  0.00     0.100 C 
HETATM   10  S1  UNL     1       2.088   6.472  80.000  1.00  0.00    -0.167 SA
HETATM   11  C11 UNL     1       1.663   4.852  79.255  1.00  0.00     0.081 C 
HETATM   12  C12 UNL     1       2.610   3.874  79.851  1.00  0.00     0.087 C 
BRANCH   7  13
HETATM   13  C4  UNL     1       1.871   5.558  83.947  1.00  0.00     0.150 C 
BRANCH  13  14
HETATM   14  N4  UNL     1       0.480   5.279  84.128  1.00  0.00    -0.341 N 
HETATM   15  C5  UNL     1      -0.000   4.106  84.763  1.00  0.00     0.316 C 
HETATM   16  O1  UNL     1       0.884   3.291  85.178  1.00  0.00    -0.247 OA
HETATM   17  N5  UNL     1      -1.389   3.865  84.924  1.00  0.00    -0.343 N 
ATOM     18  H5  UNL     1      -2.041   4.565  84.570  1.00  0.00     0.164 HD
ATOM     19  H4  UNL     1      -0.199   5.957  83.783  1.00  0.00     0.164 HD
BRANCH  17  20
HETATM   20  C6  UNL     1      -1.936   2.689  85.559  1.00  0.00     0.129 C 
BRANCH  20  21
HETATM   21  C7  UNL     1      -3.142   3.027  86.393  1.00  0.00     0.003 A 
HETATM   22  C8  UNL     1      -3.877   1.909  87.054  1.00  0.00     0.007 A 
HETATM   23  C9  UNL     1      -3.037   2.846  87.868  1.00  0.00     0.007 A 
ENDBRANCH  20  21
ENDBRANCH  17  20
ENDBRANCH  13  14
ENDBRANCH   7  13
ENDBRANCH   3   5
TORSDOF 5
ENDMDL
MODEL 5
REMARK VINA RESULT: -6.463320267      2.021      2.424
REMARK  5 active torsions:
REMARK  status: ('A' for Active; 'I' for Inactive)
REMARK    1  A    between atoms: N2_3  and  C2_5 
REMARK    2  A    between atoms: C3_8  and  C4_9 
REMARK    3  A    between atoms: C4_9  and  N4_10 
REMARK       I    between atoms: N4_10  and  C5_12 
REMARK       I    between atoms: C5_12  and  N5_14 
REMARK    4  A    between atoms: N5_14  and  C6_16 
REMARK    5  A    between atoms: C6_16  and  C7_17 
ROOT
HETATM    1  N1  UNL     1      -0.948   0.369  84.713  1.00  0.00    -0.172 NA
HETATM    2  C1  UNL     1      -0.830   0.644  83.591  1.00  0.00     0.183 C 
HETATM    3  N2  UNL     1      -0.675   0.957  82.231  1.00  0.00    -0.283 N 
ATOM      4  H2  UNL     1      -1.118   0.397  81.502  1.00  0.00     0.179 HD
ENDROOT
BRANCH   3   5
HETATM    5  C2  UNL     1       0.131   2.092  81.912  1.00  0.00     0.087 C 
HETATM    6  N3  UNL     1      -0.342   3.265  82.100  1.00  0.00    -0.372 N 
HETATM    7  C3  UNL     1       0.201   4.534  81.886  1.00  0.00     0.110 C 
ATOM      8  H3  UNL     1      -1.291   3.276  82.476  1.00  0.00     0.161 HD
HETATM    9  C10 UNL     1       0.778   4.825  80.536  1.00  0.00     0.100 C 
HETATM   10  S1  UNL     1       2.301   3.972  80.180  1.00  0.00    -0.167 SA
HETATM   11  C11 UNL     1       1.771   2.224  80.024  1.00  0.00     0.081 C 
HETATM   12  C12 UNL     1       1.427   1.783  81.400  1.00  0.00     0.087 C 
BRANCH   7  13
HETATM   13  C4  UNL     1      -0.905   5.556  82.096  1.00  0.00     0.150 C 
BRANCH  13  14
HETATM   14  N4  UNL     1      -1.214   5.743  83.480  1.00  0.00    -0.341 N 
HETATM   15  C5  UNL     1      -2.167   4.959  84.176  1.00  0.00     0.316 C 
HETATM   16  O1  UNL     1      -2.751   4.054  83.498  1.00  0.00    -0.247 OA
HETATM   17  N5  UNL     1      -2.446   5.176  85.550  1.00  0.00    -0.343 N 
ATOM     18  H5  UNL     1      -1.935   5.917  86.031  1.00  0.00     0.164 HD
ATOM     19  H4  UNL     1      -0.724   6.478  83.990  1.00  0.00     0.164 HD
BRANCH  17  20
HETATM   20  C6  UNL     1      -3.407   4.412  86.310  1.00  0.00     0.129 C 
BRANCH  20  21
HETATM   21  C7  UNL     1      -2.827   3.102  86.770  1.00  0.00     0.003 A 
HETATM   22  C8  UNL     1      -2.980   2.730  88.207  1.00  0.00     0.007 A 
HETATM   23  C9  UNL     1      -3.776   2.020  87.153  1.00  0.00     0.007 A 
ENDBRANCH  20  21
ENDBRANCH  17  20
ENDBRANCH  13  14
ENDBRANCH   7  13
ENDBRANCH   3   5
TORSDOF 5
ENDMDL
