MODEL 1
REMARK VINA RESULT: -6.319148801      0.000      0.000
REMARK  6 active torsions:
REMARK  status: ('A' for Active; 'I' for Inactive)
REMARK    1  A    between atoms: C2_2  and  C3_4 
REMARK    2  A    between atoms: N1_6  and  C5_7 
REMARK    3  A    between atoms: C7_10  and  O2_11 
REMARK    4  A    between atoms: N2_13  and  C8_14 
REMARK    5  A    between atoms: C8_14  and  N3_15 
REMARK    6  A    between atoms: C13_20  and  O3_21 
ROOT
HETATM    1  C5  UNL     1     -25.550  -9.631  52.200  1.00  0.00     0.105 A 
HETATM    2  C6  UNL     1     -26.650  -9.156  51.517  1.00  0.00     0.093 A 
HETATM    3 BR1  UNL     1     -26.631  -8.167  49.868  1.00  0.00    -0.044 Br
HETATM    4  C7  UNL     1     -27.759  -9.534  52.257  1.00  0.00     0.169 A 
HETATM    5  N2  UNL     1     -27.402 -10.211  53.350  1.00  0.00    -0.270 N 
HETATM    6  C13 UNL     1     -26.041 -10.272  53.316  1.00  0.00     0.178 A 
ENDROOT
BRANCH   1   7
HETATM    7  N1  UNL     1     -24.173  -9.490  51.829  1.00  0.00    -0.360 N 
HETATM    8  C3  UNL     1     -22.864  -9.977  51.462  1.00  0.00     0.171 A 
HETATM    9  C4  UNL     1     -23.123  -8.473  51.565  1.00  0.00     0.157 A 
BRANCH   8  10
HETATM   10  C2  UNL     1     -21.934 -10.473  52.494  1.00  0.00     0.147 C 
HETATM   11  C1  UNL     1     -20.474 -10.342  52.273  1.00  0.00     0.093 C 
HETATM   12  O1  UNL     1     -22.322 -10.986  53.523  1.00  0.00    -0.296 OA
ENDBRANCH   8  10
ENDBRANCH   1   7
BRANCH   6  13
HETATM   13  O3  UNL     1     -25.222 -10.888  54.260  1.00  0.00    -0.344 OA
ATOM     14  H3  UNL     1     -25.561 -11.349  55.018  1.00  0.00     0.219 HD
ENDBRANCH   6  13
BRANCH   4  15
HETATM   15  O2  UNL     1     -29.042  -9.208  51.835  1.00  0.00    -0.345 OA
ATOM     16  H2  UNL     1     -29.711  -8.953  52.460  1.00  0.00     0.219 HD
ENDBRANCH   4  15
BRANCH   5  17
HETATM   17  C8  UNL     1     -28.223 -10.770  54.393  1.00  0.00     0.163 C 
BRANCH  17  18
HETATM   18  N3  UNL     1     -29.415 -11.413  53.961  1.00  0.00    -0.279 NA
HETATM   19  C9  UNL     1     -30.513 -11.139  54.910  1.00  0.00     0.096 C 
HETATM   20  C10 UNL     1     -30.085 -11.900  56.141  1.00  0.00     0.016 C 
HETATM   21  C11 UNL     1     -29.399 -13.113  55.550  1.00  0.00     0.016 C 
HETATM   22  C12 UNL     1     -29.378 -12.851  54.044  1.00  0.00     0.096 C 
ENDBRANCH  17  18
ENDBRANCH   5  17
TORSDOF 6
ENDMDL
MODEL 2
REMARK VINA RESULT: -6.229116045      0.889      1.333
REMARK  6 active torsions:
REMARK  status: ('A' for Active; 'I' for Inactive)
REMARK    1  A    between atoms: C2_2  and  C3_4 
REMARK    2  A    between atoms: N1_6  and  C5_7 
REMARK    3  A    between atoms: C7_10  and  O2_11 
REMARK    4  A    between atoms: N2_13  and  C8_14 
REMARK    5  A    between atoms: C8_14  and  N3_15 
REMARK    6  A    between atoms: C13_20  and  O3_21 
ROOT
HETATM    1  C5  UNL     1     -25.453  -9.652  52.067  1.00  0.00     0.105 A 
HETATM    2  C6  UNL     1     -26.543  -9.158  51.383  1.00  0.00     0.093 A 
HETATM    3 BR1  UNL     1     -26.501  -8.071  49.796  1.00  0.00    -0.044 Br
HETATM    4  C7  UNL     1     -27.663  -9.600  52.068  1.00  0.00     0.169 A 
HETATM    5  N2  UNL     1     -27.322 -10.334  53.128  1.00  0.00    -0.270 N 
HETATM    6  C13 UNL     1     -25.960 -10.367  53.129  1.00  0.00     0.178 A 
ENDROOT
BRANCH   1   7
HETATM    7  N1  UNL     1     -24.069  -9.463  51.743  1.00  0.00    -0.360 N 
HETATM    8  C3  UNL     1     -22.740  -9.903  51.387  1.00  0.00     0.171 A 
HETATM    9  C4  UNL     1     -23.035  -8.412  51.565  1.00  0.00     0.157 A 
BRANCH   8  10
HETATM   10  C2  UNL     1     -21.828 -10.435  52.417  1.00  0.00     0.147 C 
HETATM   11  C1  UNL     1     -20.366 -10.268  52.242  1.00  0.00     0.093 C 
HETATM   12  O1  UNL     1     -22.233 -11.008  53.407  1.00  0.00    -0.296 OA
ENDBRANCH   8  10
ENDBRANCH   1   7
BRANCH   6  13
HETATM   13  O3  UNL     1     -25.153 -11.023  54.057  1.00  0.00    -0.344 OA
ATOM     14  H3  UNL     1     -25.311 -10.990  54.993  1.00  0.00     0.219 HD
ENDBRANCH   6  13
BRANCH   4  15
HETATM   15  O2  UNL     1     -28.942  -9.274  51.631  1.00  0.00    -0.345 OA
ATOM     16  H2  UNL     1     -29.708  -9.678  52.019  1.00  0.00     0.219 HD
ENDBRANCH   4  15
BRANCH   5  17
HETATM   17  C8  UNL     1     -28.159 -10.970  54.114  1.00  0.00     0.163 C 
BRANCH  17  18
HETATM   18  N3  UNL     1     -27.603 -11.073  55.418  1.00  0.00    -0.279 NA
HETATM   19  C9  UNL     1     -27.764 -12.448  55.932  1.00  0.00     0.096 C 
HETATM   20  C10 UNL     1     -29.256 -12.553  56.135  1.00  0.00     0.016 C 
HETATM   21  C11 UNL     1     -29.624 -11.151  56.571  1.00  0.00     0.016 C 
HETATM   22  C12 UNL     1     -28.328 -10.350  56.432  1.00  0.00     0.096 C 
ENDBRANCH  17  18
ENDBRANCH   5  17
TORSDOF 6
ENDMDL
MODEL 3
REMARK VINA RESULT: -6.164820745      2.893      7.119
REMARK  6 active torsions:
REMARK  status: ('A' for Active; 'I' for Inactive)
REMARK    1  A    between atoms: C2_2  and  C3_4 
REMARK    2  A    between atoms: N1_6  and  C5_7 
REMARK    3  A    between atoms: C7_10  and  O2_11 
REMARK    4  A    between atoms: N2_13  and  C8_14 
REMARK    5  A    between atoms: C8_14  and  N3_15 
REMARK    6  A    between atoms: C13_20  and  O3_21 
ROOT
HETATM    1  C5  UNL     1     -28.359 -10.794  55.301  1.00  0.00     0.105 A 
HETATM    2  C6  UNL     1     -27.118 -10.725  55.898  1.00  0.00     0.093 A 
HETATM    3 BR1  UNL     1     -26.656 -11.360  57.653  1.00  0.00    -0.044 Br
HETATM    4  C7  UNL     1     -26.281 -10.108  54.981  1.00  0.00     0.169 A 
HETATM    5  N2  UNL     1     -26.937  -9.797  53.862  1.00  0.00    -0.270 N 
HETATM    6  C13 UNL     1     -28.218 -10.220  54.058  1.00  0.00     0.178 A 
ENDROOT
BRANCH   1   7
HETATM    7  N1  UNL     1     -29.557 -11.350  55.858  1.00  0.00    -0.360 N 
HETATM    8  C3  UNL     1     -30.690 -12.246  55.886  1.00  0.00     0.171 A 
HETATM    9  C4  UNL     1     -30.479 -11.237  57.017  1.00  0.00     0.157 A 
BRANCH   8  10
HETATM   10  C2  UNL     1     -31.889 -11.960  55.077  1.00  0.00     0.147 C 
HETATM   11  C1  UNL     1     -33.156 -12.662  55.391  1.00  0.00     0.093 C 
HETATM   12  O1  UNL     1     -31.877 -11.167  54.158  1.00  0.00    -0.296 OA
ENDBRANCH   8  10
ENDBRANCH   1   7
BRANCH   6  13
HETATM   13  O3  UNL     1     -29.269 -10.106  53.151  1.00  0.00    -0.344 OA
ATOM     14  H3  UNL     1     -29.196 -10.360  52.238  1.00  0.00     0.219 HD
ENDBRANCH   6  13
BRANCH   4  15
HETATM   15  O2  UNL     1     -24.941  -9.885  55.275  1.00  0.00    -0.345 OA
ATOM     16  H2  UNL     1     -24.607  -9.004  55.392  1.00  0.00     0.219 HD
ENDBRANCH   4  15
BRANCH   5  17
HETATM   17  C8  UNL     1     -26.463  -9.140  52.671  1.00  0.00     0.163 C 
BRANCH  17  18
HETATM   18  N3  UNL     1     -26.688  -9.836  51.452  1.00  0.00    -0.279 NA
HETATM   19  C9  UNL     1     -25.401 -10.146  50.798  1.00  0.00     0.096 C 
HETATM   20  C10 UNL     1     -24.906  -8.783  50.380  1.00  0.00     0.016 C 
HETATM   21  C11 UNL     1     -26.191  -8.065  50.028  1.00  0.00     0.016 C 
HETATM   22  C12 UNL     1     -27.300  -9.042  50.418  1.00  0.00     0.096 C 
ENDBRANCH  17  18
ENDBRANCH   5  17
TORSDOF 6
ENDMDL
MODEL 4
REMARK VINA RESULT: -6.025764948      2.599      4.709
REMARK  6 active torsions:
REMARK  status: ('A' for Active; 'I' for Inactive)
REMARK    1  A    between atoms: C2_2  and  C3_4 
REMARK    2  A    between atoms: N1_6  and  C5_7 
REMARK    3  A    between atoms: C7_10  and  O2_11 
REMARK    4  A    between atoms: N2_13  and  C8_14 
REMARK    5  A    between atoms: C8_14  and  N3_15 
REMARK    6  A    between atoms: C13_20  and  O3_21 
ROOT
HETATM    1  C5  UNL     1     -25.565  -9.398  51.946  1.00  0.00     0.105 A 
HETATM    2  C6  UNL     1     -24.256  -9.646  52.301  1.00  0.00     0.093 A 
HETATM    3 BR1  UNL     1     -22.687  -9.127  51.316  1.00  0.00    -0.044 Br
HETATM    4  C7  UNL     1     -24.303 -10.340  53.499  1.00  0.00     0.169 A 
HETATM    5  N2  UNL     1     -25.562 -10.530  53.897  1.00  0.00    -0.270 N 
HETATM    6  C13 UNL     1     -26.341  -9.950  52.941  1.00  0.00     0.178 A 
ENDROOT
BRANCH   1   7
HETATM    7  N1  UNL     1     -26.030  -8.707  50.780  1.00  0.00    -0.360 N 
HETATM    8  C3  UNL     1     -26.919  -7.836  50.046  1.00  0.00     0.171 A 
HETATM    9  C4  UNL     1     -25.728  -8.491  49.341  1.00  0.00     0.157 A 
BRANCH   8  10
HETATM   10  C2  UNL     1     -28.220  -8.333  49.561  1.00  0.00     0.147 C 
HETATM   11  C1  UNL     1     -28.919  -7.592  48.485  1.00  0.00     0.093 C 
HETATM   12  O1  UNL     1     -28.741  -9.332  50.012  1.00  0.00    -0.296 OA
ENDBRANCH   8  10
ENDBRANCH   1   7
BRANCH   6  13
HETATM   13  O3  UNL     1     -27.733  -9.899  52.933  1.00  0.00    -0.344 OA
ATOM     14  H3  UNL     1     -28.244  -9.574  53.665  1.00  0.00     0.219 HD
ENDBRANCH   6  13
BRANCH   4  15
HETATM   15  O2  UNL     1     -23.136 -10.745  54.137  1.00  0.00    -0.345 OA
ATOM     16  H2  UNL     1     -23.016 -10.604  55.068  1.00  0.00     0.219 HD
ENDBRANCH   4  15
BRANCH   5  17
HETATM   17  C8  UNL     1     -26.065 -11.209  55.064  1.00  0.00     0.163 C 
BRANCH  17  18
HETATM   18  N3  UNL     1     -25.635 -10.686  56.314  1.00  0.00    -0.279 NA
HETATM   19  C9  UNL     1     -26.408 -11.297  57.414  1.00  0.00     0.096 C 
HETATM   20  C10 UNL     1     -27.788 -10.724  57.207  1.00  0.00     0.016 C 
HETATM   21  C11 UNL     1     -27.488  -9.331  56.696  1.00  0.00     0.016 C 
HETATM   22  C12 UNL     1     -25.969  -9.301  56.525  1.00  0.00     0.096 C 
ENDBRANCH  17  18
ENDBRANCH   5  17
TORSDOF 6
ENDMDL
MODEL 5
REMARK VINA RESULT: -6.004882348      1.835      2.265
REMARK  6 active torsions:
REMARK  status: ('A' for Active; 'I' for Inactive)
REMARK    1  A    between atoms: C2_2  and  C3_4 
REMARK    2  A    between atoms: N1_6  and  C5_7 
REMARK    3  A    between atoms: C7_10  and  O2_11 
REMARK    4  A    between atoms: N2_13  and  C8_14 
REMARK    5  A    between atoms: C8_14  and  N3_15 
REMARK    6  A    between atoms: C13_20  and  O3_21 
ROOT
HETATM    1  C5  UNL     1     -25.899 -10.175  52.820  1.00  0.00     0.105 A 
HETATM    2  C6  UNL     1     -27.204  -9.968  52.426  1.00  0.00     0.093 A 
HETATM    3 BR1  UNL     1     -27.788  -9.202  50.761  1.00  0.00    -0.044 Br
HETATM    4  C7  UNL     1     -27.999 -10.420  53.467  1.00  0.00     0.169 A 
HETATM    5  N2  UNL     1     -27.258 -10.890  54.471  1.00  0.00    -0.270 N 
HETATM    6  C13 UNL     1     -25.963 -10.741  54.074  1.00  0.00     0.178 A 
ENDROOT
BRANCH   1   7
HETATM    7  N1  UNL     1     -24.712  -9.867  52.078  1.00  0.00    -0.360 N 
HETATM    8  C3  UNL     1     -23.495 -10.190  51.369  1.00  0.00     0.171 A 
HETATM    9  C4  UNL     1     -23.936  -8.732  51.517  1.00  0.00     0.157 A 
BRANCH   8  10
HETATM   10  C2  UNL     1     -22.257 -10.495  52.109  1.00  0.00     0.147 C 
HETATM   11  C1  UNL     1     -20.948 -10.231  51.465  1.00  0.00     0.093 C 
HETATM   12  O1  UNL     1     -22.270 -10.956  53.231  1.00  0.00    -0.296 OA
ENDBRANCH   8  10
ENDBRANCH   1   7
BRANCH   6  13
HETATM   13  O3  UNL     1     -24.832 -11.097  54.804  1.00  0.00    -0.344 OA
ATOM     14  H3  UNL     1     -24.857 -11.706  55.534  1.00  0.00     0.219 HD
ENDBRANCH   6  13
BRANCH   4  15
HETATM   15  O2  UNL     1     -29.385 -10.355  53.386  1.00  0.00    -0.345 OA
ATOM     16  H2  UNL     1     -29.909 -11.146  53.340  1.00  0.00     0.219 HD
ENDBRANCH   4  15
BRANCH   5  17
HETATM   17  C8  UNL     1     -27.669 -11.436  55.740  1.00  0.00     0.163 C 
BRANCH  17  18
HETATM   18  N3  UNL     1     -26.997 -10.917  56.880  1.00  0.00    -0.279 NA
HETATM   19  C9  UNL     1     -27.304 -11.739  58.068  1.00  0.00     0.096 C 
HETATM   20  C10 UNL     1     -28.763 -11.441  58.309  1.00  0.00     0.016 C 
HETATM   21  C11 UNL     1     -28.870  -9.987  57.902  1.00  0.00     0.016 C 
HETATM   22  C12 UNL     1     -27.493  -9.643  57.333  1.00  0.00     0.096 C 
ENDBRANCH  17  18
ENDBRANCH   5  17
TORSDOF 6
ENDMDL
