MODEL 1
REMARK VINA RESULT: -8.676361635      0.000      0.000
REMARK  7 active torsions:
REMARK  status: ('A' for Active; 'I' for Inactive)
REMARK       I    between atoms: C1_2  and  N1_3 
REMARK    1  A    between atoms: C1_2  and  C9_15 
REMARK    2  A    between atoms: N1_3  and  C2_5 
REMARK    3  A    between atoms: C2_5  and  S1_6 
REMARK    4  A    between atoms: S1_6  and  C3_9 
REMARK    5  A    between atoms: C11_18  and  N2_19 
REMARK    6  A    between atoms: N2_19  and  N3_21 
REMARK    7  A    between atoms: C12_23  and  C13_24 
ROOT
HETATM    1  C9  UNL     1      21.091 -14.520  -3.055  1.00  0.00     0.109 A 
HETATM    2  C10 UNL     1      21.054 -13.595  -2.045  1.00  0.00     0.088 A 
HETATM    3  S2  UNL     1      19.870 -14.251  -1.003  1.00  0.00    -0.062 SA
HETATM    4  C11 UNL     1      19.497 -15.645  -1.905  1.00  0.00     0.164 A 
HETATM    5  N4  UNL     1      20.294 -15.550  -2.964  1.00  0.00    -0.331 N 
ATOM      6  H4  UNL     1      20.283 -16.266  -3.690  1.00  0.00     0.168 HD
ENDROOT
BRANCH   1   7
HETATM    7  C1  UNL     1      22.017 -14.331  -4.205  1.00  0.00     0.269 C 
HETATM    8  O1  UNL     1      23.094 -13.658  -4.078  1.00  0.00    -0.266 OA
HETATM    9  N1  UNL     1      21.749 -14.882  -5.469  1.00  0.00    -0.342 N 
ATOM     10  H1  UNL     1      20.900 -15.428  -5.619  1.00  0.00     0.163 HD
BRANCH   9  11
HETATM   11  C2  UNL     1      22.670 -14.676  -6.553  1.00  0.00     0.269 C 
BRANCH  11  12
HETATM   12  S1  UNL     1      23.522 -16.187  -6.946  1.00  0.00     0.192 S 
HETATM   13  O2  UNL     1      24.044 -16.853  -5.718  1.00  0.00    -0.221 OA
HETATM   14  O3  UNL     1      22.518 -17.107  -7.570  1.00  0.00    -0.221 OA
BRANCH  12  15
HETATM   15  C3  UNL     1      24.882 -15.876  -7.998  1.00  0.00     0.060 A 
HETATM   16  C4  UNL     1      25.413 -16.922  -8.711  1.00  0.00     0.023 A 
HETATM   17  C5  UNL     1      26.484 -16.712  -9.549  1.00  0.00     0.002 A 
HETATM   18  C6  UNL     1      27.001 -15.453  -9.653  1.00  0.00     0.000 A 
HETATM   19  C7  UNL     1      26.466 -14.408  -8.936  1.00  0.00     0.002 A 
HETATM   20  C8  UNL     1      25.393 -14.613  -8.096  1.00  0.00     0.023 A 
ENDBRANCH  12  15
ENDBRANCH  11  12
ENDBRANCH   9  11
ENDBRANCH   1   7
BRANCH   4  21
HETATM   21  N2  UNL     1      18.627 -16.586  -1.615  1.00  0.00    -0.280 N 
ATOM     22  H2  UNL     1      17.824 -16.748  -2.222  1.00  0.00     0.189 HD
BRANCH  21  23
HETATM   23  N3  UNL     1      18.805 -17.334  -0.511  1.00  0.00    -0.309 N 
HETATM   24  C12 UNL     1      18.044 -17.816   0.330  1.00  0.00     0.118 C 
ATOM     25  H3  UNL     1      19.785 -17.550  -0.331  1.00  0.00     0.186 HD
BRANCH  24  26
HETATM   26  C13 UNL     1      16.634 -17.735   0.418  1.00  0.00    -0.019 A 
HETATM   27  C14 UNL     1      15.791 -18.745   0.075  1.00  0.00     0.013 A 
HETATM   28  C15 UNL     1      14.406 -18.632   0.172  1.00  0.00     0.001 A 
HETATM   29  C16 UNL     1      13.887 -17.452   0.634  1.00  0.00     0.000 A 
HETATM   30  C17 UNL     1      14.688 -16.383   1.001  1.00  0.00     0.001 A 
HETATM   31  C18 UNL     1      16.045 -16.557   0.882  1.00  0.00     0.013 A 
ENDBRANCH  24  26
ENDBRANCH  21  23
ENDBRANCH   4  21
TORSDOF 7
ENDMDL
MODEL 2
REMARK VINA RESULT: -8.612293282      2.371      3.142
REMARK  7 active torsions:
REMARK  status: ('A' for Active; 'I' for Inactive)
REMARK       I    between atoms: C1_2  and  N1_3 
REMARK    1  A    between atoms: C1_2  and  C9_15 
REMARK    2  A    between atoms: N1_3  and  C2_5 
REMARK    3  A    between atoms: C2_5  and  S1_6 
REMARK    4  A    between atoms: S1_6  and  C3_9 
REMARK    5  A    between atoms: C11_18  and  N2_19 
REMARK    6  A    between atoms: N2_19  and  N3_21 
REMARK    7  A    between atoms: C12_23  and  C13_24 
ROOT
HETATM    1  C9  UNL     1      19.788 -16.252  -1.869  1.00  0.00     0.109 A 
HETATM    2  C10 UNL     1      20.411 -16.738  -0.749  1.00  0.00     0.088 A 
HETATM    3  S2  UNL     1      19.587 -18.214  -0.496  1.00  0.00    -0.062 SA
HETATM    4  C11 UNL     1      18.514 -18.123  -1.813  1.00  0.00     0.164 A 
HETATM    5  N4  UNL     1      18.830 -16.970  -2.391  1.00  0.00    -0.331 N 
ATOM      6  H4  UNL     1      18.336 -16.651  -3.224  1.00  0.00     0.168 HD
ENDROOT
BRANCH   1   7
HETATM    7  C1  UNL     1      20.209 -14.947  -2.449  1.00  0.00     0.269 C 
HETATM    8  O1  UNL     1      19.963 -13.849  -1.845  1.00  0.00    -0.266 OA
HETATM    9  N1  UNL     1      20.891 -14.868  -3.674  1.00  0.00    -0.342 N 
ATOM     10  H1  UNL     1      21.110 -15.719  -4.193  1.00  0.00     0.163 HD
BRANCH   9  11
HETATM   11  C2  UNL     1      21.281 -13.588  -4.199  1.00  0.00     0.269 C 
BRANCH  11  12
HETATM   12  S1  UNL     1      22.951 -13.642  -4.808  1.00  0.00     0.192 S 
HETATM   13  O2  UNL     1      23.346 -12.344  -5.428  1.00  0.00    -0.221 OA
HETATM   14  O3  UNL     1      23.842 -13.871  -3.627  1.00  0.00    -0.221 OA
BRANCH  12  15
HETATM   15  C3  UNL     1      23.127 -14.884  -6.024  1.00  0.00     0.060 A 
HETATM   16  C4  UNL     1      23.539 -16.134  -5.631  1.00  0.00     0.023 A 
HETATM   17  C5  UNL     1      23.687 -17.135  -6.562  1.00  0.00     0.002 A 
HETATM   18  C6  UNL     1      23.419 -16.860  -7.873  1.00  0.00     0.000 A 
HETATM   19  C7  UNL     1      23.007 -15.608  -8.262  1.00  0.00     0.002 A 
HETATM   20  C8  UNL     1      22.856 -14.600  -7.332  1.00  0.00     0.023 A 
ENDBRANCH  12  15
ENDBRANCH  11  12
ENDBRANCH   9  11
ENDBRANCH   1   7
BRANCH   4  21
HETATM   21  N2  UNL     1      17.594 -18.993  -2.167  1.00  0.00    -0.280 N 
ATOM     22  H2  UNL     1      17.257 -19.021  -3.129  1.00  0.00     0.189 HD
BRANCH  21  23
HETATM   23  N3  UNL     1      17.102 -19.845  -1.250  1.00  0.00    -0.309 N 
HETATM   24  C12 UNL     1      16.252 -19.753  -0.363  1.00  0.00     0.118 C 
ATOM     25  H3  UNL     1      17.525 -20.772  -1.301  1.00  0.00     0.186 HD
BRANCH  24  26
HETATM   26  C13 UNL     1      15.459 -18.643   0.011  1.00  0.00    -0.019 A 
HETATM   27  C14 UNL     1      15.907 -17.609   0.772  1.00  0.00     0.013 A 
HETATM   28  C15 UNL     1      15.099 -16.530   1.124  1.00  0.00     0.001 A 
HETATM   29  C16 UNL     1      13.804 -16.523   0.677  1.00  0.00     0.000 A 
HETATM   30  C17 UNL     1      13.283 -17.544  -0.101  1.00  0.00     0.001 A 
HETATM   31  C18 UNL     1      14.130 -18.578  -0.413  1.00  0.00     0.013 A 
ENDBRANCH  24  26
ENDBRANCH  21  23
ENDBRANCH   4  21
TORSDOF 7
ENDMDL
MODEL 3
REMARK VINA RESULT: -8.515726010      0.433      1.366
REMARK  7 active torsions:
REMARK  status: ('A' for Active; 'I' for Inactive)
REMARK       I    between atoms: C1_2  and  N1_3 
REMARK    1  A    between atoms: C1_2  and  C9_15 
REMARK    2  A    between atoms: N1_3  and  C2_5 
REMARK    3  A    between atoms: C2_5  and  S1_6 
REMARK    4  A    between atoms: S1_6  and  C3_9 
REMARK    5  A    between atoms: C11_18  and  N2_19 
REMARK    6  A    between atoms: N2_19  and  N3_21 
REMARK    7  A    between atoms: C12_23  and  C13_24 
ROOT
HETATM    1  C9  UNL     1      20.994 -14.634  -3.111  1.00  0.00     0.109 A 
HETATM    2  C10 UNL     1      21.305 -13.951  -1.965  1.00  0.00     0.088 A 
HETATM    3  S2  UNL     1      20.244 -14.660  -0.828  1.00  0.00    -0.062 SA
HETATM    4  C11 UNL     1      19.478 -15.767  -1.867  1.00  0.00     0.164 A 
HETATM    5  N4  UNL     1      20.066 -15.550  -3.038  1.00  0.00    -0.331 N 
ATOM      6  H4  UNL     1      19.798 -16.086  -3.864  1.00  0.00     0.168 HD
ENDROOT
BRANCH   1   7
HETATM    7  C1  UNL     1      21.706 -14.323  -4.381  1.00  0.00     0.269 C 
HETATM    8  O1  UNL     1      21.879 -13.115  -4.757  1.00  0.00    -0.266 OA
HETATM    9  N1  UNL     1      22.214 -15.335  -5.212  1.00  0.00    -0.342 N 
ATOM     10  H1  UNL     1      22.099 -16.315  -4.951  1.00  0.00     0.163 HD
BRANCH   9  11
HETATM   11  C2  UNL     1      22.895 -14.991  -6.429  1.00  0.00     0.269 C 
BRANCH  11  12
HETATM   12  S1  UNL     1      23.584 -16.442  -7.193  1.00  0.00     0.192 S 
HETATM   13  O2  UNL     1      24.016 -17.441  -6.173  1.00  0.00    -0.221 OA
HETATM   14  O3  UNL     1      22.495 -17.068  -8.009  1.00  0.00    -0.221 OA
BRANCH  12  15
HETATM   15  C3  UNL     1      24.983 -16.031  -8.155  1.00  0.00     0.060 A 
HETATM   16  C4  UNL     1      25.453 -14.741  -8.114  1.00  0.00     0.023 A 
HETATM   17  C5  UNL     1      26.552 -14.384  -8.859  1.00  0.00     0.002 A 
HETATM   18  C6  UNL     1      27.159 -15.331  -9.633  1.00  0.00     0.000 A 
HETATM   19  C7  UNL     1      26.686 -16.622  -9.671  1.00  0.00     0.002 A 
HETATM   20  C8  UNL     1      25.584 -16.985  -8.926  1.00  0.00     0.023 A 
ENDBRANCH  12  15
ENDBRANCH  11  12
ENDBRANCH   9  11
ENDBRANCH   1   7
BRANCH   4  21
HETATM   21  N2  UNL     1      18.532 -16.630  -1.572  1.00  0.00    -0.280 N 
ATOM     22  H2  UNL     1      17.704 -16.706  -2.162  1.00  0.00     0.189 HD
BRANCH  21  23
HETATM   23  N3  UNL     1      18.663 -17.412  -0.485  1.00  0.00    -0.309 N 
HETATM   24  C12 UNL     1      17.878 -17.849   0.357  1.00  0.00     0.118 C 
ATOM     25  H3  UNL     1      19.626 -17.707  -0.323  1.00  0.00     0.186 HD
BRANCH  24  26
HETATM   26  C13 UNL     1      16.480 -17.660   0.466  1.00  0.00    -0.019 A 
HETATM   27  C14 UNL     1      15.900 -16.530   0.953  1.00  0.00     0.013 A 
HETATM   28  C15 UNL     1      14.519 -16.376   1.049  1.00  0.00     0.001 A 
HETATM   29  C16 UNL     1      13.726 -17.411   0.631  1.00  0.00     0.000 A 
HETATM   30  C17 UNL     1      14.250 -18.590   0.126  1.00  0.00     0.001 A 
HETATM   31  C18 UNL     1      15.618 -18.680   0.058  1.00  0.00     0.013 A 
ENDBRANCH  24  26
ENDBRANCH  21  23
ENDBRANCH   4  21
TORSDOF 7
ENDMDL
MODEL 4
REMARK VINA RESULT: -8.482510821      1.845      2.633
REMARK  7 active torsions:
REMARK  status: ('A' for Active; 'I' for Inactive)
REMARK       I    between atoms: C1_2  and  N1_3 
REMARK    1  A    between atoms: C1_2  and  C9_15 
REMARK    2  A    between atoms: N1_3  and  C2_5 
REMARK    3  A    between atoms: C2_5  and  S1_6 
REMARK    4  A    between atoms: S1_6  and  C3_9 
REMARK    5  A    between atoms: C11_18  and  N2_19 
REMARK    6  A    between atoms: N2_19  and  N3_21 
REMARK    7  A    between atoms: C12_23  and  C13_24 
ROOT
HETATM    1  C9  UNL     1      21.774 -13.794  -3.470  1.00  0.00     0.109 A 
HETATM    2  C10 UNL     1      21.486 -12.897  -2.476  1.00  0.00     0.088 A 
HETATM    3  S2  UNL     1      20.323 -13.746  -1.556  1.00  0.00    -0.062 SA
HETATM    4  C11 UNL     1      20.274 -15.172  -2.481  1.00  0.00     0.164 A 
HETATM    5  N4  UNL     1      21.149 -14.940  -3.454  1.00  0.00    -0.331 N 
ATOM      6  H4  UNL     1      21.328 -15.642  -4.172  1.00  0.00     0.168 HD
ENDROOT
BRANCH   1   7
HETATM    7  C1  UNL     1      22.771 -13.448  -4.521  1.00  0.00     0.269 C 
HETATM    8  O1  UNL     1      22.762 -12.301  -5.081  1.00  0.00    -0.266 OA
HETATM    9  N1  UNL     1      23.755 -14.359  -4.936  1.00  0.00    -0.342 N 
ATOM     10  H1  UNL     1      23.801 -15.288  -4.516  1.00  0.00     0.163 HD
BRANCH   9  11
HETATM   11  C2  UNL     1      24.698 -13.984  -5.953  1.00  0.00     0.269 C 
BRANCH  11  12
HETATM   12  S1  UNL     1      24.281 -14.746  -7.506  1.00  0.00     0.192 S 
HETATM   13  O2  UNL     1      22.886 -14.413  -7.918  1.00  0.00    -0.221 OA
HETATM   14  O3  UNL     1      25.207 -14.177  -8.536  1.00  0.00    -0.221 OA
BRANCH  12  15
HETATM   15  C3  UNL     1      24.400 -16.485  -7.395  1.00  0.00     0.060 A 
HETATM   16  C4  UNL     1      25.644 -17.064  -7.442  1.00  0.00     0.023 A 
HETATM   17  C5  UNL     1      25.773 -18.430  -7.357  1.00  0.00     0.002 A 
HETATM   18  C6  UNL     1      24.647 -19.190  -7.226  1.00  0.00     0.000 A 
HETATM   19  C7  UNL     1      23.402 -18.608  -7.179  1.00  0.00     0.002 A 
HETATM   20  C8  UNL     1      23.267 -17.238  -7.263  1.00  0.00     0.023 A 
ENDBRANCH  12  15
ENDBRANCH  11  12
ENDBRANCH   9  11
ENDBRANCH   1   7
BRANCH   4  21
HETATM   21  N2  UNL     1      19.542 -16.244  -2.276  1.00  0.00    -0.280 N 
ATOM     22  H2  UNL     1      18.594 -16.299  -2.648  1.00  0.00     0.189 HD
BRANCH  21  23
HETATM   23  N3  UNL     1      20.052 -17.269  -1.569  1.00  0.00    -0.309 N 
HETATM   24  C12 UNL     1      19.562 -18.153  -0.865  1.00  0.00     0.118 C 
ATOM     25  H3  UNL     1      21.068 -17.326  -1.630  1.00  0.00     0.186 HD
BRANCH  24  26
HETATM   26  C13 UNL     1      18.206 -18.399  -0.545  1.00  0.00    -0.019 A 
HETATM   27  C14 UNL     1      17.492 -17.672   0.355  1.00  0.00     0.013 A 
HETATM   28  C15 UNL     1      16.157 -17.941   0.649  1.00  0.00     0.001 A 
HETATM   29  C16 UNL     1      15.553 -18.984  -0.003  1.00  0.00     0.000 A 
HETATM   30  C17 UNL     1      16.222 -19.766  -0.930  1.00  0.00     0.001 A 
HETATM   31  C18 UNL     1      17.535 -19.449  -1.175  1.00  0.00     0.013 A 
ENDBRANCH  24  26
ENDBRANCH  21  23
ENDBRANCH   4  21
TORSDOF 7
ENDMDL
MODEL 5
REMARK VINA RESULT: -8.425308431      1.712      2.284
REMARK  7 active torsions:
REMARK  status: ('A' for Active; 'I' for Inactive)
REMARK       I    between atoms: C1_2  and  N1_3 
REMARK    1  A    between atoms: C1_2  and  C9_15 
REMARK    2  A    between atoms: N1_3  and  C2_5 
REMARK    3  A    between atoms: C2_5  and  S1_6 
REMARK    4  A    between atoms: S1_6  and  C3_9 
REMARK    5  A    between atoms: C11_18  and  N2_19 
REMARK    6  A    between atoms: N2_19  and  N3_21 
REMARK    7  A    between atoms: C12_23  and  C13_24 
ROOT
HETATM    1  C9  UNL     1      20.807 -14.590  -2.769  1.00  0.00     0.109 A 
HETATM    2  C10 UNL     1      20.922 -13.938  -1.569  1.00  0.00     0.088 A 
HETATM    3  S2  UNL     1      19.865 -14.838  -0.572  1.00  0.00    -0.062 SA
HETATM    4  C11 UNL     1      19.348 -15.973  -1.728  1.00  0.00     0.164 A 
HETATM    5  N4  UNL     1      20.005 -15.618  -2.827  1.00  0.00    -0.331 N 
ATOM      6  H4  UNL     1      19.885 -16.136  -3.697  1.00  0.00     0.168 HD
ENDROOT
BRANCH   1   7
HETATM    7  C1  UNL     1      21.583 -14.120  -3.949  1.00  0.00     0.269 C 
HETATM    8  O1  UNL     1      21.904 -12.891  -4.077  1.00  0.00    -0.266 OA
HETATM    9  N1  UNL     1      21.993 -15.000  -4.964  1.00  0.00    -0.342 N 
ATOM     10  H1  UNL     1      21.760 -15.992  -4.904  1.00  0.00     0.163 HD
BRANCH   9  11
HETATM   11  C2  UNL     1      22.741 -14.506  -6.087  1.00  0.00     0.269 C 
BRANCH  11  12
HETATM   12  S1  UNL     1      24.442 -15.014  -5.979  1.00  0.00     0.192 S 
HETATM   13  O2  UNL     1      25.325 -14.137  -6.802  1.00  0.00    -0.221 OA
HETATM   14  O3  UNL     1      24.856 -14.860  -4.548  1.00  0.00    -0.221 OA
BRANCH  12  15
HETATM   15  C3  UNL     1      24.638 -16.651  -6.555  1.00  0.00     0.060 A 
HETATM   16  C4  UNL     1      25.909 -17.134  -6.744  1.00  0.00     0.023 A 
HETATM   17  C5  UNL     1      26.099 -18.419  -7.196  1.00  0.00     0.002 A 
HETATM   18  C6  UNL     1      25.005 -19.195  -7.451  1.00  0.00     0.000 A 
HETATM   19  C7  UNL     1      23.733 -18.708  -7.261  1.00  0.00     0.002 A 
HETATM   20  C8  UNL     1      23.538 -17.421  -6.808  1.00  0.00     0.023 A 
ENDBRANCH  12  15
ENDBRANCH  11  12
ENDBRANCH   9  11
ENDBRANCH   1   7
BRANCH   4  21
HETATM   21  N2  UNL     1      18.500 -16.964  -1.564  1.00  0.00    -0.280 N 
ATOM     22  H2  UNL     1      17.797 -17.162  -2.276  1.00  0.00     0.189 HD
BRANCH  21  23
HETATM   23  N3  UNL     1      18.567 -17.715  -0.450  1.00  0.00    -0.309 N 
HETATM   24  C12 UNL     1      17.745 -18.064   0.400  1.00  0.00     0.118 C 
ATOM     25  H3  UNL     1      19.504 -18.075  -0.269  1.00  0.00     0.186 HD
BRANCH  24  26
HETATM   26  C13 UNL     1      16.365 -17.769   0.489  1.00  0.00    -0.019 A 
HETATM   27  C14 UNL     1      15.865 -16.607   0.989  1.00  0.00     0.013 A 
HETATM   28  C15 UNL     1      14.499 -16.348   1.065  1.00  0.00     0.001 A 
HETATM   29  C16 UNL     1      13.635 -17.311   0.614  1.00  0.00     0.000 A 
HETATM   30  C17 UNL     1      14.076 -18.517   0.095  1.00  0.00     0.001 A 
HETATM   31  C18 UNL     1      15.434 -18.712   0.047  1.00  0.00     0.013 A 
ENDBRANCH  24  26
ENDBRANCH  21  23
ENDBRANCH   4  21
TORSDOF 7
ENDMDL
