MODEL 1
REMARK VINA RESULT: -5.020939196      0.000      0.000
REMARK  1 active torsions:
REMARK  status: ('A' for Active; 'I' for Inactive)
REMARK    1  A    between atoms: C2_2  and  C3_3 
ROOT
HETATM    1  C3  UNL     1      -0.282  71.088  22.696  1.00  0.00     0.171 C 
HETATM    2  N1  UNL     1      -1.313  71.717  23.433  1.00  0.00    -0.402 N 
ATOM      3  H1  UNL     1      -2.158  72.067  22.983  1.00  0.00     0.155 HD
HETATM    4  C4  UNL     1      -1.104  71.834  24.842  1.00  0.00     0.117 C 
HETATM    5  C5  UNL     1       0.259  72.408  25.135  1.00  0.00     0.043 C 
HETATM    6  C6  UNL     1       1.327  71.636  24.424  1.00  0.00     0.076 C 
HETATM    7  C7  UNL     1       1.737  70.464  25.320  1.00  0.00     0.032 C 
HETATM    8  N2  UNL     1       1.042  71.263  23.102  1.00  0.00    -0.398 N 
ATOM      9  H2  UNL     1       1.802  71.119  22.438  1.00  0.00     0.155 HD
ENDROOT
BRANCH   1  10
HETATM   10  C2  UNL     1      -0.393  71.620  21.260  1.00  0.00     0.041 C 
HETATM   11  C1  UNL     1      -0.461  70.488  20.270  1.00  0.00     0.009 C 
ENDBRANCH   1  10
TORSDOF 1
ENDMDL
MODEL 2
REMARK VINA RESULT: -4.983992922      0.906      1.153
REMARK  1 active torsions:
REMARK  status: ('A' for Active; 'I' for Inactive)
REMARK    1  A    between atoms: C2_2  and  C3_3 
ROOT
HETATM    1  C3  UNL     1      -0.090  71.215  22.594  1.00  0.00     0.171 C 
HETATM    2  N1  UNL     1      -0.295  72.335  23.432  1.00  0.00    -0.402 N 
ATOM      3  H1  UNL     1      -0.957  73.072  23.192  1.00  0.00     0.155 HD
HETATM    4  C4  UNL     1       0.476  72.376  24.635  1.00  0.00     0.117 C 
HETATM    5  C5  UNL     1       1.933  72.122  24.345  1.00  0.00     0.043 C 
HETATM    6  C6  UNL     1       2.108  70.862  23.555  1.00  0.00     0.076 C 
HETATM    7  C7  UNL     1       2.202  69.696  24.541  1.00  0.00     0.032 C 
HETATM    8  N2  UNL     1       1.185  70.652  22.518  1.00  0.00    -0.398 N 
ATOM      9  H2  UNL     1       1.447  70.088  21.710  1.00  0.00     0.155 HD
ENDROOT
BRANCH   1  10
HETATM   10  C2  UNL     1      -0.477  71.660  21.177  1.00  0.00     0.041 C 
HETATM   11  C1  UNL     1      -0.413  70.506  20.212  1.00  0.00     0.009 C 
ENDBRANCH   1  10
TORSDOF 1
ENDMDL
MODEL 3
REMARK VINA RESULT: -4.853608024      1.615      2.990
REMARK  1 active torsions:
REMARK  status: ('A' for Active; 'I' for Inactive)
REMARK    1  A    between atoms: C2_2  and  C3_3 
ROOT
HETATM    1  C3  UNL     1       1.077  70.340  23.405  1.00  0.00     0.171 C 
HETATM    2  N1  UNL     1       0.477  70.973  22.292  1.00  0.00    -0.402 N 
ATOM      3  H1  UNL     1       1.018  71.243  21.471  1.00  0.00     0.155 HD
HETATM    4  C4  UNL     1      -0.930  71.213  22.381  1.00  0.00     0.117 C 
HETATM    5  C5  UNL     1      -1.277  71.876  23.689  1.00  0.00     0.043 C 
HETATM    6  C6  UNL     1      -0.718  71.104  24.844  1.00  0.00     0.076 C 
HETATM    7  C7  UNL     1      -1.738  70.029  25.231  1.00  0.00     0.032 C 
HETATM    8  N2  UNL     1       0.586  70.612  24.683  1.00  0.00    -0.398 N 
ATOM      9  H2  UNL     1       1.176  70.454  25.500  1.00  0.00     0.155 HD
ENDROOT
BRANCH   1  10
HETATM   10  C2  UNL     1       2.557  70.748  23.387  1.00  0.00     0.041 C 
HETATM   11  C1  UNL     1       2.757  72.079  24.061  1.00  0.00     0.009 C 
ENDBRANCH   1  10
TORSDOF 1
ENDMDL
MODEL 4
REMARK VINA RESULT: -4.647975479      1.060      2.112
REMARK  1 active torsions:
REMARK  status: ('A' for Active; 'I' for Inactive)
REMARK    1  A    between atoms: C2_2  and  C3_3 
ROOT
HETATM    1  C3  UNL     1       0.094  71.587  22.139  1.00  0.00     0.171 C 
HETATM    2  N1  UNL     1       1.145  70.649  22.015  1.00  0.00    -0.402 N 
ATOM      3  H1  UNL     1       1.320  70.151  21.143  1.00  0.00     0.155 HD
HETATM    4  C4  UNL     1       1.946  70.437  23.180  1.00  0.00     0.117 C 
HETATM    5  C5  UNL     1       1.079  70.189  24.387  1.00  0.00     0.043 C 
HETATM    6  C6  UNL     1       0.058  71.273  24.543  1.00  0.00     0.076 C 
HETATM    7  C7  UNL     1       0.692  72.406  25.352  1.00  0.00     0.032 C 
HETATM    8  N2  UNL     1      -0.568  71.703  23.362  1.00  0.00    -0.398 N 
ATOM      9  H2  UNL     1      -1.507  72.100  23.399  1.00  0.00     0.155 HD
ENDROOT
BRANCH   1  10
HETATM   10  C2  UNL     1      -0.955  71.202  21.086  1.00  0.00     0.041 C 
HETATM   11  C1  UNL     1      -0.352  70.326  20.020  1.00  0.00     0.009 C 
ENDBRANCH   1  10
TORSDOF 1
ENDMDL
MODEL 5
REMARK VINA RESULT: -4.610862607      1.103      3.409
REMARK  1 active torsions:
REMARK  status: ('A' for Active; 'I' for Inactive)
REMARK    1  A    between atoms: C2_2  and  C3_3 
ROOT
HETATM    1  C3  UNL     1       1.251  71.941  23.877  1.00  0.00     0.171 C 
HETATM    2  N1  UNL     1       0.193  72.418  24.685  1.00  0.00    -0.402 N 
ATOM      3  H1  UNL     1       0.336  72.677  25.661  1.00  0.00     0.155 HD
HETATM    4  C4  UNL     1      -1.089  72.518  24.059  1.00  0.00     0.117 C 
HETATM    5  C5  UNL     1      -1.433  71.239  23.340  1.00  0.00     0.043 C 
HETATM    6  C6  UNL     1      -0.330  70.837  22.408  1.00  0.00     0.076 C 
HETATM    7  C7  UNL     1      -0.566  71.539  21.068  1.00  0.00     0.032 C 
HETATM    8  N2  UNL     1       0.976  70.983  22.900  1.00  0.00    -0.398 N 
ATOM      9  H2  UNL     1       1.724  70.389  22.544  1.00  0.00     0.155 HD
ENDROOT
BRANCH   1  10
HETATM   10  C2  UNL     1       2.284  71.332  24.836  1.00  0.00     0.041 C 
HETATM   11  C1  UNL     1       1.626  70.399  25.817  1.00  0.00     0.009 C 
ENDBRANCH   1  10
TORSDOF 1
ENDMDL
