MODEL 1
REMARK VINA RESULT: -7.361013924      0.000      0.000
REMARK  8 active torsions:
REMARK  status: ('A' for Active; 'I' for Inactive)
REMARK    1  A    between atoms: C5_6  and  C6_7 
REMARK    2  A    between atoms: C5_6  and  C13_15 
REMARK    3  A    between atoms: C6_7  and  C7_8 
REMARK    4  A    between atoms: C7_8  and  C8_9 
REMARK    5  A    between atoms: C8_9  and  C9_10 
REMARK    6  A    between atoms: C9_10  and  C10_12 
REMARK    7  A    between atoms: C14_18  and  O3_19 
REMARK    8  A    between atoms: C15_21  and  O4_22 
ROOT
HETATM    1  C1  UNL     1      -9.428  86.259  22.820  1.00  0.00     0.019 C 
HETATM    2  C2  UNL     1     -10.141  85.413  22.117  1.00  0.00    -0.062 C 
HETATM    3  C3  UNL     1     -11.296  86.026  21.448  1.00  0.00     0.023 C 
HETATM    4  C4  UNL     1     -11.780  85.814  20.222  1.00  0.00     0.011 C 
HETATM    5 BR1  UNL     1     -13.319  86.855  19.816  1.00  0.00    -0.054 Br
HETATM    6  C5  UNL     1     -11.254  84.870  19.227  1.00  0.00     0.116 C 
HETATM    7  C14 UNL     1     -10.939  83.519  19.911  1.00  0.00     0.112 C 
HETATM    8  C15 UNL     1     -11.460  82.373  19.158  1.00  0.00     0.163 C 
HETATM    9  C16 UNL     1     -10.587  81.634  18.198  1.00  0.00     0.145 C 
HETATM   10  C17 UNL     1      -9.755  80.753  19.045  1.00  0.00     0.261 C 
HETATM   11  O5  UNL     1      -9.746  79.556  18.754  1.00  0.00    -0.265 OA
HETATM   12  O6  UNL     1      -9.004  81.167  20.115  1.00  0.00    -0.321 OA
HETATM   13  C18 UNL     1      -8.610  82.495  20.363  1.00  0.00     0.187 C 
HETATM   14  C19 UNL     1      -9.640  83.519  20.591  1.00  0.00     0.057 C 
HETATM   15  C20 UNL     1      -9.765  83.961  22.063  1.00  0.00     0.023 C 
HETATM   16  C21 UNL     1      -8.514  83.713  22.853  1.00  0.00     0.015 C 
ENDROOT
BRANCH   6  17
HETATM   17  C6  UNL     1     -12.011  84.769  17.968  1.00  0.00     0.029 C 
BRANCH  17  18
HETATM   18  C7  UNL     1     -11.310  85.426  16.819  1.00  0.00     0.003 C 
BRANCH  18  19
HETATM   19  C8  UNL     1     -11.614  84.632  15.524  1.00  0.00     0.020 C 
BRANCH  19  20
HETATM   20  C9  UNL     1     -12.767  83.699  15.776  1.00  0.00     0.085 C 
HETATM   21 CL1  UNL     1     -14.310  84.401  15.299  1.00  0.00    -0.125 Cl
BRANCH  20  22
HETATM   22  C10 UNL     1     -12.502  82.443  14.957  1.00  0.00    -0.004 C 
HETATM   23  C11 UNL     1     -11.467  82.705  13.883  1.00  0.00     0.011 C 
HETATM   24  C12 UNL     1     -13.767  81.969  14.282  1.00  0.00     0.011 C 
ENDBRANCH  20  22
ENDBRANCH  19  20
ENDBRANCH  18  19
ENDBRANCH  17  18
ENDBRANCH   6  17
BRANCH   6  25
HETATM   25  C13 UNL     1      -9.966  85.537  18.774  1.00  0.00     0.190 C 
HETATM   26  O1  UNL     1      -9.073  84.930  18.139  1.00  0.00    -0.647 OA
HETATM   27  O2  UNL     1      -9.685  86.871  19.032  1.00  0.00    -0.647 OA
ENDBRANCH   6  25
BRANCH   7  28
HETATM   28  O3  UNL     1     -11.903  83.542  20.983  1.00  0.00    -0.385 OA
ATOM     29  H3  UNL     1     -12.639  83.116  20.559  1.00  0.00     0.210 HD
ENDBRANCH   7  28
BRANCH   8  30
HETATM   30  O4  UNL     1     -11.971  81.322  19.977  1.00  0.00    -0.392 OA
ATOM     31  H4  UNL     1     -12.446  81.623  20.742  1.00  0.00     0.210 HD
ENDBRANCH   8  30
TORSDOF 8
ENDMDL
MODEL 2
REMARK VINA RESULT: -7.173917494      1.353      1.768
REMARK  8 active torsions:
REMARK  status: ('A' for Active; 'I' for Inactive)
REMARK    1  A    between atoms: C5_6  and  C6_7 
REMARK    2  A    between atoms: C5_6  and  C13_15 
REMARK    3  A    between atoms: C6_7  and  C7_8 
REMARK    4  A    between atoms: C7_8  and  C8_9 
REMARK    5  A    between atoms: C8_9  and  C9_10 
REMARK    6  A    between atoms: C9_10  and  C10_12 
REMARK    7  A    between atoms: C14_18  and  O3_19 
REMARK    8  A    between atoms: C15_21  and  O4_22 
ROOT
HETATM    1  C1  UNL     1      -9.162  86.202  22.815  1.00  0.00     0.019 C 
HETATM    2  C2  UNL     1      -9.923  85.356  22.165  1.00  0.00    -0.062 C 
HETATM    3  C3  UNL     1     -11.174  85.945  21.671  1.00  0.00     0.023 C 
HETATM    4  C4  UNL     1     -11.798  85.762  20.505  1.00  0.00     0.011 C 
HETATM    5 BR1  UNL     1     -13.413  86.751  20.337  1.00  0.00    -0.054 Br
HETATM    6  C5  UNL     1     -11.363  84.884  19.410  1.00  0.00     0.116 C 
HETATM    7  C14 UNL     1     -10.915  83.521  19.988  1.00  0.00     0.112 C 
HETATM    8  C15 UNL     1     -11.480  82.385  19.252  1.00  0.00     0.163 C 
HETATM    9  C16 UNL     1     -10.704  81.725  18.160  1.00  0.00     0.145 C 
HETATM   10  C17 UNL     1      -9.742  80.847  18.858  1.00  0.00     0.261 C 
HETATM   11  O5  UNL     1      -9.723  79.664  18.513  1.00  0.00    -0.265 OA
HETATM   12  O6  UNL     1      -8.881  81.248  19.846  1.00  0.00    -0.321 OA
HETATM   13  C18 UNL     1      -8.510  82.582  20.106  1.00  0.00     0.187 C 
HETATM   14  C19 UNL     1      -9.542  83.549  20.504  1.00  0.00     0.057 C 
HETATM   15  C20 UNL     1      -9.502  83.925  21.999  1.00  0.00     0.023 C 
HETATM   16  C21 UNL     1      -8.155  83.698  22.619  1.00  0.00     0.015 C 
ENDROOT
BRANCH   6  17
HETATM   17  C6  UNL     1     -12.265  84.802  18.249  1.00  0.00     0.029 C 
BRANCH  17  18
HETATM   18  C7  UNL     1     -12.114  85.965  17.318  1.00  0.00     0.003 C 
BRANCH  18  19
HETATM   19  C8  UNL     1     -13.521  86.472  16.915  1.00  0.00     0.020 C 
BRANCH  19  20
HETATM   20  C9  UNL     1     -14.488  85.320  16.944  1.00  0.00     0.085 C 
HETATM   21 CL1  UNL     1     -15.866  85.632  17.995  1.00  0.00    -0.125 Cl
BRANCH  20  22
HETATM   22  C10 UNL     1     -14.971  85.116  15.515  1.00  0.00    -0.004 C 
HETATM   23  C11 UNL     1     -16.483  85.040  15.460  1.00  0.00     0.011 C 
HETATM   24  C12 UNL     1     -14.418  83.832  14.943  1.00  0.00     0.011 C 
ENDBRANCH  20  22
ENDBRANCH  19  20
ENDBRANCH  18  19
ENDBRANCH  17  18
ENDBRANCH   6  17
BRANCH   6  25
HETATM   25  C13 UNL     1     -10.167  85.624  18.836  1.00  0.00     0.190 C 
HETATM   26  O1  UNL     1      -9.870  86.796  19.165  1.00  0.00    -0.647 OA
HETATM   27  O2  UNL     1      -9.313  85.054  17.902  1.00  0.00    -0.647 OA
ENDBRANCH   6  25
BRANCH   7  28
HETATM   28  O3  UNL     1     -11.739  83.457  21.169  1.00  0.00    -0.385 OA
ATOM     29  H3  UNL     1     -12.510  83.919  20.862  1.00  0.00     0.210 HD
ENDBRANCH   7  28
BRANCH   8  30
HETATM   30  O4  UNL     1     -11.846  81.280  20.077  1.00  0.00    -0.392 OA
ATOM     31  H4  UNL     1     -11.120  80.713  20.310  1.00  0.00     0.210 HD
ENDBRANCH   8  30
TORSDOF 8
ENDMDL
MODEL 3
REMARK VINA RESULT: -7.061470091      3.704      5.694
REMARK  8 active torsions:
REMARK  status: ('A' for Active; 'I' for Inactive)
REMARK    1  A    between atoms: C5_6  and  C6_7 
REMARK    2  A    between atoms: C5_6  and  C13_15 
REMARK    3  A    between atoms: C6_7  and  C7_8 
REMARK    4  A    between atoms: C7_8  and  C8_9 
REMARK    5  A    between atoms: C8_9  and  C9_10 
REMARK    6  A    between atoms: C9_10  and  C10_12 
REMARK    7  A    between atoms: C14_18  and  O3_19 
REMARK    8  A    between atoms: C15_21  and  O4_22 
ROOT
HETATM    1  C1  UNL     1     -12.507  82.528  20.653  1.00  0.00     0.019 C 
HETATM    2  C2  UNL     1     -12.444  83.761  20.213  1.00  0.00    -0.062 C 
HETATM    3  C3  UNL     1     -11.111  84.151  19.735  1.00  0.00     0.023 C 
HETATM    4  C4  UNL     1     -10.769  84.877  18.668  1.00  0.00     0.011 C 
HETATM    5 BR1  UNL     1      -8.893  85.119  18.476  1.00  0.00    -0.054 Br
HETATM    6  C5  UNL     1     -11.687  85.488  17.697  1.00  0.00     0.116 C 
HETATM    7  C14 UNL     1     -12.855  86.171  18.447  1.00  0.00     0.112 C 
HETATM    8  C15 UNL     1     -13.126  87.524  17.952  1.00  0.00     0.163 C 
HETATM    9  C16 UNL     1     -14.180  87.760  16.921  1.00  0.00     0.145 C 
HETATM   10  C17 UNL     1     -15.454  87.733  17.670  1.00  0.00     0.261 C 
HETATM   11  O5  UNL     1     -16.203  88.700  17.520  1.00  0.00    -0.265 OA
HETATM   12  O6  UNL     1     -15.856  86.725  18.508  1.00  0.00    -0.321 OA
HETATM   13  C18 UNL     1     -15.327  85.420  18.518  1.00  0.00     0.187 C 
HETATM   14  C19 UNL     1     -13.905  85.226  18.839  1.00  0.00     0.057 C 
HETATM   15  C20 UNL     1     -13.657  84.645  20.246  1.00  0.00     0.023 C 
HETATM   16  C21 UNL     1     -14.839  83.894  20.782  1.00  0.00     0.015 C 
ENDROOT
BRANCH   6  17
HETATM   17  C6  UNL     1     -11.064  86.304  16.642  1.00  0.00     0.029 C 
BRANCH  17  18
HETATM   18  C7  UNL     1     -10.551  85.480  15.502  1.00  0.00     0.003 C 
BRANCH  18  19
HETATM   19  C8  UNL     1      -9.761  86.396  14.534  1.00  0.00     0.020 C 
BRANCH  19  20
HETATM   20  C9  UNL     1      -8.329  85.939  14.480  1.00  0.00     0.085 C 
HETATM   21 CL1  UNL     1      -8.165  84.217  14.806  1.00  0.00    -0.125 Cl
BRANCH  20  22
HETATM   22  C10 UNL     1      -7.823  86.244  13.077  1.00  0.00    -0.004 C 
HETATM   23  C11 UNL     1      -6.496  86.973  13.126  1.00  0.00     0.011 C 
HETATM   24  C12 UNL     1      -8.807  87.116  12.333  1.00  0.00     0.011 C 
ENDBRANCH  20  22
ENDBRANCH  19  20
ENDBRANCH  18  19
ENDBRANCH  17  18
ENDBRANCH   6  17
BRANCH   6  25
HETATM   25  C13 UNL     1     -12.201  84.291  16.915  1.00  0.00     0.190 C 
HETATM   26  O1  UNL     1     -11.722  83.140  17.042  1.00  0.00    -0.647 OA
HETATM   27  O2  UNL     1     -13.241  84.385  16.002  1.00  0.00    -0.647 OA
ENDBRANCH   6  25
BRANCH   7  28
HETATM   28  O3  UNL     1     -12.201  86.510  19.687  1.00  0.00    -0.385 OA
ATOM     29  H3  UNL     1     -12.845  87.098  20.063  1.00  0.00     0.210 HD
ENDBRANCH   7  28
BRANCH   8  30
HETATM   30  O4  UNL     1     -13.484  88.457  18.972  1.00  0.00    -0.392 OA
ATOM     31  H4  UNL     1     -12.975  89.259  18.959  1.00  0.00     0.210 HD
ENDBRANCH   8  30
TORSDOF 8
ENDMDL
MODEL 4
REMARK VINA RESULT: -7.048330080      1.461      2.060
REMARK  8 active torsions:
REMARK  status: ('A' for Active; 'I' for Inactive)
REMARK    1  A    between atoms: C5_6  and  C6_7 
REMARK    2  A    between atoms: C5_6  and  C13_15 
REMARK    3  A    between atoms: C6_7  and  C7_8 
REMARK    4  A    between atoms: C7_8  and  C8_9 
REMARK    5  A    between atoms: C8_9  and  C9_10 
REMARK    6  A    between atoms: C9_10  and  C10_12 
REMARK    7  A    between atoms: C14_18  and  O3_19 
REMARK    8  A    between atoms: C15_21  and  O4_22 
ROOT
HETATM    1  C1  UNL     1      -9.393  86.207  22.882  1.00  0.00     0.019 C 
HETATM    2  C2  UNL     1     -10.096  85.372  22.156  1.00  0.00    -0.062 C 
HETATM    3  C3  UNL     1     -11.197  86.008  21.423  1.00  0.00     0.023 C 
HETATM    4  C4  UNL     1     -11.627  85.792  20.177  1.00  0.00     0.011 C 
HETATM    5 BR1  UNL     1     -13.111  86.871  19.681  1.00  0.00    -0.054 Br
HETATM    6  C5  UNL     1     -11.080  84.819  19.221  1.00  0.00     0.116 C 
HETATM    7  C14 UNL     1     -10.839  83.469  19.938  1.00  0.00     0.112 C 
HETATM    8  C15 UNL     1     -11.356  82.328  19.175  1.00  0.00     0.163 C 
HETATM    9  C16 UNL     1     -10.458  81.550  18.270  1.00  0.00     0.145 C 
HETATM   10  C17 UNL     1      -9.696  80.658  19.169  1.00  0.00     0.261 C 
HETATM   11  O5  UNL     1      -9.709  79.456  18.894  1.00  0.00    -0.265 OA
HETATM   12  O6  UNL     1      -8.987  81.065  20.269  1.00  0.00    -0.321 OA
HETATM   13  C18 UNL     1      -8.566  82.385  20.519  1.00  0.00     0.187 C 
HETATM   14  C19 UNL     1      -9.576  83.441  20.682  1.00  0.00     0.057 C 
HETATM   15  C20 UNL     1      -9.761  83.909  22.140  1.00  0.00     0.023 C 
HETATM   16  C21 UNL     1      -8.559  83.636  22.995  1.00  0.00     0.015 C 
ENDROOT
BRANCH   6  17
HETATM   17  C6  UNL     1     -11.776  84.721  17.927  1.00  0.00     0.029 C 
BRANCH  17  18
HETATM   18  C7  UNL     1     -11.181  85.614  16.883  1.00  0.00     0.003 C 
BRANCH  18  19
HETATM   19  C8  UNL     1     -11.362  84.953  15.494  1.00  0.00     0.020 C 
BRANCH  19  20
HETATM   20  C9  UNL     1     -10.010  84.623  14.924  1.00  0.00     0.085 C 
HETATM   21 CL1  UNL     1     -10.123  83.749  13.400  1.00  0.00    -0.125 Cl
BRANCH  20  22
HETATM   22  C10 UNL     1      -9.290  85.946  14.703  1.00  0.00    -0.004 C 
HETATM   23  C11 UNL     1      -9.482  86.435  13.282  1.00  0.00     0.011 C 
HETATM   24  C12 UNL     1      -7.807  85.795  14.949  1.00  0.00     0.011 C 
ENDBRANCH  20  22
ENDBRANCH  19  20
ENDBRANCH  18  19
ENDBRANCH  17  18
ENDBRANCH   6  17
BRANCH   6  25
HETATM   25  C13 UNL     1      -9.752  85.441  18.825  1.00  0.00     0.190 C 
HETATM   26  O1  UNL     1      -8.845  84.798  18.249  1.00  0.00    -0.647 OA
HETATM   27  O2  UNL     1      -9.447  86.772  19.072  1.00  0.00    -0.647 OA
ENDBRANCH   6  25
BRANCH   7  28
HETATM   28  O3  UNL     1     -11.854  83.536  20.960  1.00  0.00    -0.385 OA
ATOM     29  H3  UNL     1     -12.419  82.824  20.684  1.00  0.00     0.210 HD
ENDBRANCH   7  28
BRANCH   8  30
HETATM   30  O4  UNL     1     -11.938  81.304  19.981  1.00  0.00    -0.392 OA
ATOM     31  H4  UNL     1     -12.552  80.747  19.517  1.00  0.00     0.210 HD
ENDBRANCH   8  30
TORSDOF 8
ENDMDL
MODEL 5
REMARK VINA RESULT: -7.019908966      2.822      4.386
REMARK  8 active torsions:
REMARK  status: ('A' for Active; 'I' for Inactive)
REMARK    1  A    between atoms: C5_6  and  C6_7 
REMARK    2  A    between atoms: C5_6  and  C13_15 
REMARK    3  A    between atoms: C6_7  and  C7_8 
REMARK    4  A    between atoms: C7_8  and  C8_9 
REMARK    5  A    between atoms: C8_9  and  C9_10 
REMARK    6  A    between atoms: C9_10  and  C10_12 
REMARK    7  A    between atoms: C14_18  and  O3_19 
REMARK    8  A    between atoms: C15_21  and  O4_22 
ROOT
HETATM    1  C1  UNL     1      -9.594  82.291  21.555  1.00  0.00     0.019 C 
HETATM    2  C2  UNL     1     -10.349  82.625  20.537  1.00  0.00    -0.062 C 
HETATM    3  C3  UNL     1     -11.781  82.680  20.855  1.00  0.00     0.023 C 
HETATM    4  C4  UNL     1     -12.706  83.562  20.468  1.00  0.00     0.011 C 
HETATM    5 BR1  UNL     1     -14.445  83.195  21.144  1.00  0.00    -0.054 Br
HETATM    6  C5  UNL     1     -12.494  84.719  19.588  1.00  0.00     0.116 C 
HETATM    7  C14 UNL     1     -11.628  84.297  18.378  1.00  0.00     0.112 C 
HETATM    8  C15 UNL     1     -12.173  84.773  17.103  1.00  0.00     0.163 C 
HETATM    9  C16 UNL     1     -11.687  86.048  16.496  1.00  0.00     0.145 C 
HETATM   10  C17 UNL     1     -10.399  85.697  15.861  1.00  0.00     0.261 C 
HETATM   11  O5  UNL     1     -10.268  86.002  14.674  1.00  0.00    -0.265 OA
HETATM   12  O6  UNL     1      -9.356  85.068  16.489  1.00  0.00    -0.321 OA
HETATM   13  C18 UNL     1      -9.184  84.979  17.884  1.00  0.00     0.187 C 
HETATM   14  C19 UNL     1     -10.194  84.276  18.688  1.00  0.00     0.057 C 
HETATM   15  C20 UNL     1      -9.739  82.892  19.192  1.00  0.00     0.023 C 
HETATM   16  C21 UNL     1      -8.246  82.759  19.257  1.00  0.00     0.015 C 
ENDROOT
BRANCH   6  17
HETATM   17  C6  UNL     1     -13.693  85.505  19.251  1.00  0.00     0.029 C 
BRANCH  17  18
HETATM   18  C7  UNL     1     -13.650  86.892  19.812  1.00  0.00     0.003 C 
BRANCH  18  19
HETATM   19  C8  UNL     1     -14.092  87.892  18.715  1.00  0.00     0.020 C 
BRANCH  19  20
HETATM   20  C9  UNL     1     -15.478  87.535  18.251  1.00  0.00     0.085 C 
HETATM   21 CL1  UNL     1     -16.670  88.744  18.716  1.00  0.00    -0.125 Cl
BRANCH  20  22
HETATM   22  C10 UNL     1     -15.420  87.432  16.733  1.00  0.00    -0.004 C 
HETATM   23  C11 UNL     1     -16.325  88.459  16.086  1.00  0.00     0.011 C 
HETATM   24  C12 UNL     1     -15.866  86.063  16.274  1.00  0.00     0.011 C 
ENDBRANCH  20  22
ENDBRANCH  19  20
ENDBRANCH  18  19
ENDBRANCH  17  18
ENDBRANCH   6  17
BRANCH   6  25
HETATM   25  C13 UNL     1     -11.718  85.681  20.473  1.00  0.00     0.190 C 
HETATM   26  O1  UNL     1     -11.686  85.581  21.721  1.00  0.00    -0.647 OA
HETATM   27  O2  UNL     1     -10.986  86.742  19.961  1.00  0.00    -0.647 OA
ENDBRANCH   6  25
BRANCH   7  28
HETATM   28  O3  UNL     1     -11.990  82.906  18.274  1.00  0.00    -0.385 OA
ATOM     29  H3  UNL     1     -12.245  82.864  17.360  1.00  0.00     0.210 HD
ENDBRANCH   7  28
BRANCH   8  30
HETATM   30  O4  UNL     1     -12.028  83.848  16.025  1.00  0.00    -0.392 OA
ATOM     31  H4  UNL     1     -12.047  82.936  16.292  1.00  0.00     0.210 HD
ENDBRANCH   8  30
TORSDOF 8
ENDMDL
