MODEL 1
REMARK VINA RESULT: -6.938979181      0.000      0.000
REMARK  8 active torsions:
REMARK  status: ('A' for Active; 'I' for Inactive)
REMARK    1  A    between atoms: C2_2  and  C3_3 
REMARK    2  A    between atoms: C3_3  and  N1_4 
REMARK    3  A    between atoms: N1_4  and  C4_6 
REMARK    4  A    between atoms: C5_9  and  N3_10 
REMARK    5  A    between atoms: N3_10  and  N4_12 
REMARK    6  A    between atoms: N4_12  and  N5_14 
REMARK    7  A    between atoms: N7_26  and  C13_27 
REMARK    8  A    between atoms: C13_27  and  O2_28 
ROOT
HETATM    1  C4  UNL     1     -31.444   8.612 -29.131  1.00  0.00     0.155 C 
HETATM    2  N2  UNL     1     -30.337   7.764 -29.284  1.00  0.00    -0.323 N 
ATOM      3  H2  UNL     1     -29.875   7.707 -30.191  1.00  0.00     0.169 HD
HETATM    4  C5  UNL     1     -29.835   6.972 -28.189  1.00  0.00     0.150 C 
HETATM    5  C6  UNL     1     -29.888   7.298 -26.872  1.00  0.00     0.081 C 
HETATM    6  C7  UNL     1     -29.947   8.683 -26.411  1.00  0.00     0.053 C 
HETATM    7  C8  UNL     1     -31.324   8.894 -26.658  1.00  0.00     0.064 C 
HETATM    8  C9  UNL     1     -31.887   9.207 -27.885  1.00  0.00     0.229 C 
HETATM    9  O1  UNL     1     -32.851  10.069 -27.795  1.00  0.00    -0.283 OA
HETATM   10  C10 UNL     1     -32.423   8.464 -25.815  1.00  0.00     0.121 C 
HETATM   11  N6  UNL     1     -33.534   9.241 -25.767  1.00  0.00    -0.339 N 
HETATM   12  C11 UNL     1     -33.604  10.511 -25.081  1.00  0.00     0.157 C 
HETATM   13  C12 UNL     1     -34.974  10.479 -24.413  1.00  0.00     0.297 C 
HETATM   14  N7  UNL     1     -35.719  10.009 -25.545  1.00  0.00     0.130 N 
HETATM   15  C14 UNL     1     -34.908   8.981 -26.125  1.00  0.00     0.402 C 
HETATM   16  N8  UNL     1     -32.423   7.240 -25.160  1.00  0.00    -0.325 N 
ATOM     17  H8  UNL     1     -33.235   7.024 -24.580  1.00  0.00     0.169 HD
HETATM   18  C15 UNL     1     -31.380   6.243 -25.224  1.00  0.00     0.154 C 
HETATM   19  C16 UNL     1     -31.547   5.084 -24.409  1.00  0.00     0.176 A 
HETATM   20  N9  UNL     1     -30.934   3.891 -24.470  1.00  0.00    -0.267 N 
ATOM     21  H9  UNL     1     -30.219   3.619 -25.145  1.00  0.00     0.185 HD
HETATM   22  N10 UNL     1     -31.426   3.115 -23.490  1.00  0.00    -0.007 NA
HETATM   23  N11 UNL     1     -32.333   3.800 -22.818  1.00  0.00    -0.007 NA
HETATM   24  N12 UNL     1     -32.405   4.996 -23.379  1.00  0.00    -0.267 N 
ATOM     25  H12 UNL     1     -33.025   5.746 -23.072  1.00  0.00     0.185 HD
HETATM   26  N13 UNL     1     -30.221   6.246 -25.993  1.00  0.00    -0.336 N 
ATOM     27  H13 UNL     1     -29.584   5.452 -25.919  1.00  0.00     0.168 HD
ENDROOT
BRANCH   1  28
HETATM   28  N1  UNL     1     -32.281   8.937 -30.161  1.00  0.00    -0.369 N 
ATOM     29  H1  UNL     1     -32.778   9.828 -30.155  1.00  0.00     0.161 HD
BRANCH  28  30
HETATM   30  C3  UNL     1     -32.460   8.024 -31.249  1.00  0.00     0.148 C 
BRANCH  30  31
HETATM   31  C2  UNL     1     -33.263   6.819 -30.965  1.00  0.00    -0.018 C 
HETATM   32  C1  UNL     1     -32.779   5.601 -30.912  1.00  0.00     0.008 C 
ENDBRANCH  30  31
ENDBRANCH  28  30
ENDBRANCH   1  28
BRANCH  14  33
HETATM   33  C13 UNL     1     -36.100  10.995 -26.495  1.00  0.00     0.439 C 
BRANCH  33  34
HETATM   34  O2  UNL     1     -35.848  10.624 -27.811  1.00  0.00    -0.373 OA
ATOM     35  H2  UNL     1     -36.594  10.743 -28.387  1.00  0.00     0.211 HD
ENDBRANCH  33  34
ENDBRANCH  14  33
BRANCH   4  36
HETATM   36  N3  UNL     1     -29.350   5.829 -28.396  1.00  0.00    -0.269 N 
ATOM     37  H3  UNL     1     -29.185   5.244 -27.577  1.00  0.00     0.190 HD
BRANCH  36  38
HETATM   38  N4  UNL     1     -29.024   5.296 -29.611  1.00  0.00    -0.248 N 
ATOM     39  H4  UNL     1     -29.651   4.629 -30.060  1.00  0.00     0.207 HD
BRANCH  38  40
HETATM   40  N5  UNL     1     -27.816   5.668 -30.245  1.00  0.00    -0.331 N 
ATOM     41  H52 UNL     1     -27.090   4.965 -30.377  1.00  0.00     0.178 HD
ATOM     42  H51 UNL     1     -27.682   6.628 -30.562  1.00  0.00     0.178 HD
ENDBRANCH  38  40
ENDBRANCH  36  38
ENDBRANCH   4  36
TORSDOF 8
ENDMDL
MODEL 2
REMARK VINA RESULT: -6.840068348      2.334      4.174
REMARK  8 active torsions:
REMARK  status: ('A' for Active; 'I' for Inactive)
REMARK    1  A    between atoms: C2_2  and  C3_3 
REMARK    2  A    between atoms: C3_3  and  N1_4 
REMARK    3  A    between atoms: N1_4  and  C4_6 
REMARK    4  A    between atoms: C5_9  and  N3_10 
REMARK    5  A    between atoms: N3_10  and  N4_12 
REMARK    6  A    between atoms: N4_12  and  N5_14 
REMARK    7  A    between atoms: N7_26  and  C13_27 
REMARK    8  A    between atoms: C13_27  and  O2_28 
ROOT
HETATM    1  C4  UNL     1     -31.461   6.222 -27.891  1.00  0.00     0.155 C 
HETATM    2  N2  UNL     1     -30.948   5.568 -26.762  1.00  0.00    -0.323 N 
ATOM      3  H2  UNL     1     -30.495   4.661 -26.875  1.00  0.00     0.169 HD
HETATM    4  C5  UNL     1     -31.046   6.145 -25.444  1.00  0.00     0.150 C 
HETATM    5  C6  UNL     1     -31.055   7.470 -25.147  1.00  0.00     0.081 C 
HETATM    6  C7  UNL     1     -30.431   8.469 -26.011  1.00  0.00     0.053 C 
HETATM    7  C8  UNL     1     -31.464   8.540 -26.975  1.00  0.00     0.064 C 
HETATM    8  C9  UNL     1     -31.654   7.653 -28.023  1.00  0.00     0.229 C 
HETATM    9  O1  UNL     1     -32.032   8.236 -29.118  1.00  0.00    -0.283 OA
HETATM   10  C10 UNL     1     -32.705   9.280 -26.851  1.00  0.00     0.121 C 
HETATM   11  N6  UNL     1     -33.248   9.811 -27.975  1.00  0.00    -0.339 N 
HETATM   12  C11 UNL     1     -32.717  10.967 -28.662  1.00  0.00     0.157 C 
HETATM   13  C12 UNL     1     -33.963  11.756 -29.048  1.00  0.00     0.297 C 
HETATM   14  N7  UNL     1     -34.724  10.655 -29.564  1.00  0.00     0.130 N 
HETATM   15  C14 UNL     1     -34.512   9.586 -28.634  1.00  0.00     0.402 C 
HETATM   16  N8  UNL     1     -33.409   9.357 -25.656  1.00  0.00    -0.325 N 
ATOM     17  H8  UNL     1     -34.269   9.907 -25.659  1.00  0.00     0.169 HD
HETATM   18  C15 UNL     1     -33.036   8.729 -24.411  1.00  0.00     0.154 C 
HETATM   19  C16 UNL     1     -33.864   9.002 -23.280  1.00  0.00     0.176 A 
HETATM   20  N9  UNL     1     -33.959   8.359 -22.105  1.00  0.00    -0.267 N 
ATOM     21  H9  UNL     1     -33.425   7.534 -21.830  1.00  0.00     0.185 HD
HETATM   22  N10 UNL     1     -34.879   8.987 -21.355  1.00  0.00    -0.007 NA
HETATM   23  N11 UNL     1     -35.360  10.009 -22.038  1.00  0.00    -0.007 NA
HETATM   24  N12 UNL     1     -34.742  10.016 -23.207  1.00  0.00    -0.267 N 
ATOM     25  H12 UNL     1     -34.908  10.695 -23.950  1.00  0.00     0.185 HD
HETATM   26  N13 UNL     1     -31.974   7.868 -24.154  1.00  0.00    -0.336 N 
ATOM     27  H13 UNL     1     -31.855   7.510 -23.206  1.00  0.00     0.168 HD
ENDROOT
BRANCH   1  28
HETATM   28  N1  UNL     1     -31.898   5.558 -29.003  1.00  0.00    -0.369 N 
ATOM     29  H1  UNL     1     -32.877   5.615 -29.281  1.00  0.00     0.161 HD
BRANCH  28  30
HETATM   30  C3  UNL     1     -30.978   4.783 -29.777  1.00  0.00     0.148 C 
BRANCH  30  31
HETATM   31  C2  UNL     1     -29.816   5.505 -30.328  1.00  0.00    -0.018 C 
HETATM   32  C1  UNL     1     -28.576   5.084 -30.254  1.00  0.00     0.008 C 
ENDBRANCH  30  31
ENDBRANCH  28  30
ENDBRANCH   1  28
BRANCH  14  33
HETATM   33  C13 UNL     1     -34.437  10.271 -30.902  1.00  0.00     0.439 C 
BRANCH  33  34
HETATM   34  O2  UNL     1     -34.286   8.898 -31.064  1.00  0.00    -0.373 OA
ATOM     35  H2  UNL     1     -33.468   8.654 -31.482  1.00  0.00     0.211 HD
ENDBRANCH  33  34
ENDBRANCH  14  33
BRANCH   4  36
HETATM   36  N3  UNL     1     -31.209   5.411 -24.435  1.00  0.00    -0.269 N 
ATOM     37  H3  UNL     1     -30.976   5.816 -23.529  1.00  0.00     0.190 HD
BRANCH  36  38
HETATM   38  N4  UNL     1     -31.668   4.124 -24.435  1.00  0.00    -0.248 N 
ATOM     39  H4  UNL     1     -32.304   3.809 -25.168  1.00  0.00     0.207 HD
BRANCH  38  40
HETATM   40  N5  UNL     1     -31.261   3.228 -23.420  1.00  0.00    -0.331 N 
ATOM     41  H52 UNL     1     -30.659   2.442 -23.666  1.00  0.00     0.178 HD
ATOM     42  H51 UNL     1     -31.568   3.372 -22.459  1.00  0.00     0.178 HD
ENDBRANCH  38  40
ENDBRANCH  36  38
ENDBRANCH   4  36
TORSDOF 8
ENDMDL
MODEL 3
REMARK VINA RESULT: -6.743613097      2.495      6.503
REMARK  8 active torsions:
REMARK  status: ('A' for Active; 'I' for Inactive)
REMARK    1  A    between atoms: C2_2  and  C3_3 
REMARK    2  A    between atoms: C3_3  and  N1_4 
REMARK    3  A    between atoms: N1_4  and  C4_6 
REMARK    4  A    between atoms: C5_9  and  N3_10 
REMARK    5  A    between atoms: N3_10  and  N4_12 
REMARK    6  A    between atoms: N4_12  and  N5_14 
REMARK    7  A    between atoms: N7_26  and  C13_27 
REMARK    8  A    between atoms: C13_27  and  O2_28 
ROOT
HETATM    1  C4  UNL     1     -30.867   6.040 -25.433  1.00  0.00     0.155 C 
HETATM    2  N2  UNL     1     -31.276   6.523 -24.181  1.00  0.00    -0.323 N 
ATOM      3  H2  UNL     1     -30.813   6.178 -23.340  1.00  0.00     0.169 HD
HETATM    4  C5  UNL     1     -32.333   7.495 -24.053  1.00  0.00     0.150 C 
HETATM    5  C6  UNL     1     -32.651   8.458 -24.956  1.00  0.00     0.081 C 
HETATM    6  C7  UNL     1     -31.673   9.004 -25.894  1.00  0.00     0.053 C 
HETATM    7  C8  UNL     1     -31.700   7.936 -26.821  1.00  0.00     0.064 C 
HETATM    8  C9  UNL     1     -31.012   6.739 -26.696  1.00  0.00     0.229 C 
HETATM    9  O1  UNL     1     -30.531   6.311 -27.821  1.00  0.00    -0.283 OA
HETATM   10  C10 UNL     1     -32.703   7.713 -27.845  1.00  0.00     0.121 C 
HETATM   11  N6  UNL     1     -32.310   7.140 -29.010  1.00  0.00    -0.339 N 
HETATM   12  C11 UNL     1     -31.535   7.818 -30.024  1.00  0.00     0.157 C 
HETATM   13  C12 UNL     1     -32.178   7.360 -31.328  1.00  0.00     0.297 C 
HETATM   14  N7  UNL     1     -32.252   5.962 -31.016  1.00  0.00     0.130 N 
HETATM   15  C14 UNL     1     -32.694   5.907 -29.655  1.00  0.00     0.402 C 
HETATM   16  N8  UNL     1     -34.054   7.951 -27.628  1.00  0.00    -0.325 N 
ATOM     17  H8  UNL     1     -34.687   7.774 -28.409  1.00  0.00     0.169 HD
HETATM   18  C15 UNL     1     -34.644   8.425 -26.398  1.00  0.00     0.154 C 
HETATM   19  C16 UNL     1     -36.049   8.677 -26.416  1.00  0.00     0.176 A 
HETATM   20  N9  UNL     1     -36.911   8.826 -25.397  1.00  0.00    -0.267 N 
ATOM     21  H9  UNL     1     -36.678   8.779 -24.404  1.00  0.00     0.185 HD
HETATM   22  N10 UNL     1     -38.133   9.047 -25.909  1.00  0.00    -0.007 NA
HETATM   23  N11 UNL     1     -38.051   9.039 -27.226  1.00  0.00    -0.007 NA
HETATM   24  N12 UNL     1     -36.784   8.814 -27.531  1.00  0.00    -0.267 N 
ATOM     25  H12 UNL     1     -36.416   8.753 -28.481  1.00  0.00     0.185 HD
HETATM   26  N13 UNL     1     -34.030   8.662 -25.173  1.00  0.00    -0.336 N 
ATOM     27  H13 UNL     1     -34.601   8.998 -24.398  1.00  0.00     0.168 HD
ENDROOT
BRANCH   1  28
HETATM   28  N1  UNL     1     -30.321   4.800 -25.613  1.00  0.00    -0.369 N 
ATOM     29  H1  UNL     1     -29.318   4.701 -25.767  1.00  0.00     0.161 HD
BRANCH  28  30
HETATM   30  C3  UNL     1     -31.160   3.642 -25.584  1.00  0.00     0.148 C 
BRANCH  30  31
HETATM   31  C2  UNL     1     -31.937   3.428 -24.348  1.00  0.00    -0.018 C 
HETATM   32  C1  UNL     1     -31.412   3.132 -23.182  1.00  0.00     0.008 C 
ENDBRANCH  30  31
ENDBRANCH  28  30
ENDBRANCH   1  28
BRANCH  14  33
HETATM   33  C13 UNL     1     -31.064   5.212 -31.229  1.00  0.00     0.439 C 
BRANCH  33  34
HETATM   34  O2  UNL     1     -30.702   4.428 -30.139  1.00  0.00    -0.373 OA
ATOM     35  H2  UNL     1     -30.103   4.863 -29.542  1.00  0.00     0.211 HD
ENDBRANCH  33  34
ENDBRANCH  14  33
BRANCH   4  36
HETATM   36  N3  UNL     1     -33.116   7.462 -23.069  1.00  0.00    -0.269 N 
ATOM     37  H3  UNL     1     -34.114   7.499 -23.273  1.00  0.00     0.190 HD
BRANCH  36  38
HETATM   38  N4  UNL     1     -32.759   7.381 -21.752  1.00  0.00    -0.248 N 
ATOM     39  H4  UNL     1     -31.960   6.811 -21.474  1.00  0.00     0.207 HD
BRANCH  38  40
HETATM   40  N5  UNL     1     -33.496   8.088 -20.775  1.00  0.00    -0.331 N 
ATOM     41  H52 UNL     1     -34.392   8.500 -21.034  1.00  0.00     0.178 HD
ATOM     42  H51 UNL     1     -33.130   8.181 -19.828  1.00  0.00     0.178 HD
ENDBRANCH  38  40
ENDBRANCH  36  38
ENDBRANCH   4  36
TORSDOF 8
ENDMDL
MODEL 4
REMARK VINA RESULT: -6.612699386      2.305      3.231
REMARK  8 active torsions:
REMARK  status: ('A' for Active; 'I' for Inactive)
REMARK    1  A    between atoms: C2_2  and  C3_3 
REMARK    2  A    between atoms: C3_3  and  N1_4 
REMARK    3  A    between atoms: N1_4  and  C4_6 
REMARK    4  A    between atoms: C5_9  and  N3_10 
REMARK    5  A    between atoms: N3_10  and  N4_12 
REMARK    6  A    between atoms: N4_12  and  N5_14 
REMARK    7  A    between atoms: N7_26  and  C13_27 
REMARK    8  A    between atoms: C13_27  and  O2_28 
ROOT
HETATM    1  C4  UNL     1     -31.133   6.196 -29.048  1.00  0.00     0.155 C 
HETATM    2  N2  UNL     1     -30.246   5.472 -28.238  1.00  0.00    -0.323 N 
ATOM      3  H2  UNL     1     -29.743   4.679 -28.636  1.00  0.00     0.169 HD
HETATM    4  C5  UNL     1     -30.028   5.821 -26.856  1.00  0.00     0.150 C 
HETATM    5  C6  UNL     1     -30.103   7.067 -26.321  1.00  0.00     0.081 C 
HETATM    6  C7  UNL     1     -29.872   8.273 -27.112  1.00  0.00     0.053 C 
HETATM    7  C8  UNL     1     -31.139   8.318 -27.740  1.00  0.00     0.064 C 
HETATM    8  C9  UNL     1     -31.519   7.580 -28.851  1.00  0.00     0.229 C 
HETATM    9  O1  UNL     1     -32.259   8.251 -29.676  1.00  0.00    -0.283 OA
HETATM   10  C10 UNL     1     -32.369   8.819 -27.157  1.00  0.00     0.121 C 
HETATM   11  N6  UNL     1     -33.269   9.417 -27.977  1.00  0.00    -0.339 N 
HETATM   12  C11 UNL     1     -33.093  10.733 -28.547  1.00  0.00     0.157 C 
HETATM   13  C12 UNL     1     -34.480  11.357 -28.436  1.00  0.00     0.297 C 
HETATM   14  N7  UNL     1     -35.225  10.237 -28.933  1.00  0.00     0.130 N 
HETATM   15  C14 UNL     1     -34.634   9.090 -28.312  1.00  0.00     0.402 C 
HETATM   16  N8  UNL     1     -32.705   8.599 -25.827  1.00  0.00    -0.325 N 
ATOM     17  H8  UNL     1     -33.587   8.996 -25.500  1.00  0.00     0.169 HD
HETATM   18  C15 UNL     1     -31.921   7.860 -24.866  1.00  0.00     0.154 C 
HETATM   19  C16 UNL     1     -32.416   7.822 -23.527  1.00  0.00     0.176 A 
HETATM   20  N9  UNL     1     -32.095   7.002 -22.513  1.00  0.00    -0.267 N 
ATOM     21  H9  UNL     1     -31.413   6.244 -22.549  1.00  0.00     0.185 HD
HETATM   22  N10 UNL     1     -32.827   7.352 -21.443  1.00  0.00    -0.007 NA
HETATM   23  N11 UNL     1     -33.599   8.373 -21.769  1.00  0.00    -0.007 NA
HETATM   24  N12 UNL     1     -33.346   8.656 -23.036  1.00  0.00    -0.267 N 
ATOM     25  H12 UNL     1     -33.796   9.403 -23.566  1.00  0.00     0.185 HD
HETATM   26  N13 UNL     1     -30.738   7.156 -25.064  1.00  0.00    -0.336 N 
ATOM     27  H13 UNL     1     -30.312   6.683 -24.267  1.00  0.00     0.168 HD
ENDROOT
BRANCH   1  28
HETATM   28  N1  UNL     1     -31.791   5.645 -30.111  1.00  0.00    -0.369 N 
ATOM     29  H1  UNL     1     -32.753   5.325 -30.007  1.00  0.00     0.161 HD
BRANCH  28  30
HETATM   30  C3  UNL     1     -31.126   5.516 -31.372  1.00  0.00     0.148 C 
BRANCH  30  31
HETATM   31  C2  UNL     1     -29.840   4.792 -31.361  1.00  0.00    -0.018 C 
HETATM   32  C1  UNL     1     -29.210   4.383 -32.437  1.00  0.00     0.008 C 
ENDBRANCH  30  31
ENDBRANCH  28  30
ENDBRANCH   1  28
BRANCH  14  33
HETATM   33  C13 UNL     1     -35.292  10.111 -30.347  1.00  0.00     0.439 C 
BRANCH  33  34
HETATM   34  O2  UNL     1     -35.020   8.825 -30.802  1.00  0.00    -0.373 OA
ATOM     35  H2  UNL     1     -35.792   8.274 -30.863  1.00  0.00     0.211 HD
ENDBRANCH  33  34
ENDBRANCH  14  33
BRANCH   4  36
HETATM   36  N3  UNL     1     -29.809   4.927 -25.998  1.00  0.00    -0.269 N 
ATOM     37  H3  UNL     1     -29.132   5.146 -25.268  1.00  0.00     0.190 HD
BRANCH  36  38
HETATM   38  N4  UNL     1     -30.390   3.691 -25.949  1.00  0.00    -0.248 N 
ATOM     39  H4  UNL     1     -29.886   2.876 -26.298  1.00  0.00     0.207 HD
BRANCH  38  40
HETATM   40  N5  UNL     1     -31.691   3.542 -25.416  1.00  0.00    -0.331 N 
ATOM     41  H52 UNL     1     -31.932   4.034 -24.556  1.00  0.00     0.178 HD
ATOM     42  H51 UNL     1     -32.372   2.950 -25.891  1.00  0.00     0.178 HD
ENDBRANCH  38  40
ENDBRANCH  36  38
ENDBRANCH   4  36
TORSDOF 8
ENDMDL
MODEL 5
REMARK VINA RESULT: -6.527166732      2.058      5.228
REMARK  8 active torsions:
REMARK  status: ('A' for Active; 'I' for Inactive)
REMARK    1  A    between atoms: C2_2  and  C3_3 
REMARK    2  A    between atoms: C3_3  and  N1_4 
REMARK    3  A    between atoms: N1_4  and  C4_6 
REMARK    4  A    between atoms: C5_9  and  N3_10 
REMARK    5  A    between atoms: N3_10  and  N4_12 
REMARK    6  A    between atoms: N4_12  and  N5_14 
REMARK    7  A    between atoms: N7_26  and  C13_27 
REMARK    8  A    between atoms: C13_27  and  O2_28 
ROOT
HETATM    1  C4  UNL     1     -30.108   7.167 -27.459  1.00  0.00     0.155 C 
HETATM    2  N2  UNL     1     -29.988   7.255 -26.064  1.00  0.00    -0.323 N 
ATOM      3  H2  UNL     1     -29.138   6.913 -25.616  1.00  0.00     0.169 HD
HETATM    4  C5  UNL     1     -31.035   7.818 -25.249  1.00  0.00     0.150 C 
HETATM    5  C6  UNL     1     -31.905   8.793 -25.621  1.00  0.00     0.081 C 
HETATM    6  C7  UNL     1     -31.582   9.778 -26.649  1.00  0.00     0.053 C 
HETATM    7  C8  UNL     1     -31.822   8.949 -27.770  1.00  0.00     0.064 C 
HETATM    8  C9  UNL     1     -30.939   8.016 -28.290  1.00  0.00     0.229 C 
HETATM    9  O1  UNL     1     -30.948   7.977 -29.586  1.00  0.00    -0.283 OA
HETATM   10  C10 UNL     1     -33.117   8.633 -28.342  1.00  0.00     0.121 C 
HETATM   11  N6  UNL     1     -33.193   8.438 -29.682  1.00  0.00    -0.339 N 
HETATM   12  C11 UNL     1     -33.107   9.499 -30.660  1.00  0.00     0.157 C 
HETATM   13  C12 UNL     1     -34.171   9.126 -31.686  1.00  0.00     0.297 C 
HETATM   14  N7  UNL     1     -33.828   7.739 -31.809  1.00  0.00     0.130 N 
HETATM   15  C14 UNL     1     -33.586   7.294 -30.470  1.00  0.00     0.402 C 
HETATM   16  N8  UNL     1     -34.240   8.404 -27.558  1.00  0.00    -0.325 N 
ATOM     17  H8  UNL     1     -35.112   8.195 -28.047  1.00  0.00     0.169 HD
HETATM   18  C15 UNL     1     -34.288   8.434 -26.115  1.00  0.00     0.154 C 
HETATM   19  C16 UNL     1     -35.567   8.246 -25.511  1.00  0.00     0.176 A 
HETATM   20  N9  UNL     1     -35.884   7.929 -24.245  1.00  0.00    -0.267 N 
ATOM     21  H9  UNL     1     -35.223   7.767 -23.485  1.00  0.00     0.185 HD
HETATM   22  N10 UNL     1     -37.222   7.863 -24.151  1.00  0.00    -0.007 NA
HETATM   23  N11 UNL     1     -37.747   8.132 -25.333  1.00  0.00    -0.007 NA
HETATM   24  N12 UNL     1     -36.738   8.364 -26.156  1.00  0.00    -0.267 N 
ATOM     25  H12 UNL     1     -36.837   8.599 -27.144  1.00  0.00     0.185 HD
HETATM   26  N13 UNL     1     -33.243   8.607 -25.214  1.00  0.00    -0.336 N 
ATOM     27  H13 UNL     1     -33.453   8.600 -24.216  1.00  0.00     0.168 HD
ENDROOT
BRANCH   1  28
HETATM   28  N1  UNL     1     -29.477   6.209 -28.203  1.00  0.00    -0.369 N 
ATOM     29  H1  UNL     1     -28.654   6.450 -28.754  1.00  0.00     0.161 HD
BRANCH  28  30
HETATM   30  C3  UNL     1     -29.975   4.868 -28.206  1.00  0.00     0.148 C 
BRANCH  30  31
HETATM   31  C2  UNL     1     -29.772   4.092 -26.968  1.00  0.00    -0.018 C 
HETATM   32  C1  UNL     1     -30.722   3.454 -26.327  1.00  0.00     0.008 C 
ENDBRANCH  30  31
ENDBRANCH  28  30
ENDBRANCH   1  28
BRANCH  14  33
HETATM   33  C13 UNL     1     -32.747   7.439 -32.681  1.00  0.00     0.439 C 
BRANCH  33  34
HETATM   34  O2  UNL     1     -31.846   6.522 -32.151  1.00  0.00    -0.373 OA
ATOM     35  H2  UNL     1     -31.765   5.728 -32.668  1.00  0.00     0.211 HD
ENDBRANCH  33  34
ENDBRANCH  14  33
BRANCH   4  36
HETATM   36  N3  UNL     1     -31.265   7.362 -24.099  1.00  0.00    -0.269 N 
ATOM     37  H3  UNL     1     -31.378   8.043 -23.349  1.00  0.00     0.190 HD
BRANCH  36  38
HETATM   38  N4  UNL     1     -31.377   6.044 -23.757  1.00  0.00    -0.248 N 
ATOM     39  H4  UNL     1     -30.556   5.526 -23.446  1.00  0.00     0.207 HD
BRANCH  38  40
HETATM   40  N5  UNL     1     -32.632   5.398 -23.837  1.00  0.00    -0.331 N 
ATOM     41  H52 UNL     1     -33.468   5.959 -23.997  1.00  0.00     0.178 HD
ATOM     42  H51 UNL     1     -32.692   4.385 -23.735  1.00  0.00     0.178 HD
ENDBRANCH  38  40
ENDBRANCH  36  38
ENDBRANCH   4  36
TORSDOF 8
ENDMDL
