MODEL 1
REMARK VINA RESULT: -8.323329885      0.000      0.000
REMARK  12 active torsions:
REMARK  status: ('A' for Active; 'I' for Inactive)
REMARK    1  A    between atoms: N1_2  and  C2_3 
REMARK    2  A    between atoms: N1_2  and  C12_27 
REMARK    3  A    between atoms: C2_3  and  C3_4 
REMARK    4  A    between atoms: C3_4  and  C4_6 
REMARK    5  A    between atoms: C7_10  and  N2_11 
REMARK    6  A    between atoms: C8_16  and  N4_17 
REMARK    7  A    between atoms: C11_24  and  O4_25 
REMARK    8  A    between atoms: C12_27  and  C13_28 
REMARK    9  A    between atoms: C14_30  and  N6_31 
REMARK   10  A    between atoms: N6_31  and  O6_32 
REMARK   11  A    between atoms: N6_31  and  O7_34 
REMARK   12  A    between atoms: C15_38  and  C16_39 
ROOT
HETATM    1  C4  UNL     1     -33.353   8.938 -24.057  1.00  0.00     0.162 A 
HETATM    2  O2  UNL     1     -34.305   9.846 -23.916  1.00  0.00    -0.285 OA
HETATM    3  C5  UNL     1     -34.801  10.193 -22.749  1.00  0.00     0.183 A 
HETATM    4  C6  UNL     1     -34.349   9.616 -21.558  1.00  0.00     0.113 A 
HETATM    5  C7  UNL     1     -34.856   9.965 -20.320  1.00  0.00     0.133 A 
HETATM    6  N3  UNL     1     -35.841  10.924 -20.337  1.00  0.00    -0.176 N 
ATOM      7  H3  UNL     1     -36.253  11.222 -19.453  1.00  0.00     0.186 HD
HETATM    8  C8  UNL     1     -36.274  11.476 -21.466  1.00  0.00     0.681 A 
HETATM    9  N5  UNL     1     -35.768  11.123 -22.663  1.00  0.00    -0.165 N 
HETATM   10  C9  UNL     1     -36.299  11.774 -23.839  1.00  0.00     0.177 C 
HETATM   11  C10 UNL     1     -33.359   8.663 -21.642  1.00  0.00     0.226 A 
HETATM   12  O3  UNL     1     -32.866   8.071 -20.653  1.00  0.00    -0.284 OA
HETATM   13  C11 UNL     1     -32.874   8.340 -22.914  1.00  0.00     0.155 A 
ENDROOT
BRANCH   1  14
HETATM   14  C3  UNL     1     -32.846   8.596 -25.375  1.00  0.00     0.214 C 
HETATM   15  O1  UNL     1     -33.629   7.889 -26.095  1.00  0.00    -0.288 OA
BRANCH  14  16
HETATM   16  C2  UNL     1     -31.544   9.000 -25.899  1.00  0.00     0.358 C 
BRANCH  16  17
HETATM   17  N1  UNL     1     -30.842   8.027 -26.666  1.00  0.00     0.097 N 
HETATM   18  C1  UNL     1     -30.085   8.708 -27.732  1.00  0.00     0.310 C 
BRANCH  17  19
HETATM   19  C12 UNL     1     -29.896   7.207 -25.983  1.00  0.00     0.339 C 
BRANCH  19  20
HETATM   20  C13 UNL     1     -30.319   5.803 -25.766  1.00  0.00     0.118 A 
HETATM   21  O5  UNL     1     -30.716   5.213 -24.670  1.00  0.00    -0.281 OA
HETATM   22  C14 UNL     1     -31.012   3.965 -24.839  1.00  0.00     0.255 A 
HETATM   23  N7  UNL     1     -30.785   3.723 -26.161  1.00  0.00    -0.315 N 
HETATM   24  C15 UNL     1     -30.355   4.852 -26.750  1.00  0.00     0.144 A 
ATOM     25  H7  UNL     1     -30.920   2.827 -26.629  1.00  0.00     0.169 HD
BRANCH  22  26
HETATM   26  N6  UNL     1     -31.466   3.075 -23.850  1.00  0.00     0.007 NA
BRANCH  26  27
HETATM   27  O6  UNL     1     -31.896   1.892 -24.358  1.00  0.00    -0.281 OA
ATOM     28  H6  UNL     1     -32.839   1.789 -24.310  1.00  0.00     0.240 HD
ENDBRANCH  26  27
BRANCH  26  29
HETATM   29  O7  UNL     1     -30.515   2.788 -22.931  1.00  0.00    -0.281 OA
ATOM     30  H7  UNL     1     -30.045   1.986 -23.129  1.00  0.00     0.240 HD
ENDBRANCH  26  29
ENDBRANCH  22  26
BRANCH  24  31
HETATM   31  C16 UNL     1     -30.008   4.986 -28.168  1.00  0.00     0.229 C 
HETATM   32  O8  UNL     1     -28.849   4.836 -28.593  1.00  0.00    -0.643 OA
HETATM   33  O9  UNL     1     -30.991   5.294 -29.105  1.00  0.00    -0.643 OA
ENDBRANCH  24  31
ENDBRANCH  19  20
ENDBRANCH  17  19
ENDBRANCH  16  17
ENDBRANCH  14  16
ENDBRANCH   1  14
BRANCH  13  34
HETATM   34  O4  UNL     1     -31.875   7.376 -22.952  1.00  0.00    -0.355 OA
ATOM     35  H4  UNL     1     -31.226   7.296 -22.263  1.00  0.00     0.218 HD
ENDBRANCH  13  34
BRANCH   5  36
HETATM   36  N2  UNL     1     -34.467   9.465 -19.256  1.00  0.00    -0.384 N 
ATOM     37  H22 UNL     1     -33.484   9.234 -19.109  1.00  0.00     0.157 HD
ATOM     38  H21 UNL     1     -35.087   9.253 -18.474  1.00  0.00     0.157 HD
ENDBRANCH   5  36
BRANCH   8  39
HETATM   39  N4  UNL     1     -37.219  12.390 -21.427  1.00  0.00    -0.234 N 
ATOM     40  H42 UNL     1     -36.970  13.336 -21.141  1.00  0.00     0.174 HD
ATOM     41  H41 UNL     1     -38.175  12.142 -21.680  1.00  0.00     0.174 HD
ENDBRANCH   8  39
TORSDOF 12
ENDMDL
MODEL 2
REMARK VINA RESULT: -8.001390153      2.162      3.220
REMARK  12 active torsions:
REMARK  status: ('A' for Active; 'I' for Inactive)
REMARK    1  A    between atoms: N1_2  and  C2_3 
REMARK    2  A    between atoms: N1_2  and  C12_27 
REMARK    3  A    between atoms: C2_3  and  C3_4 
REMARK    4  A    between atoms: C3_4  and  C4_6 
REMARK    5  A    between atoms: C7_10  and  N2_11 
REMARK    6  A    between atoms: C8_16  and  N4_17 
REMARK    7  A    between atoms: C11_24  and  O4_25 
REMARK    8  A    between atoms: C12_27  and  C13_28 
REMARK    9  A    between atoms: C14_30  and  N6_31 
REMARK   10  A    between atoms: N6_31  and  O6_32 
REMARK   11  A    between atoms: N6_31  and  O7_34 
REMARK   12  A    between atoms: C15_38  and  C16_39 
ROOT
HETATM    1  C4  UNL     1     -31.247   8.404 -26.306  1.00  0.00     0.162 A 
HETATM    2  O2  UNL     1     -32.237   9.139 -25.827  1.00  0.00    -0.285 OA
HETATM    3  C5  UNL     1     -32.686   9.025 -24.597  1.00  0.00     0.183 A 
HETATM    4  C6  UNL     1     -32.140   8.104 -23.697  1.00  0.00     0.113 A 
HETATM    5  C7  UNL     1     -32.598   7.967 -22.399  1.00  0.00     0.133 A 
HETATM    6  N3  UNL     1     -33.632   8.802 -22.049  1.00  0.00    -0.176 N 
ATOM      7  H3  UNL     1     -34.011   8.746 -21.104  1.00  0.00     0.186 HD
HETATM    8  C8  UNL     1     -34.155   9.680 -22.899  1.00  0.00     0.681 A 
HETATM    9  N5  UNL     1     -33.696   9.799 -24.160  1.00  0.00    -0.165 N 
HETATM   10  C9  UNL     1     -34.324  10.779 -25.017  1.00  0.00     0.177 C 
HETATM   11  C10 UNL     1     -31.107   7.310 -24.140  1.00  0.00     0.226 A 
HETATM   12  O3  UNL     1     -30.530   6.447 -23.437  1.00  0.00    -0.284 OA
HETATM   13  C11 UNL     1     -30.675   7.482 -25.460  1.00  0.00     0.155 A 
ENDROOT
BRANCH   1  14
HETATM   14  C3  UNL     1     -30.794   8.575 -27.676  1.00  0.00     0.214 C 
HETATM   15  O1  UNL     1     -29.540   8.769 -27.818  1.00  0.00    -0.288 OA
BRANCH  14  16
HETATM   16  C2  UNL     1     -31.660   8.537 -28.852  1.00  0.00     0.358 C 
BRANCH  16  17
HETATM   17  N1  UNL     1     -32.424   7.350 -29.037  1.00  0.00     0.097 N 
HETATM   18  C1  UNL     1     -33.617   7.664 -29.845  1.00  0.00     0.310 C 
BRANCH  17  19
HETATM   19  C12 UNL     1     -31.790   6.254 -29.692  1.00  0.00     0.339 C 
BRANCH  19  20
HETATM   20  C13 UNL     1     -31.013   5.353 -28.809  1.00  0.00     0.118 A 
HETATM   21  O5  UNL     1     -31.344   4.819 -27.665  1.00  0.00    -0.281 OA
HETATM   22  C14 UNL     1     -30.415   4.074 -27.158  1.00  0.00     0.255 A 
HETATM   23  N7  UNL     1     -29.389   4.132 -28.053  1.00  0.00    -0.315 N 
HETATM   24  C15 UNL     1     -29.742   4.920 -29.082  1.00  0.00     0.144 A 
ATOM     25  H7  UNL     1     -28.493   3.653 -27.956  1.00  0.00     0.169 HD
BRANCH  22  26
HETATM   26  N6  UNL     1     -30.480   3.371 -25.943  1.00  0.00     0.007 NA
BRANCH  26  27
HETATM   27  O6  UNL     1     -29.873   4.024 -24.919  1.00  0.00    -0.281 OA
ATOM     28  H6  UNL     1     -29.268   3.474 -24.435  1.00  0.00     0.240 HD
ENDBRANCH  26  27
BRANCH  26  29
HETATM   29  O7  UNL     1     -31.752   3.122 -25.553  1.00  0.00    -0.281 OA
ATOM     30  H7  UNL     1     -32.222   2.571 -26.168  1.00  0.00     0.240 HD
ENDBRANCH  26  29
ENDBRANCH  22  26
BRANCH  24  31
HETATM   31  C16 UNL     1     -28.900   5.225 -30.242  1.00  0.00     0.229 C 
HETATM   32  O8  UNL     1     -27.767   5.726 -30.138  1.00  0.00    -0.643 OA
HETATM   33  O9  UNL     1     -29.356   4.956 -31.530  1.00  0.00    -0.643 OA
ENDBRANCH  24  31
ENDBRANCH  19  20
ENDBRANCH  17  19
ENDBRANCH  16  17
ENDBRANCH  14  16
ENDBRANCH   1  14
BRANCH  13  34
HETATM   34  O4  UNL     1     -29.629   6.661 -25.865  1.00  0.00    -0.355 OA
ATOM     35  H4  UNL     1     -28.951   6.378 -25.263  1.00  0.00     0.218 HD
ENDBRANCH  13  34
BRANCH   5  36
HETATM   36  N2  UNL     1     -32.126   7.157 -21.591  1.00  0.00    -0.384 N 
ATOM     37  H22 UNL     1     -31.150   7.212 -21.297  1.00  0.00     0.157 HD
ATOM     38  H21 UNL     1     -32.665   6.399 -21.174  1.00  0.00     0.157 HD
ENDBRANCH   5  36
BRANCH   8  39
HETATM   39  N4  UNL     1     -35.143  10.456 -22.514  1.00  0.00    -0.234 N 
ATOM     40  H42 UNL     1     -34.933  11.248 -21.907  1.00  0.00     0.174 HD
ATOM     41  H41 UNL     1     -36.095  10.258 -22.823  1.00  0.00     0.174 HD
ENDBRANCH   8  39
TORSDOF 12
ENDMDL
MODEL 3
REMARK VINA RESULT: -7.929942998      5.197     10.688
REMARK  12 active torsions:
REMARK  status: ('A' for Active; 'I' for Inactive)
REMARK    1  A    between atoms: N1_2  and  C2_3 
REMARK    2  A    between atoms: N1_2  and  C12_27 
REMARK    3  A    between atoms: C2_3  and  C3_4 
REMARK    4  A    between atoms: C3_4  and  C4_6 
REMARK    5  A    between atoms: C7_10  and  N2_11 
REMARK    6  A    between atoms: C8_16  and  N4_17 
REMARK    7  A    between atoms: C11_24  and  O4_25 
REMARK    8  A    between atoms: C12_27  and  C13_28 
REMARK    9  A    between atoms: C14_30  and  N6_31 
REMARK   10  A    between atoms: N6_31  and  O6_32 
REMARK   11  A    between atoms: N6_31  and  O7_34 
REMARK   12  A    between atoms: C15_38  and  C16_39 
ROOT
HETATM    1  C4  UNL     1     -29.232   5.111 -31.714  1.00  0.00     0.162 A 
HETATM    2  O2  UNL     1     -29.427   4.827 -32.991  1.00  0.00    -0.285 OA
HETATM    3  C5  UNL     1     -28.446   4.673 -33.852  1.00  0.00     0.183 A 
HETATM    4  C6  UNL     1     -27.107   4.803 -33.471  1.00  0.00     0.113 A 
HETATM    5  C7  UNL     1     -26.059   4.646 -34.359  1.00  0.00     0.133 A 
HETATM    6  N3  UNL     1     -26.423   4.353 -35.652  1.00  0.00    -0.176 N 
ATOM      7  H3  UNL     1     -25.692   4.226 -36.352  1.00  0.00     0.186 HD
HETATM    8  C8  UNL     1     -27.694   4.228 -36.021  1.00  0.00     0.681 A 
HETATM    9  N5  UNL     1     -28.702   4.385 -35.141  1.00  0.00    -0.165 N 
HETATM   10  C9  UNL     1     -30.054   4.233 -35.629  1.00  0.00     0.177 C 
HETATM   11  C10 UNL     1     -26.841   5.098 -32.153  1.00  0.00     0.226 A 
HETATM   12  O3  UNL     1     -25.688   5.240 -31.682  1.00  0.00    -0.284 OA
HETATM   13  C11 UNL     1     -27.931   5.248 -31.288  1.00  0.00     0.155 A 
ENDROOT
BRANCH   1  14
HETATM   14  C3  UNL     1     -30.358   5.270 -30.810  1.00  0.00     0.214 C 
HETATM   15  O1  UNL     1     -30.545   4.306 -29.994  1.00  0.00    -0.288 OA
BRANCH  14  16
HETATM   16  C2  UNL     1     -31.251   6.426 -30.785  1.00  0.00     0.358 C 
BRANCH  16  17
HETATM   17  N1  UNL     1     -31.024   7.377 -29.750  1.00  0.00     0.097 N 
HETATM   18  C1  UNL     1     -31.285   8.731 -30.274  1.00  0.00     0.310 C 
BRANCH  17  19
HETATM   19  C12 UNL     1     -31.809   7.262 -28.565  1.00  0.00     0.339 C 
BRANCH  19  20
HETATM   20  C13 UNL     1     -31.112   6.666 -27.401  1.00  0.00     0.118 A 
HETATM   21  O5  UNL     1     -30.952   5.411 -27.079  1.00  0.00    -0.281 OA
HETATM   22  C14 UNL     1     -30.285   5.244 -25.983  1.00  0.00     0.255 A 
HETATM   23  N7  UNL     1     -29.985   6.503 -25.556  1.00  0.00    -0.315 N 
HETATM   24  C15 UNL     1     -30.490   7.397 -26.424  1.00  0.00     0.144 A 
ATOM     25  H7  UNL     1     -29.460   6.731 -24.712  1.00  0.00     0.169 HD
BRANCH  22  26
HETATM   26  N6  UNL     1     -29.956   4.014 -25.386  1.00  0.00     0.007 NA
BRANCH  26  27
HETATM   27  O6  UNL     1     -30.333   3.939 -24.085  1.00  0.00    -0.281 OA
ATOM     28  H6  UNL     1     -31.219   3.614 -23.973  1.00  0.00     0.240 HD
ENDBRANCH  26  27
BRANCH  26  29
HETATM   29  O7  UNL     1     -30.518   2.960 -26.022  1.00  0.00    -0.281 OA
ATOM     30  H7  UNL     1     -31.238   3.215 -26.587  1.00  0.00     0.240 HD
ENDBRANCH  26  29
ENDBRANCH  22  26
BRANCH  24  31
HETATM   31  C16 UNL     1     -30.372   8.852 -26.302  1.00  0.00     0.229 C 
HETATM   32  O8  UNL     1     -29.314   9.463 -26.531  1.00  0.00    -0.643 OA
HETATM   33  O9  UNL     1     -31.471   9.616 -25.916  1.00  0.00    -0.643 OA
ENDBRANCH  24  31
ENDBRANCH  19  20
ENDBRANCH  17  19
ENDBRANCH  16  17
ENDBRANCH  14  16
ENDBRANCH   1  14
BRANCH  13  34
HETATM   34  O4  UNL     1     -27.617   5.544 -29.967  1.00  0.00    -0.355 OA
ATOM     35  H4  UNL     1     -27.297   6.400 -29.706  1.00  0.00     0.218 HD
ENDBRANCH  13  34
BRANCH   5  36
HETATM   36  N2  UNL     1     -24.869   4.757 -34.038  1.00  0.00    -0.384 N 
ATOM     37  H22 UNL     1     -24.365   3.984 -33.603  1.00  0.00     0.157 HD
ATOM     38  H21 UNL     1     -24.323   5.607 -34.182  1.00  0.00     0.157 HD
ENDBRANCH   5  36
BRANCH   8  39
HETATM   39  N4  UNL     1     -27.988   3.947 -37.270  1.00  0.00    -0.234 N 
ATOM     40  H42 UNL     1     -27.525   3.154 -37.714  1.00  0.00     0.174 HD
ATOM     41  H41 UNL     1     -28.668   4.518 -37.773  1.00  0.00     0.174 HD
ENDBRANCH   8  39
TORSDOF 12
ENDMDL
MODEL 4
REMARK VINA RESULT: -7.880710604      5.257     10.752
REMARK  12 active torsions:
REMARK  status: ('A' for Active; 'I' for Inactive)
REMARK    1  A    between atoms: N1_2  and  C2_3 
REMARK    2  A    between atoms: N1_2  and  C12_27 
REMARK    3  A    between atoms: C2_3  and  C3_4 
REMARK    4  A    between atoms: C3_4  and  C4_6 
REMARK    5  A    between atoms: C7_10  and  N2_11 
REMARK    6  A    between atoms: C8_16  and  N4_17 
REMARK    7  A    between atoms: C11_24  and  O4_25 
REMARK    8  A    between atoms: C12_27  and  C13_28 
REMARK    9  A    between atoms: C14_30  and  N6_31 
REMARK   10  A    between atoms: N6_31  and  O6_32 
REMARK   11  A    between atoms: N6_31  and  O7_34 
REMARK   12  A    between atoms: C15_38  and  C16_39 
ROOT
HETATM    1  C4  UNL     1     -29.092   5.087 -31.741  1.00  0.00     0.162 A 
HETATM    2  O2  UNL     1     -29.325   4.823 -33.016  1.00  0.00    -0.285 OA
HETATM    3  C5  UNL     1     -28.369   4.668 -33.904  1.00  0.00     0.183 A 
HETATM    4  C6  UNL     1     -27.018   4.775 -33.556  1.00  0.00     0.113 A 
HETATM    5  C7  UNL     1     -25.996   4.616 -34.474  1.00  0.00     0.133 A 
HETATM    6  N3  UNL     1     -26.397   4.345 -35.760  1.00  0.00    -0.176 N 
ATOM      7  H3  UNL     1     -25.687   4.219 -36.481  1.00  0.00     0.186 HD
HETATM    8  C8  UNL     1     -27.679   4.242 -36.097  1.00  0.00     0.681 A 
HETATM    9  N5  UNL     1     -28.661   4.400 -35.189  1.00  0.00    -0.165 N 
HETATM   10  C9  UNL     1     -30.027   4.272 -35.643  1.00  0.00     0.177 C 
HETATM   11  C10 UNL     1     -26.715   5.049 -32.241  1.00  0.00     0.226 A 
HETATM   12  O3  UNL     1     -25.548   5.169 -31.799  1.00  0.00    -0.284 OA
HETATM   13  C11 UNL     1     -27.779   5.202 -31.347  1.00  0.00     0.155 A 
ENDROOT
BRANCH   1  14
HETATM   14  C3  UNL     1     -30.193   5.248 -30.805  1.00  0.00     0.214 C 
HETATM   15  O1  UNL     1     -30.415   4.248 -30.044  1.00  0.00    -0.288 OA
BRANCH  14  16
HETATM   16  C2  UNL     1     -31.024   6.444 -30.693  1.00  0.00     0.358 C 
BRANCH  16  17
HETATM   17  N1  UNL     1     -30.938   7.161 -29.465  1.00  0.00     0.097 N 
HETATM   18  C1  UNL     1     -32.152   6.901 -28.670  1.00  0.00     0.310 C 
BRANCH  17  19
HETATM   19  C12 UNL     1     -29.841   6.865 -28.605  1.00  0.00     0.339 C 
BRANCH  19  20
HETATM   20  C13 UNL     1     -30.206   6.515 -27.212  1.00  0.00     0.118 A 
HETATM   21  O5  UNL     1     -30.589   5.370 -26.714  1.00  0.00    -0.281 OA
HETATM   22  C14 UNL     1     -30.832   5.419 -25.444  1.00  0.00     0.255 A 
HETATM   23  N7  UNL     1     -30.586   6.711 -25.087  1.00  0.00    -0.315 N 
HETATM   24  C15 UNL     1     -30.197   7.404 -26.170  1.00  0.00     0.144 A 
ATOM     25  H7  UNL     1     -30.682   7.092 -24.145  1.00  0.00     0.169 HD
BRANCH  22  26
HETATM   26  N6  UNL     1     -31.258   4.351 -24.635  1.00  0.00     0.007 NA
BRANCH  26  27
HETATM   27  O6  UNL     1     -32.196   4.717 -23.725  1.00  0.00    -0.281 OA
ATOM     28  H6  UNL     1     -32.436   4.011 -23.136  1.00  0.00     0.240 HD
ENDBRANCH  26  27
BRANCH  26  29
HETATM   29  O7  UNL     1     -31.781   3.330 -25.353  1.00  0.00    -0.281 OA
ATOM     30  H7  UNL     1     -31.154   2.633 -25.508  1.00  0.00     0.240 HD
ENDBRANCH  26  29
ENDBRANCH  22  26
BRANCH  24  31
HETATM   31  C16 UNL     1     -29.845   8.826 -26.183  1.00  0.00     0.229 C 
HETATM   32  O8  UNL     1     -30.682   9.726 -26.371  1.00  0.00    -0.643 OA
HETATM   33  O9  UNL     1     -28.525   9.224 -25.979  1.00  0.00    -0.643 OA
ENDBRANCH  24  31
ENDBRANCH  19  20
ENDBRANCH  17  19
ENDBRANCH  16  17
ENDBRANCH  14  16
ENDBRANCH   1  14
BRANCH  13  34
HETATM   34  O4  UNL     1     -27.427   5.476 -30.031  1.00  0.00    -0.355 OA
ATOM     35  H4  UNL     1     -26.970   4.843 -29.491  1.00  0.00     0.218 HD
ENDBRANCH  13  34
BRANCH   5  36
HETATM   36  N2  UNL     1     -24.796   4.707 -34.182  1.00  0.00    -0.384 N 
ATOM     37  H22 UNL     1     -24.483   4.662 -33.212  1.00  0.00     0.157 HD
ATOM     38  H21 UNL     1     -24.057   4.831 -34.874  1.00  0.00     0.157 HD
ENDBRANCH   5  36
BRANCH   8  39
HETATM   39  N4  UNL     1     -28.009   3.981 -37.342  1.00  0.00    -0.234 N 
ATOM     40  H42 UNL     1     -28.235   4.760 -37.961  1.00  0.00     0.174 HD
ATOM     41  H41 UNL     1     -28.036   3.015 -37.668  1.00  0.00     0.174 HD
ENDBRANCH   8  39
TORSDOF 12
ENDMDL
MODEL 5
REMARK VINA RESULT: -7.854183345      3.717      8.934
REMARK  12 active torsions:
REMARK  status: ('A' for Active; 'I' for Inactive)
REMARK    1  A    between atoms: N1_2  and  C2_3 
REMARK    2  A    between atoms: N1_2  and  C12_27 
REMARK    3  A    between atoms: C2_3  and  C3_4 
REMARK    4  A    between atoms: C3_4  and  C4_6 
REMARK    5  A    between atoms: C7_10  and  N2_11 
REMARK    6  A    between atoms: C8_16  and  N4_17 
REMARK    7  A    between atoms: C11_24  and  O4_25 
REMARK    8  A    between atoms: C12_27  and  C13_28 
REMARK    9  A    between atoms: C14_30  and  N6_31 
REMARK   10  A    between atoms: N6_31  and  O6_32 
REMARK   11  A    between atoms: N6_31  and  O7_34 
REMARK   12  A    between atoms: C15_38  and  C16_39 
ROOT
HETATM    1  C4  UNL     1     -30.217   5.504 -29.515  1.00  0.00     0.162 A 
HETATM    2  O2  UNL     1     -30.940   5.719 -30.602  1.00  0.00    -0.285 OA
HETATM    3  C5  UNL     1     -30.468   5.572 -31.820  1.00  0.00     0.183 A 
HETATM    4  C6  UNL     1     -29.147   5.174 -32.053  1.00  0.00     0.113 A 
HETATM    5  C7  UNL     1     -28.629   5.014 -33.326  1.00  0.00     0.133 A 
HETATM    6  N3  UNL     1     -29.504   5.275 -34.354  1.00  0.00    -0.176 N 
ATOM      7  H3  UNL     1     -29.178   5.175 -35.315  1.00  0.00     0.186 HD
HETATM    8  C8  UNL     1     -30.760   5.654 -34.138  1.00  0.00     0.681 A 
HETATM    9  N5  UNL     1     -31.247   5.804 -32.891  1.00  0.00    -0.165 N 
HETATM   10  C9  UNL     1     -32.624   6.220 -32.750  1.00  0.00     0.177 C 
HETATM   11  C10 UNL     1     -28.346   4.936 -30.959  1.00  0.00     0.226 A 
HETATM   12  O3  UNL     1     -27.148   4.574 -31.030  1.00  0.00    -0.284 OA
HETATM   13  C11 UNL     1     -28.910   5.110 -29.691  1.00  0.00     0.155 A 
ENDROOT
BRANCH   1  14
HETATM   14  C3  UNL     1     -30.795   5.684 -28.194  1.00  0.00     0.214 C 
HETATM   15  O1  UNL     1     -31.113   4.608 -27.585  1.00  0.00    -0.288 OA
BRANCH  14  16
HETATM   16  C2  UNL     1     -31.021   6.976 -27.551  1.00  0.00     0.358 C 
BRANCH  16  17
HETATM   17  N1  UNL     1     -29.882   7.601 -26.969  1.00  0.00     0.097 N 
HETATM   18  C1  UNL     1     -29.823   9.006 -27.413  1.00  0.00     0.310 C 
BRANCH  17  19
HETATM   19  C12 UNL     1     -29.807   7.641 -25.546  1.00  0.00     0.339 C 
BRANCH  19  20
HETATM   20  C13 UNL     1     -30.664   6.659 -24.841  1.00  0.00     0.118 A 
HETATM   21  O5  UNL     1     -30.475   5.384 -24.635  1.00  0.00    -0.281 OA
HETATM   22  C14 UNL     1     -31.437   4.822 -23.976  1.00  0.00     0.255 A 
HETATM   23  N7  UNL     1     -32.330   5.822 -23.733  1.00  0.00    -0.315 N 
HETATM   24  C15 UNL     1     -31.867   6.968 -24.263  1.00  0.00     0.144 A 
ATOM     25  H7  UNL     1     -33.211   5.718 -23.229  1.00  0.00     0.169 HD
BRANCH  22  26
HETATM   26  N6  UNL     1     -31.514   3.468 -23.606  1.00  0.00     0.007 NA
BRANCH  26  27
HETATM   27  O6  UNL     1     -31.748   2.644 -24.659  1.00  0.00    -0.281 OA
ATOM     28  H6  UNL     1     -31.658   1.725 -24.437  1.00  0.00     0.240 HD
ENDBRANCH  26  27
BRANCH  26  29
HETATM   29  O7  UNL     1     -30.386   3.028 -23.002  1.00  0.00    -0.281 OA
ATOM     30  H7  UNL     1     -30.489   2.164 -22.620  1.00  0.00     0.240 HD
ENDBRANCH  26  29
ENDBRANCH  22  26
BRANCH  24  31
HETATM   31  C16 UNL     1     -32.551   8.263 -24.205  1.00  0.00     0.229 C 
HETATM   32  O8  UNL     1     -32.923   8.780 -23.138  1.00  0.00    -0.643 OA
HETATM   33  O9  UNL     1     -32.812   8.971 -25.376  1.00  0.00    -0.643 OA
ENDBRANCH  24  31
ENDBRANCH  19  20
ENDBRANCH  17  19
ENDBRANCH  16  17
ENDBRANCH  14  16
ENDBRANCH   1  14
BRANCH  13  34
HETATM   34  O4  UNL     1     -28.067   4.857 -28.616  1.00  0.00    -0.355 OA
ATOM     35  H4  UNL     1     -28.038   4.010 -28.188  1.00  0.00     0.218 HD
ENDBRANCH  13  34
BRANCH   5  36
HETATM   36  N2  UNL     1     -27.464   4.662 -33.550  1.00  0.00    -0.384 N 
ATOM     37  H22 UNL     1     -27.163   3.701 -33.390  1.00  0.00     0.157 HD
ATOM     38  H21 UNL     1     -26.743   5.293 -33.899  1.00  0.00     0.157 HD
ENDBRANCH   5  36
BRANCH   8  39
HETATM   39  N4  UNL     1     -31.556   5.890 -35.157  1.00  0.00    -0.234 N 
ATOM     40  H42 UNL     1     -31.224   6.498 -35.905  1.00  0.00     0.174 HD
ATOM     41  H41 UNL     1     -32.484   5.468 -35.185  1.00  0.00     0.174 HD
ENDBRANCH   8  39
TORSDOF 12
ENDMDL
