MODEL 1
REMARK VINA RESULT: -8.833051315      0.000      0.000
REMARK  6 active torsions:
REMARK  status: ('A' for Active; 'I' for Inactive)
REMARK    1  A    between atoms: C2_2  and  C5_5 
REMARK    2  A    between atoms: C8_9  and  N1_10 
REMARK    3  A    between atoms: N1_10  and  C9_12 
REMARK    4  A    between atoms: C11_14  and  C12_15 
REMARK    5  A    between atoms: C12_15  and  O1_16 
REMARK    6  A    between atoms: N3_20  and  C13_21 
ROOT
HETATM    1  C9  UNL     1      -7.492   7.650  15.450  1.00  0.00     0.130 A 
HETATM    2  C10 UNL     1      -7.586   6.688  16.429  1.00  0.00     0.079 A 
HETATM    3  C11 UNL     1      -8.295   5.655  15.870  1.00  0.00     0.053 A 
HETATM    4  N2  UNL     1      -8.590   6.024  14.618  1.00  0.00    -0.294 N 
ATOM      5  H2  UNL     1      -9.115   5.450  13.958  1.00  0.00     0.187 HD
HETATM    6  N3  UNL     1      -8.111   7.228  14.346  1.00  0.00    -0.240 N 
ENDROOT
BRANCH   1   7
HETATM    7  N1  UNL     1      -6.905   8.791  15.549  1.00  0.00    -0.336 N 
ATOM      8  H1  UNL     1      -6.509   9.211  14.707  1.00  0.00     0.168 HD
BRANCH   7   9
HETATM    9  C8  UNL     1      -6.783   9.494  16.786  1.00  0.00     0.111 A 
HETATM   10  C7  UNL     1      -5.740   9.251  17.650  1.00  0.00     0.146 A 
HETATM   11  C6  UNL     1      -5.634   9.943  18.851  1.00  0.00     0.052 A 
HETATM   12  F1  UNL     1      -4.783   8.333  17.362  1.00  0.00    -0.204 F 
HETATM   13  C5  UNL     1      -6.562  10.893  19.223  1.00  0.00    -0.045 A 
HETATM   14  C20 UNL     1      -7.606  11.134  18.354  1.00  0.00     0.052 A 
HETATM   15  C19 UNL     1      -7.707  10.453  17.174  1.00  0.00     0.146 A 
HETATM   16  F2  UNL     1      -8.727  10.687  16.323  1.00  0.00    -0.204 F 
BRANCH  13  17
HETATM   17  C2  UNL     1      -6.421  11.612  20.508  1.00  0.00    -0.024 C 
HETATM   18  C1  UNL     1      -5.020  12.198  20.601  1.00  0.00     0.019 C 
HETATM   19  C3  UNL     1      -6.609  10.685  21.676  1.00  0.00     0.019 C 
HETATM   20  C4  UNL     1      -7.392  12.755  20.547  1.00  0.00     0.019 C 
ENDBRANCH  13  17
ENDBRANCH   7   9
ENDBRANCH   1   7
BRANCH   6  21
HETATM   21  C13 UNL     1      -8.241   7.911  13.128  1.00  0.00     0.058 A 
HETATM   22  C14 UNL     1      -8.832   9.154  13.021  1.00  0.00     0.031 A 
HETATM   23  C15 UNL     1      -8.965   9.833  11.831  1.00  0.00     0.002 A 
HETATM   24  C16 UNL     1      -8.490   9.261  10.678  1.00  0.00     0.000 A 
HETATM   25  C17 UNL     1      -7.894   8.017  10.760  1.00  0.00     0.002 A 
HETATM   26  C18 UNL     1      -7.763   7.341  11.954  1.00  0.00     0.031 A 
ENDBRANCH   6  21
BRANCH   3  27
HETATM   27  C12 UNL     1      -8.627   4.401  16.592  1.00  0.00     0.222 C 
BRANCH  27  28
HETATM   28  O1  UNL     1      -7.475   3.658  16.858  1.00  0.00    -0.395 OA
ATOM     29  H1  UNL     1      -7.588   2.751  16.596  1.00  0.00     0.209 HD
ENDBRANCH  27  28
ENDBRANCH   3  27
TORSDOF 6
ENDMDL
MODEL 2
REMARK VINA RESULT: -8.826473359      0.065      1.601
REMARK  6 active torsions:
REMARK  status: ('A' for Active; 'I' for Inactive)
REMARK    1  A    between atoms: C2_2  and  C5_5 
REMARK    2  A    between atoms: C8_9  and  N1_10 
REMARK    3  A    between atoms: N1_10  and  C9_12 
REMARK    4  A    between atoms: C11_14  and  C12_15 
REMARK    5  A    between atoms: C12_15  and  O1_16 
REMARK    6  A    between atoms: N3_20  and  C13_21 
ROOT
HETATM    1  C9  UNL     1      -7.501   7.653  15.449  1.00  0.00     0.130 A 
HETATM    2  C10 UNL     1      -7.592   6.688  16.425  1.00  0.00     0.079 A 
HETATM    3  C11 UNL     1      -8.298   5.655  15.863  1.00  0.00     0.053 A 
HETATM    4  N2  UNL     1      -8.594   6.026  14.612  1.00  0.00    -0.294 N 
ATOM      5  H2  UNL     1      -9.118   5.453  13.951  1.00  0.00     0.187 HD
HETATM    6  N3  UNL     1      -8.119   7.232  14.343  1.00  0.00    -0.240 N 
ENDROOT
BRANCH   1   7
HETATM    7  N1  UNL     1      -6.916   8.795  15.550  1.00  0.00    -0.336 N 
ATOM      8  H1  UNL     1      -6.507   9.211  14.713  1.00  0.00     0.168 HD
BRANCH   7   9
HETATM    9  C8  UNL     1      -6.815   9.505  16.785  1.00  0.00     0.111 A 
HETATM   10  C7  UNL     1      -7.770  10.419  17.169  1.00  0.00     0.146 A 
HETATM   11  C6  UNL     1      -7.659  11.103  18.373  1.00  0.00     0.052 A 
HETATM   12  F1  UNL     1      -8.848  10.683  16.389  1.00  0.00    -0.204 F 
HETATM   13  C5  UNL     1      -6.595  10.896  19.228  1.00  0.00    -0.045 A 
HETATM   14  C20 UNL     1      -5.640   9.979  18.840  1.00  0.00     0.052 A 
HETATM   15  C19 UNL     1      -5.753   9.308  17.655  1.00  0.00     0.146 A 
HETATM   16  F2  UNL     1      -4.819   8.411  17.275  1.00  0.00    -0.204 F 
BRANCH  13  17
HETATM   17  C2  UNL     1      -6.507  11.639  20.503  1.00  0.00    -0.024 C 
HETATM   18  C1  UNL     1      -5.138  12.294  20.606  1.00  0.00     0.019 C 
HETATM   19  C3  UNL     1      -6.666  10.721  21.683  1.00  0.00     0.019 C 
HETATM   20  C4  UNL     1      -7.533  12.734  20.512  1.00  0.00     0.019 C 
ENDBRANCH  13  17
ENDBRANCH   7   9
ENDBRANCH   1   7
BRANCH   6  21
HETATM   21  C13 UNL     1      -8.250   7.918  13.127  1.00  0.00     0.058 A 
HETATM   22  C14 UNL     1      -8.845   9.160  13.024  1.00  0.00     0.031 A 
HETATM   23  C15 UNL     1      -8.980   9.842  11.836  1.00  0.00     0.002 A 
HETATM   24  C16 UNL     1      -8.504   9.275  10.681  1.00  0.00     0.000 A 
HETATM   25  C17 UNL     1      -7.904   8.033  10.760  1.00  0.00     0.002 A 
HETATM   26  C18 UNL     1      -7.772   7.353  11.952  1.00  0.00     0.031 A 
ENDBRANCH   6  21
BRANCH   3  27
HETATM   27  C12 UNL     1      -8.627   4.398  16.581  1.00  0.00     0.222 C 
BRANCH  27  28
HETATM   28  O1  UNL     1      -7.473   3.654  16.840  1.00  0.00    -0.395 OA
ATOM     29  H1  UNL     1      -7.431   2.887  16.281  1.00  0.00     0.209 HD
ENDBRANCH  27  28
ENDBRANCH   3  27
TORSDOF 6
ENDMDL
MODEL 3
REMARK VINA RESULT: -8.823244969      2.782      6.929
REMARK  6 active torsions:
REMARK  status: ('A' for Active; 'I' for Inactive)
REMARK    1  A    between atoms: C2_2  and  C5_5 
REMARK    2  A    between atoms: C8_9  and  N1_10 
REMARK    3  A    between atoms: N1_10  and  C9_12 
REMARK    4  A    between atoms: C11_14  and  C12_15 
REMARK    5  A    between atoms: C12_15  and  O1_16 
REMARK    6  A    between atoms: N3_20  and  C13_21 
ROOT
HETATM    1  C9  UNL     1      -7.757   9.687  18.016  1.00  0.00     0.130 A 
HETATM    2  C10 UNL     1      -8.151  10.845  18.645  1.00  0.00     0.079 A 
HETATM    3  C11 UNL     1      -7.000  11.415  19.129  1.00  0.00     0.053 A 
HETATM    4  N2  UNL     1      -5.993  10.604  18.784  1.00  0.00    -0.294 N 
ATOM      5  H2  UNL     1      -5.014  10.774  19.012  1.00  0.00     0.187 HD
HETATM    6  N3  UNL     1      -6.432   9.553  18.110  1.00  0.00    -0.240 N 
ENDROOT
BRANCH   1   7
HETATM    7  N1  UNL     1      -8.521   8.840  17.420  1.00  0.00    -0.336 N 
ATOM      8  H1  UNL     1      -9.133   8.251  17.985  1.00  0.00     0.168 HD
BRANCH   7   9
HETATM    9  C8  UNL     1      -8.547   8.689  16.000  1.00  0.00     0.111 A 
HETATM   10  C7  UNL     1      -8.897   9.732  15.173  1.00  0.00     0.146 A 
HETATM   11  C6  UNL     1      -8.919   9.570  13.793  1.00  0.00     0.052 A 
HETATM   12  F1  UNL     1      -9.231  10.948  15.673  1.00  0.00    -0.204 F 
HETATM   13  C5  UNL     1      -8.594   8.367  13.199  1.00  0.00    -0.045 A 
HETATM   14  C20 UNL     1      -8.243   7.324  14.032  1.00  0.00     0.052 A 
HETATM   15  C19 UNL     1      -8.223   7.487  15.388  1.00  0.00     0.146 A 
HETATM   16  F2  UNL     1      -7.880   6.467  16.203  1.00  0.00    -0.204 F 
BRANCH  13  17
HETATM   17  C2  UNL     1      -8.626   8.228  11.727  1.00  0.00    -0.024 C 
HETATM   18  C1  UNL     1      -7.645   7.145  11.305  1.00  0.00     0.019 C 
HETATM   19  C3  UNL     1      -8.219   9.507  11.048  1.00  0.00     0.019 C 
HETATM   20  C4  UNL     1      -9.996   7.789  11.300  1.00  0.00     0.019 C 
ENDBRANCH  13  17
ENDBRANCH   7   9
ENDBRANCH   1   7
BRANCH   6  21
HETATM   21  C13 UNL     1      -5.643   8.511  17.601  1.00  0.00     0.058 A 
HETATM   22  C14 UNL     1      -5.051   8.554  16.354  1.00  0.00     0.031 A 
HETATM   23  C15 UNL     1      -4.276   7.537  15.846  1.00  0.00     0.002 A 
HETATM   24  C16 UNL     1      -4.067   6.412  16.603  1.00  0.00     0.000 A 
HETATM   25  C17 UNL     1      -4.650   6.346  17.854  1.00  0.00     0.002 A 
HETATM   26  C18 UNL     1      -5.426   7.368  18.360  1.00  0.00     0.031 A 
ENDBRANCH   6  21
BRANCH   3  27
HETATM   27  C12 UNL     1      -6.971  12.694  19.883  1.00  0.00     0.222 C 
BRANCH  27  28
HETATM   28  O1  UNL     1      -8.242  13.019  20.364  1.00  0.00    -0.395 OA
ATOM     29  H1  UNL     1      -8.297  13.942  20.583  1.00  0.00     0.209 HD
ENDBRANCH  27  28
ENDBRANCH   3  27
TORSDOF 6
ENDMDL
MODEL 4
REMARK VINA RESULT: -8.786167625      2.785      6.788
REMARK  6 active torsions:
REMARK  status: ('A' for Active; 'I' for Inactive)
REMARK    1  A    between atoms: C2_2  and  C5_5 
REMARK    2  A    between atoms: C8_9  and  N1_10 
REMARK    3  A    between atoms: N1_10  and  C9_12 
REMARK    4  A    between atoms: C11_14  and  C12_15 
REMARK    5  A    between atoms: C12_15  and  O1_16 
REMARK    6  A    between atoms: N3_20  and  C13_21 
ROOT
HETATM    1  C9  UNL     1      -7.789   9.729  18.017  1.00  0.00     0.130 A 
HETATM    2  C10 UNL     1      -8.168  10.892  18.646  1.00  0.00     0.079 A 
HETATM    3  C11 UNL     1      -7.010  11.448  19.128  1.00  0.00     0.053 A 
HETATM    4  N2  UNL     1      -6.013  10.625  18.781  1.00  0.00    -0.294 N 
ATOM      5  H2  UNL     1      -5.031  10.783  19.007  1.00  0.00     0.187 HD
HETATM    6  N3  UNL     1      -6.466   9.579  18.107  1.00  0.00    -0.240 N 
ENDROOT
BRANCH   1   7
HETATM    7  N1  UNL     1      -8.564   8.891  17.421  1.00  0.00    -0.336 N 
ATOM      8  H1  UNL     1      -9.197   8.324  17.987  1.00  0.00     0.168 HD
BRANCH   7   9
HETATM    9  C8  UNL     1      -8.577   8.722  16.004  1.00  0.00     0.111 A 
HETATM   10  C7  UNL     1      -8.255   7.517  15.421  1.00  0.00     0.146 A 
HETATM   11  C6  UNL     1      -8.271   7.367  14.040  1.00  0.00     0.052 A 
HETATM   12  F1  UNL     1      -7.913   6.439  16.170  1.00  0.00    -0.204 F 
HETATM   13  C5  UNL     1      -8.607   8.411  13.202  1.00  0.00    -0.045 A 
HETATM   14  C20 UNL     1      -8.930   9.617  13.790  1.00  0.00     0.052 A 
HETATM   15  C19 UNL     1      -8.913   9.760  15.148  1.00  0.00     0.146 A 
HETATM   16  F2  UNL     1      -9.228  10.939  15.723  1.00  0.00    -0.204 F 
BRANCH  13  17
HETATM   17  C2  UNL     1      -8.616   8.218  11.735  1.00  0.00    -0.024 C 
HETATM   18  C1  UNL     1      -7.633   7.116  11.370  1.00  0.00     0.019 C 
HETATM   19  C3  UNL     1      -8.190   9.469  11.018  1.00  0.00     0.019 C 
HETATM   20  C4  UNL     1      -9.980   7.769  11.301  1.00  0.00     0.019 C 
ENDBRANCH  13  17
ENDBRANCH   7   9
ENDBRANCH   1   7
BRANCH   6  21
HETATM   21  C13 UNL     1      -5.691   8.528  17.597  1.00  0.00     0.058 A 
HETATM   22  C14 UNL     1      -5.080   8.574  16.360  1.00  0.00     0.031 A 
HETATM   23  C15 UNL     1      -4.317   7.548  15.850  1.00  0.00     0.002 A 
HETATM   24  C16 UNL     1      -4.143   6.410  16.595  1.00  0.00     0.000 A 
HETATM   25  C17 UNL     1      -4.745   6.340  17.837  1.00  0.00     0.002 A 
HETATM   26  C18 UNL     1      -5.508   7.371  18.344  1.00  0.00     0.031 A 
ENDBRANCH   6  21
BRANCH   3  27
HETATM   27  C12 UNL     1      -6.964  12.726  19.882  1.00  0.00     0.222 C 
BRANCH  27  28
HETATM   28  O1  UNL     1      -8.216  13.036  20.417  1.00  0.00    -0.395 OA
ATOM     29  H1  UNL     1      -8.906  12.568  19.960  1.00  0.00     0.209 HD
ENDBRANCH  27  28
ENDBRANCH   3  27
TORSDOF 6
ENDMDL
MODEL 5
REMARK VINA RESULT: -8.362935276      3.323      5.475
REMARK  6 active torsions:
REMARK  status: ('A' for Active; 'I' for Inactive)
REMARK    1  A    between atoms: C2_2  and  C5_5 
REMARK    2  A    between atoms: C8_9  and  N1_10 
REMARK    3  A    between atoms: N1_10  and  C9_12 
REMARK    4  A    between atoms: C11_14  and  C12_15 
REMARK    5  A    between atoms: C12_15  and  O1_16 
REMARK    6  A    between atoms: N3_20  and  C13_21 
ROOT
HETATM    1  C9  UNL     1      -7.857   6.689  15.677  1.00  0.00     0.130 A 
HETATM    2  C10 UNL     1      -7.945   6.126  14.425  1.00  0.00     0.079 A 
HETATM    3  C11 UNL     1      -7.826   7.167  13.539  1.00  0.00     0.053 A 
HETATM    4  N2  UNL     1      -7.676   8.278  14.269  1.00  0.00    -0.294 N 
ATOM      5  H2  UNL     1      -7.564   9.213  13.876  1.00  0.00     0.187 HD
HETATM    6  N3  UNL     1      -7.692   8.009  15.564  1.00  0.00    -0.240 N 
ENDROOT
BRANCH   1   7
HETATM    7  N1  UNL     1      -7.920   6.070  16.803  1.00  0.00    -0.336 N 
ATOM      8  H1  UNL     1      -8.835   5.791  17.157  1.00  0.00     0.168 HD
BRANCH   7   9
HETATM    9  C8  UNL     1      -6.762   5.756  17.579  1.00  0.00     0.111 A 
HETATM   10  C7  UNL     1      -5.783   4.915  17.101  1.00  0.00     0.146 A 
HETATM   11  C6  UNL     1      -4.663   4.619  17.867  1.00  0.00     0.052 A 
HETATM   12  F1  UNL     1      -5.877   4.349  15.872  1.00  0.00    -0.204 F 
HETATM   13  C5  UNL     1      -4.486   5.151  19.128  1.00  0.00    -0.045 A 
HETATM   14  C20 UNL     1      -5.470   5.994  19.603  1.00  0.00     0.052 A 
HETATM   15  C19 UNL     1      -6.570   6.283  18.847  1.00  0.00     0.146 A 
HETATM   16  F2  UNL     1      -7.532   7.107  19.312  1.00  0.00    -0.204 F 
BRANCH  13  17
HETATM   17  C2  UNL     1      -3.281   4.816  19.918  1.00  0.00    -0.024 C 
HETATM   18  C1  UNL     1      -2.440   6.070  20.102  1.00  0.00     0.019 C 
HETATM   19  C3  UNL     1      -2.433   3.794  19.213  1.00  0.00     0.019 C 
HETATM   20  C4  UNL     1      -3.696   4.346  21.281  1.00  0.00     0.019 C 
ENDBRANCH  13  17
ENDBRANCH   7   9
ENDBRANCH   1   7
BRANCH   6  21
HETATM   21  C13 UNL     1      -7.560   8.942  16.603  1.00  0.00     0.058 A 
HETATM   22  C14 UNL     1      -8.637   9.592  17.173  1.00  0.00     0.031 A 
HETATM   23  C15 UNL     1      -8.518  10.509  18.192  1.00  0.00     0.002 A 
HETATM   24  C16 UNL     1      -7.273  10.807  18.682  1.00  0.00     0.000 A 
HETATM   25  C17 UNL     1      -6.179  10.169  18.128  1.00  0.00     0.002 A 
HETATM   26  C18 UNL     1      -6.303   9.251  17.107  1.00  0.00     0.031 A 
ENDBRANCH   6  21
BRANCH   3  27
HETATM   27  C12 UNL     1      -7.867   7.000  12.064  1.00  0.00     0.222 C 
BRANCH  27  28
HETATM   28  O1  UNL     1      -8.177   5.682  11.719  1.00  0.00    -0.395 OA
ATOM     29  H1  UNL     1      -7.505   5.084  12.023  1.00  0.00     0.209 HD
ENDBRANCH  27  28
ENDBRANCH   3  27
TORSDOF 6
ENDMDL
