MODEL 1
REMARK VINA RESULT: -7.410223038      0.000      0.000
REMARK  3 active torsions:
REMARK  status: ('A' for Active; 'I' for Inactive)
REMARK    1  A    between atoms: C2_2  and  N1_4 
REMARK       I    between atoms: N1_4  and  C4_6 
REMARK       I    between atoms: C4_6  and  N2_8 
REMARK       I    between atoms: N2_8  and  C5_10 
REMARK    2  A    between atoms: C5_10  and  C6_12 
REMARK    3  A    between atoms: C10_16  and  N3_17 
ROOT
HETATM    1  N1  UNL     1     -22.778 -27.355 -15.914  1.00  0.00    -0.339 N 
ATOM      2  H1  UNL     1     -22.486 -27.587 -16.863  1.00  0.00     0.164 HD
HETATM    3  C4  UNL     1     -22.214 -26.243 -15.274  1.00  0.00     0.323 C 
HETATM    4  O1  UNL     1     -22.622 -25.996 -14.070  1.00  0.00    -0.247 OA
HETATM    5  N2  UNL     1     -21.263 -25.375 -15.793  1.00  0.00    -0.275 N 
ATOM      6  H2  UNL     1     -20.955 -24.609 -15.193  1.00  0.00     0.173 HD
HETATM    7  C5  UNL     1     -20.691 -25.458 -17.065  1.00  0.00     0.259 C 
HETATM    8  O2  UNL     1     -20.989 -26.350 -17.874  1.00  0.00    -0.267 OA
ENDROOT
BRANCH   7   9
HETATM    9  C6  UNL     1     -19.689 -24.484 -17.525  1.00  0.00     0.034 A 
HETATM   10  C7  UNL     1     -19.824 -23.776 -18.689  1.00  0.00     0.017 A 
HETATM   11  C8  UNL     1     -18.857 -22.857 -19.094  1.00  0.00     0.003 A 
HETATM   12  C9  UNL     1     -17.737 -22.635 -18.335  1.00  0.00     0.036 A 
HETATM   13  C10 UNL     1     -17.561 -23.340 -17.136  1.00  0.00     0.103 A 
HETATM   14  C11 UNL     1     -18.545 -24.232 -16.786  1.00  0.00     0.053 A 
BRANCH  13  15
HETATM   15  N3  UNL     1     -16.404 -23.120 -16.339  1.00  0.00    -0.116 N 
HETATM   16  O3  UNL     1     -16.354 -23.570 -15.186  1.00  0.00    -0.532 OA
HETATM   17  O4  UNL     1     -15.335 -22.416 -16.817  1.00  0.00    -0.532 OA
ENDBRANCH  13  15
ENDBRANCH   7   9
BRANCH   1  18
HETATM   18  C2  UNL     1     -23.786 -28.195 -15.239  1.00  0.00     0.078 C 
HETATM   19  C1  UNL     1     -23.505 -29.643 -15.479  1.00  0.00     0.032 C 
HETATM   20  C3  UNL     1     -25.125 -27.829 -15.810  1.00  0.00     0.032 C 
ENDBRANCH   1  18
TORSDOF 3
ENDMDL
MODEL 2
REMARK VINA RESULT: -7.211664827      1.169      1.619
REMARK  3 active torsions:
REMARK  status: ('A' for Active; 'I' for Inactive)
REMARK    1  A    between atoms: C2_2  and  N1_4 
REMARK       I    between atoms: N1_4  and  C4_6 
REMARK       I    between atoms: C4_6  and  N2_8 
REMARK       I    between atoms: N2_8  and  C5_10 
REMARK    2  A    between atoms: C5_10  and  C6_12 
REMARK    3  A    between atoms: C10_16  and  N3_17 
ROOT
HETATM    1  N1  UNL     1     -23.167 -26.900 -15.760  1.00  0.00    -0.339 N 
ATOM      2  H1  UNL     1     -22.996 -26.075 -15.186  1.00  0.00     0.164 HD
HETATM    3  C4  UNL     1     -22.401 -27.105 -16.915  1.00  0.00     0.323 C 
HETATM    4  O1  UNL     1     -22.662 -28.170 -17.605  1.00  0.00    -0.247 OA
HETATM    5  N2  UNL     1     -21.390 -26.288 -17.402  1.00  0.00    -0.275 N 
ATOM      6  H2  UNL     1     -20.927 -26.581 -18.262  1.00  0.00     0.173 HD
HETATM    7  C5  UNL     1     -20.950 -25.098 -16.816  1.00  0.00     0.259 C 
HETATM    8  O2  UNL     1     -21.445 -24.645 -15.772  1.00  0.00    -0.267 OA
ENDROOT
BRANCH   7   9
HETATM    9  C6  UNL     1     -19.865 -24.301 -17.408  1.00  0.00     0.034 A 
HETATM   10  C7  UNL     1     -19.931 -23.784 -18.674  1.00  0.00     0.017 A 
HETATM   11  C8  UNL     1     -18.885 -23.029 -19.204  1.00  0.00     0.003 A 
HETATM   12  C9  UNL     1     -17.754 -22.783 -18.469  1.00  0.00     0.036 A 
HETATM   13  C10 UNL     1     -17.647 -23.295 -17.168  1.00  0.00     0.103 A 
HETATM   14  C11 UNL     1     -18.707 -24.031 -16.697  1.00  0.00     0.053 A 
BRANCH  13  15
HETATM   15  N3  UNL     1     -16.479 -23.047 -16.395  1.00  0.00    -0.116 N 
HETATM   16  O3  UNL     1     -16.411 -23.462 -15.230  1.00  0.00    -0.532 OA
HETATM   17  O4  UNL     1     -15.420 -22.354 -16.909  1.00  0.00    -0.532 OA
ENDBRANCH  13  15
ENDBRANCH   7   9
BRANCH   1  18
HETATM   18  C2  UNL     1     -24.216 -27.857 -15.359  1.00  0.00     0.078 C 
HETATM   19  C1  UNL     1     -25.563 -27.366 -15.782  1.00  0.00     0.032 C 
HETATM   20  C3  UNL     1     -24.159 -27.981 -13.864  1.00  0.00     0.032 C 
ENDBRANCH   1  18
TORSDOF 3
ENDMDL
MODEL 3
REMARK VINA RESULT: -7.187839666      1.381      1.446
REMARK  3 active torsions:
REMARK  status: ('A' for Active; 'I' for Inactive)
REMARK    1  A    between atoms: C2_2  and  N1_4 
REMARK       I    between atoms: N1_4  and  C4_6 
REMARK       I    between atoms: C4_6  and  N2_8 
REMARK       I    between atoms: N2_8  and  C5_10 
REMARK    2  A    between atoms: C5_10  and  C6_12 
REMARK    3  A    between atoms: C10_16  and  N3_17 
ROOT
HETATM    1  N1  UNL     1     -22.777 -26.594 -14.342  1.00  0.00    -0.339 N 
ATOM      2  H1  UNL     1     -23.232 -26.120 -15.122  1.00  0.00     0.164 HD
HETATM    3  C4  UNL     1     -21.395 -26.446 -14.160  1.00  0.00     0.323 C 
HETATM    4  O1  UNL     1     -20.871 -27.071 -13.154  1.00  0.00    -0.247 OA
HETATM    5  N2  UNL     1     -20.526 -25.699 -14.942  1.00  0.00    -0.275 N 
ATOM      6  H2  UNL     1     -19.542 -25.695 -14.671  1.00  0.00     0.173 HD
HETATM    7  C5  UNL     1     -20.879 -24.950 -16.068  1.00  0.00     0.259 C 
HETATM    8  O2  UNL     1     -22.045 -24.887 -16.488  1.00  0.00    -0.267 OA
ENDROOT
BRANCH   7   9
HETATM    9  C6  UNL     1     -19.881 -24.187 -16.831  1.00  0.00     0.034 A 
HETATM   10  C7  UNL     1     -20.122 -23.702 -18.089  1.00  0.00     0.017 A 
HETATM   11  C8  UNL     1     -19.154 -22.978 -18.784  1.00  0.00     0.003 A 
HETATM   12  C9  UNL     1     -17.926 -22.730 -18.225  1.00  0.00     0.036 A 
HETATM   13  C10 UNL     1     -17.639 -23.209 -16.939  1.00  0.00     0.103 A 
HETATM   14  C11 UNL     1     -18.630 -23.916 -16.301  1.00  0.00     0.053 A 
BRANCH  13  15
HETATM   15  N3  UNL     1     -16.371 -22.959 -16.348  1.00  0.00    -0.116 N 
HETATM   16  O3  UNL     1     -16.138 -23.354 -15.197  1.00  0.00    -0.532 OA
HETATM   17  O4  UNL     1     -15.392 -22.287 -17.023  1.00  0.00    -0.532 OA
ENDBRANCH  13  15
ENDBRANCH   7   9
BRANCH   1  18
HETATM   18  C2  UNL     1     -23.583 -27.424 -13.428  1.00  0.00     0.078 C 
HETATM   19  C1  UNL     1     -24.195 -28.572 -14.164  1.00  0.00     0.032 C 
HETATM   20  C3  UNL     1     -24.660 -26.545 -12.860  1.00  0.00     0.032 C 
ENDBRANCH   1  18
TORSDOF 3
ENDMDL
MODEL 4
REMARK VINA RESULT: -7.106634408      4.752      7.428
REMARK  3 active torsions:
REMARK  status: ('A' for Active; 'I' for Inactive)
REMARK    1  A    between atoms: C2_2  and  N1_4 
REMARK       I    between atoms: N1_4  and  C4_6 
REMARK       I    between atoms: C4_6  and  N2_8 
REMARK       I    between atoms: N2_8  and  C5_10 
REMARK    2  A    between atoms: C5_10  and  C6_12 
REMARK    3  A    between atoms: C10_16  and  N3_17 
ROOT
HETATM    1  N1  UNL     1     -17.642 -24.399 -16.668  1.00  0.00    -0.339 N 
ATOM      2  H1  UNL     1     -16.682 -24.742 -16.668  1.00  0.00     0.164 HD
HETATM    3  C4  UNL     1     -18.524 -24.825 -15.666  1.00  0.00     0.323 C 
HETATM    4  O1  UNL     1     -19.730 -24.357 -15.716  1.00  0.00    -0.247 OA
HETATM    5  N2  UNL     1     -18.244 -25.696 -14.622  1.00  0.00    -0.275 N 
ATOM      6  H2  UNL     1     -19.002 -25.905 -13.973  1.00  0.00     0.173 HD
HETATM    7  C5  UNL     1     -17.013 -26.312 -14.382  1.00  0.00     0.259 C 
HETATM    8  O2  UNL     1     -16.024 -26.134 -15.110  1.00  0.00    -0.267 OA
ENDROOT
BRANCH   7   9
HETATM    9  C6  UNL     1     -16.814 -27.221 -13.243  1.00  0.00     0.034 A 
HETATM   10  C7  UNL     1     -15.661 -27.242 -12.505  1.00  0.00     0.017 A 
HETATM   11  C8  UNL     1     -15.507 -28.114 -11.428  1.00  0.00     0.003 A 
HETATM   12  C9  UNL     1     -16.510 -28.981 -11.076  1.00  0.00     0.036 A 
HETATM   13  C10 UNL     1     -17.706 -28.991 -11.808  1.00  0.00     0.103 A 
HETATM   14  C11 UNL     1     -17.803 -28.111 -12.858  1.00  0.00     0.053 A 
BRANCH  13  15
HETATM   15  N3  UNL     1     -18.754 -29.885 -11.454  1.00  0.00    -0.116 N 
HETATM   16  O3  UNL     1     -18.520 -31.096 -11.337  1.00  0.00    -0.532 OA
HETATM   17  O4  UNL     1     -20.027 -29.438 -11.237  1.00  0.00    -0.532 OA
ENDBRANCH  13  15
ENDBRANCH   7   9
BRANCH   1  18
HETATM   18  C2  UNL     1     -18.078 -23.464 -17.722  1.00  0.00     0.078 C 
HETATM   19  C1  UNL     1     -18.753 -24.203 -18.832  1.00  0.00     0.032 C 
HETATM   20  C3  UNL     1     -16.850 -22.771 -18.238  1.00  0.00     0.032 C 
ENDBRANCH   1  18
TORSDOF 3
ENDMDL
MODEL 5
REMARK VINA RESULT: -7.077327842      2.685      3.483
REMARK  3 active torsions:
REMARK  status: ('A' for Active; 'I' for Inactive)
REMARK    1  A    between atoms: C2_2  and  N1_4 
REMARK       I    between atoms: N1_4  and  C4_6 
REMARK       I    between atoms: C4_6  and  N2_8 
REMARK       I    between atoms: N2_8  and  C5_10 
REMARK    2  A    between atoms: C5_10  and  C6_12 
REMARK    3  A    between atoms: C10_16  and  N3_17 
ROOT
HETATM    1  N1  UNL     1     -24.578 -25.936 -18.825  1.00  0.00    -0.339 N 
ATOM      2  H1  UNL     1     -24.319 -24.951 -18.876  1.00  0.00     0.164 HD
HETATM    3  C4  UNL     1     -23.715 -26.841 -18.194  1.00  0.00     0.323 C 
HETATM    4  O1  UNL     1     -24.095 -28.079 -18.159  1.00  0.00    -0.247 OA
HETATM    5  N2  UNL     1     -22.494 -26.554 -17.599  1.00  0.00    -0.275 N 
ATOM      6  H2  UNL     1     -21.986 -27.333 -17.180  1.00  0.00     0.173 HD
HETATM    7  C5  UNL     1     -21.900 -25.292 -17.524  1.00  0.00     0.259 C 
HETATM    8  O2  UNL     1     -22.427 -24.276 -18.004  1.00  0.00    -0.267 OA
ENDROOT
BRANCH   7   9
HETATM    9  C6  UNL     1     -20.599 -25.089 -16.868  1.00  0.00     0.034 A 
HETATM   10  C7  UNL     1     -20.272 -25.675 -15.675  1.00  0.00     0.017 A 
HETATM   11  C8  UNL     1     -19.028 -25.464 -15.082  1.00  0.00     0.003 A 
HETATM   12  C9  UNL     1     -18.092 -24.659 -15.679  1.00  0.00     0.036 A 
HETATM   13  C10 UNL     1     -18.388 -24.039 -16.902  1.00  0.00     0.103 A 
HETATM   14  C11 UNL     1     -19.629 -24.283 -17.440  1.00  0.00     0.053 A 
BRANCH  13  15
HETATM   15  N3  UNL     1     -17.427 -23.202 -17.532  1.00  0.00    -0.116 N 
HETATM   16  O3  UNL     1     -16.857 -22.318 -16.879  1.00  0.00    -0.532 OA
HETATM   17  O4  UNL     1     -17.113 -23.350 -18.853  1.00  0.00    -0.532 OA
ENDBRANCH  13  15
ENDBRANCH   7   9
BRANCH   1  18
HETATM   18  C2  UNL     1     -25.853 -26.382 -19.418  1.00  0.00     0.078 C 
HETATM   19  C1  UNL     1     -25.901 -26.045 -20.873  1.00  0.00     0.032 C 
HETATM   20  C3  UNL     1     -26.956 -25.672 -18.688  1.00  0.00     0.032 C 
ENDBRANCH   1  18
TORSDOF 3
ENDMDL
