MODEL 1
REMARK VINA RESULT: -6.576729883      0.000      0.000
REMARK  5 active torsions:
REMARK  status: ('A' for Active; 'I' for Inactive)
REMARK    1  A    between atoms: O1_2  and  C2_3 
REMARK    2  A    between atoms: C2_3  and  C3_5 
REMARK    3  A    between atoms: C8_10  and  N1_11 
REMARK    4  A    between atoms: N1_11  and  C9_13 
REMARK    5  A    between atoms: C9_13  and  N2_15 
REMARK       I    between atoms: N2_15  and  C10_17 
ROOT
HETATM    1  C3  UNL     1     -22.411 -26.582 -17.245  1.00  0.00     0.066 A 
HETATM    2  C4  UNL     1     -21.695 -27.744 -16.881  1.00  0.00     0.020 A 
HETATM    3  C5  UNL     1     -22.067 -29.000 -17.269  1.00  0.00     0.001 A 
HETATM    4  C6  UNL     1     -23.177 -29.129 -18.040  1.00  0.00     0.002 A 
HETATM    5  C7  UNL     1     -23.919 -28.031 -18.430  1.00  0.00     0.030 A 
HETATM    6  C8  UNL     1     -23.525 -26.751 -18.025  1.00  0.00     0.050 A 
ENDROOT
BRANCH   6   7
HETATM    7  N1  UNL     1     -24.227 -25.645 -18.525  1.00  0.00    -0.332 N 
ATOM      8  H1  UNL     1     -23.667 -24.797 -18.611  1.00  0.00     0.168 HD
BRANCH   7   9
HETATM    9  C9  UNL     1     -25.562 -25.498 -18.926  1.00  0.00     0.178 C 
HETATM   10  S1  UNL     1     -26.882 -25.802 -18.049  1.00  0.00    -0.040 SA
BRANCH   9  11
HETATM   11  N2  UNL     1     -25.806 -24.983 -20.245  1.00  0.00    -0.304 N 
HETATM   12  C10 UNL     1     -25.495 -25.716 -21.395  1.00  0.00     0.219 C 
HETATM   13  C11 UNL     1     -25.771 -25.129 -22.754  1.00  0.00     0.117 C 
HETATM   14  O3  UNL     1     -24.983 -26.871 -21.409  1.00  0.00    -0.274 OA
ATOM     15  H2  UNL     1     -26.218 -24.055 -20.346  1.00  0.00     0.171 HD
ENDBRANCH   9  11
ENDBRANCH   7   9
ENDBRANCH   6   7
BRANCH   1  16
HETATM   16  C2  UNL     1     -21.946 -25.317 -16.701  1.00  0.00     0.295 C 
HETATM   17  O2  UNL     1     -21.673 -25.164 -15.510  1.00  0.00    -0.259 OA
BRANCH  16  18
HETATM   18  O1  UNL     1     -21.790 -24.200 -17.534  1.00  0.00    -0.322 OA
HETATM   19  C1  UNL     1     -20.508 -23.955 -18.070  1.00  0.00     0.213 C 
ENDBRANCH  16  18
ENDBRANCH   1  16
TORSDOF 5
ENDMDL
MODEL 2
REMARK VINA RESULT: -6.337387073      5.435      7.774
REMARK  5 active torsions:
REMARK  status: ('A' for Active; 'I' for Inactive)
REMARK    1  A    between atoms: O1_2  and  C2_3 
REMARK    2  A    between atoms: C2_3  and  C3_5 
REMARK    3  A    between atoms: C8_10  and  N1_11 
REMARK    4  A    between atoms: N1_11  and  C9_13 
REMARK    5  A    between atoms: C9_13  and  N2_15 
REMARK       I    between atoms: N2_15  and  C10_17 
ROOT
HETATM    1  C3  UNL     1     -19.986 -25.357 -15.547  1.00  0.00     0.066 A 
HETATM    2  C4  UNL     1     -21.214 -25.966 -15.888  1.00  0.00     0.020 A 
HETATM    3  C5  UNL     1     -22.032 -25.490 -16.872  1.00  0.00     0.001 A 
HETATM    4  C6  UNL     1     -21.641 -24.381 -17.550  1.00  0.00     0.002 A 
HETATM    5  C7  UNL     1     -20.451 -23.741 -17.265  1.00  0.00     0.030 A 
HETATM    6  C8  UNL     1     -19.623 -24.241 -16.254  1.00  0.00     0.050 A 
ENDROOT
BRANCH   6   7
HETATM    7  N1  UNL     1     -18.370 -23.642 -16.058  1.00  0.00    -0.332 N 
ATOM      8  H1  UNL     1     -18.303 -23.076 -15.213  1.00  0.00     0.168 HD
BRANCH   7   9
HETATM    9  C9  UNL     1     -17.193 -23.682 -16.819  1.00  0.00     0.178 C 
HETATM   10  S1  UNL     1     -16.848 -22.802 -18.127  1.00  0.00    -0.040 SA
BRANCH   9  11
HETATM   11  N2  UNL     1     -16.149 -24.567 -16.382  1.00  0.00    -0.304 N 
HETATM   12  C10 UNL     1     -15.365 -24.287 -15.258  1.00  0.00     0.219 C 
HETATM   13  C11 UNL     1     -14.283 -25.249 -14.842  1.00  0.00     0.117 C 
HETATM   14  O3  UNL     1     -15.477 -23.264 -14.525  1.00  0.00    -0.274 OA
ATOM     15  H2  UNL     1     -15.975 -25.425 -16.906  1.00  0.00     0.171 HD
ENDBRANCH   9  11
ENDBRANCH   7   9
ENDBRANCH   6   7
BRANCH   1  16
HETATM   16  C2  UNL     1     -19.250 -25.924 -14.430  1.00  0.00     0.295 C 
HETATM   17  O2  UNL     1     -19.738 -26.053 -13.307  1.00  0.00    -0.259 OA
BRANCH  16  18
HETATM   18  O1  UNL     1     -17.926 -26.354 -14.596  1.00  0.00    -0.322 OA
HETATM   19  C1  UNL     1     -17.314 -27.028 -13.518  1.00  0.00     0.213 C 
ENDBRANCH  16  18
ENDBRANCH   1  16
TORSDOF 5
ENDMDL
MODEL 3
REMARK VINA RESULT: -6.335196575      6.141      8.031
REMARK  5 active torsions:
REMARK  status: ('A' for Active; 'I' for Inactive)
REMARK    1  A    between atoms: O1_2  and  C2_3 
REMARK    2  A    between atoms: C2_3  and  C3_5 
REMARK    3  A    between atoms: C8_10  and  N1_11 
REMARK    4  A    between atoms: N1_11  and  C9_13 
REMARK    5  A    between atoms: C9_13  and  N2_15 
REMARK       I    between atoms: N2_15  and  C10_17 
ROOT
HETATM    1  C3  UNL     1     -17.440 -23.521 -17.208  1.00  0.00     0.066 A 
HETATM    2  C4  UNL     1     -17.423 -23.193 -18.582  1.00  0.00     0.020 A 
HETATM    3  C5  UNL     1     -18.383 -23.611 -19.459  1.00  0.00     0.001 A 
HETATM    4  C6  UNL     1     -19.396 -24.378 -18.981  1.00  0.00     0.002 A 
HETATM    5  C7  UNL     1     -19.470 -24.732 -17.647  1.00  0.00     0.030 A 
HETATM    6  C8  UNL     1     -18.479 -24.295 -16.762  1.00  0.00     0.050 A 
ENDROOT
BRANCH   6   7
HETATM    7  N1  UNL     1     -18.633 -24.572 -15.395  1.00  0.00    -0.332 N 
ATOM      8  H1  UNL     1     -18.377 -23.801 -14.780  1.00  0.00     0.168 HD
BRANCH   7   9
HETATM    9  C9  UNL     1     -19.077 -25.721 -14.726  1.00  0.00     0.178 C 
HETATM   10  S1  UNL     1     -20.363 -26.625 -15.091  1.00  0.00    -0.040 SA
BRANCH   9  11
HETATM   11  N2  UNL     1     -18.293 -26.188 -13.616  1.00  0.00    -0.304 N 
HETATM   12  C10 UNL     1     -16.973 -26.624 -13.774  1.00  0.00     0.219 C 
HETATM   13  C11 UNL     1     -16.195 -27.104 -12.577  1.00  0.00     0.117 C 
HETATM   14  O3  UNL     1     -16.341 -26.658 -14.867  1.00  0.00    -0.274 OA
ATOM     15  H2  UNL     1     -18.711 -26.201 -12.686  1.00  0.00     0.171 HD
ENDBRANCH   9  11
ENDBRANCH   7   9
ENDBRANCH   6   7
BRANCH   1  16
HETATM   16  C2  UNL     1     -16.316 -23.072 -16.404  1.00  0.00     0.295 C 
HETATM   17  O2  UNL     1     -15.361 -22.455 -16.878  1.00  0.00    -0.259 OA
BRANCH  16  18
HETATM   18  O1  UNL     1     -16.279 -23.332 -15.027  1.00  0.00    -0.322 OA
HETATM   19  C1  UNL     1     -15.014 -23.491 -14.423  1.00  0.00     0.213 C 
ENDBRANCH  16  18
ENDBRANCH   1  16
TORSDOF 5
ENDMDL
MODEL 4
REMARK VINA RESULT: -6.317134173      5.222      6.437
REMARK  5 active torsions:
REMARK  status: ('A' for Active; 'I' for Inactive)
REMARK    1  A    between atoms: O1_2  and  C2_3 
REMARK    2  A    between atoms: C2_3  and  C3_5 
REMARK    3  A    between atoms: C8_10  and  N1_11 
REMARK    4  A    between atoms: N1_11  and  C9_13 
REMARK    5  A    between atoms: C9_13  and  N2_15 
REMARK       I    between atoms: N2_15  and  C10_17 
ROOT
HETATM    1  C3  UNL     1     -19.770 -25.858 -14.761  1.00  0.00     0.066 A 
HETATM    2  C4  UNL     1     -19.902 -27.038 -13.998  1.00  0.00     0.020 A 
HETATM    3  C5  UNL     1     -18.837 -27.692 -13.447  1.00  0.00     0.001 A 
HETATM    4  C6  UNL     1     -17.597 -27.178 -13.648  1.00  0.00     0.002 A 
HETATM    5  C7  UNL     1     -17.401 -26.026 -14.385  1.00  0.00     0.030 A 
HETATM    6  C8  UNL     1     -18.503 -25.367 -14.942  1.00  0.00     0.050 A 
ENDROOT
BRANCH   6   7
HETATM    7  N1  UNL     1     -18.292 -24.141 -15.589  1.00  0.00    -0.332 N 
ATOM      8  H1  UNL     1     -18.800 -23.358 -15.179  1.00  0.00     0.168 HD
BRANCH   7   9
HETATM    9  C9  UNL     1     -17.508 -23.801 -16.701  1.00  0.00     0.178 C 
HETATM   10  S1  UNL     1     -16.115 -22.987 -16.698  1.00  0.00    -0.040 SA
BRANCH   9  11
HETATM   11  N2  UNL     1     -17.953 -24.253 -17.990  1.00  0.00    -0.304 N 
HETATM   12  C10 UNL     1     -18.610 -23.402 -18.885  1.00  0.00     0.219 C 
HETATM   13  C11 UNL     1     -19.056 -23.926 -20.225  1.00  0.00     0.117 C 
HETATM   14  O3  UNL     1     -18.879 -22.185 -18.674  1.00  0.00    -0.274 OA
ATOM     15  H2  UNL     1     -17.785 -25.222 -18.261  1.00  0.00     0.171 HD
ENDBRANCH   9  11
ENDBRANCH   7   9
ENDBRANCH   6   7
BRANCH   1  16
HETATM   16  C2  UNL     1     -20.979 -25.308 -15.350  1.00  0.00     0.295 C 
HETATM   17  O2  UNL     1     -22.108 -25.640 -14.987  1.00  0.00    -0.259 OA
BRANCH  16  18
HETATM   18  O1  UNL     1     -20.901 -24.357 -16.377  1.00  0.00    -0.322 OA
HETATM   19  C1  UNL     1     -21.746 -24.525 -17.494  1.00  0.00     0.213 C 
ENDBRANCH  16  18
ENDBRANCH   1  16
TORSDOF 5
ENDMDL
MODEL 5
REMARK VINA RESULT: -6.309138381      5.035      7.873
REMARK  5 active torsions:
REMARK  status: ('A' for Active; 'I' for Inactive)
REMARK    1  A    between atoms: O1_2  and  C2_3 
REMARK    2  A    between atoms: C2_3  and  C3_5 
REMARK    3  A    between atoms: C8_10  and  N1_11 
REMARK    4  A    between atoms: N1_11  and  C9_13 
REMARK    5  A    between atoms: C9_13  and  N2_15 
REMARK       I    between atoms: N2_15  and  C10_17 
ROOT
HETATM    1  C3  UNL     1     -19.790 -24.548 -17.484  1.00  0.00     0.066 A 
HETATM    2  C4  UNL     1     -19.832 -24.194 -18.850  1.00  0.00     0.020 A 
HETATM    3  C5  UNL     1     -18.942 -23.331 -19.423  1.00  0.00     0.001 A 
HETATM    4  C6  UNL     1     -17.974 -22.795 -18.637  1.00  0.00     0.002 A 
HETATM    5  C7  UNL     1     -17.878 -23.103 -17.294  1.00  0.00     0.030 A 
HETATM    6  C8  UNL     1     -18.798 -23.988 -16.722  1.00  0.00     0.050 A 
ENDROOT
BRANCH   6   7
HETATM    7  N1  UNL     1     -18.615 -24.373 -15.385  1.00  0.00    -0.332 N 
ATOM      8  H1  UNL     1     -19.036 -23.740 -14.706  1.00  0.00     0.168 HD
BRANCH   7   9
HETATM    9  C9  UNL     1     -17.955 -25.472 -14.818  1.00  0.00     0.178 C 
HETATM   10  S1  UNL     1     -18.583 -26.581 -13.828  1.00  0.00    -0.040 SA
BRANCH   9  11
HETATM   11  N2  UNL     1     -16.579 -25.678 -15.177  1.00  0.00    -0.304 N 
HETATM   12  C10 UNL     1     -15.610 -24.686 -14.991  1.00  0.00     0.219 C 
HETATM   13  C11 UNL     1     -14.181 -24.953 -15.385  1.00  0.00     0.117 C 
HETATM   14  O3  UNL     1     -15.823 -23.538 -14.507  1.00  0.00    -0.274 OA
ATOM     15  H2  UNL     1     -16.300 -26.573 -15.578  1.00  0.00     0.171 HD
ENDBRANCH   9  11
ENDBRANCH   7   9
ENDBRANCH   6   7
BRANCH   1  16
HETATM   16  C2  UNL     1     -20.844 -25.418 -16.990  1.00  0.00     0.295 C 
HETATM   17  O2  UNL     1     -21.147 -26.477 -17.539  1.00  0.00    -0.259 OA
BRANCH  16  18
HETATM   18  O1  UNL     1     -21.572 -25.071 -15.843  1.00  0.00    -0.322 OA
HETATM   19  C1  UNL     1     -22.104 -26.119 -15.061  1.00  0.00     0.213 C 
ENDBRANCH  16  18
ENDBRANCH   1  16
TORSDOF 5
ENDMDL
