MODEL 1
REMARK VINA RESULT: -7.525472751      0.000      0.000
REMARK  5 active torsions:
REMARK  status: ('A' for Active; 'I' for Inactive)
REMARK    1  A    between atoms: C12_16  and  N3_17 
REMARK    2  A    between atoms: N3_17  and  C13_19 
REMARK    3  A    between atoms: C13_19  and  C14_20 
REMARK    4  A    between atoms: C14_20  and  C15_21 
REMARK    5  A    between atoms: C15_21  and  O1_22 
ROOT
HETATM    1  C1  UNL     1       3.410   4.239  81.172  1.00  0.00     0.052 C 
HETATM    2  C2  UNL     1       2.823   5.389  81.938  1.00  0.00    -0.013 A 
HETATM    3  C3  UNL     1       3.388   6.640  81.929  1.00  0.00     0.042 A 
HETATM    4 CL1  UNL     1       4.858   6.896  80.982  1.00  0.00    -0.084 Cl
HETATM    5  C4  UNL     1       2.820   7.670  82.645  1.00  0.00     0.032 A 
HETATM    6  C5  UNL     1       1.656   7.469  83.397  1.00  0.00    -0.047 A 
HETATM    7  C6  UNL     1       1.077   8.591  84.148  1.00  0.00     0.049 C 
HETATM    8  C7  UNL     1       1.106   6.209  83.391  1.00  0.00     0.011 A 
HETATM    9  C8  UNL     1       1.667   5.164  82.675  1.00  0.00     0.052 A 
HETATM   10  N1  UNL     1       0.917   4.067  82.861  1.00  0.00    -0.353 N 
ATOM     11  H1  UNL     1       1.094   3.149  82.453  1.00  0.00     0.166 HD
HETATM   12  C9  UNL     1      -0.099   4.376  83.665  1.00  0.00     0.070 A 
HETATM   13  C10 UNL     1      -1.169   3.666  84.193  1.00  0.00     0.115 A 
HETATM   14  C11 UNL     1      -1.241   2.274  83.814  1.00  0.00     0.105 C 
HETATM   15  N2  UNL     1      -1.288   1.152  83.500  1.00  0.00    -0.191 NA
HETATM   16  C12 UNL     1      -2.115   4.218  85.025  1.00  0.00     0.124 A 
HETATM   17  N4  UNL     1      -1.975   5.518  85.330  1.00  0.00    -0.350 N 
ATOM     18  H4  UNL     1      -2.663   5.953  85.945  1.00  0.00     0.166 HD
HETATM   19  C16 UNL     1      -0.957   6.280  84.853  1.00  0.00     0.104 A 
HETATM   20  C17 UNL     1      -0.021   5.723  84.027  1.00  0.00     0.021 A 
ENDROOT
BRANCH  16  21
HETATM   21  N3  UNL     1      -3.082   3.500  85.477  1.00  0.00    -0.375 N 
ATOM     22  H3  UNL     1      -3.579   2.904  84.814  1.00  0.00     0.161 HD
BRANCH  21  23
HETATM   23  C13 UNL     1      -3.512   3.475  86.839  1.00  0.00     0.123 C 
BRANCH  23  24
HETATM   24  C14 UNL     1      -3.971   2.104  87.282  1.00  0.00     0.045 C 
BRANCH  24  25
HETATM   25  C15 UNL     1      -2.759   1.243  87.641  1.00  0.00     0.165 C 
BRANCH  25  26
HETATM   26  O1  UNL     1      -2.320   0.579  86.496  1.00  0.00    -0.401 OA
ATOM     27  H1  UNL     1      -2.629  -0.320  86.523  1.00  0.00     0.209 HD
ENDBRANCH  25  26
ENDBRANCH  24  25
ENDBRANCH  23  24
ENDBRANCH  21  23
ENDBRANCH  16  21
TORSDOF 5
ENDMDL
MODEL 2
REMARK VINA RESULT: -7.215013716      1.071      1.071
REMARK  5 active torsions:
REMARK  status: ('A' for Active; 'I' for Inactive)
REMARK    1  A    between atoms: C12_16  and  N3_17 
REMARK    2  A    between atoms: N3_17  and  C13_19 
REMARK    3  A    between atoms: C13_19  and  C14_20 
REMARK    4  A    between atoms: C14_20  and  C15_21 
REMARK    5  A    between atoms: C15_21  and  O1_22 
ROOT
HETATM    1  C1  UNL     1       2.777   3.445  80.768  1.00  0.00     0.052 C 
HETATM    2  C2  UNL     1       2.107   4.698  81.252  1.00  0.00    -0.013 A 
HETATM    3  C3  UNL     1       2.500   5.946  80.837  1.00  0.00     0.042 A 
HETATM    4 CL1  UNL     1       3.843   6.072  79.695  1.00  0.00    -0.084 Cl
HETATM    5  C4  UNL     1       1.860   7.072  81.304  1.00  0.00     0.032 A 
HETATM    6  C5  UNL     1       0.796   6.974  82.209  1.00  0.00    -0.047 A 
HETATM    7  C6  UNL     1       0.136   8.197  82.685  1.00  0.00     0.049 C 
HETATM    8  C7  UNL     1       0.419   5.715  82.611  1.00  0.00     0.011 A 
HETATM    9  C8  UNL     1       1.054   4.573  82.150  1.00  0.00     0.052 A 
HETATM   10  N1  UNL     1       0.471   3.503  82.712  1.00  0.00    -0.353 N 
ATOM     11  H1  UNL     1       0.735   2.530  82.554  1.00  0.00     0.166 HD
HETATM   12  C9  UNL     1      -0.508   3.921  83.512  1.00  0.00     0.070 A 
HETATM   13  C10 UNL     1      -1.430   3.284  84.332  1.00  0.00     0.115 A 
HETATM   14  C11 UNL     1      -1.348   1.842  84.359  1.00  0.00     0.105 C 
HETATM   15  N2  UNL     1      -1.271   0.679  84.371  1.00  0.00    -0.191 NA
HETATM   16  C12 UNL     1      -2.370   3.949  85.083  1.00  0.00     0.124 A 
HETATM   17  N4  UNL     1      -2.380   5.290  85.003  1.00  0.00    -0.350 N 
ATOM     18  H4  UNL     1      -3.067   5.807  85.550  1.00  0.00     0.166 HD
HETATM   19  C16 UNL     1      -1.512   5.985  84.223  1.00  0.00     0.104 A 
HETATM   20  C17 UNL     1      -0.580   5.316  83.480  1.00  0.00     0.021 A 
ENDROOT
BRANCH  16  21
HETATM   21  N3  UNL     1      -3.195   3.294  85.822  1.00  0.00    -0.375 N 
ATOM     22  H3  UNL     1      -3.611   2.448  85.431  1.00  0.00     0.161 HD
BRANCH  21  23
HETATM   23  C13 UNL     1      -3.572   3.662  87.149  1.00  0.00     0.123 C 
BRANCH  23  24
HETATM   24  C14 UNL     1      -3.623   2.481  88.092  1.00  0.00     0.045 C 
BRANCH  24  25
HETATM   25  C15 UNL     1      -2.386   1.603  87.890  1.00  0.00     0.165 C 
BRANCH  25  26
HETATM   26  O1  UNL     1      -2.752   0.461  87.179  1.00  0.00    -0.401 OA
ATOM     27  H1  UNL     1      -1.970   0.056  86.822  1.00  0.00     0.209 HD
ENDBRANCH  25  26
ENDBRANCH  24  25
ENDBRANCH  23  24
ENDBRANCH  21  23
ENDBRANCH  16  21
TORSDOF 5
ENDMDL
MODEL 3
REMARK VINA RESULT: -7.085960879      4.081      6.868
REMARK  5 active torsions:
REMARK  status: ('A' for Active; 'I' for Inactive)
REMARK    1  A    between atoms: C12_16  and  N3_17 
REMARK    2  A    between atoms: N3_17  and  C13_19 
REMARK    3  A    between atoms: C13_19  and  C14_20 
REMARK    4  A    between atoms: C14_20  and  C15_21 
REMARK    5  A    between atoms: C15_21  and  O1_22 
ROOT
HETATM    1  C1  UNL     1      -1.568   1.099  86.225  1.00  0.00     0.052 C 
HETATM    2  C2  UNL     1      -2.000   2.479  85.823  1.00  0.00    -0.013 A 
HETATM    3  C3  UNL     1      -2.892   3.213  86.564  1.00  0.00     0.042 A 
HETATM    4 CL1  UNL     1      -3.549   2.499  88.042  1.00  0.00    -0.084 Cl
HETATM    5  C4  UNL     1      -3.264   4.476  86.162  1.00  0.00     0.032 A 
HETATM    6  C5  UNL     1      -2.745   5.043  84.992  1.00  0.00    -0.047 A 
HETATM    7  C6  UNL     1      -3.163   6.392  84.593  1.00  0.00     0.049 C 
HETATM    8  C7  UNL     1      -1.853   4.290  84.264  1.00  0.00     0.011 A 
HETATM    9  C8  UNL     1      -1.470   3.018  84.657  1.00  0.00     0.052 A 
HETATM   10  N1  UNL     1      -0.598   2.537  83.757  1.00  0.00    -0.353 N 
ATOM     11  H1  UNL     1      -0.151   1.620  83.793  1.00  0.00     0.166 HD
HETATM   12  C9  UNL     1      -0.413   3.454  82.810  1.00  0.00     0.070 A 
HETATM   13  C10 UNL     1       0.357   3.515  81.655  1.00  0.00     0.115 A 
HETATM   14  C11 UNL     1       1.153   2.344  81.374  1.00  0.00     0.105 C 
HETATM   15  N2  UNL     1       1.792   1.392  81.161  1.00  0.00    -0.191 NA
HETATM   16  C12 UNL     1       0.381   4.601  80.812  1.00  0.00     0.124 A 
HETATM   17  N4  UNL     1      -0.389   5.650  81.143  1.00  0.00    -0.350 N 
ATOM     18  H4  UNL     1      -0.389   6.468  80.534  1.00  0.00     0.166 HD
HETATM   19  C16 UNL     1      -1.168   5.667  82.256  1.00  0.00     0.104 A 
HETATM   20  C17 UNL     1      -1.187   4.583  83.088  1.00  0.00     0.021 A 
ENDROOT
BRANCH  16  21
HETATM   21  N3  UNL     1       1.120   4.589  79.758  1.00  0.00    -0.375 N 
ATOM     22  H3  UNL     1       1.253   3.695  79.284  1.00  0.00     0.161 HD
BRANCH  21  23
HETATM   23  C13 UNL     1       1.767   5.735  79.202  1.00  0.00     0.123 C 
BRANCH  23  24
HETATM   24  C14 UNL     1       1.592   5.835  77.703  1.00  0.00     0.045 C 
BRANCH  24  25
HETATM   25  C15 UNL     1       0.183   6.335  77.379  1.00  0.00     0.165 C 
BRANCH  25  26
HETATM   26  O1  UNL     1      -0.705   5.262  77.445  1.00  0.00    -0.401 OA
ATOM     27  H1  UNL     1      -1.159   5.185  76.614  1.00  0.00     0.209 HD
ENDBRANCH  25  26
ENDBRANCH  24  25
ENDBRANCH  23  24
ENDBRANCH  21  23
ENDBRANCH  16  21
TORSDOF 5
ENDMDL
MODEL 4
REMARK VINA RESULT: -7.023837929      3.797      6.632
REMARK  5 active torsions:
REMARK  status: ('A' for Active; 'I' for Inactive)
REMARK    1  A    between atoms: C12_16  and  N3_17 
REMARK    2  A    between atoms: N3_17  and  C13_19 
REMARK    3  A    between atoms: C13_19  and  C14_20 
REMARK    4  A    between atoms: C14_20  and  C15_21 
REMARK    5  A    between atoms: C15_21  and  O1_22 
ROOT
HETATM    1  C1  UNL     1      -1.647   1.034  86.223  1.00  0.00     0.052 C 
HETATM    2  C2  UNL     1      -2.036   2.432  85.838  1.00  0.00    -0.013 A 
HETATM    3  C3  UNL     1      -2.911   3.182  86.584  1.00  0.00     0.042 A 
HETATM    4 CL1  UNL     1      -3.601   2.466  88.046  1.00  0.00    -0.084 Cl
HETATM    5  C4  UNL     1      -3.243   4.461  86.199  1.00  0.00     0.032 A 
HETATM    6  C5  UNL     1      -2.698   5.029  85.041  1.00  0.00    -0.047 A 
HETATM    7  C6  UNL     1      -3.074   6.397  84.660  1.00  0.00     0.049 C 
HETATM    8  C7  UNL     1      -1.822   4.262  84.309  1.00  0.00     0.011 A 
HETATM    9  C8  UNL     1      -1.480   2.974  84.685  1.00  0.00     0.052 A 
HETATM   10  N1  UNL     1      -0.616   2.480  83.785  1.00  0.00    -0.353 N 
ATOM     11  H1  UNL     1      -0.196   1.551  83.810  1.00  0.00     0.166 HD
HETATM   12  C9  UNL     1      -0.396   3.406  82.853  1.00  0.00     0.070 A 
HETATM   13  C10 UNL     1       0.384   3.462  81.705  1.00  0.00     0.115 A 
HETATM   14  C11 UNL     1       1.148   2.271  81.413  1.00  0.00     0.105 C 
HETATM   15  N2  UNL     1       1.760   1.305  81.189  1.00  0.00    -0.191 NA
HETATM   16  C12 UNL     1       0.447   4.558  80.879  1.00  0.00     0.124 A 
HETATM   17  N4  UNL     1      -0.294   5.625  81.220  1.00  0.00    -0.350 N 
ATOM     18  H4  UNL     1      -0.266   6.452  80.624  1.00  0.00     0.166 HD
HETATM   19  C16 UNL     1      -1.082   5.648  82.327  1.00  0.00     0.104 A 
HETATM   20  C17 UNL     1      -1.139   4.553  83.143  1.00  0.00     0.021 A 
ENDROOT
BRANCH  16  21
HETATM   21  N3  UNL     1       1.193   4.541  79.830  1.00  0.00    -0.375 N 
ATOM     22  H3  UNL     1       0.937   3.900  79.078  1.00  0.00     0.161 HD
BRANCH  21  23
HETATM   23  C13 UNL     1       2.354   5.351  79.641  1.00  0.00     0.123 C 
BRANCH  23  24
HETATM   24  C14 UNL     1       3.624   4.537  79.531  1.00  0.00     0.045 C 
BRANCH  24  25
HETATM   25  C15 UNL     1       4.501   4.778  80.761  1.00  0.00     0.165 C 
BRANCH  25  26
HETATM   26  O1  UNL     1       3.748   4.538  81.909  1.00  0.00    -0.401 OA
ATOM     27  H1  UNL     1       4.318   4.586  82.668  1.00  0.00     0.209 HD
ENDBRANCH  25  26
ENDBRANCH  24  25
ENDBRANCH  23  24
ENDBRANCH  21  23
ENDBRANCH  16  21
TORSDOF 5
ENDMDL
MODEL 5
REMARK VINA RESULT: -6.916749261      4.056      6.824
REMARK  5 active torsions:
REMARK  status: ('A' for Active; 'I' for Inactive)
REMARK    1  A    between atoms: C12_16  and  N3_17 
REMARK    2  A    between atoms: N3_17  and  C13_19 
REMARK    3  A    between atoms: C13_19  and  C14_20 
REMARK    4  A    between atoms: C14_20  and  C15_21 
REMARK    5  A    between atoms: C15_21  and  O1_22 
ROOT
HETATM    1  C1  UNL     1      -1.132   0.684  85.547  1.00  0.00     0.052 C 
HETATM    2  C2  UNL     1      -1.662   2.088  85.513  1.00  0.00    -0.013 A 
HETATM    3  C3  UNL     1      -2.493   2.583  86.487  1.00  0.00     0.042 A 
HETATM    4 CL1  UNL     1      -2.951   1.520  87.823  1.00  0.00    -0.084 Cl
HETATM    5  C4  UNL     1      -2.958   3.877  86.421  1.00  0.00     0.032 A 
HETATM    6  C5  UNL     1      -2.596   4.720  85.363  1.00  0.00    -0.047 A 
HETATM    7  C6  UNL     1      -3.110   6.095  85.325  1.00  0.00     0.049 C 
HETATM    8  C7  UNL     1      -1.762   4.205  84.398  1.00  0.00     0.011 A 
HETATM    9  C8  UNL     1      -1.287   2.905  84.453  1.00  0.00     0.052 A 
HETATM   10  N1  UNL     1      -0.503   2.691  83.384  1.00  0.00    -0.353 N 
ATOM     11  H1  UNL     1      -0.019   1.820  83.167  1.00  0.00     0.166 HD
HETATM   12  C9  UNL     1      -0.462   3.805  82.655  1.00  0.00     0.070 A 
HETATM   13  C10 UNL     1       0.170   4.168  81.473  1.00  0.00     0.115 A 
HETATM   14  C11 UNL     1       0.976   3.141  80.856  1.00  0.00     0.105 C 
HETATM   15  N2  UNL     1       1.624   2.302  80.370  1.00  0.00    -0.191 NA
HETATM   16  C12 UNL     1       0.057   5.412  80.900  1.00  0.00     0.124 A 
HETATM   17  N4  UNL     1      -0.713   6.311  81.535  1.00  0.00    -0.350 N 
ATOM     18  H4  UNL     1      -0.813   7.242  81.131  1.00  0.00     0.166 HD
HETATM   19  C16 UNL     1      -1.362   6.032  82.696  1.00  0.00     0.104 A 
HETATM   20  C17 UNL     1      -1.245   4.792  83.259  1.00  0.00     0.021 A 
ENDROOT
BRANCH  16  21
HETATM   21  N3  UNL     1       0.672   5.681  79.802  1.00  0.00    -0.375 N 
ATOM     22  H3  UNL     1       1.691   5.631  79.806  1.00  0.00     0.161 HD
BRANCH  21  23
HETATM   23  C13 UNL     1       0.034   6.044  78.577  1.00  0.00     0.123 C 
BRANCH  23  24
HETATM   24  C14 UNL     1       0.924   5.841  77.371  1.00  0.00     0.045 C 
BRANCH  24  25
HETATM   25  C15 UNL     1       2.344   5.503  77.828  1.00  0.00     0.165 C 
BRANCH  25  26
HETATM   26  O1  UNL     1       2.452   4.122  77.991  1.00  0.00    -0.401 OA
ATOM     27  H1  UNL     1       2.757   3.738  77.177  1.00  0.00     0.209 HD
ENDBRANCH  25  26
ENDBRANCH  24  25
ENDBRANCH  23  24
ENDBRANCH  21  23
ENDBRANCH  16  21
TORSDOF 5
ENDMDL
