MODEL 1
REMARK VINA RESULT: -7.013420337      0.000      0.000
REMARK  4 active torsions:
REMARK  status: ('A' for Active; 'I' for Inactive)
REMARK    1  A    between atoms: N1_1  and  C1_4 
REMARK    2  A    between atoms: C2_7  and  C3_8 
REMARK    3  A    between atoms: C4_9  and  C5_11 
REMARK       I    between atoms: C5_11  and  N3_13 
REMARK    4  A    between atoms: N3_13  and  C6_15 
ROOT
HETATM    1  C3  UNL     1       0.710   3.932  82.227  1.00  0.00     0.054 C 
HETATM    2  C4  UNL     1       0.227   2.718  82.230  1.00  0.00     0.080 C 
HETATM    3 BR1  UNL     1       0.965   1.259  81.234  1.00  0.00    -0.045 Br
ENDROOT
BRANCH   2   4
HETATM    4  C5  UNL     1      -0.944   2.436  83.059  1.00  0.00     0.259 C 
HETATM    5  O1  UNL     1      -2.005   1.958  82.546  1.00  0.00    -0.267 OA
HETATM    6  N3  UNL     1      -0.945   2.679  84.437  1.00  0.00    -0.352 N 
ATOM      7  H3  UNL     1      -0.102   3.057  84.870  1.00  0.00     0.163 HD
BRANCH   6   8
HETATM    8  C6  UNL     1      -2.114   2.412  85.286  1.00  0.00     0.084 C 
HETATM    9  C7  UNL     1      -1.740   1.398  86.307  1.00  0.00     0.025 C 
HETATM   10  C8  UNL     1      -2.597   1.485  87.540  1.00  0.00     0.002 C 
HETATM   11  C9  UNL     1      -3.888   2.158  87.206  1.00  0.00     0.000 C 
HETATM   12  C10 UNL     1      -3.561   3.616  86.932  1.00  0.00     0.002 C 
HETATM   13  C11 UNL     1      -2.573   3.734  85.793  1.00  0.00     0.025 C 
ENDBRANCH   6   8
ENDBRANCH   2   4
BRANCH   1  14
HETATM   14  C2  UNL     1       1.910   4.331  81.435  1.00  0.00     0.042 A 
HETATM   15  N2  UNL     1       3.074   4.500  82.000  1.00  0.00    -0.337 N 
HETATM   16  C1  UNL     1       4.099   4.871  81.232  1.00  0.00     0.142 A 
ATOM     17  H2  UNL     1       3.196   4.354  83.002  1.00  0.00     0.168 HD
HETATM   18  S1  UNL     1       3.414   4.984  79.680  1.00  0.00    -0.064 SA
HETATM   19  C12 UNL     1       1.804   4.541  80.094  1.00  0.00     0.082 A 
BRANCH  16  20
HETATM   20  N1  UNL     1       5.348   5.096  81.583  1.00  0.00    -0.380 N 
ATOM     21  H12 UNL     1       5.781   4.936  82.492  1.00  0.00     0.158 HD
ATOM     22  H11 UNL     1       6.110   5.470  81.017  1.00  0.00     0.158 HD
ENDBRANCH  16  20
ENDBRANCH   1  14
TORSDOF 4
ENDMDL
MODEL 2
REMARK VINA RESULT: -6.757102903      1.342      1.533
REMARK  4 active torsions:
REMARK  status: ('A' for Active; 'I' for Inactive)
REMARK    1  A    between atoms: N1_1  and  C1_4 
REMARK    2  A    between atoms: C2_7  and  C3_8 
REMARK    3  A    between atoms: C4_9  and  C5_11 
REMARK       I    between atoms: C5_11  and  N3_13 
REMARK    4  A    between atoms: N3_13  and  C6_15 
ROOT
HETATM    1  C3  UNL     1       0.670   3.757  81.840  1.00  0.00     0.054 C 
HETATM    2  C4  UNL     1       0.204   2.548  82.013  1.00  0.00     0.080 C 
HETATM    3 BR1  UNL     1       0.929   0.981  81.186  1.00  0.00    -0.045 Br
ENDROOT
BRANCH   2   4
HETATM    4  C5  UNL     1      -0.936   2.363  82.911  1.00  0.00     0.259 C 
HETATM    5  O1  UNL     1      -2.043   1.918  82.473  1.00  0.00    -0.267 OA
HETATM    6  N3  UNL     1      -0.855   2.667  84.275  1.00  0.00    -0.352 N 
ATOM      7  H3  UNL     1       0.027   3.021  84.647  1.00  0.00     0.163 HD
BRANCH   6   8
HETATM    8  C6  UNL     1      -1.990   2.498  85.190  1.00  0.00     0.084 C 
HETATM    9  C7  UNL     1      -1.547   1.685  86.353  1.00  0.00     0.025 C 
HETATM   10  C8  UNL     1      -2.378   1.941  87.580  1.00  0.00     0.002 C 
HETATM   11  C9  UNL     1      -3.706   2.495  87.179  1.00  0.00     0.000 C 
HETATM   12  C10 UNL     1      -3.451   3.899  86.658  1.00  0.00     0.002 C 
HETATM   13  C11 UNL     1      -2.496   3.867  85.486  1.00  0.00     0.025 C 
ENDBRANCH   6   8
ENDBRANCH   2   4
BRANCH   1  14
HETATM   14  C2  UNL     1       1.838   4.063  80.963  1.00  0.00     0.042 A 
HETATM   15  N2  UNL     1       1.705   4.195  79.672  1.00  0.00    -0.337 N 
HETATM   16  C1  UNL     1       2.794   4.456  78.949  1.00  0.00     0.142 A 
ATOM     17  H2  UNL     1       0.791   4.101  79.227  1.00  0.00     0.168 HD
HETATM   18  S1  UNL     1       4.037   4.516  80.108  1.00  0.00    -0.064 SA
HETATM   19  C12 UNL     1       3.081   4.198  81.503  1.00  0.00     0.082 A 
BRANCH  16  20
HETATM   20  N1  UNL     1       2.894   4.627  77.648  1.00  0.00    -0.380 N 
ATOM     21  H12 UNL     1       2.378   5.283  77.061  1.00  0.00     0.158 HD
ATOM     22  H11 UNL     1       3.501   4.141  76.987  1.00  0.00     0.158 HD
ENDBRANCH  16  20
ENDBRANCH   1  14
TORSDOF 4
ENDMDL
MODEL 3
REMARK VINA RESULT: -6.701103925      1.356      1.382
REMARK  4 active torsions:
REMARK  status: ('A' for Active; 'I' for Inactive)
REMARK    1  A    between atoms: N1_1  and  C1_4 
REMARK    2  A    between atoms: C2_7  and  C3_8 
REMARK    3  A    between atoms: C4_9  and  C5_11 
REMARK       I    between atoms: C5_11  and  N3_13 
REMARK    4  A    between atoms: N3_13  and  C6_15 
ROOT
HETATM    1  C3  UNL     1       0.983   3.399  82.031  1.00  0.00     0.054 C 
HETATM    2  C4  UNL     1       0.168   4.185  82.682  1.00  0.00     0.080 C 
HETATM    3 BR1  UNL     1       0.353   6.088  82.785  1.00  0.00    -0.045 Br
ENDROOT
BRANCH   2   4
HETATM    4  C5  UNL     1      -0.979   3.588  83.367  1.00  0.00     0.259 C 
HETATM    5  O1  UNL     1      -2.052   3.331  82.734  1.00  0.00    -0.267 OA
HETATM    6  N3  UNL     1      -0.943   3.280  84.731  1.00  0.00    -0.352 N 
ATOM      7  H3  UNL     1      -0.089   3.473  85.255  1.00  0.00     0.163 HD
BRANCH   6   8
HETATM    8  C6  UNL     1      -2.086   2.689  85.438  1.00  0.00     0.084 C 
HETATM    9  C7  UNL     1      -1.589   1.605  86.325  1.00  0.00     0.025 C 
HETATM   10  C8  UNL     1      -2.509   1.350  87.488  1.00  0.00     0.002 C 
HETATM   11  C9  UNL     1      -3.881   1.840  87.158  1.00  0.00     0.000 C 
HETATM   12  C10 UNL     1      -3.805   3.357  87.127  1.00  0.00     0.002 C 
HETATM   13  C11 UNL     1      -2.798   3.818  86.098  1.00  0.00     0.025 C 
ENDBRANCH   6   8
ENDBRANCH   2   4
BRANCH   1  14
HETATM   14  C2  UNL     1       2.173   3.896  81.283  1.00  0.00     0.042 A 
HETATM   15  N2  UNL     1       3.262   4.267  81.900  1.00  0.00    -0.337 N 
HETATM   16  C1  UNL     1       4.282   4.714  81.168  1.00  0.00     0.142 A 
ATOM     17  H2  UNL     1       3.330   4.215  82.917  1.00  0.00     0.168 HD
HETATM   18  S1  UNL     1       3.701   4.613  79.573  1.00  0.00    -0.064 SA
HETATM   19  C12 UNL     1       2.137   3.987  79.924  1.00  0.00     0.082 A 
BRANCH  16  20
HETATM   20  N1  UNL     1       5.461   5.134  81.573  1.00  0.00    -0.380 N 
ATOM     21  H12 UNL     1       6.334   4.607  81.614  1.00  0.00     0.158 HD
ATOM     22  H11 UNL     1       5.723   6.057  81.920  1.00  0.00     0.158 HD
ENDBRANCH  16  20
ENDBRANCH   1  14
TORSDOF 4
ENDMDL
MODEL 4
REMARK VINA RESULT: -6.377653012      1.828      1.994
REMARK  4 active torsions:
REMARK  status: ('A' for Active; 'I' for Inactive)
REMARK    1  A    between atoms: N1_1  and  C1_4 
REMARK    2  A    between atoms: C2_7  and  C3_8 
REMARK    3  A    between atoms: C4_9  and  C5_11 
REMARK       I    between atoms: C5_11  and  N3_13 
REMARK    4  A    between atoms: N3_13  and  C6_15 
ROOT
HETATM    1  C3  UNL     1       0.706   3.242  81.803  1.00  0.00     0.054 C 
HETATM    2  C4  UNL     1      -0.158   4.038  82.375  1.00  0.00     0.080 C 
HETATM    3 BR1  UNL     1      -0.122   5.947  82.243  1.00  0.00    -0.045 Br
ENDROOT
BRANCH   2   4
HETATM    4  C5  UNL     1      -1.243   3.442  83.156  1.00  0.00     0.259 C 
HETATM    5  O1  UNL     1      -2.312   3.051  82.590  1.00  0.00    -0.267 OA
HETATM    6  N3  UNL     1      -1.148   3.283  84.543  1.00  0.00    -0.352 N 
ATOM      7  H3  UNL     1      -0.296   3.585  85.015  1.00  0.00     0.163 HD
BRANCH   6   8
HETATM    8  C6  UNL     1      -2.229   2.697  85.346  1.00  0.00     0.084 C 
HETATM    9  C7  UNL     1      -1.659   1.623  86.201  1.00  0.00     0.025 C 
HETATM   10  C8  UNL     1      -2.481   1.378  87.437  1.00  0.00     0.002 C 
HETATM   11  C9  UNL     1      -3.877   1.861  87.213  1.00  0.00     0.000 C 
HETATM   12  C10 UNL     1      -3.809   3.377  87.160  1.00  0.00     0.002 C 
HETATM   13  C11 UNL     1      -2.890   3.831  86.049  1.00  0.00     0.025 C 
ENDBRANCH   6   8
ENDBRANCH   2   4
BRANCH   1  14
HETATM   14  C2  UNL     1       1.840   3.734  80.969  1.00  0.00     0.042 A 
HETATM   15  N2  UNL     1       1.723   3.885  79.678  1.00  0.00    -0.337 N 
HETATM   16  C1  UNL     1       2.782   4.317  78.994  1.00  0.00     0.142 A 
ATOM     17  H2  UNL     1       0.843   3.679  79.205  1.00  0.00     0.168 HD
HETATM   18  S1  UNL     1       3.975   4.516  80.190  1.00  0.00    -0.064 SA
HETATM   19  C12 UNL     1       3.039   4.025  81.548  1.00  0.00     0.082 A 
BRANCH  16  20
HETATM   20  N1  UNL     1       2.890   4.540  77.702  1.00  0.00    -0.380 N 
ATOM     21  H12 UNL     1       3.035   5.433  77.230  1.00  0.00     0.158 HD
ATOM     22  H11 UNL     1       2.848   3.868  76.934  1.00  0.00     0.158 HD
ENDBRANCH  16  20
ENDBRANCH   1  14
TORSDOF 4
ENDMDL
MODEL 5
REMARK VINA RESULT: -6.359504497      1.638      1.740
REMARK  4 active torsions:
REMARK  status: ('A' for Active; 'I' for Inactive)
REMARK    1  A    between atoms: N1_1  and  C1_4 
REMARK    2  A    between atoms: C2_7  and  C3_8 
REMARK    3  A    between atoms: C4_9  and  C5_11 
REMARK       I    between atoms: C5_11  and  N3_13 
REMARK    4  A    between atoms: N3_13  and  C6_15 
ROOT
HETATM    1  C3  UNL     1       0.941   4.994  83.331  1.00  0.00     0.054 C 
HETATM    2  C4  UNL     1      -0.045   4.503  82.628  1.00  0.00     0.080 C 
HETATM    3 BR1  UNL     1      -0.186   4.636  80.724  1.00  0.00    -0.045 Br
ENDROOT
BRANCH   2   4
HETATM    4  C5  UNL     1      -1.111   3.785  83.329  1.00  0.00     0.259 C 
HETATM    5  O1  UNL     1      -2.092   3.292  82.688  1.00  0.00    -0.267 OA
HETATM    6  N3  UNL     1      -1.093   3.615  84.718  1.00  0.00    -0.352 N 
ATOM      7  H3  UNL     1      -0.311   3.998  85.249  1.00  0.00     0.163 HD
BRANCH   6   8
HETATM    8  C6  UNL     1      -2.157   2.906  85.440  1.00  0.00     0.084 C 
HETATM    9  C7  UNL     1      -1.537   1.862  86.297  1.00  0.00     0.025 C 
HETATM   10  C8  UNL     1      -2.399   1.503  87.476  1.00  0.00     0.002 C 
HETATM   11  C9  UNL     1      -3.820   1.862  87.185  1.00  0.00     0.000 C 
HETATM   12  C10 UNL     1      -3.891   3.379  87.178  1.00  0.00     0.002 C 
HETATM   13  C11 UNL     1      -2.959   3.951  86.134  1.00  0.00     0.025 C 
ENDBRANCH   6   8
ENDBRANCH   2   4
BRANCH   1  14
HETATM   14  C2  UNL     1       2.089   5.728  82.725  1.00  0.00     0.042 A 
HETATM   15  N2  UNL     1       3.119   5.096  82.232  1.00  0.00    -0.337 N 
HETATM   16  C1  UNL     1       4.115   5.817  81.718  1.00  0.00     0.142 A 
ATOM     17  H2  UNL     1       3.160   4.077  82.241  1.00  0.00     0.168 HD
HETATM   18  S1  UNL     1       3.595   7.423  81.930  1.00  0.00    -0.064 SA
HETATM   19  C12 UNL     1       2.086   7.090  82.687  1.00  0.00     0.082 A 
BRANCH  16  20
HETATM   20  N1  UNL     1       5.236   5.397  81.173  1.00  0.00    -0.380 N 
ATOM     21  H12 UNL     1       5.615   5.636  80.256  1.00  0.00     0.158 HD
ATOM     22  H11 UNL     1       5.931   4.758  81.559  1.00  0.00     0.158 HD
ENDBRANCH  16  20
ENDBRANCH   1  14
TORSDOF 4
ENDMDL
