MODEL 1
REMARK VINA RESULT: -5.398935310      0.000      0.000
REMARK  12 active torsions:
REMARK  status: ('A' for Active; 'I' for Inactive)
REMARK    1  A    between atoms: C2_2  and  C3_3 
REMARK    2  A    between atoms: C3_3  and  C4_4 
REMARK    3  A    between atoms: C6_7  and  C7_8 
REMARK    4  A    between atoms: C7_8  and  C8_9 
REMARK    5  A    between atoms: C8_9  and  C9_11 
REMARK    6  A    between atoms: C9_11  and  O4_13 
REMARK    7  A    between atoms: C15_20  and  C16_21 
REMARK    8  A    between atoms: C18_24  and  O7_25 
REMARK    9  A    between atoms: C26_34  and  C27_35 
REMARK   10  A    between atoms: C27_35  and  C28_37 
REMARK   11  A    between atoms: C28_37  and  C29_38 
REMARK   12  A    between atoms: C34_43  and  O9_44 
ROOT
HETATM    1  C4  UNL     1      22.738 -16.697  -4.118  1.00  0.00     0.065 C 
HETATM    2  C5  UNL     1      22.358 -16.919  -5.548  1.00  0.00     0.144 C 
HETATM    3  O1  UNL     1      21.522 -17.500  -6.208  1.00  0.00    -0.296 OA
HETATM    4  C6  UNL     1      23.558 -16.038  -5.842  1.00  0.00     0.050 C 
HETATM    5  C11 UNL     1      24.296 -16.363  -7.080  1.00  0.00    -0.008 C 
HETATM    6  C12 UNL     1      25.522 -16.482  -7.433  1.00  0.00     0.003 C 
HETATM    7  C13 UNL     1      26.872 -16.394  -6.937  1.00  0.00    -0.039 C 
HETATM    8  C14 UNL     1      27.257 -17.715  -6.286  1.00  0.00     0.198 A 
HETATM    9  O5  UNL     1      26.199 -18.399  -5.851  1.00  0.00    -0.353 OA
HETATM   10  C15 UNL     1      26.873 -17.812  -4.813  1.00  0.00     0.182 A 
HETATM   11  C18 UNL     1      26.609 -16.488  -4.173  1.00  0.00     0.108 C 
HETATM   12  C19 UNL     1      25.225 -16.056  -4.019  1.00  0.00     0.049 C 
HETATM   13  C20 UNL     1      24.137 -16.764  -4.697  1.00  0.00     0.020 C 
HETATM   14  C21 UNL     1      27.625 -15.501  -4.694  1.00  0.00     0.009 C 
HETATM   15  C22 UNL     1      28.981 -16.134  -4.304  1.00  0.00     0.020 C 
HETATM   16  C23 UNL     1      27.708 -14.131  -4.179  1.00  0.00     0.037 C 
HETATM   17  C24 UNL     1      27.133 -13.671  -2.931  1.00  0.00     0.001 C 
HETATM   18  C25 UNL     1      28.161 -13.617  -1.778  1.00  0.00     0.011 C 
HETATM   19  C26 UNL     1      26.794 -12.225  -3.227  1.00  0.00     0.062 C 
HETATM   20  C33 UNL     1      26.394 -12.217  -4.701  1.00  0.00     0.050 C 
HETATM   21  C34 UNL     1      27.409 -13.134  -5.283  1.00  0.00     0.064 C 
HETATM   22  C35 UNL     1      27.028 -13.915  -6.465  1.00  0.00     0.053 C 
HETATM   23  C36 UNL     1      27.488 -15.306  -6.189  1.00  0.00    -0.004 C 
HETATM   24  C37 UNL     1      28.981 -15.224  -6.650  1.00  0.00     0.021 C 
ENDROOT
BRANCH   4  25
HETATM   25  C7  UNL     1      23.052 -14.649  -5.773  1.00  0.00     0.111 C 
BRANCH  25  26
HETATM   26  C8  UNL     1      22.920 -14.073  -7.168  1.00  0.00     0.225 C 
HETATM   27  O2  UNL     1      23.851 -13.323  -7.567  1.00  0.00    -0.287 OA
BRANCH  26  28
HETATM   28  C9  UNL     1      21.803 -14.340  -8.032  1.00  0.00     0.329 C 
HETATM   29  O3  UNL     1      22.005 -14.466  -9.279  1.00  0.00    -0.256 OA
BRANCH  28  30
HETATM   30  O4  UNL     1      20.499 -14.473  -7.614  1.00  0.00    -0.320 OA
HETATM   31  C10 UNL     1      19.596 -15.412  -8.197  1.00  0.00     0.213 C 
ENDBRANCH  28  30
ENDBRANCH  26  28
ENDBRANCH  25  26
ENDBRANCH   4  25
BRANCH   1  32
HETATM   32  C3  UNL     1      22.364 -17.940  -3.271  1.00  0.00     0.039 C 
BRANCH  32  33
HETATM   33  C2  UNL     1      21.357 -17.571  -2.252  1.00  0.00    -0.036 C 
HETATM   34  C1  UNL     1      20.707 -18.519  -1.604  1.00  0.00     0.007 C 
ENDBRANCH  32  33
ENDBRANCH   1  32
BRANCH  11  35
HETATM   35  O7  UNL     1      27.071 -16.661  -2.822  1.00  0.00    -0.385 OA
ATOM     36  H7  UNL     1      27.071 -15.780  -2.467  1.00  0.00     0.210 HD
ENDBRANCH  11  35
BRANCH  10  37
HETATM   37  C16 UNL     1      27.420 -18.933  -4.006  1.00  0.00     0.163 C 
HETATM   38  C17 UNL     1      26.510 -19.971  -3.463  1.00  0.00     0.094 C 
HETATM   39  O6  UNL     1      28.600 -19.085  -3.738  1.00  0.00    -0.295 OA
ENDBRANCH  10  37
BRANCH  21  40
HETATM   40  O9  UNL     1      28.493 -12.312  -5.626  1.00  0.00    -0.389 OA
ATOM     41  H9  UNL     1      28.520 -12.065  -6.543  1.00  0.00     0.210 HD
ENDBRANCH  21  40
BRANCH  19  42
HETATM   42  C27 UNL     1      25.731 -11.659  -2.379  1.00  0.00     0.132 C 
HETATM   43  O8  UNL     1      25.243 -12.288  -1.469  1.00  0.00    -0.298 OA
BRANCH  42  44
HETATM   44  C28 UNL     1      25.244 -10.287  -2.645  1.00  0.00     0.083 C 
BRANCH  44  45
HETATM   45  C29 UNL     1      26.080  -9.263  -1.863  1.00  0.00    -0.003 A 
HETATM   46  C30 UNL     1      25.648  -7.861  -1.787  1.00  0.00     0.010 A 
HETATM   47  C31 UNL     1      25.552  -8.787  -0.574  1.00  0.00    -0.014 A 
HETATM   48  C32 UNL     1      24.133  -9.129  -0.149  1.00  0.00     0.010 C 
ENDBRANCH  44  45
ENDBRANCH  42  44
ENDBRANCH  19  42
TORSDOF 12
ENDMDL
MODEL 2
REMARK VINA RESULT: -5.166310711      1.927      7.036
REMARK  12 active torsions:
REMARK  status: ('A' for Active; 'I' for Inactive)
REMARK    1  A    between atoms: C2_2  and  C3_3 
REMARK    2  A    between atoms: C3_3  and  C4_4 
REMARK    3  A    between atoms: C6_7  and  C7_8 
REMARK    4  A    between atoms: C7_8  and  C8_9 
REMARK    5  A    between atoms: C8_9  and  C9_11 
REMARK    6  A    between atoms: C9_11  and  O4_13 
REMARK    7  A    between atoms: C15_20  and  C16_21 
REMARK    8  A    between atoms: C18_24  and  O7_25 
REMARK    9  A    between atoms: C26_34  and  C27_35 
REMARK   10  A    between atoms: C27_35  and  C28_37 
REMARK   11  A    between atoms: C28_37  and  C29_38 
REMARK   12  A    between atoms: C34_43  and  O9_44 
ROOT
HETATM    1  C4  UNL     1      26.654 -13.527  -1.476  1.00  0.00     0.065 C 
HETATM    2  C5  UNL     1      27.837 -14.365  -1.105  1.00  0.00     0.144 C 
HETATM    3  O1  UNL     1      28.750 -14.381  -0.307  1.00  0.00    -0.296 OA
HETATM    4  C6  UNL     1      27.370 -15.253  -2.242  1.00  0.00     0.050 C 
HETATM    5  C11 UNL     1      28.441 -15.939  -2.995  1.00  0.00    -0.008 C 
HETATM    6  C12 UNL     1      28.722 -16.166  -4.225  1.00  0.00     0.003 C 
HETATM    7  C13 UNL     1      28.251 -15.944  -5.568  1.00  0.00    -0.039 C 
HETATM    8  C14 UNL     1      28.709 -14.571  -6.042  1.00  0.00     0.198 A 
HETATM    9  O5  UNL     1      28.931 -13.730  -5.033  1.00  0.00    -0.353 OA
HETATM   10  C15 UNL     1      27.754 -13.441  -5.673  1.00  0.00     0.182 A 
HETATM   11  C18 UNL     1      26.378 -13.907  -5.325  1.00  0.00     0.108 C 
HETATM   12  C19 UNL     1      26.024 -14.032  -3.916  1.00  0.00     0.049 C 
HETATM   13  C20 UNL     1      27.050 -13.960  -2.874  1.00  0.00     0.020 C 
HETATM   14  C21 UNL     1      26.003 -15.021  -6.271  1.00  0.00     0.009 C 
HETATM   15  C22 UNL     1      26.118 -14.367  -7.668  1.00  0.00     0.020 C 
HETATM   16  C23 UNL     1      24.668 -15.626  -6.266  1.00  0.00     0.037 C 
HETATM   17  C24 UNL     1      23.487 -15.037  -5.668  1.00  0.00     0.001 C 
HETATM   18  C25 UNL     1      22.590 -14.309  -6.696  1.00  0.00     0.011 C 
HETATM   19  C26 UNL     1      22.688 -16.247  -5.233  1.00  0.00     0.062 C 
HETATM   20  C33 UNL     1      23.740 -17.277  -4.827  1.00  0.00     0.050 C 
HETATM   21  C34 UNL     1      24.755 -17.094  -5.897  1.00  0.00     0.064 C 
HETATM   22  C35 UNL     1      26.158 -17.363  -5.562  1.00  0.00     0.053 C 
HETATM   23  C36 UNL     1      26.928 -16.211  -6.115  1.00  0.00    -0.004 C 
HETATM   24  C37 UNL     1      27.130 -16.670  -7.597  1.00  0.00     0.021 C 
ENDROOT
BRANCH   4  25
HETATM   25  C7  UNL     1      26.361 -16.157  -1.647  1.00  0.00     0.111 C 
BRANCH  25  26
HETATM   26  C8  UNL     1      26.948 -17.541  -1.458  1.00  0.00     0.225 C 
HETATM   27  O2  UNL     1      27.843 -17.666  -0.579  1.00  0.00    -0.287 OA
BRANCH  26  28
HETATM   28  C9  UNL     1      26.537 -18.686  -2.222  1.00  0.00     0.329 C 
HETATM   29  O3  UNL     1      25.314 -19.023  -2.219  1.00  0.00    -0.256 OA
BRANCH  28  30
HETATM   30  O4  UNL     1      27.379 -19.473  -2.975  1.00  0.00    -0.320 OA
HETATM   31  C10 UNL     1      26.947 -20.679  -3.603  1.00  0.00     0.213 C 
ENDBRANCH  28  30
ENDBRANCH  26  28
ENDBRANCH  25  26
ENDBRANCH   4  25
BRANCH   1  32
HETATM   32  C3  UNL     1      26.951 -12.033  -1.189  1.00  0.00     0.039 C 
BRANCH  32  33
HETATM   33  C2  UNL     1      25.756 -11.385  -0.607  1.00  0.00    -0.036 C 
HETATM   34  C1  UNL     1      24.901 -10.765  -1.398  1.00  0.00     0.007 C 
ENDBRANCH  32  33
ENDBRANCH   1  32
BRANCH  11  35
HETATM   35  O7  UNL     1      25.526 -12.851  -5.804  1.00  0.00    -0.385 OA
ATOM     36  H7  UNL     1      24.659 -13.239  -5.801  1.00  0.00     0.210 HD
ENDBRANCH  11  35
BRANCH  10  37
HETATM   37  C16 UNL     1      27.954 -12.107  -6.297  1.00  0.00     0.163 C 
HETATM   38  C17 UNL     1      28.503 -10.986  -5.494  1.00  0.00     0.094 C 
HETATM   39  O6  UNL     1      27.697 -11.838  -7.458  1.00  0.00    -0.295 OA
ENDBRANCH  10  37
BRANCH  21  40
HETATM   40  O9  UNL     1      24.370 -17.970  -6.922  1.00  0.00    -0.389 OA
ATOM     41  H9  UNL     1      23.432 -18.114  -6.982  1.00  0.00     0.210 HD
ENDBRANCH  21  40
BRANCH  19  42
HETATM   42  C27 UNL     1      21.735 -15.992  -4.140  1.00  0.00     0.132 C 
HETATM   43  O8  UNL     1      21.105 -14.962  -4.076  1.00  0.00    -0.298 OA
BRANCH  42  44
HETATM   44  C28 UNL     1      21.543 -17.017  -3.090  1.00  0.00     0.083 C 
BRANCH  44  45
HETATM   45  C29 UNL     1      20.337 -17.907  -3.428  1.00  0.00    -0.003 A 
HETATM   46  C30 UNL     1      20.508 -19.089  -4.283  1.00  0.00     0.010 A 
HETATM   47  C31 UNL     1      20.257 -19.227  -2.782  1.00  0.00    -0.014 A 
HETATM   48  C32 UNL     1      21.435 -19.771  -1.989  1.00  0.00     0.010 C 
ENDBRANCH  44  45
ENDBRANCH  42  44
ENDBRANCH  19  42
TORSDOF 12
ENDMDL
MODEL 3
REMARK VINA RESULT: -5.045423850      1.853      7.130
REMARK  12 active torsions:
REMARK  status: ('A' for Active; 'I' for Inactive)
REMARK    1  A    between atoms: C2_2  and  C3_3 
REMARK    2  A    between atoms: C3_3  and  C4_4 
REMARK    3  A    between atoms: C6_7  and  C7_8 
REMARK    4  A    between atoms: C7_8  and  C8_9 
REMARK    5  A    between atoms: C8_9  and  C9_11 
REMARK    6  A    between atoms: C9_11  and  O4_13 
REMARK    7  A    between atoms: C15_20  and  C16_21 
REMARK    8  A    between atoms: C18_24  and  O7_25 
REMARK    9  A    between atoms: C26_34  and  C27_35 
REMARK   10  A    between atoms: C27_35  and  C28_37 
REMARK   11  A    between atoms: C28_37  and  C29_38 
REMARK   12  A    between atoms: C34_43  and  O9_44 
ROOT
HETATM    1  C4  UNL     1      26.263 -12.789  -1.544  1.00  0.00     0.065 C 
HETATM    2  C5  UNL     1      27.563 -13.350  -1.061  1.00  0.00     0.144 C 
HETATM    3  O1  UNL     1      28.409 -13.142  -0.218  1.00  0.00    -0.296 OA
HETATM    4  C6  UNL     1      27.354 -14.371  -2.164  1.00  0.00     0.050 C 
HETATM    5  C11 UNL     1      28.585 -14.863  -2.817  1.00  0.00    -0.008 C 
HETATM    6  C12 UNL     1      28.981 -15.091  -4.015  1.00  0.00     0.003 C 
HETATM    7  C13 UNL     1      28.560 -15.036  -5.391  1.00  0.00    -0.039 C 
HETATM    8  C14 UNL     1      28.765 -13.625  -5.926  1.00  0.00     0.198 A 
HETATM    9  O5  UNL     1      28.752 -12.706  -4.961  1.00  0.00    -0.353 OA
HETATM   10  C15 UNL     1      27.584 -12.694  -5.676  1.00  0.00     0.182 A 
HETATM   11  C18 UNL     1      26.309 -13.410  -5.371  1.00  0.00     0.108 C 
HETATM   12  C19 UNL     1      25.899 -13.533  -3.977  1.00  0.00     0.049 C 
HETATM   13  C20 UNL     1      26.824 -13.203  -2.890  1.00  0.00     0.020 C 
HETATM   14  C21 UNL     1      26.223 -14.623  -6.264  1.00  0.00     0.009 C 
HETATM   15  C22 UNL     1      26.291 -14.031  -7.691  1.00  0.00     0.020 C 
HETATM   16  C23 UNL     1      25.036 -15.484  -6.290  1.00  0.00     0.037 C 
HETATM   17  C24 UNL     1      23.726 -15.116  -5.791  1.00  0.00     0.001 C 
HETATM   18  C25 UNL     1      22.770 -14.637  -6.906  1.00  0.00     0.011 C 
HETATM   19  C26 UNL     1      23.159 -16.439  -5.322  1.00  0.00     0.062 C 
HETATM   20  C33 UNL     1      24.367 -17.214  -4.800  1.00  0.00     0.050 C 
HETATM   21  C34 UNL     1      25.390 -16.884  -5.827  1.00  0.00     0.064 C 
HETATM   22  C35 UNL     1      26.795 -16.847  -5.405  1.00  0.00     0.053 C 
HETATM   23  C36 UNL     1      27.353 -15.592  -5.987  1.00  0.00    -0.004 C 
HETATM   24  C37 UNL     1      27.734 -16.075  -7.426  1.00  0.00     0.021 C 
ENDROOT
BRANCH   4  25
HETATM   25  C7  UNL     1      26.510 -15.429  -1.566  1.00  0.00     0.111 C 
BRANCH  25  26
HETATM   26  C8  UNL     1      27.371 -16.593  -1.120  1.00  0.00     0.225 C 
HETATM   27  O2  UNL     1      28.001 -16.455  -0.037  1.00  0.00    -0.287 OA
BRANCH  26  28
HETATM   28  C9  UNL     1      27.496 -17.816  -1.864  1.00  0.00     0.329 C 
HETATM   29  O3  UNL     1      28.654 -18.273  -2.109  1.00  0.00    -0.256 OA
BRANCH  28  30
HETATM   30  O4  UNL     1      26.440 -18.553  -2.349  1.00  0.00    -0.320 OA
HETATM   31  C10 UNL     1      25.320 -18.915  -1.542  1.00  0.00     0.213 C 
ENDBRANCH  28  30
ENDBRANCH  26  28
ENDBRANCH  25  26
ENDBRANCH   4  25
BRANCH   1  32
HETATM   32  C3  UNL     1      26.239 -11.253  -1.335  1.00  0.00     0.039 C 
BRANCH  32  33
HETATM   33  C2  UNL     1      24.853 -10.750  -1.458  1.00  0.00    -0.036 C 
HETATM   34  C1  UNL     1      24.602  -9.717  -2.240  1.00  0.00     0.007 C 
ENDBRANCH  32  33
ENDBRANCH   1  32
BRANCH  11  35
HETATM   35  O7  UNL     1      25.296 -12.573  -5.957  1.00  0.00    -0.385 OA
ATOM     36  H7  UNL     1      25.074 -13.017  -6.767  1.00  0.00     0.210 HD
ENDBRANCH  11  35
BRANCH  10  37
HETATM   37  C16 UNL     1      27.553 -11.381  -6.370  1.00  0.00     0.163 C 
HETATM   38  C17 UNL     1      27.776 -10.129  -5.604  1.00  0.00     0.094 C 
HETATM   39  O6  UNL     1      27.353 -11.230  -7.564  1.00  0.00    -0.295 OA
ENDBRANCH  10  37
BRANCH  21  40
HETATM   40  O9  UNL     1      25.251 -17.870  -6.814  1.00  0.00    -0.389 OA
ATOM     41  H9  UNL     1      24.809 -18.658  -6.519  1.00  0.00     0.210 HD
ENDBRANCH  21  40
BRANCH  19  42
HETATM   42  C27 UNL     1      22.108 -16.327  -4.297  1.00  0.00     0.132 C 
HETATM   43  O8  UNL     1      21.818 -15.263  -3.801  1.00  0.00    -0.298 OA
BRANCH  42  44
HETATM   44  C28 UNL     1      21.388 -17.543  -3.859  1.00  0.00     0.083 C 
BRANCH  44  45
HETATM   45  C29 UNL     1      21.625 -17.793  -2.361  1.00  0.00    -0.003 A 
HETATM   46  C30 UNL     1      20.513 -18.216  -1.499  1.00  0.00     0.010 A 
HETATM   47  C31 UNL     1      21.627 -19.188  -1.890  1.00  0.00    -0.014 A 
HETATM   48  C32 UNL     1      21.191 -20.314  -2.814  1.00  0.00     0.010 C 
ENDBRANCH  44  45
ENDBRANCH  42  44
ENDBRANCH  19  42
TORSDOF 12
ENDMDL
MODEL 4
REMARK VINA RESULT: -4.973857718      0.946      1.118
REMARK  12 active torsions:
REMARK  status: ('A' for Active; 'I' for Inactive)
REMARK    1  A    between atoms: C2_2  and  C3_3 
REMARK    2  A    between atoms: C3_3  and  C4_4 
REMARK    3  A    between atoms: C6_7  and  C7_8 
REMARK    4  A    between atoms: C7_8  and  C8_9 
REMARK    5  A    between atoms: C8_9  and  C9_11 
REMARK    6  A    between atoms: C9_11  and  O4_13 
REMARK    7  A    between atoms: C15_20  and  C16_21 
REMARK    8  A    between atoms: C18_24  and  O7_25 
REMARK    9  A    between atoms: C26_34  and  C27_35 
REMARK   10  A    between atoms: C27_35  and  C28_37 
REMARK   11  A    between atoms: C28_37  and  C29_38 
REMARK   12  A    between atoms: C34_43  and  O9_44 
ROOT
HETATM    1  C4  UNL     1      22.727 -16.405  -4.117  1.00  0.00     0.065 C 
HETATM    2  C5  UNL     1      22.332 -16.728  -5.522  1.00  0.00     0.144 C 
HETATM    3  O1  UNL     1      21.480 -17.340  -6.131  1.00  0.00    -0.296 OA
HETATM    4  C6  UNL     1      23.548 -15.899  -5.891  1.00  0.00     0.050 C 
HETATM    5  C11 UNL     1      24.270 -16.333  -7.105  1.00  0.00    -0.008 C 
HETATM    6  C12 UNL     1      25.491 -16.505  -7.455  1.00  0.00     0.003 C 
HETATM    7  C13 UNL     1      26.845 -16.409  -6.975  1.00  0.00    -0.039 C 
HETATM    8  C14 UNL     1      27.207 -17.684  -6.226  1.00  0.00     0.198 A 
HETATM    9  O5  UNL     1      26.138 -18.309  -5.734  1.00  0.00    -0.353 OA
HETATM   10  C15 UNL     1      26.833 -17.659  -4.749  1.00  0.00     0.182 A 
HETATM   11  C18 UNL     1      26.602 -16.285  -4.211  1.00  0.00     0.108 C 
HETATM   12  C19 UNL     1      25.228 -15.813  -4.082  1.00  0.00     0.049 C 
HETATM   13  C20 UNL     1      24.121 -16.547  -4.697  1.00  0.00     0.020 C 
HETATM   14  C21 UNL     1      27.634 -15.362  -4.812  1.00  0.00     0.009 C 
HETATM   15  C22 UNL     1      28.980 -15.993  -4.383  1.00  0.00     0.020 C 
HETATM   16  C23 UNL     1      27.750 -13.959  -4.405  1.00  0.00     0.037 C 
HETATM   17  C24 UNL     1      27.195 -13.392  -3.192  1.00  0.00     0.001 C 
HETATM   18  C25 UNL     1      28.232 -13.273  -2.053  1.00  0.00     0.011 C 
HETATM   19  C26 UNL     1      26.884 -11.967  -3.596  1.00  0.00     0.062 C 
HETATM   20  C33 UNL     1      26.473 -12.063  -5.064  1.00  0.00     0.050 C 
HETATM   21  C34 UNL     1      27.464 -13.043  -5.580  1.00  0.00     0.064 C 
HETATM   22  C35 UNL     1      27.058 -13.905  -6.697  1.00  0.00     0.053 C 
HETATM   23  C36 UNL     1      27.490 -15.281  -6.317  1.00  0.00    -0.004 C 
HETATM   24  C37 UNL     1      28.981 -15.266  -6.791  1.00  0.00     0.021 C 
ENDROOT
BRANCH   4  25
HETATM   25  C7  UNL     1      23.072 -14.497  -5.926  1.00  0.00     0.111 C 
BRANCH  25  26
HETATM   26  C8  UNL     1      22.926 -14.033  -7.360  1.00  0.00     0.225 C 
HETATM   27  O2  UNL     1      23.884 -13.374  -7.847  1.00  0.00    -0.287 OA
BRANCH  26  28
HETATM   28  C9  UNL     1      21.769 -14.305  -8.167  1.00  0.00     0.329 C 
HETATM   29  O3  UNL     1      21.904 -14.411  -9.424  1.00  0.00    -0.256 OA
BRANCH  28  30
HETATM   30  O4  UNL     1      20.491 -14.463  -7.681  1.00  0.00    -0.320 OA
HETATM   31  C10 UNL     1      19.576 -15.417  -8.219  1.00  0.00     0.213 C 
ENDBRANCH  28  30
ENDBRANCH  26  28
ENDBRANCH  25  26
ENDBRANCH   4  25
BRANCH   1  32
HETATM   32  C3  UNL     1      22.334 -17.571  -3.174  1.00  0.00     0.039 C 
BRANCH  32  33
HETATM   33  C2  UNL     1      21.002 -17.314  -2.584  1.00  0.00    -0.036 C 
HETATM   34  C1  UNL     1      20.598 -18.029  -1.551  1.00  0.00     0.007 C 
ENDBRANCH  32  33
ENDBRANCH   1  32
BRANCH  11  35
HETATM   35  O7  UNL     1      27.070 -16.363  -2.853  1.00  0.00    -0.385 OA
ATOM     36  H7  UNL     1      27.733 -15.685  -2.801  1.00  0.00     0.210 HD
ENDBRANCH  11  35
BRANCH  10  37
HETATM   37  C16 UNL     1      27.363 -18.727  -3.861  1.00  0.00     0.163 C 
HETATM   38  C17 UNL     1      26.456 -19.782  -3.345  1.00  0.00     0.094 C 
HETATM   39  O6  UNL     1      28.524 -18.819  -3.502  1.00  0.00    -0.295 OA
ENDBRANCH  10  37
BRANCH  21  40
HETATM   40  O9  UNL     1      28.562 -12.275  -5.992  1.00  0.00    -0.389 OA
ATOM     41  H9  UNL     1      28.329 -11.460  -6.422  1.00  0.00     0.210 HD
ENDBRANCH  21  40
BRANCH  19  42
HETATM   42  C27 UNL     1      25.840 -11.315  -2.788  1.00  0.00     0.132 C 
HETATM   43  O8  UNL     1      25.214 -10.368  -3.205  1.00  0.00    -0.298 OA
BRANCH  42  44
HETATM   44  C28 UNL     1      25.548 -11.825  -1.430  1.00  0.00     0.083 C 
BRANCH  44  45
HETATM   45  C29 UNL     1      25.805 -10.733  -0.382  1.00  0.00    -0.003 A 
HETATM   46  C30 UNL     1      24.790 -10.433   0.637  1.00  0.00     0.010 A 
HETATM   47  C31 UNL     1      26.086 -11.159   0.999  1.00  0.00    -0.014 A 
HETATM   48  C32 UNL     1      25.905 -12.612   1.409  1.00  0.00     0.010 C 
ENDBRANCH  44  45
ENDBRANCH  42  44
ENDBRANCH  19  42
TORSDOF 12
ENDMDL
MODEL 5
REMARK VINA RESULT: -4.845796257      2.001      7.316
REMARK  12 active torsions:
REMARK  status: ('A' for Active; 'I' for Inactive)
REMARK    1  A    between atoms: C2_2  and  C3_3 
REMARK    2  A    between atoms: C3_3  and  C4_4 
REMARK    3  A    between atoms: C6_7  and  C7_8 
REMARK    4  A    between atoms: C7_8  and  C8_9 
REMARK    5  A    between atoms: C8_9  and  C9_11 
REMARK    6  A    between atoms: C9_11  and  O4_13 
REMARK    7  A    between atoms: C15_20  and  C16_21 
REMARK    8  A    between atoms: C18_24  and  O7_25 
REMARK    9  A    between atoms: C26_34  and  C27_35 
REMARK   10  A    between atoms: C27_35  and  C28_37 
REMARK   11  A    between atoms: C28_37  and  C29_38 
REMARK   12  A    between atoms: C34_43  and  O9_44 
ROOT
HETATM    1  C4  UNL     1      26.621 -13.560  -1.502  1.00  0.00     0.065 C 
HETATM    2  C5  UNL     1      27.811 -14.393  -1.148  1.00  0.00     0.144 C 
HETATM    3  O1  UNL     1      28.725 -14.418  -0.351  1.00  0.00    -0.296 OA
HETATM    4  C6  UNL     1      27.352 -15.262  -2.304  1.00  0.00     0.050 C 
HETATM    5  C11 UNL     1      28.429 -15.922  -3.071  1.00  0.00    -0.008 C 
HETATM    6  C12 UNL     1      28.710 -16.122  -4.306  1.00  0.00     0.003 C 
HETATM    7  C13 UNL     1      28.236 -15.876  -5.644  1.00  0.00    -0.039 C 
HETATM    8  C14 UNL     1      28.681 -14.490  -6.090  1.00  0.00     0.198 A 
HETATM    9  O5  UNL     1      28.896 -13.667  -5.064  1.00  0.00    -0.353 OA
HETATM   10  C15 UNL     1      27.716 -13.376  -5.696  1.00  0.00     0.182 A 
HETATM   11  C18 UNL     1      26.345 -13.862  -5.358  1.00  0.00     0.108 C 
HETATM   12  C19 UNL     1      25.993 -14.020  -3.951  1.00  0.00     0.049 C 
HETATM   13  C20 UNL     1      27.019 -13.960  -2.908  1.00  0.00     0.020 C 
HETATM   14  C21 UNL     1      25.979 -14.960  -6.326  1.00  0.00     0.009 C 
HETATM   15  C22 UNL     1      26.086 -14.276  -7.709  1.00  0.00     0.020 C 
HETATM   16  C23 UNL     1      24.650 -15.577  -6.333  1.00  0.00     0.037 C 
HETATM   17  C24 UNL     1      23.464 -15.011  -5.722  1.00  0.00     0.001 C 
HETATM   18  C25 UNL     1      22.560 -14.271  -6.734  1.00  0.00     0.011 C 
HETATM   19  C26 UNL     1      22.677 -16.238  -5.311  1.00  0.00     0.062 C 
HETATM   20  C33 UNL     1      23.739 -17.267  -4.927  1.00  0.00     0.050 C 
HETATM   21  C34 UNL     1      24.750 -17.052  -5.994  1.00  0.00     0.064 C 
HETATM   22  C35 UNL     1      26.157 -17.315  -5.666  1.00  0.00     0.053 C 
HETATM   23  C36 UNL     1      26.915 -16.144  -6.195  1.00  0.00    -0.004 C 
HETATM   24  C37 UNL     1      27.120 -16.570  -7.687  1.00  0.00     0.021 C 
ENDROOT
BRANCH   4  25
HETATM   25  C7  UNL     1      26.352 -16.188  -1.727  1.00  0.00     0.111 C 
BRANCH  25  26
HETATM   26  C8  UNL     1      26.927 -17.587  -1.637  1.00  0.00     0.225 C 
HETATM   27  O2  UNL     1      26.523 -18.425  -2.488  1.00  0.00    -0.287 OA
BRANCH  26  28
HETATM   28  C9  UNL     1      27.889 -17.986  -0.648  1.00  0.00     0.329 C 
HETATM   29  O3  UNL     1      27.757 -17.570   0.544  1.00  0.00    -0.256 OA
BRANCH  28  30
HETATM   30  O4  UNL     1      28.973 -18.800  -0.887  1.00  0.00    -0.320 OA
HETATM   31  C10 UNL     1      28.963 -20.197  -0.600  1.00  0.00     0.213 C 
ENDBRANCH  28  30
ENDBRANCH  26  28
ENDBRANCH  25  26
ENDBRANCH   4  25
BRANCH   1  32
HETATM   32  C3  UNL     1      26.904 -12.069  -1.184  1.00  0.00     0.039 C 
BRANCH  32  33
HETATM   33  C2  UNL     1      25.688 -11.431  -0.633  1.00  0.00    -0.036 C 
HETATM   34  C1  UNL     1      24.888 -10.754  -1.434  1.00  0.00     0.007 C 
ENDBRANCH  32  33
ENDBRANCH   1  32
BRANCH  11  35
HETATM   35  O7  UNL     1      25.482 -12.804  -5.813  1.00  0.00    -0.385 OA
ATOM     36  H7  UNL     1      24.859 -13.246  -6.378  1.00  0.00     0.210 HD
ENDBRANCH  11  35
BRANCH  10  37
HETATM   37  C16 UNL     1      27.902 -12.028  -6.292  1.00  0.00     0.163 C 
HETATM   38  C17 UNL     1      28.455 -10.922  -5.471  1.00  0.00     0.094 C 
HETATM   39  O6  UNL     1      27.632 -11.734  -7.445  1.00  0.00    -0.295 OA
ENDBRANCH  10  37
BRANCH  21  40
HETATM   40  O9  UNL     1      24.373 -17.910  -7.037  1.00  0.00    -0.389 OA
ATOM     41  H9  UNL     1      24.734 -18.786  -6.972  1.00  0.00     0.210 HD
ENDBRANCH  21  40
BRANCH  19  42
HETATM   42  C27 UNL     1      21.723 -16.014  -4.212  1.00  0.00     0.132 C 
HETATM   43  O8  UNL     1      21.125 -14.971  -4.094  1.00  0.00    -0.298 OA
BRANCH  42  44
HETATM   44  C28 UNL     1      21.489 -17.091  -3.224  1.00  0.00     0.083 C 
BRANCH  44  45
HETATM   45  C29 UNL     1      20.233 -17.894  -3.596  1.00  0.00    -0.003 A 
HETATM   46  C30 UNL     1      20.267 -18.838  -4.720  1.00  0.00     0.010 A 
HETATM   47  C31 UNL     1      20.216 -19.330  -3.273  1.00  0.00    -0.014 A 
HETATM   48  C32 UNL     1      21.480 -20.027  -2.796  1.00  0.00     0.010 C 
ENDBRANCH  44  45
ENDBRANCH  42  44
ENDBRANCH  19  42
TORSDOF 12
ENDMDL
