MODEL 1
REMARK VINA RESULT: -7.484067153      0.000      0.000
REMARK  11 active torsions:
REMARK  status: ('A' for Active; 'I' for Inactive)
REMARK    1  A    between atoms: C2_2  and  N1_3 
REMARK    2  A    between atoms: N1_3  and  C4_5 
REMARK    3  A    between atoms: C5_6  and  N2_8 
REMARK    4  A    between atoms: N2_8  and  O1_9 
REMARK    5  A    between atoms: N2_8  and  C6_11 
REMARK    6  A    between atoms: C6_11  and  C7_12 
REMARK    7  A    between atoms: C12_18  and  C13_19 
REMARK    8  A    between atoms: C13_19  and  C14_20 
REMARK    9  A    between atoms: C14_20  and  C15_21 
REMARK   10  A    between atoms: C15_21  and  O3_22 
REMARK   11  A    between atoms: N3_24  and  O4_26 
ROOT
HETATM    1  C7  UNL     1       8.137  57.603  -0.495  1.00  0.00    -0.016 A 
HETATM    2  C8  UNL     1       7.056  58.655  -0.529  1.00  0.00     0.029 A 
HETATM    3  C9  UNL     1       5.821  58.386   0.065  1.00  0.00     0.219 A 
HETATM    4  O2  UNL     1       6.239  57.381   0.334  1.00  0.00    -0.330 OA
HETATM    5  C10 UNL     1       6.608  56.317   0.648  1.00  0.00     0.088 A 
HETATM    6  C11 UNL     1       7.875  56.306   0.160  1.00  0.00     0.051 A 
HETATM    7  C12 UNL     1       5.353  55.983   1.282  1.00  0.00     0.033 A 
HETATM    8  S1  UNL     1       4.383  57.601   0.956  1.00  0.00    -0.091 SA
ENDROOT
BRANCH   1   9
HETATM    9  C6  UNL     1       9.353  57.837  -0.963  1.00  0.00     0.135 C 
BRANCH   9  10
HETATM   10  N2  UNL     1      10.108  57.166  -1.802  1.00  0.00    -0.223 N 
BRANCH  10  11
HETATM   11  C5  UNL     1      11.054  57.888  -2.488  1.00  0.00     0.146 C 
HETATM   12  C4  UNL     1      12.277  57.356  -2.656  1.00  0.00     0.130 C 
HETATM   13 CL1  UNL     1      10.712  59.485  -3.151  1.00  0.00    -0.060 Cl
BRANCH  12  14
HETATM   14  N1  UNL     1      13.234  58.103  -3.359  1.00  0.00    -0.392 N 
HETATM   15  C3  UNL     1      13.578  57.819  -4.753  1.00  0.00     0.148 C 
BRANCH  14  16
HETATM   16  C2  UNL     1      13.961  59.222  -2.756  1.00  0.00     0.117 C 
HETATM   17  C1  UNL     1      15.249  59.495  -3.488  1.00  0.00     0.026 C 
ENDBRANCH  14  16
ENDBRANCH  12  14
ENDBRANCH  10  11
BRANCH  10  18
HETATM   18  O1  UNL     1      10.084  55.864  -2.016  1.00  0.00    -0.282 OA
ATOM     19  H1  UNL     1       9.504  55.351  -1.466  1.00  0.00     0.245 HD
ENDBRANCH  10  18
ENDBRANCH   9  10
ENDBRANCH   1   9
BRANCH   7  20
HETATM   20  C13 UNL     1       5.272  54.863   1.803  1.00  0.00     0.003 C 
BRANCH  20  21
HETATM   21  C14 UNL     1       5.949  53.641   1.330  1.00  0.00     0.114 C 
BRANCH  21  22
HETATM   22  C15 UNL     1       6.592  52.960   2.444  1.00  0.00     0.138 C 
HETATM   23  N3  UNL     1       6.301  51.757   2.762  1.00  0.00    -0.251 N 
ATOM     24  H3  UNL     1       6.785  51.335   3.554  1.00  0.00     0.196 HD
BRANCH  22  25
HETATM   25  O3  UNL     1       7.561  53.616   3.211  1.00  0.00    -0.348 OA
ATOM     26  H3  UNL     1       7.737  53.338   4.102  1.00  0.00     0.219 HD
ENDBRANCH  22  25
BRANCH  23  27
HETATM   27  O4  UNL     1       5.371  51.005   2.090  1.00  0.00    -0.288 OA
ATOM     28  H4  UNL     1       5.411  50.057   2.030  1.00  0.00     0.244 HD
ENDBRANCH  23  27
ENDBRANCH  21  22
ENDBRANCH  20  21
ENDBRANCH   7  20
TORSDOF 11
ENDMDL
MODEL 2
REMARK VINA RESULT: -7.424788872      3.341      4.621
REMARK  11 active torsions:
REMARK  status: ('A' for Active; 'I' for Inactive)
REMARK    1  A    between atoms: C2_2  and  N1_3 
REMARK    2  A    between atoms: N1_3  and  C4_5 
REMARK    3  A    between atoms: C5_6  and  N2_8 
REMARK    4  A    between atoms: N2_8  and  O1_9 
REMARK    5  A    between atoms: N2_8  and  C6_11 
REMARK    6  A    between atoms: C6_11  and  C7_12 
REMARK    7  A    between atoms: C12_18  and  C13_19 
REMARK    8  A    between atoms: C13_19  and  C14_20 
REMARK    9  A    between atoms: C14_20  and  C15_21 
REMARK   10  A    between atoms: C15_21  and  O3_22 
REMARK   11  A    between atoms: N3_24  and  O4_26 
ROOT
HETATM    1  C7  UNL     1       8.559  57.398  -1.100  1.00  0.00    -0.016 A 
HETATM    2  C8  UNL     1       8.591  58.890  -1.323  1.00  0.00     0.029 A 
HETATM    3  C9  UNL     1       7.544  59.677  -0.836  1.00  0.00     0.219 A 
HETATM    4  O2  UNL     1       7.092  58.726  -0.450  1.00  0.00    -0.330 OA
HETATM    5  C10 UNL     1       6.563  57.777  -0.019  1.00  0.00     0.088 A 
HETATM    6  C11 UNL     1       7.424  56.791  -0.377  1.00  0.00     0.051 A 
HETATM    7  C12 UNL     1       5.454  58.539   0.511  1.00  0.00     0.033 A 
HETATM    8  S1  UNL     1       5.980  60.298  -0.034  1.00  0.00    -0.091 SA
ENDROOT
BRANCH   1   9
HETATM    9  C6  UNL     1       9.564  56.617  -1.462  1.00  0.00     0.135 C 
BRANCH   9  10
HETATM   10  N2  UNL     1      10.666  56.268  -0.838  1.00  0.00    -0.223 N 
BRANCH  10  11
HETATM   11  C5  UNL     1      10.592  55.150  -0.044  1.00  0.00     0.146 C 
HETATM   12  C4  UNL     1      11.186  54.019  -0.463  1.00  0.00     0.130 C 
HETATM   13 CL1  UNL     1       9.748  55.155   1.504  1.00  0.00    -0.060 Cl
BRANCH  12  14
HETATM   14  N1  UNL     1      11.105  52.884   0.357  1.00  0.00    -0.392 N 
HETATM   15  C3  UNL     1      12.142  52.551   1.336  1.00  0.00     0.148 C 
BRANCH  14  16
HETATM   16  C2  UNL     1       9.981  51.947   0.301  1.00  0.00     0.117 C 
HETATM   17  C1  UNL     1       9.650  51.407   1.668  1.00  0.00     0.026 C 
ENDBRANCH  14  16
ENDBRANCH  12  14
ENDBRANCH  10  11
BRANCH  10  18
HETATM   18  O1  UNL     1      11.845  56.852  -0.935  1.00  0.00    -0.282 OA
ATOM     19  H1  UNL     1      12.559  56.320  -1.268  1.00  0.00     0.245 HD
ENDBRANCH  10  18
ENDBRANCH   9  10
ENDBRANCH   1   9
BRANCH   7  20
HETATM   20  C13 UNL     1       4.575  57.904   1.107  1.00  0.00     0.003 C 
BRANCH  20  21
HETATM   21  C14 UNL     1       4.134  56.534   0.786  1.00  0.00     0.114 C 
BRANCH  21  22
HETATM   22  C15 UNL     1       4.430  55.638   1.894  1.00  0.00     0.138 C 
HETATM   23  N3  UNL     1       3.545  54.864   2.395  1.00  0.00    -0.251 N 
ATOM     24  H3  UNL     1       3.814  54.261   3.172  1.00  0.00     0.196 HD
BRANCH  22  25
HETATM   25  O3  UNL     1       5.713  55.601   2.451  1.00  0.00    -0.348 OA
ATOM     26  H3  UNL     1       5.861  55.914   3.336  1.00  0.00     0.219 HD
ENDBRANCH  22  25
BRANCH  23  27
HETATM   27  O4  UNL     1       2.253  54.804   1.940  1.00  0.00    -0.288 OA
ATOM     28  H4  UNL     1       1.832  53.996   1.670  1.00  0.00     0.244 HD
ENDBRANCH  23  27
ENDBRANCH  21  22
ENDBRANCH  20  21
ENDBRANCH   7  20
TORSDOF 11
ENDMDL
MODEL 3
REMARK VINA RESULT: -7.407892664      3.148      6.755
REMARK  11 active torsions:
REMARK  status: ('A' for Active; 'I' for Inactive)
REMARK    1  A    between atoms: C2_2  and  N1_3 
REMARK    2  A    between atoms: N1_3  and  C4_5 
REMARK    3  A    between atoms: C5_6  and  N2_8 
REMARK    4  A    between atoms: N2_8  and  O1_9 
REMARK    5  A    between atoms: N2_8  and  C6_11 
REMARK    6  A    between atoms: C6_11  and  C7_12 
REMARK    7  A    between atoms: C12_18  and  C13_19 
REMARK    8  A    between atoms: C13_19  and  C14_20 
REMARK    9  A    between atoms: C14_20  and  C15_21 
REMARK   10  A    between atoms: C15_21  and  O3_22 
REMARK   11  A    between atoms: N3_24  and  O4_26 
ROOT
HETATM    1  C7  UNL     1       6.137  56.143   0.562  1.00  0.00    -0.016 A 
HETATM    2  C8  UNL     1       5.373  57.443   0.552  1.00  0.00     0.029 A 
HETATM    3  C9  UNL     1       5.977  58.588   0.028  1.00  0.00     0.219 A 
HETATM    4  O2  UNL     1       6.874  57.947  -0.176  1.00  0.00    -0.330 OA
HETATM    5  C10 UNL     1       7.842  57.339  -0.418  1.00  0.00     0.088 A 
HETATM    6  C11 UNL     1       7.511  56.098   0.022  1.00  0.00     0.051 A 
HETATM    7  C12 UNL     1       8.518  58.488  -0.977  1.00  0.00     0.033 A 
HETATM    8  S1  UNL     1       7.154  59.811  -0.744  1.00  0.00    -0.091 SA
ENDROOT
BRANCH   1   9
HETATM    9  C6  UNL     1       5.583  55.010   0.964  1.00  0.00     0.135 C 
BRANCH   9  10
HETATM   10  N2  UNL     1       5.880  54.197   1.952  1.00  0.00    -0.223 N 
BRANCH  10  11
HETATM   11  C5  UNL     1       6.599  53.074   1.626  1.00  0.00     0.146 C 
HETATM   12  C4  UNL     1       7.849  52.945   2.104  1.00  0.00     0.130 C 
HETATM   13 CL1  UNL     1       5.933  51.800   0.606  1.00  0.00    -0.060 Cl
BRANCH  12  14
HETATM   14  N1  UNL     1       8.573  51.792   1.765  1.00  0.00    -0.392 N 
HETATM   15  C3  UNL     1       8.517  50.570   2.569  1.00  0.00     0.148 C 
BRANCH  14  16
HETATM   16  C2  UNL     1       9.436  51.719   0.584  1.00  0.00     0.117 C 
HETATM   17  C1  UNL     1       9.993  53.073   0.230  1.00  0.00     0.026 C 
ENDBRANCH  14  16
ENDBRANCH  12  14
ENDBRANCH  10  11
BRANCH  10  18
HETATM   18  O1  UNL     1       5.602  54.375   3.229  1.00  0.00    -0.282 OA
ATOM     19  H1  UNL     1       4.688  54.309   3.482  1.00  0.00     0.245 HD
ENDBRANCH  10  18
ENDBRANCH   9  10
ENDBRANCH   1   9
BRANCH   7  20
HETATM   20  C13 UNL     1       9.665  58.307  -1.405  1.00  0.00     0.003 C 
BRANCH  20  21
HETATM   21  C14 UNL     1      10.101  57.180  -2.251  1.00  0.00     0.114 C 
BRANCH  21  22
HETATM   22  C15 UNL     1      11.033  56.335  -1.519  1.00  0.00     0.138 C 
HETATM   23  N3  UNL     1      11.699  55.407  -2.091  1.00  0.00    -0.251 N 
ATOM     24  H3  UNL     1      12.335  54.847  -1.524  1.00  0.00     0.196 HD
BRANCH  22  25
HETATM   25  O3  UNL     1      11.227  56.519  -0.145  1.00  0.00    -0.348 OA
ATOM     26  H3  UNL     1      10.921  55.866   0.474  1.00  0.00     0.219 HD
ENDBRANCH  22  25
BRANCH  23  27
HETATM   27  O4  UNL     1      11.602  55.126  -3.430  1.00  0.00    -0.288 OA
ATOM     28  H4  UNL     1      11.713  54.253  -3.789  1.00  0.00     0.244 HD
ENDBRANCH  23  27
ENDBRANCH  21  22
ENDBRANCH  20  21
ENDBRANCH   7  20
TORSDOF 11
ENDMDL
MODEL 4
REMARK VINA RESULT: -7.404395741      1.547      1.951
REMARK  11 active torsions:
REMARK  status: ('A' for Active; 'I' for Inactive)
REMARK    1  A    between atoms: C2_2  and  N1_3 
REMARK    2  A    between atoms: N1_3  and  C4_5 
REMARK    3  A    between atoms: C5_6  and  N2_8 
REMARK    4  A    between atoms: N2_8  and  O1_9 
REMARK    5  A    between atoms: N2_8  and  C6_11 
REMARK    6  A    between atoms: C6_11  and  C7_12 
REMARK    7  A    between atoms: C12_18  and  C13_19 
REMARK    8  A    between atoms: C13_19  and  C14_20 
REMARK    9  A    between atoms: C14_20  and  C15_21 
REMARK   10  A    between atoms: C15_21  and  O3_22 
REMARK   11  A    between atoms: N3_24  and  O4_26 
ROOT
HETATM    1  C7  UNL     1       9.285  57.651  -1.210  1.00  0.00    -0.016 A 
HETATM    2  C8  UNL     1       8.869  59.089  -1.400  1.00  0.00     0.029 A 
HETATM    3  C9  UNL     1       7.631  59.513  -0.912  1.00  0.00     0.219 A 
HETATM    4  O2  UNL     1       7.482  58.462  -0.552  1.00  0.00    -0.330 OA
HETATM    5  C10 UNL     1       7.258  57.387  -0.150  1.00  0.00     0.088 A 
HETATM    6  C11 UNL     1       8.379  56.714  -0.516  1.00  0.00     0.051 A 
HETATM    7  C12 UNL     1       5.969  57.768   0.380  1.00  0.00     0.033 A 
HETATM    8  S1  UNL     1       5.946  59.616  -0.119  1.00  0.00    -0.091 SA
ENDROOT
BRANCH   1   9
HETATM    9  C6  UNL     1      10.481  57.216  -1.573  1.00  0.00     0.135 C 
BRANCH   9  10
HETATM   10  N2  UNL     1      11.016  57.023  -2.757  1.00  0.00    -0.223 N 
BRANCH  10  11
HETATM   11  C5  UNL     1      11.866  58.001  -3.212  1.00  0.00     0.146 C 
HETATM   12  C4  UNL     1      13.161  57.693  -3.405  1.00  0.00     0.130 C 
HETATM   13 CL1  UNL     1      11.312  59.640  -3.551  1.00  0.00    -0.060 Cl
BRANCH  12  14
HETATM   14  N1  UNL     1      14.019  58.701  -3.871  1.00  0.00    -0.392 N 
HETATM   15  C3  UNL     1      14.307  58.885  -5.294  1.00  0.00     0.148 C 
BRANCH  14  16
HETATM   16  C2  UNL     1      14.691  59.644  -2.974  1.00  0.00     0.117 C 
HETATM   17  C1  UNL     1      16.176  59.673  -3.225  1.00  0.00     0.026 C 
ENDBRANCH  14  16
ENDBRANCH  12  14
ENDBRANCH  10  11
BRANCH  10  18
HETATM   18  O1  UNL     1      10.859  55.966  -3.530  1.00  0.00    -0.282 OA
ATOM     19  H1  UNL     1      10.072  55.451  -3.395  1.00  0.00     0.245 HD
ENDBRANCH  10  18
ENDBRANCH   9  10
ENDBRANCH   1   9
BRANCH   7  20
HETATM   20  C13 UNL     1       5.317  56.884   0.950  1.00  0.00     0.003 C 
BRANCH  20  21
HETATM   21  C14 UNL     1       5.860  55.876   1.880  1.00  0.00     0.114 C 
BRANCH  21  22
HETATM   22  C15 UNL     1       4.963  54.733   1.962  1.00  0.00     0.138 C 
HETATM   23  N3  UNL     1       5.377  53.534   1.813  1.00  0.00    -0.251 N 
ATOM     24  H3  UNL     1       4.699  52.776   1.880  1.00  0.00     0.196 HD
BRANCH  22  25
HETATM   25  O3  UNL     1       3.598  54.921   2.209  1.00  0.00    -0.348 OA
ATOM     26  H3  UNL     1       3.105  55.565   1.714  1.00  0.00     0.219 HD
ENDBRANCH  22  25
BRANCH  23  27
HETATM   27  O4  UNL     1       6.688  53.215   1.568  1.00  0.00    -0.288 OA
ATOM     28  H4  UNL     1       6.955  52.445   1.079  1.00  0.00     0.244 HD
ENDBRANCH  23  27
ENDBRANCH  21  22
ENDBRANCH  20  21
ENDBRANCH   7  20
TORSDOF 11
ENDMDL
MODEL 5
REMARK VINA RESULT: -7.386446660      3.162      7.268
REMARK  11 active torsions:
REMARK  status: ('A' for Active; 'I' for Inactive)
REMARK    1  A    between atoms: C2_2  and  N1_3 
REMARK    2  A    between atoms: N1_3  and  C4_5 
REMARK    3  A    between atoms: C5_6  and  N2_8 
REMARK    4  A    between atoms: N2_8  and  O1_9 
REMARK    5  A    between atoms: N2_8  and  C6_11 
REMARK    6  A    between atoms: C6_11  and  C7_12 
REMARK    7  A    between atoms: C12_18  and  C13_19 
REMARK    8  A    between atoms: C13_19  and  C14_20 
REMARK    9  A    between atoms: C14_20  and  C15_21 
REMARK   10  A    between atoms: C15_21  and  O3_22 
REMARK   11  A    between atoms: N3_24  and  O4_26 
ROOT
HETATM    1  C7  UNL     1       6.011  56.351   0.295  1.00  0.00    -0.016 A 
HETATM    2  C8  UNL     1       5.426  57.735   0.436  1.00  0.00     0.029 A 
HETATM    3  C9  UNL     1       6.181  58.840   0.037  1.00  0.00     0.219 A 
HETATM    4  O2  UNL     1       6.985  58.111  -0.245  1.00  0.00    -0.330 OA
HETATM    5  C10 UNL     1       7.866  57.411  -0.561  1.00  0.00     0.088 A 
HETATM    6  C11 UNL     1       7.369  56.184  -0.258  1.00  0.00     0.051 A 
HETATM    7  C12 UNL     1       8.692  58.515  -0.995  1.00  0.00     0.033 A 
HETATM    8  S1  UNL     1       7.515  59.973  -0.605  1.00  0.00    -0.091 SA
ENDROOT
BRANCH   1   9
HETATM    9  C6  UNL     1       5.308  55.264   0.574  1.00  0.00     0.135 C 
BRANCH   9  10
HETATM   10  N2  UNL     1       5.091  54.634   1.706  1.00  0.00    -0.223 N 
BRANCH  10  11
HETATM   11  C5  UNL     1       5.969  53.627   2.025  1.00  0.00     0.146 C 
HETATM   12  C4  UNL     1       5.837  52.437   1.414  1.00  0.00     0.130 C 
HETATM   13 CL1  UNL     1       7.259  53.851   3.205  1.00  0.00    -0.060 Cl
BRANCH  12  14
HETATM   14  N1  UNL     1       6.741  51.417   1.748  1.00  0.00    -0.392 N 
HETATM   15  C3  UNL     1       6.428  50.392   2.746  1.00  0.00     0.148 C 
BRANCH  14  16
HETATM   16  C2  UNL     1       8.062  51.297   1.128  1.00  0.00     0.117 C 
HETATM   17  C1  UNL     1       9.086  50.799   2.114  1.00  0.00     0.026 C 
ENDBRANCH  14  16
ENDBRANCH  12  14
ENDBRANCH  10  11
BRANCH  10  18
HETATM   18  O1  UNL     1       4.147  54.902   2.588  1.00  0.00    -0.282 OA
ATOM     19  H1  UNL     1       4.278  54.568   3.468  1.00  0.00     0.245 HD
ENDBRANCH  10  18
ENDBRANCH   9  10
ENDBRANCH   1   9
BRANCH   7  20
HETATM   20  C13 UNL     1       9.807  58.231  -1.451  1.00  0.00     0.003 C 
BRANCH  20  21
HETATM   21  C14 UNL     1      10.128  57.048  -2.270  1.00  0.00     0.114 C 
BRANCH  21  22
HETATM   22  C15 UNL     1      11.090  56.203  -1.578  1.00  0.00     0.138 C 
HETATM   23  N3  UNL     1      11.768  55.308  -2.187  1.00  0.00    -0.251 N 
ATOM     24  H3  UNL     1      12.426  54.747  -1.647  1.00  0.00     0.196 HD
BRANCH  22  25
HETATM   25  O3  UNL     1      11.300  56.351  -0.203  1.00  0.00    -0.348 OA
ATOM     26  H3  UNL     1      10.716  56.890   0.317  1.00  0.00     0.219 HD
ENDBRANCH  22  25
BRANCH  23  27
HETATM   27  O4  UNL     1      11.656  55.065  -3.533  1.00  0.00    -0.288 OA
ATOM     28  H4  UNL     1      10.831  54.866  -3.960  1.00  0.00     0.244 HD
ENDBRANCH  23  27
ENDBRANCH  21  22
ENDBRANCH  20  21
ENDBRANCH   7  20
TORSDOF 11
ENDMDL
