MODEL 1
REMARK VINA RESULT: -10.767574639      0.000      0.000
REMARK  5 active torsions:
REMARK  status: ('A' for Active; 'I' for Inactive)
REMARK    1  A    between atoms: C3_6  and  N2_7 
REMARK    2  A    between atoms: C5_13  and  C6_14 
REMARK    3  A    between atoms: C11_23  and  S1_24 
REMARK    4  A    between atoms: S1_24  and  C12_25 
REMARK    5  A    between atoms: C12_25  and  C13_26 
ROOT
HETATM    1  N1  UNL     1      13.262  51.856   0.927  1.00  0.00    -0.385 N 
ATOM      2  H11 UNL     1      14.030  52.445   0.604  1.00  0.00     0.157 HD
ATOM      3  H12 UNL     1      13.442  50.881   1.168  1.00  0.00     0.157 HD
HETATM    4  C1  UNL     1      12.068  52.373   1.021  1.00  0.00     0.104 A 
HETATM    5  C2  UNL     1      11.014  51.564   1.464  1.00  0.00     0.097 A 
HETATM    6  C3  UNL     1       9.757  52.115   1.560  1.00  0.00     0.119 A 
HETATM    7  N6  UNL     1       9.602  53.403   1.225  1.00  0.00    -0.322 N 
ATOM      8  H6  UNL     1       8.669  53.810   1.296  1.00  0.00     0.169 HD
HETATM    9  C11 UNL     1      10.606  54.185   0.800  1.00  0.00     0.147 A 
HETATM   10  N7  UNL     1      11.831  53.655   0.704  1.00  0.00    -0.323 N 
ATOM     11  H7  UNL     1      12.603  54.239   0.382  1.00  0.00     0.169 HD
ENDROOT
BRANCH   6  12
HETATM   12  N2  UNL     1       8.690  51.302   2.006  1.00  0.00    -0.275 N 
HETATM   13  C4  UNL     1       8.726  49.944   2.107  1.00  0.00     0.208 A 
HETATM   14  N3  UNL     1       7.565  49.483   2.556  1.00  0.00    -0.294 N 
HETATM   15  N4  UNL     1       6.795  50.549   2.737  1.00  0.00    -0.282 N 
ATOM     16  H3  UNL     1       7.315  48.508   2.726  1.00  0.00     0.187 HD
HETATM   17  C5  UNL     1       7.466  51.664   2.407  1.00  0.00     0.156 A 
ATOM     18  H4  UNL     1       5.834  50.524   3.079  1.00  0.00     0.188 HD
BRANCH  17  19
HETATM   19  C6  UNL     1       6.946  53.029   2.475  1.00  0.00     0.078 A 
HETATM   20  C7  UNL     1       5.998  53.463   1.575  1.00  0.00     0.033 A 
HETATM   21  C8  UNL     1       5.517  54.751   1.650  1.00  0.00     0.004 A 
HETATM   22  C9  UNL     1       5.990  55.600   2.631  1.00  0.00     0.017 A 
HETATM   23  C10 UNL     1       6.939  55.143   3.520  1.00  0.00     0.088 A 
HETATM   24  N5  UNL     1       7.376  53.888   3.409  1.00  0.00    -0.363 N 
ATOM     25  H5  UNL     1       8.078  53.563   4.075  1.00  0.00     0.165 HD
ENDBRANCH  17  19
ENDBRANCH   6  12
BRANCH   9  26
HETATM   26  S1  UNL     1      10.314  55.867   0.379  1.00  0.00    -0.089 SA
BRANCH  26  27
HETATM   27  C12 UNL     1       9.197  56.094  -1.001  1.00  0.00     0.121 C 
BRANCH  27  28
HETATM   28  C13 UNL     1       8.297  57.254  -0.854  1.00  0.00    -0.048 A 
HETATM   29  C14 UNL     1       6.995  57.065  -0.443  1.00  0.00     0.011 A 
HETATM   30  C15 UNL     1       6.114  58.137  -0.293  1.00  0.00     0.043 A 
HETATM   31  C16 UNL     1       6.520  59.420  -0.553  1.00  0.00     0.116 A 
HETATM   32  F1  UNL     1       5.669  60.483  -0.412  1.00  0.00    -0.206 F 
HETATM   33  C17 UNL     1       7.818  59.624  -0.965  1.00  0.00     0.043 A 
HETATM   34  C18 UNL     1       8.693  58.550  -1.113  1.00  0.00     0.011 A 
ENDBRANCH  27  28
ENDBRANCH  26  27
ENDBRANCH   9  26
TORSDOF 5
ENDMDL
MODEL 2
REMARK VINA RESULT: -10.305136650      0.849      1.234
REMARK  5 active torsions:
REMARK  status: ('A' for Active; 'I' for Inactive)
REMARK    1  A    between atoms: C3_6  and  N2_7 
REMARK    2  A    between atoms: C5_13  and  C6_14 
REMARK    3  A    between atoms: C11_23  and  S1_24 
REMARK    4  A    between atoms: S1_24  and  C12_25 
REMARK    5  A    between atoms: C12_25  and  C13_26 
ROOT
HETATM    1  N1  UNL     1      12.672  51.984  -1.433  1.00  0.00    -0.385 N 
ATOM      2  H11 UNL     1      13.264  52.616  -1.974  1.00  0.00     0.157 HD
ATOM      3  H12 UNL     1      12.835  50.978  -1.481  1.00  0.00     0.157 HD
HETATM    4  C1  UNL     1      11.724  52.489  -0.694  1.00  0.00     0.104 A 
HETATM    5  C2  UNL     1      10.912  51.622   0.049  1.00  0.00     0.097 A 
HETATM    6  C3  UNL     1       9.913  52.159   0.826  1.00  0.00     0.119 A 
HETATM    7  N6  UNL     1       9.764  53.491   0.836  1.00  0.00    -0.322 N 
ATOM      8  H6  UNL     1       9.022  53.889   1.413  1.00  0.00     0.169 HD
HETATM    9  C11 UNL     1      10.537  54.329   0.128  1.00  0.00     0.147 A 
HETATM   10  N7  UNL     1      11.511  53.812  -0.630  1.00  0.00    -0.323 N 
ATOM     11  H7  UNL     1      12.105  54.438  -1.173  1.00  0.00     0.169 HD
ENDROOT
BRANCH   6  12
HETATM   12  N2  UNL     1       9.091  51.288   1.576  1.00  0.00    -0.275 N 
HETATM   13  C4  UNL     1       9.324  49.960   1.771  1.00  0.00     0.208 A 
HETATM   14  N3  UNL     1       8.366  49.427   2.519  1.00  0.00    -0.294 N 
HETATM   15  N4  UNL     1       7.527  50.417   2.797  1.00  0.00    -0.282 N 
ATOM     16  H3  UNL     1       8.290  48.455   2.819  1.00  0.00     0.187 HD
HETATM   17  C5  UNL     1       7.954  51.557   2.230  1.00  0.00     0.156 A 
ATOM     18  H4  UNL     1       6.681  50.325   3.360  1.00  0.00     0.188 HD
BRANCH  17  19
HETATM   19  C6  UNL     1       7.291  52.857   2.315  1.00  0.00     0.078 A 
HETATM   20  C7  UNL     1       6.302  53.199   1.419  1.00  0.00     0.033 A 
HETATM   21  C8  UNL     1       5.686  54.427   1.510  1.00  0.00     0.004 A 
HETATM   22  C9  UNL     1       6.067  55.309   2.503  1.00  0.00     0.017 A 
HETATM   23  C10 UNL     1       7.059  54.945   3.387  1.00  0.00     0.088 A 
HETATM   24  N5  UNL     1       7.627  53.745   3.261  1.00  0.00    -0.363 N 
ATOM     25  H5  UNL     1       8.360  53.488   3.923  1.00  0.00     0.165 HD
ENDBRANCH  17  19
ENDBRANCH   6  12
BRANCH   9  26
HETATM   26  S1  UNL     1      10.272  56.065   0.198  1.00  0.00    -0.089 SA
BRANCH  26  27
HETATM   27  C12 UNL     1       9.407  56.733  -1.219  1.00  0.00     0.121 C 
BRANCH  27  28
HETATM   28  C13 UNL     1       8.298  57.640  -0.867  1.00  0.00    -0.048 A 
HETATM   29  C14 UNL     1       8.500  59.003  -0.866  1.00  0.00     0.011 A 
HETATM   30  C15 UNL     1       7.475  59.893  -0.538  1.00  0.00     0.043 A 
HETATM   31  C16 UNL     1       6.228  59.434  -0.204  1.00  0.00     0.116 A 
HETATM   32  F1  UNL     1       5.212  60.292   0.121  1.00  0.00    -0.206 F 
HETATM   33  C17 UNL     1       6.011  58.073  -0.202  1.00  0.00     0.043 A 
HETATM   34  C18 UNL     1       7.037  57.190  -0.531  1.00  0.00     0.011 A 
ENDBRANCH  27  28
ENDBRANCH  26  27
ENDBRANCH   9  26
TORSDOF 5
ENDMDL
MODEL 3
REMARK VINA RESULT: -9.479144458      1.908      4.270
REMARK  5 active torsions:
REMARK  status: ('A' for Active; 'I' for Inactive)
REMARK    1  A    between atoms: C3_6  and  N2_7 
REMARK    2  A    between atoms: C5_13  and  C6_14 
REMARK    3  A    between atoms: C11_23  and  S1_24 
REMARK    4  A    between atoms: S1_24  and  C12_25 
REMARK    5  A    between atoms: C12_25  and  C13_26 
ROOT
HETATM    1  N1  UNL     1       7.747  55.956   4.666  1.00  0.00    -0.385 N 
ATOM      2  H11 UNL     1       7.552  56.942   4.842  1.00  0.00     0.157 HD
ATOM      3  H12 UNL     1       8.451  55.474   5.225  1.00  0.00     0.157 HD
HETATM    4  C1  UNL     1       7.083  55.343   3.725  1.00  0.00     0.104 A 
HETATM    5  C2  UNL     1       7.350  53.990   3.482  1.00  0.00     0.097 A 
HETATM    6  C3  UNL     1       6.647  53.348   2.489  1.00  0.00     0.119 A 
HETATM    7  N6  UNL     1       5.739  54.051   1.799  1.00  0.00    -0.322 N 
ATOM      8  H6  UNL     1       5.219  53.575   1.062  1.00  0.00     0.169 HD
HETATM    9  C11 UNL     1       5.477  55.347   2.025  1.00  0.00     0.147 A 
HETATM   10  N7  UNL     1       6.157  55.977   2.990  1.00  0.00    -0.323 N 
ATOM     11  H7  UNL     1       5.967  56.963   3.172  1.00  0.00     0.169 HD
ENDROOT
BRANCH   6  12
HETATM   12  N2  UNL     1       6.914  51.982   2.240  1.00  0.00    -0.275 N 
HETATM   13  C4  UNL     1       6.072  50.951   2.530  1.00  0.00     0.208 A 
HETATM   14  N3  UNL     1       6.617  49.795   2.173  1.00  0.00    -0.294 N 
HETATM   15  N4  UNL     1       7.803  50.094   1.658  1.00  0.00    -0.282 N 
ATOM     16  H3  UNL     1       6.208  48.866   2.274  1.00  0.00     0.187 HD
HETATM   17  C5  UNL     1       7.999  51.423   1.692  1.00  0.00     0.156 A 
ATOM     18  H4  UNL     1       8.469  49.415   1.291  1.00  0.00     0.188 HD
BRANCH  17  19
HETATM   19  C6  UNL     1       9.188  52.126   1.214  1.00  0.00     0.078 A 
HETATM   20  C7  UNL     1       9.093  53.054   0.200  1.00  0.00     0.033 A 
HETATM   21  C8  UNL     1      10.221  53.709  -0.242  1.00  0.00     0.004 A 
HETATM   22  C9  UNL     1      11.442  53.430   0.338  1.00  0.00     0.017 A 
HETATM   23  C10 UNL     1      11.513  52.498   1.351  1.00  0.00     0.088 A 
HETATM   24  N5  UNL     1      10.394  51.888   1.746  1.00  0.00    -0.363 N 
ATOM     25  H5  UNL     1      10.461  51.201   2.498  1.00  0.00     0.165 HD
ENDBRANCH  17  19
ENDBRANCH   6  12
BRANCH   9  26
HETATM   26  S1  UNL     1       4.268  56.196   1.072  1.00  0.00    -0.089 SA
BRANCH  26  27
HETATM   27  C12 UNL     1       4.573  57.950   0.894  1.00  0.00     0.121 C 
BRANCH  27  28
HETATM   28  C13 UNL     1       5.836  58.268   0.200  1.00  0.00    -0.048 A 
HETATM   29  C14 UNL     1       6.170  59.581  -0.051  1.00  0.00     0.011 A 
HETATM   30  C15 UNL     1       7.356  59.921  -0.706  1.00  0.00     0.043 A 
HETATM   31  C16 UNL     1       8.229  58.950  -1.122  1.00  0.00     0.116 A 
HETATM   32  F1  UNL     1       9.396  59.265  -1.766  1.00  0.00    -0.206 F 
HETATM   33  C17 UNL     1       7.908  57.633  -0.878  1.00  0.00     0.043 A 
HETATM   34  C18 UNL     1       6.725  57.300  -0.224  1.00  0.00     0.011 A 
ENDBRANCH  27  28
ENDBRANCH  26  27
ENDBRANCH   9  26
TORSDOF 5
ENDMDL
MODEL 4
REMARK VINA RESULT: -9.423942656      1.677      2.178
REMARK  5 active torsions:
REMARK  status: ('A' for Active; 'I' for Inactive)
REMARK    1  A    between atoms: C3_6  and  N2_7 
REMARK    2  A    between atoms: C5_13  and  C6_14 
REMARK    3  A    between atoms: C11_23  and  S1_24 
REMARK    4  A    between atoms: S1_24  and  C12_25 
REMARK    5  A    between atoms: C12_25  and  C13_26 
ROOT
HETATM    1  N1  UNL     1      13.509  51.725   0.890  1.00  0.00    -0.385 N 
ATOM      2  H11 UNL     1      14.249  52.368   0.607  1.00  0.00     0.157 HD
ATOM      3  H12 UNL     1      13.734  50.746   1.068  1.00  0.00     0.157 HD
HETATM    4  C1  UNL     1      12.293  52.181   1.016  1.00  0.00     0.104 A 
HETATM    5  C2  UNL     1      11.278  51.298   1.404  1.00  0.00     0.097 A 
HETATM    6  C3  UNL     1       9.997  51.785   1.534  1.00  0.00     0.119 A 
HETATM    7  N6  UNL     1       9.783  53.083   1.282  1.00  0.00    -0.322 N 
ATOM      8  H6  UNL     1       8.834  53.443   1.378  1.00  0.00     0.169 HD
HETATM    9  C11 UNL     1      10.751  53.935   0.910  1.00  0.00     0.147 A 
HETATM   10  N7  UNL     1      11.999  53.468   0.782  1.00  0.00    -0.323 N 
ATOM     11  H7  UNL     1      12.743  54.106   0.499  1.00  0.00     0.169 HD
ENDROOT
BRANCH   6  12
HETATM   12  N2  UNL     1       8.969  50.897   1.924  1.00  0.00    -0.275 N 
HETATM   13  C4  UNL     1       9.098  49.546   2.039  1.00  0.00     0.208 A 
HETATM   14  N3  UNL     1       7.949  49.003   2.424  1.00  0.00    -0.294 N 
HETATM   15  N4  UNL     1       7.094  50.010   2.552  1.00  0.00    -0.282 N 
ATOM     16  H3  UNL     1       7.762  48.014   2.588  1.00  0.00     0.187 HD
HETATM   17  C5  UNL     1       7.700  51.171   2.251  1.00  0.00     0.156 A 
ATOM     18  H4  UNL     1       6.120  49.916   2.838  1.00  0.00     0.188 HD
BRANCH  17  19
HETATM   19  C6  UNL     1       7.079  52.493   2.277  1.00  0.00     0.078 A 
HETATM   20  C7  UNL     1       6.184  52.866   1.298  1.00  0.00     0.033 A 
HETATM   21  C8  UNL     1       5.606  54.116   1.335  1.00  0.00     0.004 A 
HETATM   22  C9  UNL     1       5.929  54.987   2.356  1.00  0.00     0.017 A 
HETATM   23  C10 UNL     1       6.827  54.592   3.324  1.00  0.00     0.088 A 
HETATM   24  N5  UNL     1       7.361  53.372   3.248  1.00  0.00    -0.363 N 
ATOM     25  H5  UNL     1       8.024  53.092   3.972  1.00  0.00     0.165 HD
ENDBRANCH  17  19
ENDBRANCH   6  12
BRANCH   9  26
HETATM   26  S1  UNL     1      10.383  55.626   0.598  1.00  0.00    -0.089 SA
BRANCH  26  27
HETATM   27  C12 UNL     1       9.417  55.905  -0.883  1.00  0.00     0.121 C 
BRANCH  27  28
HETATM   28  C13 UNL     1       9.791  57.131  -1.615  1.00  0.00    -0.048 A 
HETATM   29  C14 UNL     1      10.914  57.137  -2.415  1.00  0.00     0.011 A 
HETATM   30  C15 UNL     1      11.299  58.277  -3.122  1.00  0.00     0.043 A 
HETATM   31  C16 UNL     1      10.568  59.433  -3.042  1.00  0.00     0.116 A 
HETATM   32  F1  UNL     1      10.932  60.561  -3.728  1.00  0.00    -0.206 F 
HETATM   33  C17 UNL     1       9.443  59.441  -2.247  1.00  0.00     0.043 A 
HETATM   34  C18 UNL     1       9.062  58.301  -1.543  1.00  0.00     0.011 A 
ENDBRANCH  27  28
ENDBRANCH  26  27
ENDBRANCH   9  26
TORSDOF 5
ENDMDL
MODEL 5
REMARK VINA RESULT: -9.273590170      2.308      4.249
REMARK  5 active torsions:
REMARK  status: ('A' for Active; 'I' for Inactive)
REMARK    1  A    between atoms: C3_6  and  N2_7 
REMARK    2  A    between atoms: C5_13  and  C6_14 
REMARK    3  A    between atoms: C11_23  and  S1_24 
REMARK    4  A    between atoms: S1_24  and  C12_25 
REMARK    5  A    between atoms: C12_25  and  C13_26 
ROOT
HETATM    1  N1  UNL     1       7.573  55.607   4.766  1.00  0.00    -0.385 N 
ATOM      2  H11 UNL     1       7.090  56.386   5.215  1.00  0.00     0.157 HD
ATOM      3  H12 UNL     1       8.370  55.174   5.232  1.00  0.00     0.157 HD
HETATM    4  C1  UNL     1       7.151  55.191   3.604  1.00  0.00     0.104 A 
HETATM    5  C2  UNL     1       7.814  54.122   2.988  1.00  0.00     0.097 A 
HETATM    6  C3  UNL     1       7.365  53.687   1.762  1.00  0.00     0.119 A 
HETATM    7  N6  UNL     1       6.312  54.310   1.216  1.00  0.00    -0.322 N 
ATOM      8  H6  UNL     1       5.980  53.987   0.307  1.00  0.00     0.169 HD
HETATM    9  C11 UNL     1       5.671  55.333   1.799  1.00  0.00     0.147 A 
HETATM   10  N7  UNL     1       6.103  55.761   2.992  1.00  0.00    -0.323 N 
ATOM     11  H7  UNL     1       5.624  56.539   3.446  1.00  0.00     0.169 HD
ENDROOT
BRANCH   6  12
HETATM   12  N2  UNL     1       8.032  52.610   1.136  1.00  0.00    -0.275 N 
HETATM   13  C4  UNL     1       9.262  52.679   0.554  1.00  0.00     0.208 A 
HETATM   14  N3  UNL     1       9.604  51.496   0.056  1.00  0.00    -0.294 N 
HETATM   15  N4  UNL     1       8.592  50.681   0.324  1.00  0.00    -0.282 N 
ATOM     16  H3  UNL     1      10.469  51.262  -0.432  1.00  0.00     0.187 HD
HETATM   17  C5  UNL     1       7.626  51.344   0.981  1.00  0.00     0.156 A 
ATOM     18  H4  UNL     1       8.553  49.694   0.068  1.00  0.00     0.188 HD
BRANCH  17  19
HETATM   19  C6  UNL     1       6.360  50.779   1.442  1.00  0.00     0.078 A 
HETATM   20  C7  UNL     1       5.197  50.995   0.735  1.00  0.00     0.033 A 
HETATM   21  C8  UNL     1       4.011  50.457   1.181  1.00  0.00     0.004 A 
HETATM   22  C9  UNL     1       3.996  49.702   2.337  1.00  0.00     0.017 A 
HETATM   23  C10 UNL     1       5.171  49.499   3.027  1.00  0.00     0.088 A 
HETATM   24  N5  UNL     1       6.297  50.039   2.558  1.00  0.00    -0.363 N 
ATOM     25  H5  UNL     1       7.160  49.880   3.079  1.00  0.00     0.165 HD
ENDBRANCH  17  19
ENDBRANCH   6  12
BRANCH   9  26
HETATM   26  S1  UNL     1       4.295  56.094   1.011  1.00  0.00    -0.089 SA
BRANCH  26  27
HETATM   27  C12 UNL     1       4.474  57.858   0.767  1.00  0.00     0.121 C 
BRANCH  27  28
HETATM   28  C13 UNL     1       5.749  58.245   0.133  1.00  0.00    -0.048 A 
HETATM   29  C14 UNL     1       6.054  59.578  -0.039  1.00  0.00     0.011 A 
HETATM   30  C15 UNL     1       7.249  59.983  -0.635  1.00  0.00     0.043 A 
HETATM   31  C16 UNL     1       8.163  59.060  -1.071  1.00  0.00     0.116 A 
HETATM   32  F1  UNL     1       9.341  59.439  -1.658  1.00  0.00    -0.206 F 
HETATM   33  C17 UNL     1       7.872  57.724  -0.906  1.00  0.00     0.043 A 
HETATM   34  C18 UNL     1       6.678  57.325  -0.310  1.00  0.00     0.011 A 
ENDBRANCH  27  28
ENDBRANCH  26  27
ENDBRANCH   9  26
TORSDOF 5
ENDMDL
