MODEL 1
REMARK VINA RESULT: -8.031152666      0.000      0.000
REMARK  11 active torsions:
REMARK  status: ('A' for Active; 'I' for Inactive)
REMARK    1  A    between atoms: C1_2  and  C2_4 
REMARK    2  A    between atoms: C2_4  and  N2_5 
REMARK    3  A    between atoms: N2_5  and  C3_7 
REMARK    4  A    between atoms: C3_7  and  N3_9 
REMARK    5  A    between atoms: N3_9  and  N4_11 
REMARK    6  A    between atoms: C4_13  and  C5_14 
REMARK    7  A    between atoms: C7_16  and  O2_17 
REMARK    8  A    between atoms: C8_19  and  O3_20 
REMARK    9  A    between atoms: O3_20  and  S2_21 
REMARK   10  A    between atoms: S2_21  and  N5_22 
REMARK   11  A    between atoms: C9_27  and  N6_28 
ROOT
HETATM    1  C5  UNL     1       2.298   5.680 -49.182  1.00  0.00    -0.014 A 
HETATM    2  C6  UNL     1       1.075   5.579 -48.516  1.00  0.00     0.052 A 
HETATM    3  C7  UNL     1       0.423   4.377 -48.598  1.00  0.00     0.103 A 
HETATM    4  C8  UNL     1       0.934   3.282 -49.309  1.00  0.00     0.157 A 
HETATM    5  C9  UNL     1       2.138   3.403 -49.953  1.00  0.00     0.141 A 
HETATM    6  C10 UNL     1       2.806   4.611 -49.879  1.00  0.00     0.052 A 
ENDROOT
BRANCH   1   7
HETATM    7  C4  UNL     1       3.048   6.921 -49.136  1.00  0.00     0.118 C 
HETATM    8  N4  UNL     1       4.285   6.915 -49.476  1.00  0.00    -0.309 N 
ATOM      9  H4  UNL     1       4.689   6.025 -49.766  1.00  0.00     0.186 HD
BRANCH   8  10
HETATM   10  N3  UNL     1       5.119   8.030 -49.479  1.00  0.00    -0.277 N 
ATOM     11  H3  UNL     1       5.082   8.696 -50.251  1.00  0.00     0.189 HD
BRANCH  10  12
HETATM   12  C3  UNL     1       6.009   8.233 -48.417  1.00  0.00     0.186 C 
HETATM   13  S1  UNL     1       5.497   8.954 -47.058  1.00  0.00    -0.040 SA
BRANCH  12  14
HETATM   14  N2  UNL     1       7.353   7.821 -48.509  1.00  0.00    -0.358 N 
ATOM     15  H2  UNL     1       7.644   7.289 -49.329  1.00  0.00     0.162 HD
BRANCH  14  16
HETATM   16  C2  UNL     1       8.342   8.119 -47.492  1.00  0.00     0.221 C 
BRANCH  16  17
HETATM   17  C1  UNL     1       9.664   7.700 -47.969  1.00  0.00     0.248 C 
HETATM   18  N1  UNL     1      10.060   6.350 -47.904  1.00  0.00    -0.061 NA
HETATM   19  O1  UNL     1      10.453   8.542 -48.440  1.00  0.00    -0.275 OA
ENDBRANCH  16  17
ENDBRANCH  14  16
ENDBRANCH  12  14
ENDBRANCH  10  12
ENDBRANCH   8  10
ENDBRANCH   1   7
BRANCH   3  20
HETATM   20  O2  UNL     1      -0.811   4.173 -47.967  1.00  0.00    -0.358 OA
ATOM     21  H2  UNL     1      -0.894   4.207 -47.021  1.00  0.00     0.217 HD
ENDBRANCH   3  20
BRANCH   5  22
HETATM   22  N6  UNL     1       2.783   2.368 -50.671  1.00  0.00    -0.113 N 
HETATM   23  O6  UNL     1       2.603   2.052 -51.845  1.00  0.00    -0.532 OA
HETATM   24  O7  UNL     1       3.748   1.581 -50.014  1.00  0.00    -0.532 OA
ENDBRANCH   5  22
BRANCH   4  25
HETATM   25  O3  UNL     1       0.217   2.091 -49.347  1.00  0.00    -0.211 OA
BRANCH  25  26
HETATM   26  S2  UNL     1      -0.969   1.807 -50.516  1.00  0.00     0.360 S 
HETATM   27  O4  UNL     1      -1.984   2.897 -50.468  1.00  0.00    -0.176 OA
HETATM   28  O5  UNL     1      -1.684   0.524 -50.141  1.00  0.00    -0.176 OA
BRANCH  26  29
HETATM   29  N5  UNL     1      -0.343   1.647 -52.113  1.00  0.00    -0.305 N 
ATOM     30  H52 UNL     1       0.276   2.343 -52.528  1.00  0.00     0.171 HD
ATOM     31  H51 UNL     1      -0.649   0.799 -52.591  1.00  0.00     0.171 HD
ENDBRANCH  26  29
ENDBRANCH  25  26
ENDBRANCH   4  25
TORSDOF 11
ENDMDL
MODEL 2
REMARK VINA RESULT: -7.886709181      1.815      2.321
REMARK  11 active torsions:
REMARK  status: ('A' for Active; 'I' for Inactive)
REMARK    1  A    between atoms: C1_2  and  C2_4 
REMARK    2  A    between atoms: C2_4  and  N2_5 
REMARK    3  A    between atoms: N2_5  and  C3_7 
REMARK    4  A    between atoms: C3_7  and  N3_9 
REMARK    5  A    between atoms: N3_9  and  N4_11 
REMARK    6  A    between atoms: C4_13  and  C5_14 
REMARK    7  A    between atoms: C7_16  and  O2_17 
REMARK    8  A    between atoms: C8_19  and  O3_20 
REMARK    9  A    between atoms: O3_20  and  S2_21 
REMARK   10  A    between atoms: S2_21  and  N5_22 
REMARK   11  A    between atoms: C9_27  and  N6_28 
ROOT
HETATM    1  C5  UNL     1       2.546   6.270 -49.438  1.00  0.00    -0.014 A 
HETATM    2  C6  UNL     1       1.362   6.351 -48.703  1.00  0.00     0.052 A 
HETATM    3  C7  UNL     1       0.710   5.173 -48.446  1.00  0.00     0.103 A 
HETATM    4  C8  UNL     1       1.187   3.929 -48.889  1.00  0.00     0.157 A 
HETATM    5  C9  UNL     1       2.352   3.874 -49.607  1.00  0.00     0.141 A 
HETATM    6  C10 UNL     1       3.019   5.056 -49.873  1.00  0.00     0.052 A 
ENDROOT
BRANCH   1   7
HETATM    7  C4  UNL     1       3.293   7.476 -49.743  1.00  0.00     0.118 C 
HETATM    8  N4  UNL     1       4.551   7.509 -49.497  1.00  0.00    -0.309 N 
ATOM      9  H4  UNL     1       4.973   6.675 -49.091  1.00  0.00     0.186 HD
BRANCH   8  10
HETATM   10  N3  UNL     1       5.385   8.598 -49.740  1.00  0.00    -0.277 N 
ATOM     11  H3  UNL     1       5.189   9.230 -50.517  1.00  0.00     0.189 HD
BRANCH  10  12
HETATM   12  C3  UNL     1       6.494   8.820 -48.914  1.00  0.00     0.186 C 
HETATM   13  S1  UNL     1       7.036  10.328 -48.675  1.00  0.00    -0.040 SA
BRANCH  12  14
HETATM   14  N2  UNL     1       7.153   7.747 -48.282  1.00  0.00    -0.358 N 
ATOM     15  H2  UNL     1       6.862   6.795 -48.508  1.00  0.00     0.162 HD
BRANCH  14  16
HETATM   16  C2  UNL     1       8.227   7.932 -47.327  1.00  0.00     0.221 C 
BRANCH  16  17
HETATM   17  C1  UNL     1       9.509   7.660 -47.986  1.00  0.00     0.248 C 
HETATM   18  N1  UNL     1      10.418   8.701 -48.255  1.00  0.00    -0.061 NA
HETATM   19  O1  UNL     1       9.806   6.495 -48.315  1.00  0.00    -0.275 OA
ENDBRANCH  16  17
ENDBRANCH  14  16
ENDBRANCH  12  14
ENDBRANCH  10  12
ENDBRANCH   8  10
ENDBRANCH   1   7
BRANCH   3  20
HETATM   20  O2  UNL     1      -0.486   5.145 -47.719  1.00  0.00    -0.358 OA
ATOM     21  H2  UNL     1      -1.263   5.595 -48.028  1.00  0.00     0.217 HD
ENDBRANCH   3  20
BRANCH   5  22
HETATM   22  N6  UNL     1       2.961   2.687 -50.079  1.00  0.00    -0.113 N 
HETATM   23  O6  UNL     1       3.832   2.024 -49.519  1.00  0.00    -0.532 OA
HETATM   24  O7  UNL     1       2.563   2.164 -51.324  1.00  0.00    -0.532 OA
ENDBRANCH   5  22
BRANCH   4  25
HETATM   25  O3  UNL     1       0.473   2.774 -48.590  1.00  0.00    -0.211 OA
BRANCH  25  26
HETATM   26  S2  UNL     1       0.644   1.985 -47.106  1.00  0.00     0.360 S 
HETATM   27  O4  UNL     1       1.528   0.797 -47.276  1.00  0.00    -0.176 OA
HETATM   28  O5  UNL     1      -0.720   1.463 -46.704  1.00  0.00    -0.176 OA
BRANCH  26  29
HETATM   29  N5  UNL     1       1.244   2.998 -45.848  1.00  0.00    -0.305 N 
ATOM     30  H52 UNL     1       0.629   3.566 -45.266  1.00  0.00     0.171 HD
ATOM     31  H51 UNL     1       2.259   2.971 -45.748  1.00  0.00     0.171 HD
ENDBRANCH  26  29
ENDBRANCH  25  26
ENDBRANCH   4  25
TORSDOF 11
ENDMDL
MODEL 3
REMARK VINA RESULT: -7.794403736      2.626      3.769
REMARK  11 active torsions:
REMARK  status: ('A' for Active; 'I' for Inactive)
REMARK    1  A    between atoms: C1_2  and  C2_4 
REMARK    2  A    between atoms: C2_4  and  N2_5 
REMARK    3  A    between atoms: N2_5  and  C3_7 
REMARK    4  A    between atoms: C3_7  and  N3_9 
REMARK    5  A    between atoms: N3_9  and  N4_11 
REMARK    6  A    between atoms: C4_13  and  C5_14 
REMARK    7  A    between atoms: C7_16  and  O2_17 
REMARK    8  A    between atoms: C8_19  and  O3_20 
REMARK    9  A    between atoms: O3_20  and  S2_21 
REMARK   10  A    between atoms: S2_21  and  N5_22 
REMARK   11  A    between atoms: C9_27  and  N6_28 
ROOT
HETATM    1  C5  UNL     1       3.375   7.162 -49.172  1.00  0.00    -0.014 A 
HETATM    2  C6  UNL     1       3.306   5.808 -49.502  1.00  0.00     0.052 A 
HETATM    3  C7  UNL     1       2.089   5.332 -49.914  1.00  0.00     0.103 A 
HETATM    4  C8  UNL     1       0.948   6.144 -50.007  1.00  0.00     0.157 A 
HETATM    5  C9  UNL     1       1.040   7.471 -49.679  1.00  0.00     0.141 A 
HETATM    6  C10 UNL     1       2.263   7.963 -49.263  1.00  0.00     0.052 A 
ENDROOT
BRANCH   1   7
HETATM    7  C4  UNL     1       4.633   7.738 -48.733  1.00  0.00     0.118 C 
HETATM    8  N4  UNL     1       4.668   8.974 -48.394  1.00  0.00    -0.309 N 
ATOM      9  H4  UNL     1       3.798   9.503 -48.451  1.00  0.00     0.186 HD
BRANCH   8  10
HETATM   10  N3  UNL     1       5.803   9.651 -47.955  1.00  0.00    -0.277 N 
ATOM     11  H3  UNL     1       6.116  10.495 -48.436  1.00  0.00     0.189 HD
BRANCH  10  12
HETATM   12  C3  UNL     1       6.515   9.167 -46.849  1.00  0.00     0.186 C 
HETATM   13  S1  UNL     1       5.907   9.338 -45.357  1.00  0.00    -0.040 SA
BRANCH  12  14
HETATM   14  N2  UNL     1       7.761   8.529 -47.013  1.00  0.00    -0.358 N 
ATOM     15  H2  UNL     1       8.271   8.236 -46.179  1.00  0.00     0.162 HD
BRANCH  14  16
HETATM   16  C2  UNL     1       8.353   8.272 -48.310  1.00  0.00     0.221 C 
BRANCH  16  17
HETATM   17  C1  UNL     1       9.752   7.872 -48.131  1.00  0.00     0.248 C 
HETATM   18  N1  UNL     1      10.094   6.525 -47.907  1.00  0.00    -0.061 NA
HETATM   19  O1  UNL     1      10.656   8.729 -48.175  1.00  0.00    -0.275 OA
ENDBRANCH  16  17
ENDBRANCH  14  16
ENDBRANCH  12  14
ENDBRANCH  10  12
ENDBRANCH   8  10
ENDBRANCH   1   7
BRANCH   3  20
HETATM   20  O2  UNL     1       1.913   3.989 -50.267  1.00  0.00    -0.358 OA
ATOM     21  H2  UNL     1       1.756   3.321 -49.610  1.00  0.00     0.217 HD
ENDBRANCH   3  20
BRANCH   5  22
HETATM   22  N6  UNL     1      -0.019   8.405 -49.766  1.00  0.00    -0.113 N 
HETATM   23  O6  UNL     1      -0.885   8.629 -48.923  1.00  0.00    -0.532 OA
HETATM   24  O7  UNL     1      -0.142   9.192 -50.927  1.00  0.00    -0.532 OA
ENDBRANCH   5  22
BRANCH   4  25
HETATM   25  O3  UNL     1      -0.255   5.592 -50.434  1.00  0.00    -0.211 OA
BRANCH  25  26
HETATM   26  S2  UNL     1      -1.338   4.879 -49.351  1.00  0.00     0.360 S 
HETATM   27  O4  UNL     1      -0.623   3.855 -48.538  1.00  0.00    -0.176 OA
HETATM   28  O5  UNL     1      -2.383   4.143 -50.165  1.00  0.00    -0.176 OA
BRANCH  26  29
HETATM   29  N5  UNL     1      -2.131   6.009 -48.320  1.00  0.00    -0.305 N 
ATOM     30  H52 UNL     1      -1.621   6.715 -47.790  1.00  0.00     0.171 HD
ATOM     31  H51 UNL     1      -3.145   5.900 -48.296  1.00  0.00     0.171 HD
ENDBRANCH  26  29
ENDBRANCH  25  26
ENDBRANCH   4  25
TORSDOF 11
ENDMDL
MODEL 4
REMARK VINA RESULT: -7.729069329      1.801      2.907
REMARK  11 active torsions:
REMARK  status: ('A' for Active; 'I' for Inactive)
REMARK    1  A    between atoms: C1_2  and  C2_4 
REMARK    2  A    between atoms: C2_4  and  N2_5 
REMARK    3  A    between atoms: N2_5  and  C3_7 
REMARK    4  A    between atoms: C3_7  and  N3_9 
REMARK    5  A    between atoms: N3_9  and  N4_11 
REMARK    6  A    between atoms: C4_13  and  C5_14 
REMARK    7  A    between atoms: C7_16  and  O2_17 
REMARK    8  A    between atoms: C8_19  and  O3_20 
REMARK    9  A    between atoms: O3_20  and  S2_21 
REMARK   10  A    between atoms: S2_21  and  N5_22 
REMARK   11  A    between atoms: C9_27  and  N6_28 
ROOT
HETATM    1  C5  UNL     1       2.690   6.634 -49.588  1.00  0.00    -0.014 A 
HETATM    2  C6  UNL     1       3.364   5.412 -49.615  1.00  0.00     0.052 A 
HETATM    3  C7  UNL     1       2.594   4.279 -49.572  1.00  0.00     0.103 A 
HETATM    4  C8  UNL     1       1.193   4.315 -49.502  1.00  0.00     0.157 A 
HETATM    5  C9  UNL     1       0.553   5.526 -49.479  1.00  0.00     0.141 A 
HETATM    6  C10 UNL     1       1.319   6.676 -49.522  1.00  0.00     0.052 A 
ENDROOT
BRANCH   1   7
HETATM    7  C4  UNL     1       3.439   7.876 -49.636  1.00  0.00     0.118 C 
HETATM    8  N4  UNL     1       4.720   7.833 -49.593  1.00  0.00    -0.309 N 
ATOM      9  H4  UNL     1       5.158   6.914 -49.525  1.00  0.00     0.186 HD
BRANCH   8  10
HETATM   10  N3  UNL     1       5.559   8.943 -49.631  1.00  0.00    -0.277 N 
ATOM     11  H3  UNL     1       5.361   9.714 -50.269  1.00  0.00     0.189 HD
BRANCH  10  12
HETATM   12  C3  UNL     1       6.678   8.996 -48.789  1.00  0.00     0.186 C 
HETATM   13  S1  UNL     1       7.226  10.427 -48.262  1.00  0.00    -0.040 SA
BRANCH  12  14
HETATM   14  N2  UNL     1       7.342   7.818 -48.391  1.00  0.00    -0.358 N 
ATOM     15  H2  UNL     1       7.133   6.951 -48.886  1.00  0.00     0.162 HD
BRANCH  14  16
HETATM   16  C2  UNL     1       8.308   7.783 -47.312  1.00  0.00     0.221 C 
BRANCH  16  17
HETATM   17  C1  UNL     1       9.647   7.571 -47.872  1.00  0.00     0.248 C 
HETATM   18  N1  UNL     1      10.428   8.658 -48.305  1.00  0.00    -0.061 NA
HETATM   19  O1  UNL     1      10.106   6.416 -47.967  1.00  0.00    -0.275 OA
ENDBRANCH  16  17
ENDBRANCH  14  16
ENDBRANCH  12  14
ENDBRANCH  10  12
ENDBRANCH   8  10
ENDBRANCH   1   7
BRANCH   3  20
HETATM   20  O2  UNL     1       3.173   3.004 -49.593  1.00  0.00    -0.358 OA
ATOM     21  H2  UNL     1       2.882   2.319 -49.001  1.00  0.00     0.217 HD
ENDBRANCH   3  20
BRANCH   5  22
HETATM   22  N6  UNL     1      -0.850   5.703 -49.449  1.00  0.00    -0.113 N 
HETATM   23  O6  UNL     1      -1.601   5.863 -50.408  1.00  0.00    -0.532 OA
HETATM   24  O7  UNL     1      -1.511   5.706 -48.206  1.00  0.00    -0.532 OA
ENDBRANCH   5  22
BRANCH   4  25
HETATM   25  O3  UNL     1       0.477   3.124 -49.462  1.00  0.00    -0.211 OA
BRANCH  25  26
HETATM   26  S2  UNL     1       0.133   2.248 -50.866  1.00  0.00     0.360 S 
HETATM   27  O4  UNL     1       1.166   1.191 -51.056  1.00  0.00    -0.176 OA
HETATM   28  O5  UNL     1       0.255   3.198 -52.041  1.00  0.00    -0.176 OA
BRANCH  26  29
HETATM   29  N5  UNL     1      -1.443   1.550 -50.877  1.00  0.00    -0.305 N 
ATOM     30  H52 UNL     1      -1.602   0.561 -50.685  1.00  0.00     0.171 HD
ATOM     31  H51 UNL     1      -2.184   2.216 -51.093  1.00  0.00     0.171 HD
ENDBRANCH  26  29
ENDBRANCH  25  26
ENDBRANCH   4  25
TORSDOF 11
ENDMDL
MODEL 5
REMARK VINA RESULT: -7.728547081      2.947      3.571
REMARK  11 active torsions:
REMARK  status: ('A' for Active; 'I' for Inactive)
REMARK    1  A    between atoms: C1_2  and  C2_4 
REMARK    2  A    between atoms: C2_4  and  N2_5 
REMARK    3  A    between atoms: N2_5  and  C3_7 
REMARK    4  A    between atoms: C3_7  and  N3_9 
REMARK    5  A    between atoms: N3_9  and  N4_11 
REMARK    6  A    between atoms: C4_13  and  C5_14 
REMARK    7  A    between atoms: C7_16  and  O2_17 
REMARK    8  A    between atoms: C8_19  and  O3_20 
REMARK    9  A    between atoms: O3_20  and  S2_21 
REMARK   10  A    between atoms: S2_21  and  N5_22 
REMARK   11  A    between atoms: C9_27  and  N6_28 
ROOT
HETATM    1  C5  UNL     1       2.548   7.497 -49.341  1.00  0.00    -0.014 A 
HETATM    2  C6  UNL     1       1.735   8.581 -49.680  1.00  0.00     0.052 A 
HETATM    3  C7  UNL     1       0.505   8.290 -50.209  1.00  0.00     0.103 A 
HETATM    4  C8  UNL     1       0.056   6.976 -50.411  1.00  0.00     0.157 A 
HETATM    5  C9  UNL     1       0.870   5.928 -50.068  1.00  0.00     0.141 A 
HETATM    6  C10 UNL     1       2.114   6.209 -49.534  1.00  0.00     0.052 A 
ENDROOT
BRANCH   1   7
HETATM    7  C4  UNL     1       3.862   7.728 -48.771  1.00  0.00     0.118 C 
HETATM    8  N4  UNL     1       4.194   8.920 -48.432  1.00  0.00    -0.309 N 
ATOM      9  H4  UNL     1       3.508   9.660 -48.581  1.00  0.00     0.186 HD
BRANCH   8  10
HETATM   10  N3  UNL     1       5.418   9.282 -47.876  1.00  0.00    -0.277 N 
ATOM     11  H3  UNL     1       5.456   9.697 -46.945  1.00  0.00     0.189 HD
BRANCH  10  12
HETATM   12  C3  UNL     1       6.598   9.072 -48.602  1.00  0.00     0.186 C 
HETATM   13  S1  UNL     1       7.085  10.171 -49.688  1.00  0.00    -0.040 SA
BRANCH  12  14
HETATM   14  N2  UNL     1       7.374   7.913 -48.404  1.00  0.00    -0.358 N 
ATOM     15  H2  UNL     1       7.258   7.133 -49.051  1.00  0.00     0.162 HD
BRANCH  14  16
HETATM   16  C2  UNL     1       8.330   7.777 -47.324  1.00  0.00     0.221 C 
BRANCH  16  17
HETATM   17  C1  UNL     1       9.674   7.610 -47.888  1.00  0.00     0.248 C 
HETATM   18  N1  UNL     1      10.435   8.727 -48.282  1.00  0.00    -0.061 NA
HETATM   19  O1  UNL     1      10.155   6.469 -48.025  1.00  0.00    -0.275 OA
ENDBRANCH  16  17
ENDBRANCH  14  16
ENDBRANCH  12  14
ENDBRANCH  10  12
ENDBRANCH   8  10
ENDBRANCH   1   7
BRANCH   3  20
HETATM   20  O2  UNL     1      -0.386   9.304 -50.583  1.00  0.00    -0.358 OA
ATOM     21  H2  UNL     1      -0.920   9.229 -51.365  1.00  0.00     0.217 HD
ENDBRANCH   3  20
BRANCH   5  22
HETATM   22  N6  UNL     1       0.526   4.561 -50.183  1.00  0.00    -0.113 N 
HETATM   23  O6  UNL     1       0.421   3.904 -51.216  1.00  0.00    -0.532 OA
HETATM   24  O7  UNL     1       0.264   3.822 -49.013  1.00  0.00    -0.532 OA
ENDBRANCH   5  22
BRANCH   4  25
HETATM   25  O3  UNL     1      -1.206   6.757 -50.951  1.00  0.00    -0.211 OA
BRANCH  25  26
HETATM   26  S2  UNL     1      -2.579   6.627 -49.974  1.00  0.00     0.360 S 
HETATM   27  O4  UNL     1      -3.740   6.201 -50.805  1.00  0.00    -0.176 OA
HETATM   28  O5  UNL     1      -2.900   8.012 -49.448  1.00  0.00    -0.176 OA
BRANCH  26  29
HETATM   29  N5  UNL     1      -2.379   5.559 -48.637  1.00  0.00    -0.305 N 
ATOM     30  H52 UNL     1      -2.112   5.890 -47.710  1.00  0.00     0.171 HD
ATOM     31  H51 UNL     1      -2.552   4.580 -48.865  1.00  0.00     0.171 HD
ENDBRANCH  26  29
ENDBRANCH  25  26
ENDBRANCH   4  25
TORSDOF 11
ENDMDL
