MODEL 1
REMARK VINA RESULT: -7.042653273      0.000      0.000
REMARK  6 active torsions:
REMARK  status: ('A' for Active; 'I' for Inactive)
REMARK    1  A    between atoms: C2_2  and  C4_4 
REMARK    2  A    between atoms: C9_9  and  C10_10 
REMARK    3  A    between atoms: N1_11  and  N2_13 
REMARK    4  A    between atoms: N2_13  and  C11_14 
REMARK    5  A    between atoms: N2_13  and  C13_16 
REMARK    6  A    between atoms: N6_29  and  O2_30 
ROOT
HETATM    1  C13 UNL     1      18.327 -20.120 -21.441  1.00  0.00     0.730 A 
HETATM    2  N3  UNL     1      17.306 -19.417 -20.863  1.00  0.00    -0.170 N 
ATOM      3  H3  UNL     1      16.397 -19.866 -20.744  1.00  0.00     0.186 HD
HETATM    4  C14 UNL     1      17.471 -18.152 -20.450  1.00  0.00     0.155 A 
HETATM    5  C15 UNL     1      18.727 -17.605 -20.639  1.00  0.00     0.104 A 
HETATM    6  C16 UNL     1      18.631 -16.317 -20.136  1.00  0.00     0.042 A 
HETATM    7  C17 UNL     1      19.774 -15.367 -20.143  1.00  0.00     0.071 C 
HETATM    8  N4  UNL     1      17.371 -16.150 -19.681  1.00  0.00    -0.301 N 
ATOM      9  H4  UNL     1      17.018 -15.294 -19.254  1.00  0.00     0.187 HD
HETATM   10  N5  UNL     1      16.658 -17.249 -19.864  1.00  0.00    -0.280 N 
HETATM   11  C18 UNL     1      15.249 -17.456 -19.497  1.00  0.00     0.179 C 
HETATM   12  C19 UNL     1      19.751 -18.327 -21.224  1.00  0.00     0.304 A 
HETATM   13  O1  UNL     1      20.899 -17.807 -21.392  1.00  0.00    -0.264 OA
HETATM   14  N6  UNL     1      19.552 -19.592 -21.627  1.00  0.00    -0.011 N 
ENDROOT
BRANCH   1  15
HETATM   15  N2  UNL     1      18.113 -21.459 -21.858  1.00  0.00    -0.122 N 
BRANCH  15  16
HETATM   16  N1  UNL     1      17.516 -22.364 -21.035  1.00  0.00    -0.299 N 
HETATM   17  C10 UNL     1      17.946 -23.220 -20.230  1.00  0.00     0.086 C 
ATOM     18  H1  UNL     1      16.497 -22.340 -21.086  1.00  0.00     0.186 HD
BRANCH  17  19
HETATM   19  C9  UNL     1      19.388 -23.505 -19.925  1.00  0.00     0.034 C 
HETATM   20  C4  UNL     1      19.859 -24.544 -20.896  1.00  0.00     0.022 C 
HETATM   21  C5  UNL     1      19.474 -25.895 -20.319  1.00  0.00     0.010 C 
HETATM   22  C6  UNL     1      20.240 -26.215 -19.074  1.00  0.00     0.001 C 
HETATM   23  C7  UNL     1      20.364 -25.042 -18.162  1.00  0.00     0.001 C 
HETATM   24  C8  UNL     1      19.427 -23.939 -18.500  1.00  0.00     0.010 C 
BRANCH  20  25
HETATM   25  C2  UNL     1      21.260 -24.468 -21.298  1.00  0.00    -0.088 C 
HETATM   26  C1  UNL     1      22.073 -23.491 -20.956  1.00  0.00     0.014 C 
HETATM   27  C3  UNL     1      21.802 -25.561 -22.150  1.00  0.00     0.043 C 
ENDBRANCH  20  25
ENDBRANCH  17  19
ENDBRANCH  15  16
BRANCH  15  28
HETATM   28  C11 UNL     1      18.555 -21.841 -23.175  1.00  0.00     0.163 C 
HETATM   29  C12 UNL     1      17.786 -23.099 -23.607  1.00  0.00     0.029 C 
ENDBRANCH  15  28
ENDBRANCH   1  15
BRANCH  14  30
HETATM   30  O2  UNL     1      20.576 -20.335 -22.215  1.00  0.00    -0.266 OA
ATOM     31  H2  UNL     1      20.580 -20.516 -23.147  1.00  0.00     0.246 HD
ENDBRANCH  14  30
TORSDOF 6
ENDMDL
MODEL 2
REMARK VINA RESULT: -6.930256330      1.155      2.164
REMARK  6 active torsions:
REMARK  status: ('A' for Active; 'I' for Inactive)
REMARK    1  A    between atoms: C2_2  and  C4_4 
REMARK    2  A    between atoms: C9_9  and  C10_10 
REMARK    3  A    between atoms: N1_11  and  N2_13 
REMARK    4  A    between atoms: N2_13  and  C11_14 
REMARK    5  A    between atoms: N2_13  and  C13_16 
REMARK    6  A    between atoms: N6_29  and  O2_30 
ROOT
HETATM    1  C13 UNL     1      19.280 -20.066 -21.761  1.00  0.00     0.730 A 
HETATM    2  N3  UNL     1      18.094 -19.635 -21.234  1.00  0.00    -0.170 N 
ATOM      3  H3  UNL     1      17.289 -20.262 -21.241  1.00  0.00     0.186 HD
HETATM    4  C14 UNL     1      17.965 -18.409 -20.707  1.00  0.00     0.155 A 
HETATM    5  C15 UNL     1      19.095 -17.611 -20.727  1.00  0.00     0.104 A 
HETATM    6  C16 UNL     1      18.700 -16.422 -20.135  1.00  0.00     0.042 A 
HETATM    7  C17 UNL     1      19.623 -15.272 -19.954  1.00  0.00     0.071 C 
HETATM    8  N4  UNL     1      17.400 -16.549 -19.795  1.00  0.00    -0.301 N 
ATOM      9  H4  UNL     1      16.847 -15.824 -19.339  1.00  0.00     0.187 HD
HETATM   10  N5  UNL     1      16.942 -17.743 -20.134  1.00  0.00    -0.280 N 
HETATM   11  C18 UNL     1      15.579 -18.255 -19.927  1.00  0.00     0.179 C 
HETATM   12  C19 UNL     1      20.288 -18.060 -21.263  1.00  0.00     0.304 A 
HETATM   13  O1  UNL     1      21.317 -17.313 -21.274  1.00  0.00    -0.264 OA
HETATM   14  N6  UNL     1      20.384 -19.294 -21.783  1.00  0.00    -0.011 N 
ENDROOT
BRANCH   1  15
HETATM   15  N2  UNL     1      19.377 -21.373 -22.302  1.00  0.00    -0.122 N 
BRANCH  15  16
HETATM   16  N1  UNL     1      20.454 -22.164 -22.041  1.00  0.00    -0.299 N 
HETATM   17  C10 UNL     1      20.627 -23.196 -21.355  1.00  0.00     0.086 C 
ATOM     18  H1  UNL     1      21.306 -21.846 -22.506  1.00  0.00     0.186 HD
BRANCH  17  19
HETATM   19  C9  UNL     1      19.580 -23.912 -20.552  1.00  0.00     0.034 C 
HETATM   20  C4  UNL     1      20.248 -24.479 -19.338  1.00  0.00     0.022 C 
HETATM   21  C5  UNL     1      20.845 -25.815 -19.745  1.00  0.00     0.010 C 
HETATM   22  C6  UNL     1      19.791 -26.829 -20.062  1.00  0.00     0.001 C 
HETATM   23  C7  UNL     1      18.671 -26.257 -20.863  1.00  0.00     0.001 C 
HETATM   24  C8  UNL     1      18.997 -24.938 -21.463  1.00  0.00     0.010 C 
BRANCH  20  25
HETATM   25  C2  UNL     1      19.437 -24.555 -18.127  1.00  0.00    -0.088 C 
HETATM   26  C1  UNL     1      18.226 -24.052 -18.019  1.00  0.00     0.014 C 
HETATM   27  C3  UNL     1      20.017 -25.242 -16.941  1.00  0.00     0.043 C 
ENDBRANCH  20  25
ENDBRANCH  17  19
ENDBRANCH  15  16
BRANCH  15  28
HETATM   28  C11 UNL     1      18.309 -21.842 -23.148  1.00  0.00     0.163 C 
HETATM   29  C12 UNL     1      18.806 -21.872 -24.601  1.00  0.00     0.029 C 
ENDBRANCH  15  28
ENDBRANCH   1  15
BRANCH  14  30
HETATM   30  O2  UNL     1      21.582 -19.762 -22.324  1.00  0.00    -0.266 OA
ATOM     31  H2  UNL     1      22.213 -20.228 -21.789  1.00  0.00     0.246 HD
ENDBRANCH  14  30
TORSDOF 6
ENDMDL
MODEL 3
REMARK VINA RESULT: -6.714293283      2.035      4.362
REMARK  6 active torsions:
REMARK  status: ('A' for Active; 'I' for Inactive)
REMARK    1  A    between atoms: C2_2  and  C4_4 
REMARK    2  A    between atoms: C9_9  and  C10_10 
REMARK    3  A    between atoms: N1_11  and  N2_13 
REMARK    4  A    between atoms: N2_13  and  C11_14 
REMARK    5  A    between atoms: N2_13  and  C13_16 
REMARK    6  A    between atoms: N6_29  and  O2_30 
ROOT
HETATM    1  C13 UNL     1      18.776 -20.003 -21.647  1.00  0.00     0.730 A 
HETATM    2  N3  UNL     1      17.665 -19.447 -21.075  1.00  0.00    -0.170 N 
ATOM      3  H3  UNL     1      16.800 -19.987 -21.039  1.00  0.00     0.186 HD
HETATM    4  C14 UNL     1      17.686 -18.208 -20.560  1.00  0.00     0.155 A 
HETATM    5  C15 UNL     1      18.890 -17.532 -20.641  1.00  0.00     0.104 A 
HETATM    6  C16 UNL     1      18.645 -16.303 -20.048  1.00  0.00     0.042 A 
HETATM    7  C17 UNL     1      19.689 -15.253 -19.923  1.00  0.00     0.071 C 
HETATM    8  N4  UNL     1      17.355 -16.292 -19.651  1.00  0.00    -0.301 N 
ATOM      9  H4  UNL     1      16.900 -15.510 -19.182  1.00  0.00     0.187 HD
HETATM   10  N5  UNL     1      16.763 -17.435 -19.954  1.00  0.00    -0.280 N 
HETATM   11  C18 UNL     1      15.365 -17.802 -19.681  1.00  0.00     0.179 C 
HETATM   12  C19 UNL     1      20.005 -18.107 -21.221  1.00  0.00     0.304 A 
HETATM   13  O1  UNL     1      21.104 -17.470 -21.287  1.00  0.00    -0.264 OA
HETATM   14  N6  UNL     1      19.951 -19.349 -21.728  1.00  0.00    -0.011 N 
ENDROOT
BRANCH   1  15
HETATM   15  N2  UNL     1      18.714 -21.318 -22.174  1.00  0.00    -0.122 N 
BRANCH  15  16
HETATM   16  N1  UNL     1      19.606 -21.742 -23.111  1.00  0.00    -0.299 N 
HETATM   17  C10 UNL     1      19.493 -22.257 -24.246  1.00  0.00     0.086 C 
ATOM     18  H1  UNL     1      20.577 -21.612 -22.826  1.00  0.00     0.186 HD
BRANCH  17  19
HETATM   19  C9  UNL     1      18.205 -22.577 -24.950  1.00  0.00     0.034 C 
HETATM   20  C4  UNL     1      18.212 -24.041 -25.263  1.00  0.00     0.022 C 
HETATM   21  C5  UNL     1      18.966 -24.210 -26.572  1.00  0.00     0.010 C 
HETATM   22  C6  UNL     1      18.226 -23.614 -27.729  1.00  0.00     0.001 C 
HETATM   23  C7  UNL     1      17.624 -22.290 -27.400  1.00  0.00     0.001 C 
HETATM   24  C8  UNL     1      18.167 -21.696 -26.151  1.00  0.00     0.010 C 
BRANCH  20  25
HETATM   25  C2  UNL     1      16.916 -24.712 -25.255  1.00  0.00    -0.088 C 
HETATM   26  C1  UNL     1      15.807 -24.166 -24.804  1.00  0.00     0.014 C 
HETATM   27  C3  UNL     1      16.846 -26.100 -25.786  1.00  0.00     0.043 C 
ENDBRANCH  20  25
ENDBRANCH  17  19
ENDBRANCH  15  16
BRANCH  15  28
HETATM   28  C11 UNL     1      17.673 -22.194 -21.700  1.00  0.00     0.163 C 
HETATM   29  C12 UNL     1      18.231 -23.045 -20.549  1.00  0.00     0.029 C 
ENDBRANCH  15  28
ENDBRANCH   1  15
BRANCH  14  30
HETATM   30  O2  UNL     1      21.069 -19.943 -22.313  1.00  0.00    -0.266 OA
ATOM     31  H2  UNL     1      21.644 -20.508 -21.811  1.00  0.00     0.246 HD
ENDBRANCH  14  30
TORSDOF 6
ENDMDL
MODEL 4
REMARK VINA RESULT: -6.651114348      1.872      3.953
REMARK  6 active torsions:
REMARK  status: ('A' for Active; 'I' for Inactive)
REMARK    1  A    between atoms: C2_2  and  C4_4 
REMARK    2  A    between atoms: C9_9  and  C10_10 
REMARK    3  A    between atoms: N1_11  and  N2_13 
REMARK    4  A    between atoms: N2_13  and  C11_14 
REMARK    5  A    between atoms: N2_13  and  C13_16 
REMARK    6  A    between atoms: N6_29  and  O2_30 
ROOT
HETATM    1  C13 UNL     1      18.394 -20.256 -21.467  1.00  0.00     0.730 A 
HETATM    2  N3  UNL     1      17.371 -19.545 -20.901  1.00  0.00    -0.170 N 
ATOM      3  H3  UNL     1      16.464 -19.993 -20.773  1.00  0.00     0.186 HD
HETATM    4  C14 UNL     1      17.535 -18.272 -20.511  1.00  0.00     0.155 A 
HETATM    5  C15 UNL     1      18.789 -17.726 -20.712  1.00  0.00     0.104 A 
HETATM    6  C16 UNL     1      18.691 -16.429 -20.231  1.00  0.00     0.042 A 
HETATM    7  C17 UNL     1      19.832 -15.477 -20.257  1.00  0.00     0.071 C 
HETATM    8  N4  UNL     1      17.432 -16.257 -19.778  1.00  0.00    -0.301 N 
ATOM      9  H4  UNL     1      17.077 -15.394 -19.366  1.00  0.00     0.187 HD
HETATM   10  N5  UNL     1      16.721 -17.360 -19.940  1.00  0.00    -0.280 N 
HETATM   11  C18 UNL     1      15.313 -17.564 -19.569  1.00  0.00     0.179 C 
HETATM   12  C19 UNL     1      19.814 -18.457 -21.284  1.00  0.00     0.304 A 
HETATM   13  O1  UNL     1      20.961 -17.938 -21.462  1.00  0.00    -0.264 OA
HETATM   14  N6  UNL     1      19.618 -19.729 -21.664  1.00  0.00    -0.011 N 
ENDROOT
BRANCH   1  15
HETATM   15  N2  UNL     1      18.182 -21.602 -21.860  1.00  0.00    -0.122 N 
BRANCH  15  16
HETATM   16  N1  UNL     1      18.709 -22.087 -23.018  1.00  0.00    -0.299 N 
HETATM   17  C10 UNL     1      18.280 -22.848 -23.914  1.00  0.00     0.086 C 
ATOM     18  H1  UNL     1      19.659 -21.758 -23.194  1.00  0.00     0.186 HD
BRANCH  17  19
HETATM   19  C9  UNL     1      16.927 -23.498 -23.953  1.00  0.00     0.034 C 
HETATM   20  C4  UNL     1      17.069 -24.874 -23.380  1.00  0.00     0.022 C 
HETATM   21  C5  UNL     1      17.531 -25.778 -24.509  1.00  0.00     0.010 C 
HETATM   22  C6  UNL     1      16.479 -25.949 -25.560  1.00  0.00     0.001 C 
HETATM   23  C7  UNL     1      15.785 -24.671 -25.886  1.00  0.00     0.001 C 
HETATM   24  C8  UNL     1      16.502 -23.472 -25.380  1.00  0.00     0.010 C 
BRANCH  20  25
HETATM   25  C2  UNL     1      15.913 -25.398 -22.659  1.00  0.00    -0.088 C 
HETATM   26  C1  UNL     1      15.828 -26.628 -22.199  1.00  0.00     0.014 C 
HETATM   27  C3  UNL     1      14.759 -24.487 -22.432  1.00  0.00     0.043 C 
ENDBRANCH  20  25
ENDBRANCH  17  19
ENDBRANCH  15  16
BRANCH  15  28
HETATM   28  C11 UNL     1      17.385 -22.444 -21.006  1.00  0.00     0.163 C 
HETATM   29  C12 UNL     1      18.323 -23.281 -20.122  1.00  0.00     0.029 C 
ENDBRANCH  15  28
ENDBRANCH   1  15
BRANCH  14  30
HETATM   30  O2  UNL     1      20.643 -20.480 -22.240  1.00  0.00    -0.266 OA
ATOM     31  H2  UNL     1      21.554 -20.242 -22.118  1.00  0.00     0.246 HD
ENDBRANCH  14  30
TORSDOF 6
ENDMDL
MODEL 5
REMARK VINA RESULT: -6.641128489      2.073      3.323
REMARK  6 active torsions:
REMARK  status: ('A' for Active; 'I' for Inactive)
REMARK    1  A    between atoms: C2_2  and  C4_4 
REMARK    2  A    between atoms: C9_9  and  C10_10 
REMARK    3  A    between atoms: N1_11  and  N2_13 
REMARK    4  A    between atoms: N2_13  and  C11_14 
REMARK    5  A    between atoms: N2_13  and  C13_16 
REMARK    6  A    between atoms: N6_29  and  O2_30 
ROOT
HETATM    1  C13 UNL     1      18.632 -19.961 -21.648  1.00  0.00     0.730 A 
HETATM    2  N3  UNL     1      17.543 -19.373 -21.066  1.00  0.00    -0.170 N 
ATOM      3  H3  UNL     1      16.660 -19.882 -21.033  1.00  0.00     0.186 HD
HETATM    4  C14 UNL     1      17.610 -18.143 -20.536  1.00  0.00     0.155 A 
HETATM    5  C15 UNL     1      18.837 -17.509 -20.613  1.00  0.00     0.104 A 
HETATM    6  C16 UNL     1      18.638 -16.279 -20.005  1.00  0.00     0.042 A 
HETATM    7  C17 UNL     1      19.718 -15.267 -19.871  1.00  0.00     0.071 C 
HETATM    8  N4  UNL     1      17.350 -16.227 -19.603  1.00  0.00    -0.301 N 
ATOM      9  H4  UNL     1      16.925 -15.435 -19.123  1.00  0.00     0.187 HD
HETATM   10  N5  UNL     1      16.717 -17.344 -19.917  1.00  0.00    -0.280 N 
HETATM   11  C18 UNL     1      15.308 -17.665 -19.643  1.00  0.00     0.179 C 
HETATM   12  C19 UNL     1      19.930 -18.116 -21.204  1.00  0.00     0.304 A 
HETATM   13  O1  UNL     1      21.050 -17.517 -21.266  1.00  0.00    -0.264 OA
HETATM   14  N6  UNL     1      19.829 -19.348 -21.725  1.00  0.00    -0.011 N 
ENDROOT
BRANCH   1  15
HETATM   15  N2  UNL     1      18.522 -21.267 -22.190  1.00  0.00    -0.122 N 
BRANCH  15  16
HETATM   16  N1  UNL     1      18.504 -21.469 -23.537  1.00  0.00    -0.299 N 
HETATM   17  C10 UNL     1      19.223 -22.124 -24.325  1.00  0.00     0.086 C 
ATOM     18  H1  UNL     1      17.740 -20.981 -24.005  1.00  0.00     0.186 HD
BRANCH  17  19
HETATM   19  C9  UNL     1      20.422 -22.948 -23.954  1.00  0.00     0.034 C 
HETATM   20  C4  UNL     1      21.580 -22.451 -24.763  1.00  0.00     0.022 C 
HETATM   21  C5  UNL     1      21.516 -23.155 -26.107  1.00  0.00     0.010 C 
HETATM   22  C6  UNL     1      21.785 -24.623 -25.988  1.00  0.00     0.001 C 
HETATM   23  C7  UNL     1      21.103 -25.233 -24.811  1.00  0.00     0.001 C 
HETATM   24  C8  UNL     1      20.048 -24.363 -24.232  1.00  0.00     0.010 C 
BRANCH  20  25
HETATM   25  C2  UNL     1      22.894 -22.533 -24.132  1.00  0.00    -0.088 C 
HETATM   26  C1  UNL     1      23.089 -22.885 -22.880  1.00  0.00     0.014 C 
HETATM   27  C3  UNL     1      24.086 -22.193 -24.956  1.00  0.00     0.043 C 
ENDBRANCH  20  25
ENDBRANCH  17  19
ENDBRANCH  15  16
BRANCH  15  28
HETATM   28  C11 UNL     1      18.417 -22.377 -21.278  1.00  0.00     0.163 C 
HETATM   29  C12 UNL     1      17.039 -23.034 -21.457  1.00  0.00     0.029 C 
ENDBRANCH  15  28
ENDBRANCH   1  15
BRANCH  14  30
HETATM   30  O2  UNL     1      20.924 -19.975 -22.321  1.00  0.00    -0.266 OA
ATOM     31  H2  UNL     1      20.830 -20.462 -23.131  1.00  0.00     0.246 HD
ENDBRANCH  14  30
TORSDOF 6
ENDMDL
