MODEL 1
REMARK VINA RESULT: -5.897807271      0.000      0.000
REMARK  7 active torsions:
REMARK  status: ('A' for Active; 'I' for Inactive)
REMARK    1  A    between atoms: O1_2  and  C2_3 
REMARK    2  A    between atoms: C4_5  and  O2_6 
REMARK    3  A    between atoms: C6_8  and  C7_9 
REMARK    4  A    between atoms: C9_11  and  O3_13 
REMARK    5  A    between atoms: N1_16  and  C12_17 
REMARK    6  A    between atoms: C12_17  and  C13_18 
REMARK    7  A    between atoms: C18_23  and  O4_24 
ROOT
HETATM    1  C7  UNL     1      -9.424  -8.220   2.112  1.00  0.00     0.262 C 
HETATM    2  C8  UNL     1     -10.742  -7.487   2.262  1.00  0.00     0.080 C 
HETATM    3  C9  UNL     1     -11.330  -8.408   3.308  1.00  0.00     0.083 C 
HETATM    4  C10 UNL     1     -11.766  -9.754   2.733  1.00  0.00     0.047 C 
HETATM    5  C11 UNL     1     -10.114  -8.664   4.204  1.00  0.00     0.310 C 
HETATM    6  N1  UNL     1      -8.975  -7.990   3.506  1.00  0.00     0.101 N 
ENDROOT
BRANCH   1   7
HETATM    7  C6  UNL     1      -8.597  -7.848   1.027  1.00  0.00     0.011 A 
HETATM    8  C4  UNL     1      -7.240  -8.279   0.999  1.00  0.00     0.079 A 
HETATM    9  C3  UNL     1      -6.366  -7.909   0.025  1.00  0.00     0.077 A 
HETATM   10  C2  UNL     1      -6.752  -7.087  -0.995  1.00  0.00     0.104 A 
HETATM   11  C18 UNL     1      -8.058  -6.628  -1.018  1.00  0.00     0.102 A 
HETATM   12  C17 UNL     1      -8.951  -7.025  -0.005  1.00  0.00     0.051 A 
BRANCH   8  13
HETATM   13  O2  UNL     1      -6.849  -9.096   2.012  1.00  0.00    -0.355 OA
HETATM   14  C5  UNL     1      -5.514  -9.536   2.180  1.00  0.00     0.210 C 
ENDBRANCH   8  13
BRANCH  10  15
HETATM   15  O1  UNL     1      -5.838  -6.744  -1.986  1.00  0.00    -0.353 OA
HETATM   16  C1  UNL     1      -4.612  -7.337  -2.238  1.00  0.00     0.210 C 
ENDBRANCH  10  15
BRANCH  11  17
HETATM   17  O4  UNL     1      -8.455  -5.791  -2.025  1.00  0.00    -0.353 OA
HETATM   18  C19 UNL     1      -9.703  -5.098  -1.995  1.00  0.00     0.210 C 
ENDBRANCH  11  17
ENDBRANCH   1   7
BRANCH   6  19
HETATM   19  C12 UNL     1      -8.965  -6.623   3.919  1.00  0.00     0.281 C 
BRANCH  19  20
HETATM   20  C13 UNL     1      -7.584  -6.088   4.182  1.00  0.00    -0.025 C 
HETATM   21  C14 UNL     1      -7.027  -5.184   3.110  1.00  0.00     0.016 C 
HETATM   22  C15 UNL     1      -7.693  -5.154   5.443  1.00  0.00     0.016 C 
HETATM   23  C16 UNL     1      -6.542  -7.066   4.607  1.00  0.00     0.016 C 
ENDBRANCH  19  20
ENDBRANCH   6  19
BRANCH   3  24
HETATM   24  O3  UNL     1     -12.333  -7.812   4.039  1.00  0.00    -0.388 OA
ATOM     25  H3  UNL     1     -12.356  -8.106   4.942  1.00  0.00     0.210 HD
ENDBRANCH   3  24
TORSDOF 7
ENDMDL
MODEL 2
REMARK VINA RESULT: -5.639994239      1.408      2.728
REMARK  7 active torsions:
REMARK  status: ('A' for Active; 'I' for Inactive)
REMARK    1  A    between atoms: O1_2  and  C2_3 
REMARK    2  A    between atoms: C4_5  and  O2_6 
REMARK    3  A    between atoms: C6_8  and  C7_9 
REMARK    4  A    between atoms: C9_11  and  O3_13 
REMARK    5  A    between atoms: N1_16  and  C12_17 
REMARK    6  A    between atoms: C12_17  and  C13_18 
REMARK    7  A    between atoms: C18_23  and  O4_24 
ROOT
HETATM    1  C7  UNL     1      -9.869  -8.039   1.776  1.00  0.00     0.262 C 
HETATM    2  C8  UNL     1     -11.118  -7.322   2.248  1.00  0.00     0.080 C 
HETATM    3  C9  UNL     1     -11.529  -8.356   3.273  1.00  0.00     0.083 C 
HETATM    4  C10 UNL     1     -12.098  -9.624   2.638  1.00  0.00     0.047 C 
HETATM    5  C11 UNL     1     -10.178  -8.720   3.895  1.00  0.00     0.310 C 
HETATM    6  N1  UNL     1      -9.168  -7.975   3.080  1.00  0.00     0.101 N 
ENDROOT
BRANCH   1   7
HETATM    7  C6  UNL     1      -9.244  -7.547   0.606  1.00  0.00     0.011 A 
HETATM    8  C4  UNL     1     -10.029  -7.293  -0.554  1.00  0.00     0.079 A 
HETATM    9  C3  UNL     1      -9.492  -6.883  -1.735  1.00  0.00     0.077 A 
HETATM   10  C2  UNL     1      -8.147  -6.694  -1.870  1.00  0.00     0.104 A 
HETATM   11  C18 UNL     1      -7.330  -6.933  -0.779  1.00  0.00     0.102 A 
HETATM   12  C17 UNL     1      -7.903  -7.352   0.437  1.00  0.00     0.051 A 
BRANCH   8  13
HETATM   13  O2  UNL     1     -11.369  -7.480  -0.426  1.00  0.00    -0.355 OA
HETATM   14  C5  UNL     1     -12.328  -6.581  -0.948  1.00  0.00     0.210 C 
ENDBRANCH   8  13
BRANCH  10  15
HETATM   15  O1  UNL     1      -7.632  -6.255  -3.087  1.00  0.00    -0.353 OA
HETATM   16  C1  UNL     1      -7.097  -7.033  -4.100  1.00  0.00     0.210 C 
ENDBRANCH  10  15
BRANCH  11  17
HETATM   17  O4  UNL     1      -5.978  -6.763  -0.904  1.00  0.00    -0.353 OA
HETATM   18  C19 UNL     1      -5.104  -7.832  -1.267  1.00  0.00     0.210 C 
ENDBRANCH  11  17
ENDBRANCH   1   7
BRANCH   6  19
HETATM   19  C12 UNL     1      -9.047  -6.665   3.637  1.00  0.00     0.281 C 
BRANCH  19  20
HETATM   20  C13 UNL     1      -7.637  -6.303   4.013  1.00  0.00    -0.025 C 
HETATM   21  C14 UNL     1      -7.046  -5.139   3.256  1.00  0.00     0.016 C 
HETATM   22  C15 UNL     1      -7.679  -5.801   5.503  1.00  0.00     0.016 C 
HETATM   23  C16 UNL     1      -6.643  -7.412   4.085  1.00  0.00     0.016 C 
ENDBRANCH  19  20
ENDBRANCH   6  19
BRANCH   3  24
HETATM   24  O3  UNL     1     -12.367  -7.843   4.239  1.00  0.00    -0.388 OA
ATOM     25  H3  UNL     1     -12.929  -7.151   3.909  1.00  0.00     0.210 HD
ENDBRANCH   3  24
TORSDOF 7
ENDMDL
MODEL 3
REMARK VINA RESULT: -5.349252567      1.933      2.872
REMARK  7 active torsions:
REMARK  status: ('A' for Active; 'I' for Inactive)
REMARK    1  A    between atoms: O1_2  and  C2_3 
REMARK    2  A    between atoms: C4_5  and  O2_6 
REMARK    3  A    between atoms: C6_8  and  C7_9 
REMARK    4  A    between atoms: C9_11  and  O3_13 
REMARK    5  A    between atoms: N1_16  and  C12_17 
REMARK    6  A    between atoms: C12_17  and  C13_18 
REMARK    7  A    between atoms: C18_23  and  O4_24 
ROOT
HETATM    1  C7  UNL     1      -8.498  -8.977   1.158  1.00  0.00     0.262 C 
HETATM    2  C8  UNL     1      -9.644  -9.585   1.940  1.00  0.00     0.080 C 
HETATM    3  C9  UNL     1      -8.831 -10.666   2.619  1.00  0.00     0.083 C 
HETATM    4  C10 UNL     1      -8.444 -11.798   1.669  1.00  0.00     0.047 C 
HETATM    5  C11 UNL     1      -7.550  -9.904   2.972  1.00  0.00     0.310 C 
HETATM    6  N1  UNL     1      -7.722  -8.556   2.348  1.00  0.00     0.101 N 
ENDROOT
BRANCH   1   7
HETATM    7  C6  UNL     1      -8.827  -8.038   0.153  1.00  0.00     0.011 A 
HETATM    8  C4  UNL     1      -7.799  -7.242  -0.428  1.00  0.00     0.079 A 
HETATM    9  C3  UNL     1      -8.045  -6.274  -1.351  1.00  0.00     0.077 A 
HETATM   10  C2  UNL     1      -9.316  -6.008  -1.772  1.00  0.00     0.104 A 
HETATM   11  C18 UNL     1     -10.360  -6.742  -1.237  1.00  0.00     0.102 A 
HETATM   12  C17 UNL     1     -10.087  -7.744  -0.287  1.00  0.00     0.051 A 
BRANCH   8  13
HETATM   13  O2  UNL     1      -6.531  -7.502  -0.012  1.00  0.00    -0.355 OA
HETATM   14  C5  UNL     1      -5.453  -7.710  -0.903  1.00  0.00     0.210 C 
ENDBRANCH   8  13
BRANCH  10  15
HETATM   15  O1  UNL     1      -9.531  -5.023  -2.732  1.00  0.00    -0.353 OA
HETATM   16  C1  UNL     1      -9.874  -3.699  -2.513  1.00  0.00     0.210 C 
ENDBRANCH  10  15
BRANCH  11  17
HETATM   17  O4  UNL     1     -11.641  -6.475  -1.638  1.00  0.00    -0.353 OA
HETATM   18  C19 UNL     1     -12.519  -5.640  -0.885  1.00  0.00     0.210 C 
ENDBRANCH  11  17
ENDBRANCH   1   7
BRANCH   6  19
HETATM   19  C12 UNL     1      -8.437  -7.740   3.278  1.00  0.00     0.281 C 
BRANCH  19  20
HETATM   20  C13 UNL     1      -7.594  -6.660   3.898  1.00  0.00    -0.025 C 
HETATM   21  C14 UNL     1      -7.244  -5.510   2.985  1.00  0.00     0.016 C 
HETATM   22  C15 UNL     1      -8.467  -5.993   5.023  1.00  0.00     0.016 C 
HETATM   23  C16 UNL     1      -6.383  -7.088   4.654  1.00  0.00     0.016 C 
ENDBRANCH  19  20
ENDBRANCH   6  19
BRANCH   3  24
HETATM   24  O3  UNL     1      -9.427 -11.139   3.767  1.00  0.00    -0.388 OA
ATOM     25  H3  UNL     1      -9.040 -11.951   4.074  1.00  0.00     0.210 HD
ENDBRANCH   3  24
TORSDOF 7
ENDMDL
MODEL 4
REMARK VINA RESULT: -5.349082060      2.023      3.878
REMARK  7 active torsions:
REMARK  status: ('A' for Active; 'I' for Inactive)
REMARK    1  A    between atoms: O1_2  and  C2_3 
REMARK    2  A    between atoms: C4_5  and  O2_6 
REMARK    3  A    between atoms: C6_8  and  C7_9 
REMARK    4  A    between atoms: C9_11  and  O3_13 
REMARK    5  A    between atoms: N1_16  and  C12_17 
REMARK    6  A    between atoms: C12_17  and  C13_18 
REMARK    7  A    between atoms: C18_23  and  O4_24 
ROOT
HETATM    1  C7  UNL     1      -7.889  -7.696   1.430  1.00  0.00     0.262 C 
HETATM    2  C8  UNL     1      -7.713  -6.632   2.495  1.00  0.00     0.080 C 
HETATM    3  C9  UNL     1      -8.610  -7.277   3.529  1.00  0.00     0.083 C 
HETATM    4  C10 UNL     1     -10.093  -7.154   3.183  1.00  0.00     0.047 C 
HETATM    5  C11 UNL     1      -8.226  -8.753   3.385  1.00  0.00     0.310 C 
HETATM    6  N1  UNL     1      -7.283  -8.792   2.224  1.00  0.00     0.101 N 
ENDROOT
BRANCH   1   7
HETATM    7  C6  UNL     1      -7.403  -7.402   0.135  1.00  0.00     0.011 A 
HETATM    8  C4  UNL     1      -8.324  -7.099  -0.908  1.00  0.00     0.079 A 
HETATM    9  C3  UNL     1      -7.940  -6.870  -2.191  1.00  0.00     0.077 A 
HETATM   10  C2  UNL     1      -6.624  -6.923  -2.554  1.00  0.00     0.104 A 
HETATM   11  C18 UNL     1      -5.681  -7.221  -1.585  1.00  0.00     0.102 A 
HETATM   12  C17 UNL     1      -6.096  -7.450  -0.260  1.00  0.00     0.051 A 
BRANCH   8  13
HETATM   13  O2  UNL     1      -9.636  -7.046  -0.554  1.00  0.00    -0.355 OA
HETATM   14  C5  UNL     1     -10.689  -6.989  -1.496  1.00  0.00     0.210 C 
ENDBRANCH   8  13
BRANCH  10  15
HETATM   15  O1  UNL     1      -6.262  -6.665  -3.873  1.00  0.00    -0.353 OA
HETATM   16  C1  UNL     1      -6.042  -7.591  -4.878  1.00  0.00     0.210 C 
ENDBRANCH  10  15
BRANCH  11  17
HETATM   17  O4  UNL     1      -4.361  -7.293  -1.937  1.00  0.00    -0.353 OA
HETATM   18  C19 UNL     1      -3.661  -8.534  -2.028  1.00  0.00     0.210 C 
ENDBRANCH  11  17
ENDBRANCH   1   7
BRANCH   6  19
HETATM   19  C12 UNL     1      -5.973  -8.523   2.724  1.00  0.00     0.281 C 
BRANCH  19  20
HETATM   20  C13 UNL     1      -5.050  -9.708   2.654  1.00  0.00    -0.025 C 
HETATM   21  C14 UNL     1      -3.921  -9.589   1.660  1.00  0.00     0.016 C 
HETATM   22  C15 UNL     1      -4.319  -9.796   4.044  1.00  0.00     0.016 C 
HETATM   23  C16 UNL     1      -5.678 -11.056   2.544  1.00  0.00     0.016 C 
ENDBRANCH  19  20
ENDBRANCH   6  19
BRANCH   3  24
HETATM   24  O3  UNL     1      -8.343  -6.846   4.809  1.00  0.00    -0.388 OA
ATOM     25  H3  UNL     1      -9.012  -6.264   5.148  1.00  0.00     0.210 HD
ENDBRANCH   3  24
TORSDOF 7
ENDMDL
MODEL 5
REMARK VINA RESULT: -5.232141421      2.029      4.401
REMARK  7 active torsions:
REMARK  status: ('A' for Active; 'I' for Inactive)
REMARK    1  A    between atoms: O1_2  and  C2_3 
REMARK    2  A    between atoms: C4_5  and  O2_6 
REMARK    3  A    between atoms: C6_8  and  C7_9 
REMARK    4  A    between atoms: C9_11  and  O3_13 
REMARK    5  A    between atoms: N1_16  and  C12_17 
REMARK    6  A    between atoms: C12_17  and  C13_18 
REMARK    7  A    between atoms: C18_23  and  O4_24 
ROOT
HETATM    1  C7  UNL     1      -7.498  -6.727   1.143  1.00  0.00     0.262 C 
HETATM    2  C8  UNL     1      -6.451  -7.095   2.175  1.00  0.00     0.080 C 
HETATM    3  C9  UNL     1      -7.239  -6.642   3.384  1.00  0.00     0.083 C 
HETATM    4  C10 UNL     1      -7.305  -5.121   3.511  1.00  0.00     0.047 C 
HETATM    5  C11 UNL     1      -8.646  -7.135   3.031  1.00  0.00     0.310 C 
HETATM    6  N1  UNL     1      -8.525  -7.673   1.641  1.00  0.00     0.101 N 
ENDROOT
BRANCH   1   7
HETATM    7  C6  UNL     1      -7.104  -6.753  -0.215  1.00  0.00     0.011 A 
HETATM    8  C4  UNL     1      -8.098  -6.707  -1.235  1.00  0.00     0.079 A 
HETATM    9  C3  UNL     1      -7.803  -6.793  -2.559  1.00  0.00     0.077 A 
HETATM   10  C2  UNL     1      -6.514  -6.934  -2.988  1.00  0.00     0.104 A 
HETATM   11  C18 UNL     1      -5.504  -6.993  -2.043  1.00  0.00     0.102 A 
HETATM   12  C17 UNL     1      -5.826  -6.897  -0.676  1.00  0.00     0.051 A 
BRANCH   8  13
HETATM   13  O2  UNL     1      -9.383  -6.568  -0.815  1.00  0.00    -0.355 OA
HETATM   14  C5  UNL     1     -10.473  -7.226  -1.432  1.00  0.00     0.210 C 
ENDBRANCH   8  13
BRANCH  10  15
HETATM   15  O1  UNL     1      -6.245  -7.000  -4.351  1.00  0.00    -0.353 OA
HETATM   16  C1  UNL     1      -5.741  -8.081  -5.055  1.00  0.00     0.210 C 
ENDBRANCH  10  15
BRANCH  11  17
HETATM   17  O4  UNL     1      -4.209  -7.150  -2.457  1.00  0.00    -0.353 OA
HETATM   18  C19 UNL     1      -3.428  -8.292  -2.106  1.00  0.00     0.210 C 
ENDBRANCH  11  17
ENDBRANCH   1   7
BRANCH   6  19
HETATM   19  C12 UNL     1      -8.098  -9.032   1.740  1.00  0.00     0.281 C 
BRANCH  19  20
HETATM   20  C13 UNL     1      -9.225  -9.997   1.982  1.00  0.00    -0.025 C 
HETATM   21  C14 UNL     1      -9.062 -11.354   1.341  1.00  0.00     0.016 C 
HETATM   22  C15 UNL     1      -9.230 -10.309   3.524  1.00  0.00     0.016 C 
HETATM   23  C16 UNL     1     -10.612  -9.498   1.759  1.00  0.00     0.016 C 
ENDBRANCH  19  20
ENDBRANCH   6  19
BRANCH   3  24
HETATM   24  O3  UNL     1      -6.813  -7.237   4.551  1.00  0.00    -0.388 OA
ATOM     25  H3  UNL     1      -6.702  -8.177   4.465  1.00  0.00     0.210 HD
ENDBRANCH   3  24
TORSDOF 7
ENDMDL
