MODEL 1
REMARK VINA RESULT: -6.842546549      0.000      0.000
REMARK  7 active torsions:
REMARK  status: ('A' for Active; 'I' for Inactive)
REMARK    1  A    between atoms: C2_2  and  C3_3 
REMARK    2  A    between atoms: C3_3  and  N1_4 
REMARK    3  A    between atoms: C6_9  and  C7_10 
REMARK    4  A    between atoms: C8_11  and  C9_12 
REMARK    5  A    between atoms: C9_12  and  C10_13 
REMARK    6  A    between atoms: C11_14  and  C12_15 
REMARK    7  A    between atoms: C12_15  and  O2_17 
ROOT
HETATM    1  C10 UNL     1     -10.370  -8.388   2.068  1.00  0.00    -0.034 C 
HETATM    2  C11 UNL     1      -8.942  -8.205   2.300  1.00  0.00     0.043 C 
HETATM    3  C14 UNL     1      -8.303  -9.368   2.624  1.00  0.00     0.020 C 
HETATM    4  C15 UNL     1      -9.036 -10.630   2.720  1.00  0.00     0.038 C 
HETATM    5  C16 UNL     1      -8.330 -11.567   3.741  1.00  0.00     0.042 C 
HETATM    6  C17 UNL     1      -8.962 -11.349   1.400  1.00  0.00     0.042 C 
HETATM    7  N3  UNL     1     -10.391 -10.544   3.188  1.00  0.00    -0.398 N 
ATOM      8  H3  UNL     1     -10.900 -11.360   3.526  1.00  0.00     0.155 HD
HETATM    9  C18 UNL     1     -10.995  -9.218   3.150  1.00  0.00     0.044 C 
HETATM   10  C19 UNL     1     -10.891  -8.628   4.516  1.00  0.00     0.043 C 
HETATM   11  C20 UNL     1     -12.444  -9.442   2.782  1.00  0.00     0.043 C 
ENDROOT
BRANCH   1  12
HETATM   12  C9  UNL     1     -11.207  -7.301   1.536  1.00  0.00     0.065 C 
BRANCH  12  13
HETATM   13  C8  UNL     1     -11.891  -7.614   0.254  1.00  0.00    -0.020 C 
HETATM   14  C7  UNL     1     -11.604  -7.203  -0.944  1.00  0.00     0.027 C 
BRANCH  14  15
HETATM   15  C6  UNL     1     -10.566  -6.347  -1.444  1.00  0.00     0.050 A 
HETATM   16  N1  UNL     1     -10.807  -5.120  -1.961  1.00  0.00    -0.338 N 
HETATM   17  C4  UNL     1      -9.680  -4.532  -2.391  1.00  0.00     0.183 A 
HETATM   18  N2  UNL     1      -8.691  -5.375  -2.155  1.00  0.00    -0.360 N 
HETATM   19  C5  UNL     1      -9.204  -6.501  -1.576  1.00  0.00     0.118 A 
ATOM     20  H2  UNL     1      -7.708  -5.213  -2.371  1.00  0.00     0.166 HD
BRANCH  16  21
HETATM   21  C3  UNL     1     -12.101  -4.452  -2.089  1.00  0.00     0.156 C 
BRANCH  21  22
HETATM   22  C2  UNL     1     -11.941  -3.043  -2.495  1.00  0.00    -0.017 C 
HETATM   23  C1  UNL     1     -12.563  -2.528  -3.522  1.00  0.00     0.008 C 
ENDBRANCH  21  22
ENDBRANCH  16  21
ENDBRANCH  14  15
ENDBRANCH  12  13
ENDBRANCH   1  12
BRANCH   2  24
HETATM   24  C12 UNL     1      -8.220  -6.967   2.288  1.00  0.00     0.293 C 
HETATM   25  O1  UNL     1      -7.556  -6.560   1.316  1.00  0.00    -0.259 OA
BRANCH  24  26
HETATM   26  O2  UNL     1      -8.237  -6.124   3.425  1.00  0.00    -0.323 OA
HETATM   27  C13 UNL     1      -7.170  -5.236   3.609  1.00  0.00     0.213 C 
ENDBRANCH  24  26
ENDBRANCH   2  24
TORSDOF 7
ENDMDL
MODEL 2
REMARK VINA RESULT: -6.634596223      2.072      3.876
REMARK  7 active torsions:
REMARK  status: ('A' for Active; 'I' for Inactive)
REMARK    1  A    between atoms: C2_2  and  C3_3 
REMARK    2  A    between atoms: C3_3  and  N1_4 
REMARK    3  A    between atoms: C6_9  and  C7_10 
REMARK    4  A    between atoms: C8_11  and  C9_12 
REMARK    5  A    between atoms: C9_12  and  C10_13 
REMARK    6  A    between atoms: C11_14  and  C12_15 
REMARK    7  A    between atoms: C12_15  and  O2_17 
ROOT
HETATM    1  C10 UNL     1      -8.240  -7.679   1.394  1.00  0.00    -0.034 C 
HETATM    2  C11 UNL     1      -9.364  -7.408   2.282  1.00  0.00     0.043 C 
HETATM    3  C14 UNL     1      -8.979  -6.870   3.478  1.00  0.00     0.020 C 
HETATM    4  C15 UNL     1      -7.567  -6.625   3.775  1.00  0.00     0.038 C 
HETATM    5  C16 UNL     1      -7.333  -6.722   5.310  1.00  0.00     0.042 C 
HETATM    6  C17 UNL     1      -7.221  -5.208   3.407  1.00  0.00     0.042 C 
HETATM    7  N3  UNL     1      -6.629  -7.552   3.208  1.00  0.00    -0.398 N 
ATOM      8  H3  UNL     1      -5.669  -7.626   3.546  1.00  0.00     0.155 HD
HETATM    9  C18 UNL     1      -7.130  -8.381   2.119  1.00  0.00     0.044 C 
HETATM   10  C19 UNL     1      -7.508  -9.706   2.689  1.00  0.00     0.043 C 
HETATM   11  C20 UNL     1      -5.972  -8.532   1.158  1.00  0.00     0.043 C 
ENDROOT
BRANCH   1  12
HETATM   12  C9  UNL     1      -8.447  -8.091  -0.003  1.00  0.00     0.065 C 
BRANCH  12  13
HETATM   13  C8  UNL     1      -8.018  -7.091  -1.016  1.00  0.00    -0.020 C 
HETATM   14  C7  UNL     1      -8.743  -6.251  -1.691  1.00  0.00     0.027 C 
BRANCH  14  15
HETATM   15  C6  UNL     1     -10.154  -5.988  -1.698  1.00  0.00     0.050 A 
HETATM   16  N1  UNL     1     -10.684  -4.816  -2.116  1.00  0.00    -0.338 N 
HETATM   17  C4  UNL     1     -12.020  -4.803  -1.994  1.00  0.00     0.183 A 
HETATM   18  N2  UNL     1     -12.373  -5.972  -1.493  1.00  0.00    -0.360 N 
HETATM   19  C5  UNL     1     -11.248  -6.723  -1.298  1.00  0.00     0.118 A 
ATOM     20  H2  UNL     1     -13.327  -6.267  -1.286  1.00  0.00     0.166 HD
BRANCH  16  21
HETATM   21  C3  UNL     1      -9.963  -3.653  -2.634  1.00  0.00     0.156 C 
BRANCH  21  22
HETATM   22  C2  UNL     1     -10.509  -3.218  -3.932  1.00  0.00    -0.017 C 
HETATM   23  C1  UNL     1      -9.753  -2.805  -4.915  1.00  0.00     0.008 C 
ENDBRANCH  21  22
ENDBRANCH  16  21
ENDBRANCH  14  15
ENDBRANCH  12  13
ENDBRANCH   1  12
BRANCH   2  24
HETATM   24  C12 UNL     1     -10.743  -7.712   2.042  1.00  0.00     0.293 C 
HETATM   25  O1  UNL     1     -11.626  -6.849   1.879  1.00  0.00    -0.259 OA
BRANCH  24  26
HETATM   26  O2  UNL     1     -11.172  -9.060   1.976  1.00  0.00    -0.323 OA
HETATM   27  C13 UNL     1     -12.306  -9.433   2.707  1.00  0.00     0.213 C 
ENDBRANCH  24  26
ENDBRANCH   2  24
TORSDOF 7
ENDMDL
MODEL 3
REMARK VINA RESULT: -6.633153169      1.502      2.320
REMARK  7 active torsions:
REMARK  status: ('A' for Active; 'I' for Inactive)
REMARK    1  A    between atoms: C2_2  and  C3_3 
REMARK    2  A    between atoms: C3_3  and  N1_4 
REMARK    3  A    between atoms: C6_9  and  C7_10 
REMARK    4  A    between atoms: C8_11  and  C9_12 
REMARK    5  A    between atoms: C9_12  and  C10_13 
REMARK    6  A    between atoms: C11_14  and  C12_15 
REMARK    7  A    between atoms: C12_15  and  O2_17 
ROOT
HETATM    1  C10 UNL     1      -9.571  -8.372   1.417  1.00  0.00    -0.034 C 
HETATM    2  C11 UNL     1      -8.115  -8.403   1.488  1.00  0.00     0.043 C 
HETATM    3  C14 UNL     1      -7.637  -9.512   2.126  1.00  0.00     0.020 C 
HETATM    4  C15 UNL     1      -8.547 -10.522   2.667  1.00  0.00     0.038 C 
HETATM    5  C16 UNL     1      -7.884 -11.223   3.887  1.00  0.00     0.042 C 
HETATM    6  C17 UNL     1      -8.747 -11.608   1.643  1.00  0.00     0.042 C 
HETATM    7  N3  UNL     1      -9.804 -10.042   3.166  1.00  0.00    -0.398 N 
ATOM      8  H3  UNL     1     -10.394 -10.605   3.779  1.00  0.00     0.155 HD
HETATM    9  C18 UNL     1     -10.188  -8.701   2.744  1.00  0.00     0.044 C 
HETATM   10  C19 UNL     1      -9.828  -7.756   3.841  1.00  0.00     0.043 C 
HETATM   11  C20 UNL     1     -11.688  -8.746   2.559  1.00  0.00     0.043 C 
ENDROOT
BRANCH   1  12
HETATM   12  C9  UNL     1     -10.280  -7.359   0.619  1.00  0.00     0.065 C 
BRANCH  12  13
HETATM   13  C8  UNL     1      -9.958  -7.374  -0.832  1.00  0.00    -0.020 C 
HETATM   14  C7  UNL     1     -10.458  -6.648  -1.785  1.00  0.00     0.027 C 
BRANCH  14  15
HETATM   15  C6  UNL     1     -11.449  -5.610  -1.785  1.00  0.00     0.050 A 
HETATM   16  N1  UNL     1     -11.234  -4.384  -2.313  1.00  0.00    -0.338 N 
HETATM   17  C4  UNL     1     -12.299  -3.583  -2.159  1.00  0.00     0.183 A 
HETATM   18  N2  UNL     1     -13.222  -4.284  -1.527  1.00  0.00    -0.360 N 
HETATM   19  C5  UNL     1     -12.729  -5.534  -1.281  1.00  0.00     0.118 A 
ATOM     20  H2  UNL     1     -14.148  -3.949  -1.265  1.00  0.00     0.166 HD
BRANCH  16  21
HETATM   21  C3  UNL     1     -10.020  -3.904  -2.971  1.00  0.00     0.156 C 
BRANCH  21  22
HETATM   22  C2  UNL     1     -10.337  -3.130  -4.186  1.00  0.00    -0.017 C 
HETATM   23  C1  UNL     1      -9.448  -2.864  -5.106  1.00  0.00     0.008 C 
ENDBRANCH  21  22
ENDBRANCH  16  21
ENDBRANCH  14  15
ENDBRANCH  12  13
ENDBRANCH   1  12
BRANCH   2  24
HETATM   24  C12 UNL     1      -7.210  -7.388   1.036  1.00  0.00     0.293 C 
HETATM   25  O1  UNL     1      -7.174  -6.233   1.500  1.00  0.00    -0.259 OA
BRANCH  24  26
HETATM   26  O2  UNL     1      -6.284  -7.671   0.003  1.00  0.00    -0.323 OA
HETATM   27  C13 UNL     1      -6.386  -6.956  -1.196  1.00  0.00     0.213 C 
ENDBRANCH  24  26
ENDBRANCH   2  24
TORSDOF 7
ENDMDL
MODEL 4
REMARK VINA RESULT: -6.350865346      0.811      2.210
REMARK  7 active torsions:
REMARK  status: ('A' for Active; 'I' for Inactive)
REMARK    1  A    between atoms: C2_2  and  C3_3 
REMARK    2  A    between atoms: C3_3  and  N1_4 
REMARK    3  A    between atoms: C6_9  and  C7_10 
REMARK    4  A    between atoms: C8_11  and  C9_12 
REMARK    5  A    between atoms: C9_12  and  C10_13 
REMARK    6  A    between atoms: C11_14  and  C12_15 
REMARK    7  A    between atoms: C12_15  and  O2_17 
ROOT
HETATM    1  C10 UNL     1     -10.323  -8.352   2.005  1.00  0.00    -0.034 C 
HETATM    2  C11 UNL     1      -8.915  -8.154   2.327  1.00  0.00     0.043 C 
HETATM    3  C14 UNL     1      -8.297  -9.302   2.734  1.00  0.00     0.020 C 
HETATM    4  C15 UNL     1      -9.032 -10.564   2.824  1.00  0.00     0.038 C 
HETATM    5  C16 UNL     1      -8.395 -11.463   3.922  1.00  0.00     0.042 C 
HETATM    6  C17 UNL     1      -8.866 -11.328   1.538  1.00  0.00     0.042 C 
HETATM    7  N3  UNL     1     -10.416 -10.468   3.195  1.00  0.00    -0.398 N 
ATOM      8  H3  UNL     1     -10.945 -11.275   3.526  1.00  0.00     0.155 HD
HETATM    9  C18 UNL     1     -11.019  -9.147   3.070  1.00  0.00     0.044 C 
HETATM   10  C19 UNL     1     -11.011  -8.510   4.418  1.00  0.00     0.043 C 
HETATM   11  C20 UNL     1     -12.439  -9.391   2.612  1.00  0.00     0.043 C 
ENDROOT
BRANCH   1  12
HETATM   12  C9  UNL     1     -11.125  -7.288   1.380  1.00  0.00     0.065 C 
BRANCH  12  13
HETATM   13  C8  UNL     1     -11.894  -7.713   0.180  1.00  0.00    -0.020 C 
HETATM   14  C7  UNL     1     -11.968  -7.143  -0.984  1.00  0.00     0.027 C 
BRANCH  14  15
HETATM   15  C6  UNL     1     -11.357  -5.959  -1.516  1.00  0.00     0.050 A 
HETATM   16  N1  UNL     1     -10.038  -5.875  -1.805  1.00  0.00    -0.338 N 
HETATM   17  C4  UNL     1      -9.705  -4.656  -2.257  1.00  0.00     0.183 A 
HETATM   18  N2  UNL     1     -10.809  -3.933  -2.266  1.00  0.00    -0.360 N 
HETATM   19  C5  UNL     1     -11.842  -4.704  -1.815  1.00  0.00     0.118 A 
ATOM     20  H2  UNL     1     -10.880  -2.960  -2.562  1.00  0.00     0.166 HD
BRANCH  16  21
HETATM   21  C3  UNL     1      -9.031  -6.925  -1.658  1.00  0.00     0.156 C 
BRANCH  21  22
HETATM   22  C2  UNL     1      -7.778  -6.568  -2.349  1.00  0.00    -0.017 C 
HETATM   23  C1  UNL     1      -6.600  -6.910  -1.899  1.00  0.00     0.008 C 
ENDBRANCH  21  22
ENDBRANCH  16  21
ENDBRANCH  14  15
ENDBRANCH  12  13
ENDBRANCH   1  12
BRANCH   2  24
HETATM   24  C12 UNL     1      -8.197  -6.915   2.321  1.00  0.00     0.293 C 
HETATM   25  O1  UNL     1      -7.561  -6.485   1.340  1.00  0.00    -0.259 OA
BRANCH  24  26
HETATM   26  O2  UNL     1      -8.184  -6.096   3.476  1.00  0.00    -0.323 OA
HETATM   27  C13 UNL     1      -7.139  -5.177   3.626  1.00  0.00     0.213 C 
ENDBRANCH  24  26
ENDBRANCH   2  24
TORSDOF 7
ENDMDL
MODEL 5
REMARK VINA RESULT: -6.330656783      4.147      6.500
REMARK  7 active torsions:
REMARK  status: ('A' for Active; 'I' for Inactive)
REMARK    1  A    between atoms: C2_2  and  C3_3 
REMARK    2  A    between atoms: C3_3  and  N1_4 
REMARK    3  A    between atoms: C6_9  and  C7_10 
REMARK    4  A    between atoms: C8_11  and  C9_12 
REMARK    5  A    between atoms: C9_12  and  C10_13 
REMARK    6  A    between atoms: C11_14  and  C12_15 
REMARK    7  A    between atoms: C12_15  and  O2_17 
ROOT
HETATM    1  C10 UNL     1      -6.869  -7.636   0.655  1.00  0.00    -0.034 C 
HETATM    2  C11 UNL     1      -8.172  -7.001   0.498  1.00  0.00     0.043 C 
HETATM    3  C14 UNL     1      -8.697  -6.566   1.682  1.00  0.00     0.020 C 
HETATM    4  C15 UNL     1      -7.979  -6.759   2.942  1.00  0.00     0.038 C 
HETATM    5  C16 UNL     1      -8.998  -6.870   4.112  1.00  0.00     0.042 C 
HETATM    6  C17 UNL     1      -7.161  -5.531   3.239  1.00  0.00     0.042 C 
HETATM    7  N3  UNL     1      -7.182  -7.949   3.043  1.00  0.00    -0.398 N 
ATOM      8  H3  UNL     1      -6.851  -8.303   3.941  1.00  0.00     0.155 HD
HETATM    9  C18 UNL     1      -6.876  -8.620   1.787  1.00  0.00     0.044 C 
HETATM   10  C19 UNL     1      -7.843  -9.744   1.620  1.00  0.00     0.043 C 
HETATM   11  C20 UNL     1      -5.470  -9.155   1.944  1.00  0.00     0.043 C 
ENDROOT
BRANCH   1  12
HETATM   12  C9  UNL     1      -6.053  -8.012  -0.510  1.00  0.00     0.065 C 
BRANCH  12  13
HETATM   13  C8  UNL     1      -5.410  -6.871  -1.214  1.00  0.00    -0.020 C 
HETATM   14  C7  UNL     1      -4.882  -6.838  -2.399  1.00  0.00     0.027 C 
BRANCH  14  15
HETATM   15  C6  UNL     1      -4.740  -7.839  -3.418  1.00  0.00     0.050 A 
HETATM   16  N1  UNL     1      -3.665  -8.655  -3.506  1.00  0.00    -0.338 N 
HETATM   17  C4  UNL     1      -3.753  -9.480  -4.560  1.00  0.00     0.183 A 
HETATM   18  N2  UNL     1      -4.891  -9.207  -5.171  1.00  0.00    -0.360 N 
HETATM   19  C5  UNL     1      -5.520  -8.201  -4.494  1.00  0.00     0.118 A 
ATOM     20  H2  UNL     1      -5.242  -9.669  -6.009  1.00  0.00     0.166 HD
BRANCH  16  21
HETATM   21  C3  UNL     1      -2.505  -8.690  -2.617  1.00  0.00     0.156 C 
BRANCH  21  22
HETATM   22  C2  UNL     1      -2.717  -9.619  -1.492  1.00  0.00    -0.017 C 
HETATM   23  C1  UNL     1      -2.485  -9.289  -0.248  1.00  0.00     0.008 C 
ENDBRANCH  21  22
ENDBRANCH  16  21
ENDBRANCH  14  15
ENDBRANCH  12  13
ENDBRANCH   1  12
BRANCH   2  24
HETATM   24  C12 UNL     1      -8.926  -6.873  -0.713  1.00  0.00     0.293 C 
HETATM   25  O1  UNL     1      -8.699  -6.013  -1.586  1.00  0.00    -0.259 OA
BRANCH  24  26
HETATM   26  O2  UNL     1     -10.002  -7.755  -0.977  1.00  0.00    -0.323 OA
HETATM   27  C13 UNL     1     -11.261  -7.206  -1.242  1.00  0.00     0.213 C 
ENDBRANCH  24  26
ENDBRANCH   2  24
TORSDOF 7
ENDMDL
