MODEL 1
REMARK VINA RESULT: -7.955891405      0.000      0.000
REMARK  3 active torsions:
REMARK  status: ('A' for Active; 'I' for Inactive)
REMARK    1  A    between atoms: C1_2  and  N1_3 
REMARK       I    between atoms: N1_3  and  C2_5 
REMARK    2  A    between atoms: C2_5  and  O3_7 
REMARK    3  A    between atoms: O3_7  and  C3_8 
ROOT
HETATM    1  C3  UNL     1      58.874 -30.011  33.846  1.00  0.00     0.204 C 
HETATM    2  C4  UNL     1      58.661 -30.346  35.308  1.00  0.00     0.079 C 
HETATM    3  C5  UNL     1      60.017 -30.208  35.911  1.00  0.00     0.071 C 
HETATM    4  C6  UNL     1      60.900 -31.409  35.718  1.00  0.00     0.038 C 
HETATM    5  C7  UNL     1      62.106 -31.218  36.640  1.00  0.00     0.003 C 
HETATM    6  C8  UNL     1      61.645 -31.547  38.037  1.00  0.00     0.000 C 
HETATM    7  C9  UNL     1      60.257 -31.007  38.267  1.00  0.00     0.003 C 
HETATM    8  C10 UNL     1      59.967 -29.824  37.375  1.00  0.00     0.038 C 
HETATM    9  O4  UNL     1      60.571 -29.136  35.137  1.00  0.00    -0.330 OA
HETATM   10  C11 UNL     1      60.118 -29.240  33.827  1.00  0.00     0.143 C 
HETATM   11  S1  UNL     1      60.937 -28.567  32.585  1.00  0.00    -0.055 SA
ENDROOT
BRANCH   1  12
HETATM   12  O3  UNL     1      57.747 -29.288  33.431  1.00  0.00    -0.291 OA
BRANCH  12  13
HETATM   13  C2  UNL     1      56.935 -29.622  32.374  1.00  0.00     0.367 C 
HETATM   14  N1  UNL     1      56.376 -30.918  32.292  1.00  0.00    -0.280 N 
ATOM     15  H1  UNL     1      56.571 -31.613  33.013  1.00  0.00     0.173 HD
HETATM   16  O2  UNL     1      56.730 -28.727  31.513  1.00  0.00    -0.238 OA
BRANCH  14  17
HETATM   17  C1  UNL     1      55.542 -31.237  31.193  1.00  0.00     0.357 C 
HETATM   18  O1  UNL     1      55.608 -32.378  30.623  1.00  0.00    -0.283 OA
ENDBRANCH  14  17
ENDBRANCH  12  13
ENDBRANCH   1  12
TORSDOF 3
ENDMDL
MODEL 2
REMARK VINA RESULT: -7.925652441      3.005      6.248
REMARK  3 active torsions:
REMARK  status: ('A' for Active; 'I' for Inactive)
REMARK    1  A    between atoms: C1_2  and  N1_3 
REMARK       I    between atoms: N1_3  and  C2_5 
REMARK    2  A    between atoms: C2_5  and  O3_7 
REMARK    3  A    between atoms: O3_7  and  C3_8 
ROOT
HETATM    1  C3  UNL     1      60.478 -29.913  35.215  1.00  0.00     0.204 C 
HETATM    2  C4  UNL     1      59.021 -29.868  34.801  1.00  0.00     0.079 C 
HETATM    3  C5  UNL     1      59.060 -29.363  33.400  1.00  0.00     0.071 C 
HETATM    4  C6  UNL     1      59.184 -27.870  33.287  1.00  0.00     0.038 C 
HETATM    5  C7  UNL     1      58.905 -27.515  31.826  1.00  0.00     0.003 C 
HETATM    6  C8  UNL     1      57.412 -27.594  31.634  1.00  0.00     0.000 C 
HETATM    7  C9  UNL     1      56.853 -28.775  32.384  1.00  0.00     0.003 C 
HETATM    8  C10 UNL     1      57.892 -29.855  32.571  1.00  0.00     0.038 C 
HETATM    9  O4  UNL     1      60.283 -29.936  32.919  1.00  0.00    -0.330 OA
HETATM   10  C11 UNL     1      61.214 -29.951  33.951  1.00  0.00     0.143 C 
HETATM   11  S1  UNL     1      62.819 -30.004  33.652  1.00  0.00    -0.055 SA
ENDROOT
BRANCH   1  12
HETATM   12  O3  UNL     1      60.637 -31.061  36.004  1.00  0.00    -0.291 OA
BRANCH  12  13
HETATM   13  C2  UNL     1      60.881 -31.068  37.356  1.00  0.00     0.367 C 
HETATM   14  N1  UNL     1      61.959 -31.821  37.877  1.00  0.00    -0.280 N 
ATOM     15  H1  UNL     1      62.561 -32.363  37.256  1.00  0.00     0.173 HD
HETATM   16  O2  UNL     1      60.108 -30.384  38.075  1.00  0.00    -0.238 OA
BRANCH  14  17
HETATM   17  C1  UNL     1      62.191 -31.811  39.274  1.00  0.00     0.357 C 
HETATM   18  O1  UNL     1      61.513 -32.555  40.061  1.00  0.00    -0.283 OA
ENDBRANCH  14  17
ENDBRANCH  12  13
ENDBRANCH   1  12
TORSDOF 3
ENDMDL
MODEL 3
REMARK VINA RESULT: -7.847464967      2.138      2.850
REMARK  3 active torsions:
REMARK  status: ('A' for Active; 'I' for Inactive)
REMARK    1  A    between atoms: C1_2  and  N1_3 
REMARK       I    between atoms: N1_3  and  C2_5 
REMARK    2  A    between atoms: C2_5  and  O3_7 
REMARK    3  A    between atoms: O3_7  and  C3_8 
ROOT
HETATM    1  C3  UNL     1      57.519 -29.757  32.554  1.00  0.00     0.204 C 
HETATM    2  C4  UNL     1      58.348 -30.236  33.729  1.00  0.00     0.079 C 
HETATM    3  C5  UNL     1      59.594 -29.422  33.646  1.00  0.00     0.071 C 
HETATM    4  C6  UNL     1      60.604 -29.943  32.664  1.00  0.00     0.038 C 
HETATM    5  C7  UNL     1      61.905 -29.184  32.929  1.00  0.00     0.003 C 
HETATM    6  C8  UNL     1      62.519 -29.787  34.166  1.00  0.00     0.000 C 
HETATM    7  C9  UNL     1      61.448 -30.097  35.181  1.00  0.00     0.003 C 
HETATM    8  C10 UNL     1      60.240 -29.209  34.999  1.00  0.00     0.038 C 
HETATM    9  O4  UNL     1      59.095 -28.179  33.135  1.00  0.00    -0.330 OA
HETATM   10  C11 UNL     1      58.065 -28.437  32.238  1.00  0.00     0.143 C 
HETATM   11  S1  UNL     1      57.650 -27.360  31.082  1.00  0.00    -0.055 SA
ENDROOT
BRANCH   1  12
HETATM   12  O3  UNL     1      56.185 -29.735  32.986  1.00  0.00    -0.291 OA
BRANCH  12  13
HETATM   13  C2  UNL     1      55.250 -30.708  32.725  1.00  0.00     0.367 C 
HETATM   14  N1  UNL     1      55.611 -31.857  31.984  1.00  0.00    -0.280 N 
ATOM     15  H1  UNL     1      56.564 -31.973  31.638  1.00  0.00     0.173 HD
HETATM   16  O2  UNL     1      54.091 -30.514  33.174  1.00  0.00    -0.238 OA
BRANCH  14  17
HETATM   17  C1  UNL     1      54.630 -32.845  31.729  1.00  0.00     0.357 C 
HETATM   18  O1  UNL     1      54.805 -34.059  32.085  1.00  0.00    -0.283 OA
ENDBRANCH  14  17
ENDBRANCH  12  13
ENDBRANCH   1  12
TORSDOF 3
ENDMDL
MODEL 4
REMARK VINA RESULT: -7.785553184      2.341      6.020
REMARK  3 active torsions:
REMARK  status: ('A' for Active; 'I' for Inactive)
REMARK    1  A    between atoms: C1_2  and  N1_3 
REMARK       I    between atoms: N1_3  and  C2_5 
REMARK    2  A    between atoms: C2_5  and  O3_7 
REMARK    3  A    between atoms: O3_7  and  C3_8 
ROOT
HETATM    1  C3  UNL     1      59.085 -28.431  33.969  1.00  0.00     0.204 C 
HETATM    2  C4  UNL     1      57.680 -28.884  33.632  1.00  0.00     0.079 C 
HETATM    3  C5  UNL     1      57.751 -29.235  32.185  1.00  0.00     0.071 C 
HETATM    4  C6  UNL     1      57.641 -28.057  31.260  1.00  0.00     0.038 C 
HETATM    5  C7  UNL     1      57.430 -28.621  29.854  1.00  0.00     0.003 C 
HETATM    6  C8  UNL     1      55.990 -29.060  29.770  1.00  0.00     0.000 C 
HETATM    7  C9  UNL     1      55.569 -29.711  31.062  1.00  0.00     0.003 C 
HETATM    8  C10 UNL     1      56.750 -30.302  31.795  1.00  0.00     0.038 C 
HETATM    9  O4  UNL     1      59.086 -29.747  32.077  1.00  0.00    -0.330 OA
HETATM   10  C11 UNL     1      59.919 -29.025  32.923  1.00  0.00     0.143 C 
HETATM   11  S1  UNL     1      61.531 -28.943  32.669  1.00  0.00    -0.055 SA
ENDROOT
BRANCH   1  12
HETATM   12  O3  UNL     1      59.362 -28.905  35.259  1.00  0.00    -0.291 OA
BRANCH  12  13
HETATM   13  C2  UNL     1      59.772 -30.181  35.565  1.00  0.00     0.367 C 
HETATM   14  N1  UNL     1      61.114 -30.422  35.939  1.00  0.00    -0.280 N 
ATOM     15  H1  UNL     1      61.786 -29.656  35.984  1.00  0.00     0.173 HD
HETATM   16  O2  UNL     1      58.903 -31.087  35.491  1.00  0.00    -0.238 OA
BRANCH  14  17
HETATM   17  C1  UNL     1      61.512 -31.745  36.249  1.00  0.00     0.357 C 
HETATM   18  O1  UNL     1      61.888 -32.063  37.428  1.00  0.00    -0.283 OA
ENDBRANCH  14  17
ENDBRANCH  12  13
ENDBRANCH   1  12
TORSDOF 3
ENDMDL
MODEL 5
REMARK VINA RESULT: -7.770598424      1.143      1.406
REMARK  3 active torsions:
REMARK  status: ('A' for Active; 'I' for Inactive)
REMARK    1  A    between atoms: C1_2  and  N1_3 
REMARK       I    between atoms: N1_3  and  C2_5 
REMARK    2  A    between atoms: C2_5  and  O3_7 
REMARK    3  A    between atoms: O3_7  and  C3_8 
ROOT
HETATM    1  C3  UNL     1      58.788 -30.265  34.201  1.00  0.00     0.204 C 
HETATM    2  C4  UNL     1      58.674 -30.665  35.658  1.00  0.00     0.079 C 
HETATM    3  C5  UNL     1      60.029 -30.392  36.215  1.00  0.00     0.071 C 
HETATM    4  C6  UNL     1      61.032 -31.479  35.949  1.00  0.00     0.038 C 
HETATM    5  C7  UNL     1      62.246 -31.181  36.831  1.00  0.00     0.003 C 
HETATM    6  C8  UNL     1      61.882 -31.600  38.232  1.00  0.00     0.000 C 
HETATM    7  C9  UNL     1      60.452 -31.229  38.532  1.00  0.00     0.003 C 
HETATM    8  C10 UNL     1      59.996 -30.059  37.691  1.00  0.00     0.038 C 
HETATM    9  O4  UNL     1      60.427 -29.242  35.457  1.00  0.00    -0.330 OA
HETATM   10  C11 UNL     1      59.936 -29.358  34.163  1.00  0.00     0.143 C 
HETATM   11  S1  UNL     1      60.624 -28.560  32.914  1.00  0.00    -0.055 SA
ENDROOT
BRANCH   1  12
HETATM   12  O3  UNL     1      57.571 -29.662  33.853  1.00  0.00    -0.291 OA
BRANCH  12  13
HETATM   13  C2  UNL     1      56.846 -29.935  32.718  1.00  0.00     0.367 C 
HETATM   14  N1  UNL     1      56.925 -29.071  31.602  1.00  0.00    -0.280 N 
ATOM     15  H1  UNL     1      57.518 -28.241  31.630  1.00  0.00     0.173 HD
HETATM   16  O2  UNL     1      56.131 -30.970  32.739  1.00  0.00    -0.238 OA
BRANCH  14  17
HETATM   17  C1  UNL     1      56.168 -29.374  30.445  1.00  0.00     0.357 C 
HETATM   18  O1  UNL     1      56.216 -28.627  29.410  1.00  0.00    -0.283 OA
ENDBRANCH  14  17
ENDBRANCH  12  13
ENDBRANCH   1  12
TORSDOF 3
ENDMDL
