MODEL 1
REMARK VINA RESULT: -8.189132086      0.000      0.000
REMARK  10 active torsions:
REMARK  status: ('A' for Active; 'I' for Inactive)
REMARK    1  A    between atoms: O1_2  and  C2_3 
REMARK    2  A    between atoms: C2_3  and  C3_5 
REMARK    3  A    between atoms: C3_5  and  N1_6 
REMARK    4  A    between atoms: N1_6  and  C4_8 
REMARK    5  A    between atoms: C5_11  and  N3_12 
REMARK    6  A    between atoms: N5_20  and  C8_21 
REMARK    7  A    between atoms: C8_21  and  C9_22 
REMARK    8  A    between atoms: C9_22  and  C10_23 
REMARK    9  A    between atoms: C10_23  and  O4_24 
REMARK   10  A    between atoms: O4_24  and  S1_25 
ROOT
HETATM    1  C4  UNL     1      14.663  41.952 203.151  1.00  0.00     0.681 A 
HETATM    2  N2  UNL     1      13.381  41.595 203.402  1.00  0.00    -0.175 N 
ATOM      3  H2  UNL     1      12.801  42.218 203.965  1.00  0.00     0.186 HD
HETATM    4  C5  UNL     1      12.841  40.456 202.942  1.00  0.00     0.145 A 
HETATM    5  C6  UNL     1      13.659  39.638 202.180  1.00  0.00     0.126 A 
HETATM    6  N4  UNL     1      13.458  38.451 201.570  1.00  0.00    -0.302 N 
ATOM      7  H4  UNL     1      12.587  37.921 201.577  1.00  0.00     0.171 HD
HETATM    8  C7  UNL     1      14.593  38.080 200.953  1.00  0.00     0.328 A 
HETATM    9  O3  UNL     1      14.799  37.040 200.282  1.00  0.00    -0.246 OA
HETATM   10  N5  UNL     1      15.519  39.015 201.160  1.00  0.00    -0.283 N 
HETATM   11  C11 UNL     1      14.975  40.010 201.926  1.00  0.00     0.158 A 
HETATM   12  N6  UNL     1      15.438  41.164 202.423  1.00  0.00    -0.174 N 
ATOM     13  H6  UNL     1      16.402  41.440 202.239  1.00  0.00     0.186 HD
ENDROOT
BRANCH  10  14
HETATM   14  C8  UNL     1      16.863  39.062 200.717  1.00  0.00     0.137 C 
BRANCH  14  15
HETATM   15  C9  UNL     1      17.130  39.011 199.265  1.00  0.00     0.048 C 
BRANCH  15  16
HETATM   16  C10 UNL     1      18.575  38.782 198.883  1.00  0.00     0.194 C 
BRANCH  16  17
HETATM   17  O4  UNL     1      18.621  37.877 197.828  1.00  0.00    -0.257 OA
BRANCH  17  18
HETATM   18  S1  UNL     1      18.950  38.578 196.370  1.00  0.00     0.251 S 
HETATM   19  O5  UNL     1      19.364  40.015 196.631  1.00  0.00    -0.572 OA
HETATM   20  O6  UNL     1      20.064  37.932 195.623  1.00  0.00    -0.572 OA
HETATM   21  O7  UNL     1      17.618  38.635 195.353  1.00  0.00    -0.572 OA
ENDBRANCH  17  18
ENDBRANCH  16  17
ENDBRANCH  15  16
ENDBRANCH  14  15
ENDBRANCH  10  14
BRANCH   4  22
HETATM   22  N3  UNL     1      11.629  40.085 203.160  1.00  0.00    -0.383 N 
ATOM     23  H32 UNL     1      11.182  40.362 204.034  1.00  0.00     0.157 HD
ATOM     24  H31 UNL     1      11.072  39.526 202.514  1.00  0.00     0.157 HD
ENDBRANCH   4  22
BRANCH   1  25
HETATM   25  N1  UNL     1      15.158  43.071 203.617  1.00  0.00    -0.217 N 
ATOM     26  H1  UNL     1      16.156  43.102 203.830  1.00  0.00     0.178 HD
BRANCH  25  27
HETATM   27  C3  UNL     1      14.388  44.248 203.846  1.00  0.00     0.249 C 
BRANCH  27  28
HETATM   28  C2  UNL     1      15.184  45.329 204.497  1.00  0.00     0.276 C 
HETATM   29  O2  UNL     1      16.427  45.200 204.641  1.00  0.00    -0.263 OA
BRANCH  28  30
HETATM   30  O1  UNL     1      14.613  46.496 204.962  1.00  0.00    -0.325 OA
HETATM   31  C1  UNL     1      13.212  46.656 205.097  1.00  0.00     0.213 C 
ENDBRANCH  28  30
ENDBRANCH  27  28
ENDBRANCH  25  27
ENDBRANCH   1  25
TORSDOF 10
ENDMDL
MODEL 2
REMARK VINA RESULT: -8.073412886      4.793      8.187
REMARK  10 active torsions:
REMARK  status: ('A' for Active; 'I' for Inactive)
REMARK    1  A    between atoms: O1_2  and  C2_3 
REMARK    2  A    between atoms: C2_3  and  C3_5 
REMARK    3  A    between atoms: C3_5  and  N1_6 
REMARK    4  A    between atoms: N1_6  and  C4_8 
REMARK    5  A    between atoms: C5_11  and  N3_12 
REMARK    6  A    between atoms: N5_20  and  C8_21 
REMARK    7  A    between atoms: C8_21  and  C9_22 
REMARK    8  A    between atoms: C9_22  and  C10_23 
REMARK    9  A    between atoms: C10_23  and  O4_24 
REMARK   10  A    between atoms: O4_24  and  S1_25 
ROOT
HETATM    1  C4  UNL     1      16.451  39.313 198.474  1.00  0.00     0.681 A 
HETATM    2  N2  UNL     1      16.832  39.725 199.707  1.00  0.00    -0.175 N 
ATOM      3  H2  UNL     1      17.699  40.255 199.799  1.00  0.00     0.186 HD
HETATM    4  C5  UNL     1      16.116  39.467 200.812  1.00  0.00     0.145 A 
HETATM    5  C6  UNL     1      14.945  38.746 200.645  1.00  0.00     0.126 A 
HETATM    6  N4  UNL     1      14.001  38.316 201.508  1.00  0.00    -0.302 N 
ATOM      7  H4  UNL     1      14.005  38.470 202.517  1.00  0.00     0.171 HD
HETATM    8  C7  UNL     1      13.054  37.651 200.824  1.00  0.00     0.328 A 
HETATM    9  O3  UNL     1      12.019  37.105 201.276  1.00  0.00    -0.246 OA
HETATM   10  N5  UNL     1      13.380  37.649 199.532  1.00  0.00    -0.283 N 
HETATM   11  C11 UNL     1      14.559  38.325 199.376  1.00  0.00     0.158 A 
HETATM   12  N6  UNL     1      15.331  38.624 198.324  1.00  0.00    -0.174 N 
ATOM     13  H6  UNL     1      15.052  38.317 197.392  1.00  0.00     0.186 HD
ENDROOT
BRANCH  10  14
HETATM   14  C8  UNL     1      12.699  37.071 198.435  1.00  0.00     0.137 C 
BRANCH  14  15
HETATM   15  C9  UNL     1      12.000  37.963 197.487  1.00  0.00     0.048 C 
BRANCH  15  16
HETATM   16  C10 UNL     1      10.878  38.784 198.081  1.00  0.00     0.194 C 
BRANCH  16  17
HETATM   17  O4  UNL     1       9.992  37.930 198.730  1.00  0.00    -0.257 OA
BRANCH  17  18
HETATM   18  S1  UNL     1       8.797  38.719 199.552  1.00  0.00     0.251 S 
HETATM   19  O5  UNL     1       8.510  40.016 198.817  1.00  0.00    -0.572 OA
HETATM   20  O6  UNL     1       7.514  37.967 199.628  1.00  0.00    -0.572 OA
HETATM   21  O7  UNL     1       9.239  39.135 201.115  1.00  0.00    -0.572 OA
ENDBRANCH  17  18
ENDBRANCH  16  17
ENDBRANCH  15  16
ENDBRANCH  14  15
ENDBRANCH  10  14
BRANCH   4  22
HETATM   22  N3  UNL     1      16.445  39.842 201.997  1.00  0.00    -0.383 N 
ATOM     23  H32 UNL     1      17.026  40.674 202.103  1.00  0.00     0.157 HD
ATOM     24  H31 UNL     1      16.166  39.362 202.852  1.00  0.00     0.157 HD
ENDBRANCH   4  22
BRANCH   1  25
HETATM   25  N1  UNL     1      17.175  39.583 197.417  1.00  0.00    -0.217 N 
ATOM     26  H1  UNL     1      16.695  39.905 196.576  1.00  0.00     0.178 HD
BRANCH  25  27
HETATM   27  C3  UNL     1      18.594  39.454 197.369  1.00  0.00     0.249 C 
BRANCH  27  28
HETATM   28  C2  UNL     1      19.027  38.231 196.630  1.00  0.00     0.276 C 
HETATM   29  O2  UNL     1      18.730  37.090 197.067  1.00  0.00    -0.263 OA
BRANCH  28  30
HETATM   30  O1  UNL     1      19.755  38.289 195.460  1.00  0.00    -0.325 OA
HETATM   31  C1  UNL     1      21.115  37.896 195.390  1.00  0.00     0.213 C 
ENDBRANCH  28  30
ENDBRANCH  27  28
ENDBRANCH  25  27
ENDBRANCH   1  25
TORSDOF 10
ENDMDL
MODEL 3
REMARK VINA RESULT: -7.890819534      5.554     10.820
REMARK  10 active torsions:
REMARK  status: ('A' for Active; 'I' for Inactive)
REMARK    1  A    between atoms: O1_2  and  C2_3 
REMARK    2  A    between atoms: C2_3  and  C3_5 
REMARK    3  A    between atoms: C3_5  and  N1_6 
REMARK    4  A    between atoms: N1_6  and  C4_8 
REMARK    5  A    between atoms: C5_11  and  N3_12 
REMARK    6  A    between atoms: N5_20  and  C8_21 
REMARK    7  A    between atoms: C8_21  and  C9_22 
REMARK    8  A    between atoms: C9_22  and  C10_23 
REMARK    9  A    between atoms: C10_23  and  O4_24 
REMARK   10  A    between atoms: O4_24  and  S1_25 
ROOT
HETATM    1  C4  UNL     1      14.564  43.664 203.609  1.00  0.00     0.681 A 
HETATM    2  N2  UNL     1      15.522  44.489 204.095  1.00  0.00    -0.175 N 
ATOM      3  H2  UNL     1      16.501  44.234 203.962  1.00  0.00     0.186 HD
HETATM    4  C5  UNL     1      15.237  45.630 204.742  1.00  0.00     0.145 A 
HETATM    5  C6  UNL     1      13.898  45.943 204.900  1.00  0.00     0.126 A 
HETATM    6  N4  UNL     1      13.260  46.980 205.482  1.00  0.00    -0.302 N 
ATOM      7  H4  UNL     1      13.711  47.771 205.941  1.00  0.00     0.171 HD
HETATM    8  C7  UNL     1      11.933  46.801 205.359  1.00  0.00     0.328 A 
HETATM    9  O3  UNL     1      11.015  47.550 205.772  1.00  0.00    -0.246 OA
HETATM   10  N5  UNL     1      11.713  45.661 204.706  1.00  0.00    -0.283 N 
HETATM   11  C11 UNL     1      12.918  45.091 204.399  1.00  0.00     0.158 A 
HETATM   12  N6  UNL     1      13.286  43.970 203.765  1.00  0.00    -0.174 N 
ATOM     13  H6  UNL     1      12.571  43.344 203.396  1.00  0.00     0.186 HD
ENDROOT
BRANCH  10  14
HETATM   14  C8  UNL     1      10.486  45.054 204.347  1.00  0.00     0.137 C 
BRANCH  14  15
HETATM   15  C9  UNL     1       9.605  44.552 205.421  1.00  0.00     0.048 C 
BRANCH  15  16
HETATM   16  C10 UNL     1       8.304  45.302 205.593  1.00  0.00     0.194 C 
BRANCH  16  17
HETATM   17  O4  UNL     1       7.982  45.337 206.946  1.00  0.00    -0.257 OA
BRANCH  17  18
HETATM   18  S1  UNL     1       6.813  46.443 207.318  1.00  0.00     0.251 S 
HETATM   19  O5  UNL     1       6.748  47.447 206.181  1.00  0.00    -0.572 OA
HETATM   20  O6  UNL     1       5.451  45.860 207.465  1.00  0.00    -0.572 OA
HETATM   21  O7  UNL     1       7.151  47.311 208.712  1.00  0.00    -0.572 OA
ENDBRANCH  17  18
ENDBRANCH  16  17
ENDBRANCH  15  16
ENDBRANCH  14  15
ENDBRANCH  10  14
BRANCH   4  22
HETATM   22  N3  UNL     1      16.119  46.437 205.216  1.00  0.00    -0.383 N 
ATOM     23  H32 UNL     1      16.856  46.775 204.597  1.00  0.00     0.157 HD
ATOM     24  H31 UNL     1      16.138  46.770 206.179  1.00  0.00     0.157 HD
ENDBRANCH   4  22
BRANCH   1  25
HETATM   25  N1  UNL     1      14.877  42.558 202.982  1.00  0.00    -0.217 N 
ATOM     26  H1  UNL     1      15.722  42.065 203.273  1.00  0.00     0.178 HD
BRANCH  25  27
HETATM   27  C3  UNL     1      14.110  42.000 201.918  1.00  0.00     0.249 C 
BRANCH  27  28
HETATM   28  C2  UNL     1      14.772  40.811 201.306  1.00  0.00     0.276 C 
HETATM   29  O2  UNL     1      14.259  40.246 200.306  1.00  0.00    -0.263 OA
BRANCH  28  30
HETATM   30  O1  UNL     1      15.951  40.284 201.791  1.00  0.00    -0.325 OA
HETATM   31  C1  UNL     1      16.722  39.345 201.062  1.00  0.00     0.213 C 
ENDBRANCH  28  30
ENDBRANCH  27  28
ENDBRANCH  25  27
ENDBRANCH   1  25
TORSDOF 10
ENDMDL
MODEL 4
REMARK VINA RESULT: -7.789102947      1.109      1.561
REMARK  10 active torsions:
REMARK  status: ('A' for Active; 'I' for Inactive)
REMARK    1  A    between atoms: O1_2  and  C2_3 
REMARK    2  A    between atoms: C2_3  and  C3_5 
REMARK    3  A    between atoms: C3_5  and  N1_6 
REMARK    4  A    between atoms: N1_6  and  C4_8 
REMARK    5  A    between atoms: C5_11  and  N3_12 
REMARK    6  A    between atoms: N5_20  and  C8_21 
REMARK    7  A    between atoms: C8_21  and  C9_22 
REMARK    8  A    between atoms: C9_22  and  C10_23 
REMARK    9  A    between atoms: C10_23  and  O4_24 
REMARK   10  A    between atoms: O4_24  and  S1_25 
ROOT
HETATM    1  C4  UNL     1      13.888  41.809 202.223  1.00  0.00     0.681 A 
HETATM    2  N2  UNL     1      12.836  41.275 202.890  1.00  0.00    -0.175 N 
ATOM      3  H2  UNL     1      12.331  41.861 203.555  1.00  0.00     0.186 HD
HETATM    4  C5  UNL     1      12.431  40.008 202.711  1.00  0.00     0.145 A 
HETATM    5  C6  UNL     1      13.141  39.246 201.799  1.00  0.00     0.126 A 
HETATM    6  N4  UNL     1      13.020  37.970 201.377  1.00  0.00    -0.302 N 
ATOM      7  H4  UNL     1      12.317  37.304 201.696  1.00  0.00     0.171 HD
HETATM    8  C7  UNL     1      13.976  37.718 200.466  1.00  0.00     0.328 A 
HETATM    9  O3  UNL     1      14.187  36.647 199.848  1.00  0.00    -0.246 OA
HETATM   10  N5  UNL     1      14.710  38.818 200.300  1.00  0.00    -0.283 N 
HETATM   11  C11 UNL     1      14.221  39.800 201.117  1.00  0.00     0.158 A 
HETATM   12  N6  UNL     1      14.561  41.074 201.353  1.00  0.00    -0.174 N 
ATOM     13  H6  UNL     1      15.352  41.483 200.856  1.00  0.00     0.186 HD
ENDROOT
BRANCH  10  14
HETATM   14  C8  UNL     1      15.826  39.034 199.457  1.00  0.00     0.137 C 
BRANCH  14  15
HETATM   15  C9  UNL     1      17.153  38.564 199.905  1.00  0.00     0.048 C 
BRANCH  15  16
HETATM   16  C10 UNL     1      18.299  38.879 198.970  1.00  0.00     0.194 C 
BRANCH  16  17
HETATM   17  O4  UNL     1      18.344  37.909 197.974  1.00  0.00    -0.257 OA
BRANCH  17  18
HETATM   18  S1  UNL     1      18.840  38.489 196.510  1.00  0.00     0.251 S 
HETATM   19  O5  UNL     1      19.958  37.591 196.012  1.00  0.00    -0.572 OA
HETATM   20  O6  UNL     1      17.779  38.486 195.465  1.00  0.00    -0.572 OA
HETATM   21  O7  UNL     1      19.468  40.042 196.597  1.00  0.00    -0.572 OA
ENDBRANCH  17  18
ENDBRANCH  16  17
ENDBRANCH  15  16
ENDBRANCH  14  15
ENDBRANCH  10  14
BRANCH   4  22
HETATM   22  N3  UNL     1      11.439  39.468 203.325  1.00  0.00    -0.383 N 
ATOM     23  H32 UNL     1      10.588  40.016 203.457  1.00  0.00     0.157 HD
ATOM     24  H31 UNL     1      11.438  38.519 203.697  1.00  0.00     0.157 HD
ENDBRANCH   4  22
BRANCH   1  25
HETATM   25  N1  UNL     1      14.257  43.049 202.423  1.00  0.00    -0.217 N 
ATOM     26  H1  UNL     1      14.432  43.635 201.606  1.00  0.00     0.178 HD
BRANCH  25  27
HETATM   27  C3  UNL     1      14.427  43.631 203.712  1.00  0.00     0.249 C 
BRANCH  27  28
HETATM   28  C2  UNL     1      13.362  44.627 204.030  1.00  0.00     0.276 C 
HETATM   29  O2  UNL     1      12.223  44.524 203.507  1.00  0.00    -0.263 OA
BRANCH  28  30
HETATM   30  O1  UNL     1      13.566  45.685 204.892  1.00  0.00    -0.325 OA
HETATM   31  C1  UNL     1      12.627  46.736 205.043  1.00  0.00     0.213 C 
ENDBRANCH  28  30
ENDBRANCH  27  28
ENDBRANCH  25  27
ENDBRANCH   1  25
TORSDOF 10
ENDMDL
MODEL 5
REMARK VINA RESULT: -7.738870000      3.008      8.050
REMARK  10 active torsions:
REMARK  status: ('A' for Active; 'I' for Inactive)
REMARK    1  A    between atoms: O1_2  and  C2_3 
REMARK    2  A    between atoms: C2_3  and  C3_5 
REMARK    3  A    between atoms: C3_5  and  N1_6 
REMARK    4  A    between atoms: N1_6  and  C4_8 
REMARK    5  A    between atoms: C5_11  and  N3_12 
REMARK    6  A    between atoms: N5_20  and  C8_21 
REMARK    7  A    between atoms: C8_21  and  C9_22 
REMARK    8  A    between atoms: C9_22  and  C10_23 
REMARK    9  A    between atoms: C10_23  and  O4_24 
REMARK   10  A    between atoms: O4_24  and  S1_25 
ROOT
HETATM    1  C4  UNL     1      16.234  39.541 198.679  1.00  0.00     0.681 A 
HETATM    2  N2  UNL     1      15.421  38.556 198.225  1.00  0.00    -0.175 N 
ATOM      3  H2  UNL     1      15.682  38.061 197.372  1.00  0.00     0.186 HD
HETATM    4  C5  UNL     1      14.288  38.205 198.851  1.00  0.00     0.145 A 
HETATM    5  C6  UNL     1      13.969  38.899 200.006  1.00  0.00     0.126 A 
HETATM    6  N4  UNL     1      12.936  38.817 200.871  1.00  0.00    -0.302 N 
ATOM      7  H4  UNL     1      12.154  38.167 200.800  1.00  0.00     0.171 HD
HETATM    8  C7  UNL     1      13.105  39.731 201.842  1.00  0.00     0.328 A 
HETATM    9  O3  UNL     1      12.358  39.959 202.823  1.00  0.00    -0.246 OA
HETATM   10  N5  UNL     1      14.234  40.400 201.609  1.00  0.00    -0.283 N 
HETATM   11  C11 UNL     1      14.807  39.909 200.467  1.00  0.00     0.158 A 
HETATM   12  N6  UNL     1      15.921  40.199 199.783  1.00  0.00    -0.174 N 
ATOM     13  H6  UNL     1      16.538  40.939 200.117  1.00  0.00     0.186 HD
ENDROOT
BRANCH  10  14
HETATM   14  C8  UNL     1      14.823  41.454 202.347  1.00  0.00     0.137 C 
BRANCH  14  15
HETATM   15  C9  UNL     1      14.166  42.777 202.337  1.00  0.00     0.048 C 
BRANCH  15  16
HETATM   16  C10 UNL     1      13.786  43.319 203.696  1.00  0.00     0.194 C 
BRANCH  16  17
HETATM   17  O4  UNL     1      13.856  44.708 203.660  1.00  0.00    -0.257 OA
BRANCH  17  18
HETATM   18  S1  UNL     1      15.265  45.315 204.270  1.00  0.00     0.251 S 
HETATM   19  O5  UNL     1      16.077  44.148 204.804  1.00  0.00    -0.572 OA
HETATM   20  O6  UNL     1      16.112  46.011 203.262  1.00  0.00    -0.572 OA
HETATM   21  O7  UNL     1      15.027  46.367 205.553  1.00  0.00    -0.572 OA
ENDBRANCH  17  18
ENDBRANCH  16  17
ENDBRANCH  15  16
ENDBRANCH  14  15
ENDBRANCH  10  14
BRANCH   4  22
HETATM   22  N3  UNL     1      13.493  37.276 198.450  1.00  0.00    -0.383 N 
ATOM     23  H32 UNL     1      13.724  36.769 197.596  1.00  0.00     0.157 HD
ATOM     24  H31 UNL     1      12.635  37.005 198.929  1.00  0.00     0.157 HD
ENDBRANCH   4  22
BRANCH   1  25
HETATM   25  N1  UNL     1      17.333  39.859 198.042  1.00  0.00    -0.217 N 
ATOM     26  H1  UNL     1      17.281  40.587 197.330  1.00  0.00     0.178 HD
BRANCH  25  27
HETATM   27  C3  UNL     1      18.598  39.248 198.283  1.00  0.00     0.249 C 
BRANCH  27  28
HETATM   28  C2  UNL     1      19.078  38.457 197.112  1.00  0.00     0.276 C 
HETATM   29  O2  UNL     1      18.637  37.296 196.909  1.00  0.00    -0.263 OA
BRANCH  28  30
HETATM   30  O1  UNL     1      20.005  38.945 196.214  1.00  0.00    -0.325 OA
HETATM   31  C1  UNL     1      21.034  39.841 196.595  1.00  0.00     0.213 C 
ENDBRANCH  28  30
ENDBRANCH  27  28
ENDBRANCH  25  27
ENDBRANCH   1  25
TORSDOF 10
ENDMDL
