MODEL 1
REMARK VINA RESULT: -8.747413152      0.000      0.000
REMARK  11 active torsions:
REMARK  status: ('A' for Active; 'I' for Inactive)
REMARK    1  A    between atoms: O1_2  and  C2_3 
REMARK    2  A    between atoms: C2_3  and  C3_5 
REMARK    3  A    between atoms: C3_5  and  C4_6 
REMARK    4  A    between atoms: C3_5  and  C14_31 
REMARK    5  A    between atoms: C6_13  and  S1_14 
REMARK    6  A    between atoms: S1_14  and  C7_15 
REMARK    7  A    between atoms: C9_17  and  O3_18 
REMARK    8  A    between atoms: C11_22  and  O4_23 
REMARK    9  A    between atoms: N5_28  and  O5_29 
REMARK   10  A    between atoms: C14_31  and  O6_32 
REMARK   11  A    between atoms: C14_31  and  O7_34 
ROOT
HETATM    1  C4  UNL     1      17.151  39.720 198.505  1.00  0.00     0.129 A 
HETATM    2  N1  UNL     1      16.225  40.719 198.600  1.00  0.00    -0.329 N 
ATOM      3  H1  UNL     1      16.124  41.352 197.807  1.00  0.00     0.168 HD
HETATM    4  C5  UNL     1      15.447  40.922 199.659  1.00  0.00     0.119 A 
HETATM    5  N2  UNL     1      14.579  41.882 199.712  1.00  0.00    -0.384 N 
ATOM      6  H21 UNL     1      13.981  42.037 200.524  1.00  0.00     0.157 HD
ATOM      7  H22 UNL     1      14.489  42.506 198.910  1.00  0.00     0.157 HD
HETATM    8  C6  UNL     1      15.568  40.079 200.743  1.00  0.00     0.068 A 
HETATM    9  C13 UNL     1      16.488  39.060 200.690  1.00  0.00     0.147 A 
HETATM   10  N5  UNL     1      17.260  38.909 199.561  1.00  0.00    -0.221 N 
ENDROOT
BRANCH   8  11
HETATM   11  S1  UNL     1      14.542  40.295 202.214  1.00  0.00    -0.067 SA
BRANCH  11  12
HETATM   12  C7  UNL     1      14.357  41.755 202.912  1.00  0.00     0.082 A 
HETATM   13  C8  UNL     1      13.087  42.276 203.002  1.00  0.00     0.093 A 
HETATM   14  C9  UNL     1      12.853  43.525 203.590  1.00  0.00     0.147 A 
HETATM   15  N3  UNL     1      13.943  44.164 204.050  1.00  0.00    -0.302 N 
HETATM   16  C11 UNL     1      15.185  43.691 203.979  1.00  0.00     0.225 A 
ATOM     17  H3  UNL     1      13.808  45.077 204.484  1.00  0.00     0.171 HD
HETATM   18  N4  UNL     1      15.364  42.476 203.401  1.00  0.00    -0.316 N 
ATOM     19  H4  UNL     1      16.310  42.099 203.338  1.00  0.00     0.170 HD
BRANCH  14  20
HETATM   20  O3  UNL     1      11.566  44.053 203.681  1.00  0.00    -0.341 OA
HETATM   21  C10 UNL     1      11.412  45.231 204.436  1.00  0.00     0.211 C 
ENDBRANCH  14  20
BRANCH  16  22
HETATM   22  O4  UNL     1      16.231  44.426 204.480  1.00  0.00    -0.327 OA
HETATM   23  C12 UNL     1      16.055  45.771 204.822  1.00  0.00     0.213 C 
ENDBRANCH  16  22
ENDBRANCH  11  12
ENDBRANCH   8  11
BRANCH  10  24
HETATM   24  O5  UNL     1      18.157  37.892 199.552  1.00  0.00    -0.282 OA
ATOM     25  H5  UNL     1      18.736  37.758 200.293  1.00  0.00     0.245 HD
ENDBRANCH  10  24
BRANCH   1  26
HETATM   26  C3  UNL     1      17.935  39.621 197.285  1.00  0.00     0.210 C 
BRANCH  26  27
HETATM   27  C2  UNL     1      19.356  39.927 197.338  1.00  0.00     0.275 C 
HETATM   28  O2  UNL     1      20.116  39.125 198.009  1.00  0.00    -0.264 OA
BRANCH  27  29
HETATM   29  O1  UNL     1      20.028  40.983 196.760  1.00  0.00    -0.326 OA
HETATM   30  C1  UNL     1      21.427  40.968 196.555  1.00  0.00     0.213 C 
ENDBRANCH  27  29
ENDBRANCH  26  27
BRANCH  26  31
HETATM   31  C14 UNL     1      17.595  38.327 196.559  1.00  0.00     0.275 C 
BRANCH  31  32
HETATM   32  O6  UNL     1      17.438  38.607 195.179  1.00  0.00    -0.370 OA
ATOM     33  H6  UNL     1      18.103  38.133 194.694  1.00  0.00     0.212 HD
ENDBRANCH  31  32
BRANCH  31  34
HETATM   34  O7  UNL     1      18.519  37.344 196.760  1.00  0.00    -0.370 OA
ATOM     35  H7  UNL     1      18.531  37.021 197.653  1.00  0.00     0.212 HD
ENDBRANCH  31  34
ENDBRANCH  26  31
ENDBRANCH   1  26
TORSDOF 11
ENDMDL
MODEL 2
REMARK VINA RESULT: -8.543123205      4.550      6.407
REMARK  11 active torsions:
REMARK  status: ('A' for Active; 'I' for Inactive)
REMARK    1  A    between atoms: O1_2  and  C2_3 
REMARK    2  A    between atoms: C2_3  and  C3_5 
REMARK    3  A    between atoms: C3_5  and  C4_6 
REMARK    4  A    between atoms: C3_5  and  C14_31 
REMARK    5  A    between atoms: C6_13  and  S1_14 
REMARK    6  A    between atoms: S1_14  and  C7_15 
REMARK    7  A    between atoms: C9_17  and  O3_18 
REMARK    8  A    between atoms: C11_22  and  O4_23 
REMARK    9  A    between atoms: N5_28  and  O5_29 
REMARK   10  A    between atoms: C14_31  and  O6_32 
REMARK   11  A    between atoms: C14_31  and  O7_34 
ROOT
HETATM    1  C4  UNL     1      18.547  39.218 197.780  1.00  0.00     0.129 A 
HETATM    2  N1  UNL     1      18.364  39.359 199.126  1.00  0.00    -0.329 N 
ATOM      3  H1  UNL     1      19.182  39.561 199.699  1.00  0.00     0.168 HD
HETATM    4  C5  UNL     1      17.188  39.252 199.738  1.00  0.00     0.119 A 
HETATM    5  N2  UNL     1      17.054  39.393 201.018  1.00  0.00    -0.384 N 
ATOM      6  H21 UNL     1      16.152  39.311 201.487  1.00  0.00     0.157 HD
ATOM      7  H22 UNL     1      17.882  39.595 201.578  1.00  0.00     0.157 HD
HETATM    8  C6  UNL     1      16.069  38.979 198.981  1.00  0.00     0.068 A 
HETATM    9  C13 UNL     1      16.208  38.828 197.622  1.00  0.00     0.147 A 
HETATM   10  N5  UNL     1      17.455  38.954 197.057  1.00  0.00    -0.221 N 
ENDROOT
BRANCH   8  11
HETATM   11  S1  UNL     1      14.440  38.820 199.746  1.00  0.00    -0.067 SA
BRANCH  11  12
HETATM   12  C7  UNL     1      13.170  38.223 198.921  1.00  0.00     0.082 A 
HETATM   13  C8  UNL     1      13.191  36.894 198.566  1.00  0.00     0.093 A 
HETATM   14  C9  UNL     1      12.133  36.313 197.856  1.00  0.00     0.147 A 
HETATM   15  N3  UNL     1      11.115  37.137 197.554  1.00  0.00    -0.302 N 
HETATM   16  C11 UNL     1      11.061  38.426 197.880  1.00  0.00     0.225 A 
ATOM     17  H3  UNL     1      10.327  36.746 197.037  1.00  0.00     0.171 HD
HETATM   18  N4  UNL     1      12.109  38.946 198.568  1.00  0.00    -0.316 N 
ATOM     19  H4  UNL     1      12.083  39.933 198.825  1.00  0.00     0.170 HD
BRANCH  14  20
HETATM   20  O3  UNL     1      12.155  34.966 197.497  1.00  0.00    -0.341 OA
HETATM   21  C10 UNL     1      11.564  34.624 196.267  1.00  0.00     0.211 C 
ENDBRANCH  14  20
BRANCH  16  22
HETATM   22  O4  UNL     1       9.972  39.182 197.521  1.00  0.00    -0.327 OA
HETATM   23  C12 UNL     1       8.918  39.381 198.419  1.00  0.00     0.213 C 
ENDBRANCH  16  22
ENDBRANCH  11  12
ENDBRANCH   8  11
BRANCH  10  24
HETATM   24  O5  UNL     1      17.549  38.795 195.713  1.00  0.00    -0.282 OA
ATOM     25  H5  UNL     1      17.694  39.548 195.152  1.00  0.00     0.245 HD
ENDBRANCH  10  24
BRANCH   1  26
HETATM   26  C3  UNL     1      19.893  39.360 197.249  1.00  0.00     0.210 C 
BRANCH  26  27
HETATM   27  C2  UNL     1      20.406  38.333 196.356  1.00  0.00     0.275 C 
HETATM   28  O2  UNL     1      20.000  37.121 196.544  1.00  0.00    -0.264 OA
BRANCH  27  29
HETATM   29  O1  UNL     1      21.292  38.471 195.309  1.00  0.00    -0.326 OA
HETATM   30  C1  UNL     1      21.692  37.378 194.507  1.00  0.00     0.213 C 
ENDBRANCH  27  29
ENDBRANCH  26  27
BRANCH  26  31
HETATM   31  C14 UNL     1      20.104  40.786 196.760  1.00  0.00     0.275 C 
BRANCH  31  32
HETATM   32  O6  UNL     1      19.129  41.621 197.357  1.00  0.00    -0.370 OA
ATOM     33  H6  UNL     1      19.495  42.491 197.462  1.00  0.00     0.212 HD
ENDBRANCH  31  32
BRANCH  31  34
HETATM   34  O7  UNL     1      21.364  41.251 196.999  1.00  0.00    -0.370 OA
ATOM     35  H7  UNL     1      21.401  42.196 197.086  1.00  0.00     0.212 HD
ENDBRANCH  31  34
ENDBRANCH  26  31
ENDBRANCH   1  26
TORSDOF 11
ENDMDL
MODEL 3
REMARK VINA RESULT: -8.238209843      4.469      6.306
REMARK  11 active torsions:
REMARK  status: ('A' for Active; 'I' for Inactive)
REMARK    1  A    between atoms: O1_2  and  C2_3 
REMARK    2  A    between atoms: C2_3  and  C3_5 
REMARK    3  A    between atoms: C3_5  and  C4_6 
REMARK    4  A    between atoms: C3_5  and  C14_31 
REMARK    5  A    between atoms: C6_13  and  S1_14 
REMARK    6  A    between atoms: S1_14  and  C7_15 
REMARK    7  A    between atoms: C9_17  and  O3_18 
REMARK    8  A    between atoms: C11_22  and  O4_23 
REMARK    9  A    between atoms: N5_28  and  O5_29 
REMARK   10  A    between atoms: C14_31  and  O6_32 
REMARK   11  A    between atoms: C14_31  and  O7_34 
ROOT
HETATM    1  C4  UNL     1      18.555  39.207 197.804  1.00  0.00     0.129 A 
HETATM    2  N1  UNL     1      18.400  39.348 199.154  1.00  0.00    -0.329 N 
ATOM      3  H1  UNL     1      19.231  39.547 199.710  1.00  0.00     0.168 HD
HETATM    4  C5  UNL     1      17.237  39.241 199.791  1.00  0.00     0.119 A 
HETATM    5  N2  UNL     1      17.130  39.382 201.073  1.00  0.00    -0.384 N 
ATOM      6  H21 UNL     1      16.239  39.301 201.561  1.00  0.00     0.157 HD
ATOM      7  H22 UNL     1      17.971  39.582 201.617  1.00  0.00     0.157 HD
HETATM    8  C6  UNL     1      16.102  38.971 199.057  1.00  0.00     0.068 A 
HETATM    9  C13 UNL     1      16.212  38.822 197.696  1.00  0.00     0.147 A 
HETATM   10  N5  UNL     1      17.448  38.945 197.104  1.00  0.00    -0.221 N 
ENDROOT
BRANCH   8  11
HETATM   11  S1  UNL     1      14.490  38.815 199.856  1.00  0.00    -0.067 SA
BRANCH  11  12
HETATM   12  C7  UNL     1      13.243  38.076 199.114  1.00  0.00     0.082 A 
HETATM   13  C8  UNL     1      12.038  38.737 199.053  1.00  0.00     0.093 A 
HETATM   14  C9  UNL     1      10.923  38.163 198.431  1.00  0.00     0.147 A 
HETATM   15  N3  UNL     1      11.116  36.940 197.907  1.00  0.00    -0.302 N 
HETATM   16  C11 UNL     1      12.266  36.271 197.947  1.00  0.00     0.225 A 
ATOM     17  H3  UNL     1      10.324  36.493 197.445  1.00  0.00     0.171 HD
HETATM   18  N4  UNL     1      13.320  36.867 198.561  1.00  0.00    -0.316 N 
ATOM     19  H4  UNL     1      14.208  36.367 198.601  1.00  0.00     0.170 HD
BRANCH  14  20
HETATM   20  O3  UNL     1       9.702  38.833 198.370  1.00  0.00    -0.341 OA
HETATM   21  C10 UNL     1       8.779  38.392 197.403  1.00  0.00     0.211 C 
ENDBRANCH  14  20
BRANCH  16  22
HETATM   22  O4  UNL     1      12.357  35.024 197.380  1.00  0.00    -0.327 OA
HETATM   23  C12 UNL     1      11.601  34.701 196.248  1.00  0.00     0.213 C 
ENDBRANCH  16  22
ENDBRANCH  11  12
ENDBRANCH   8  11
BRANCH  10  24
HETATM   24  O5  UNL     1      17.513  38.788 195.758  1.00  0.00    -0.282 OA
ATOM     25  H5  UNL     1      18.275  38.384 195.360  1.00  0.00     0.245 HD
ENDBRANCH  10  24
BRANCH   1  26
HETATM   26  C3  UNL     1      19.890  39.347 197.246  1.00  0.00     0.210 C 
BRANCH  26  27
HETATM   27  C2  UNL     1      20.382  38.321 196.340  1.00  0.00     0.275 C 
HETATM   28  O2  UNL     1      20.005  37.103 196.555  1.00  0.00    -0.264 OA
BRANCH  27  29
HETATM   29  O1  UNL     1      21.218  38.465 195.253  1.00  0.00    -0.326 OA
HETATM   30  C1  UNL     1      21.701  37.359 194.518  1.00  0.00     0.213 C 
ENDBRANCH  27  29
ENDBRANCH  26  27
BRANCH  26  31
HETATM   31  C14 UNL     1      20.095  40.773 196.756  1.00  0.00     0.275 C 
BRANCH  31  32
HETATM   32  O6  UNL     1      19.119  41.606 197.358  1.00  0.00    -0.370 OA
ATOM     33  H6  UNL     1      18.386  41.698 196.760  1.00  0.00     0.212 HD
ENDBRANCH  31  32
BRANCH  31  34
HETATM   34  O7  UNL     1      21.354  41.243 196.990  1.00  0.00    -0.370 OA
ATOM     35  H7  UNL     1      21.960  40.563 197.261  1.00  0.00     0.212 HD
ENDBRANCH  31  34
ENDBRANCH  26  31
ENDBRANCH   1  26
TORSDOF 11
ENDMDL
MODEL 4
REMARK VINA RESULT: -8.194107490      2.936      8.606
REMARK  11 active torsions:
REMARK  status: ('A' for Active; 'I' for Inactive)
REMARK    1  A    between atoms: O1_2  and  C2_3 
REMARK    2  A    between atoms: C2_3  and  C3_5 
REMARK    3  A    between atoms: C3_5  and  C4_6 
REMARK    4  A    between atoms: C3_5  and  C14_31 
REMARK    5  A    between atoms: C6_13  and  S1_14 
REMARK    6  A    between atoms: S1_14  and  C7_15 
REMARK    7  A    between atoms: C9_17  and  O3_18 
REMARK    8  A    between atoms: C11_22  and  O4_23 
REMARK    9  A    between atoms: N5_28  and  O5_29 
REMARK   10  A    between atoms: C14_31  and  O6_32 
REMARK   11  A    between atoms: C14_31  and  O7_34 
ROOT
HETATM    1  C4  UNL     1      14.009  44.216 203.754  1.00  0.00     0.129 A 
HETATM    2  N1  UNL     1      14.973  43.271 203.545  1.00  0.00    -0.329 N 
ATOM      3  H1  UNL     1      15.948  43.563 203.610  1.00  0.00     0.168 HD
HETATM    4  C5  UNL     1      14.725  41.996 203.263  1.00  0.00     0.119 A 
HETATM    5  N2  UNL     1      15.667  41.128 203.072  1.00  0.00    -0.384 N 
ATOM      6  H21 UNL     1      15.477  40.150 202.856  1.00  0.00     0.157 HD
ATOM      7  H22 UNL     1      16.638  41.436 203.141  1.00  0.00     0.157 HD
HETATM    8  C6  UNL     1      13.414  41.581 203.170  1.00  0.00     0.068 A 
HETATM    9  C13 UNL     1      12.412  42.498 203.372  1.00  0.00     0.147 A 
HETATM   10  N5  UNL     1      12.743  43.802 203.661  1.00  0.00    -0.221 N 
ENDROOT
BRANCH   8  11
HETATM   11  S1  UNL     1      13.003  39.863 202.791  1.00  0.00    -0.067 SA
BRANCH  11  12
HETATM   12  C7  UNL     1      13.099  39.283 201.272  1.00  0.00     0.082 A 
HETATM   13  C8  UNL     1      11.928  38.973 200.619  1.00  0.00     0.093 A 
HETATM   14  C9  UNL     1      11.934  38.470 199.313  1.00  0.00     0.147 A 
HETATM   15  N3  UNL     1      13.148  38.315 198.756  1.00  0.00    -0.302 N 
HETATM   16  C11 UNL     1      14.300  38.603 199.358  1.00  0.00     0.225 A 
ATOM     17  H3  UNL     1      13.189  37.951 197.804  1.00  0.00     0.171 HD
HETATM   18  N4  UNL     1      14.246  39.088 200.624  1.00  0.00    -0.316 N 
ATOM     19  H4  UNL     1      15.120  39.313 201.099  1.00  0.00     0.170 HD
BRANCH  14  20
HETATM   20  O3  UNL     1      10.748  38.158 198.652  1.00  0.00    -0.341 OA
HETATM   21  C10 UNL     1      10.371  38.996 197.585  1.00  0.00     0.211 C 
ENDBRANCH  14  20
BRANCH  16  22
HETATM   22  O4  UNL     1      15.488  38.407 198.698  1.00  0.00    -0.327 OA
HETATM   23  C12 UNL     1      16.390  39.464 198.527  1.00  0.00     0.213 C 
ENDBRANCH  16  22
ENDBRANCH  11  12
ENDBRANCH   8  11
BRANCH  10  24
HETATM   24  O5  UNL     1      11.723  44.676 203.851  1.00  0.00    -0.282 OA
ATOM     25  H5  UNL     1      10.883  44.529 203.432  1.00  0.00     0.245 HD
ENDBRANCH  10  24
BRANCH   1  26
HETATM   26  C3  UNL     1      14.430  45.576 204.052  1.00  0.00     0.210 C 
BRANCH  26  27
HETATM   27  C2  UNL     1      13.477  46.484 204.669  1.00  0.00     0.275 C 
HETATM   28  O2  UNL     1      13.320  46.406 205.950  1.00  0.00    -0.264 OA
BRANCH  27  29
HETATM   29  O1  UNL     1      12.692  47.444 204.066  1.00  0.00    -0.326 OA
HETATM   30  C1  UNL     1      11.914  48.362 204.808  1.00  0.00     0.213 C 
ENDBRANCH  27  29
ENDBRANCH  26  27
BRANCH  26  31
HETATM   31  C14 UNL     1      15.802  45.556 204.710  1.00  0.00     0.275 C 
BRANCH  31  32
HETATM   32  O6  UNL     1      16.792  45.522 203.698  1.00  0.00    -0.370 OA
ATOM     33  H6  UNL     1      17.194  46.380 203.635  1.00  0.00     0.212 HD
ENDBRANCH  31  32
BRANCH  31  34
HETATM   34  O7  UNL     1      16.001  46.607 205.558  1.00  0.00    -0.370 OA
ATOM     35  H7  UNL     1      15.877  47.450 205.140  1.00  0.00     0.212 HD
ENDBRANCH  31  34
ENDBRANCH  26  31
ENDBRANCH   1  26
TORSDOF 11
ENDMDL
MODEL 5
REMARK VINA RESULT: -8.175599676      2.870      8.868
REMARK  11 active torsions:
REMARK  status: ('A' for Active; 'I' for Inactive)
REMARK    1  A    between atoms: O1_2  and  C2_3 
REMARK    2  A    between atoms: C2_3  and  C3_5 
REMARK    3  A    between atoms: C3_5  and  C4_6 
REMARK    4  A    between atoms: C3_5  and  C14_31 
REMARK    5  A    between atoms: C6_13  and  S1_14 
REMARK    6  A    between atoms: S1_14  and  C7_15 
REMARK    7  A    between atoms: C9_17  and  O3_18 
REMARK    8  A    between atoms: C11_22  and  O4_23 
REMARK    9  A    between atoms: N5_28  and  O5_29 
REMARK   10  A    between atoms: C14_31  and  O6_32 
REMARK   11  A    between atoms: C14_31  and  O7_34 
ROOT
HETATM    1  C4  UNL     1      13.999  44.226 203.762  1.00  0.00     0.129 A 
HETATM    2  N1  UNL     1      14.965  43.279 203.570  1.00  0.00    -0.329 N 
ATOM      3  H1  UNL     1      15.939  43.570 203.649  1.00  0.00     0.168 HD
HETATM    4  C5  UNL     1      14.719  42.003 203.286  1.00  0.00     0.119 A 
HETATM    5  N2  UNL     1      15.662  41.134 203.111  1.00  0.00    -0.384 N 
ATOM      6  H21 UNL     1      15.474  40.156 202.894  1.00  0.00     0.157 HD
ATOM      7  H22 UNL     1      16.632  41.440 203.194  1.00  0.00     0.157 HD
HETATM    8  C6  UNL     1      13.408  41.590 203.175  1.00  0.00     0.068 A 
HETATM    9  C13 UNL     1      12.405  42.509 203.360  1.00  0.00     0.147 A 
HETATM   10  N5  UNL     1      12.733  43.813 203.651  1.00  0.00    -0.221 N 
ENDROOT
BRANCH   8  11
HETATM   11  S1  UNL     1      13.001  39.872 202.792  1.00  0.00    -0.067 SA
BRANCH  11  12
HETATM   12  C7  UNL     1      13.104  39.293 201.274  1.00  0.00     0.082 A 
HETATM   13  C8  UNL     1      14.354  39.138 200.720  1.00  0.00     0.093 A 
HETATM   14  C9  UNL     1      14.519  38.646 199.421  1.00  0.00     0.147 A 
HETATM   15  N3  UNL     1      13.384  38.342 198.767  1.00  0.00    -0.302 N 
HETATM   16  C11 UNL     1      12.159  38.479 199.270  1.00  0.00     0.225 A 
ATOM     17  H3  UNL     1      13.468  37.980 197.816  1.00  0.00     0.171 HD
HETATM   18  N4  UNL     1      12.048  38.960 200.534  1.00  0.00    -0.316 N 
ATOM     19  H4  UNL     1      11.117  39.072 200.934  1.00  0.00     0.170 HD
BRANCH  14  20
HETATM   20  O3  UNL     1      15.785  38.489 198.860  1.00  0.00    -0.341 OA
HETATM   21  C10 UNL     1      16.888  38.815 199.672  1.00  0.00     0.211 C 
ENDBRANCH  14  20
BRANCH  16  22
HETATM   22  O4  UNL     1      11.064  38.139 198.516  1.00  0.00    -0.327 OA
HETATM   23  C12 UNL     1      10.631  38.970 197.476  1.00  0.00     0.213 C 
ENDBRANCH  16  22
ENDBRANCH  11  12
ENDBRANCH   8  11
BRANCH  10  24
HETATM   24  O5  UNL     1      11.712  44.689 203.825  1.00  0.00    -0.282 OA
ATOM     25  H5  UNL     1      11.773  45.569 203.473  1.00  0.00     0.245 HD
ENDBRANCH  10  24
BRANCH   1  26
HETATM   26  C3  UNL     1      14.417  45.585 204.064  1.00  0.00     0.210 C 
BRANCH  26  27
HETATM   27  C2  UNL     1      13.461  46.492 204.679  1.00  0.00     0.275 C 
HETATM   28  O2  UNL     1      13.298  46.411 205.959  1.00  0.00    -0.264 OA
BRANCH  27  29
HETATM   29  O1  UNL     1      12.677  47.452 204.074  1.00  0.00    -0.326 OA
HETATM   30  C1  UNL     1      11.902  48.374 204.814  1.00  0.00     0.213 C 
ENDBRANCH  27  29
ENDBRANCH  26  27
BRANCH  26  31
HETATM   31  C14 UNL     1      15.786  45.566 204.729  1.00  0.00     0.275 C 
BRANCH  31  32
HETATM   32  O6  UNL     1      16.781  45.512 203.721  1.00  0.00    -0.370 OA
ATOM     33  H6  UNL     1      17.212  44.667 203.763  1.00  0.00     0.212 HD
ENDBRANCH  31  32
BRANCH  31  34
HETATM   34  O7  UNL     1      15.988  46.626 205.564  1.00  0.00    -0.370 OA
ATOM     35  H7  UNL     1      16.578  47.277 205.202  1.00  0.00     0.212 HD
ENDBRANCH  31  34
ENDBRANCH  26  31
ENDBRANCH   1  26
TORSDOF 11
ENDMDL
