MODEL 1
REMARK VINA RESULT: -8.496794969      0.000      0.000
REMARK  7 active torsions:
REMARK  status: ('A' for Active; 'I' for Inactive)
REMARK    1  A    between atoms: C2_2  and  N2_5 
REMARK    2  A    between atoms: C9_12  and  C10_13 
REMARK    3  A    between atoms: C10_13  and  C11_14 
REMARK    4  A    between atoms: C12_16  and  S2_17 
REMARK    5  A    between atoms: C14_21  and  C15_22 
REMARK    6  A    between atoms: C16_23  and  C17_24 
REMARK    7  A    between atoms: C17_24  and  C18_25 
ROOT
HETATM    1  C1  UNL     1     -21.819  19.041 -22.608  1.00  0.00     0.055 C 
HETATM    2  C2  UNL     1     -21.957  20.237 -22.057  1.00  0.00     0.111 C 
HETATM    3  C3  UNL     1     -20.886  21.149 -22.172  1.00  0.00     0.117 C 
HETATM    4  N1  UNL     1     -19.973  21.891 -22.266  1.00  0.00    -0.190 NA
ENDROOT
BRANCH   2   5
HETATM    5  N2  UNL     1     -23.151  20.490 -21.339  1.00  0.00    -0.311 N 
HETATM    6  C4  UNL     1     -24.270  21.075 -21.908  1.00  0.00     0.121 A 
HETATM    7  C5  UNL     1     -25.263  21.192 -20.969  1.00  0.00     0.069 A 
HETATM    8  C6  UNL     1     -26.561  21.751 -21.203  1.00  0.00     0.101 C 
HETATM    9  C7  UNL     1     -24.722  20.667 -19.824  1.00  0.00    -0.008 A 
HETATM   10  N3  UNL     1     -27.626  22.223 -21.377  1.00  0.00    -0.191 NA
HETATM   11  C8  UNL     1     -23.407  20.235 -20.058  1.00  0.00     0.054 A 
HETATM   12  C20 UNL     1     -25.112  20.391 -18.417  1.00  0.00     0.047 C 
HETATM   13  C9  UNL     1     -22.878  19.716 -18.791  1.00  0.00    -0.029 C 
HETATM   14  C19 UNL     1     -24.076  19.333 -18.011  1.00  0.00     0.045 C 
BRANCH  13  15
HETATM   15  C10 UNL     1     -21.634  19.672 -18.435  1.00  0.00     0.031 C 
BRANCH  15  16
HETATM   16  C11 UNL     1     -21.099  18.454 -17.767  1.00  0.00     0.043 A 
HETATM   17  S1  UNL     1     -21.508  17.758 -16.260  1.00  0.00    -0.062 SA
HETATM   18  C12 UNL     1     -20.443  16.428 -16.298  1.00  0.00     0.113 A 
HETATM   19  N4  UNL     1     -19.830  16.585 -17.461  1.00  0.00    -0.337 N 
HETATM   20  C14 UNL     1     -20.134  17.590 -18.223  1.00  0.00     0.105 A 
ATOM     21  H4  UNL     1     -19.120  15.916 -17.758  1.00  0.00     0.168 HD
BRANCH  18  22
HETATM   22  S2  UNL     1     -20.195  15.116 -15.072  1.00  0.00    -0.109 SA
HETATM   23  C13 UNL     1     -18.428  14.938 -14.716  1.00  0.00     0.097 C 
ENDBRANCH  18  22
BRANCH  20  24
HETATM   24  C15 UNL     1     -19.502  17.836 -19.528  1.00  0.00    -0.047 C 
HETATM   25  C16 UNL     1     -18.963  18.044 -20.586  1.00  0.00    -0.099 C 
BRANCH  25  26
HETATM   26  C17 UNL     1     -18.283  18.287 -21.864  1.00  0.00     0.109 C 
BRANCH  26  27
HETATM   27  C18 UNL     1     -16.907  18.793 -21.533  1.00  0.00     0.126 C 
HETATM   28 CL1  UNL     1     -16.101  17.611 -20.468  1.00  0.00    -0.130 Cl
ENDBRANCH  26  27
ENDBRANCH  25  26
ENDBRANCH  20  24
ENDBRANCH  15  16
ENDBRANCH  13  15
ENDBRANCH   2   5
TORSDOF 7
ENDMDL
MODEL 2
REMARK VINA RESULT: -8.439707878      2.655      4.543
REMARK  7 active torsions:
REMARK  status: ('A' for Active; 'I' for Inactive)
REMARK    1  A    between atoms: C2_2  and  N2_5 
REMARK    2  A    between atoms: C9_12  and  C10_13 
REMARK    3  A    between atoms: C10_13  and  C11_14 
REMARK    4  A    between atoms: C12_16  and  S2_17 
REMARK    5  A    between atoms: C14_21  and  C15_22 
REMARK    6  A    between atoms: C16_23  and  C17_24 
REMARK    7  A    between atoms: C17_24  and  C18_25 
ROOT
HETATM    1  C1  UNL     1     -17.645  19.367 -21.452  1.00  0.00     0.055 C 
HETATM    2  C2  UNL     1     -18.501  18.566 -20.836  1.00  0.00     0.111 C 
HETATM    3  C3  UNL     1     -18.024  17.328 -20.355  1.00  0.00     0.117 C 
HETATM    4  N1  UNL     1     -17.609  16.291 -19.974  1.00  0.00    -0.190 NA
ENDROOT
BRANCH   2   5
HETATM    5  N2  UNL     1     -19.849  18.990 -20.757  1.00  0.00    -0.311 N 
HETATM    6  C4  UNL     1     -20.413  19.898 -21.637  1.00  0.00     0.121 A 
HETATM    7  C5  UNL     1     -21.728  20.111 -21.309  1.00  0.00     0.069 A 
HETATM    8  C6  UNL     1     -22.622  20.990 -22.003  1.00  0.00     0.101 C 
HETATM    9  C7  UNL     1     -21.946  19.315 -20.215  1.00  0.00    -0.008 A 
HETATM   10  N3  UNL     1     -23.363  21.720 -22.554  1.00  0.00    -0.191 NA
HETATM   11  C8  UNL     1     -20.774  18.622 -19.873  1.00  0.00     0.054 A 
HETATM   12  C20 UNL     1     -23.052  18.940 -19.296  1.00  0.00     0.047 C 
HETATM   13  C9  UNL     1     -21.066  17.817 -18.681  1.00  0.00    -0.029 C 
HETATM   14  C19 UNL     1     -22.533  17.621 -18.708  1.00  0.00     0.045 C 
BRANCH  13  15
HETATM   15  C10 UNL     1     -20.216  17.429 -17.785  1.00  0.00     0.031 C 
BRANCH  15  16
HETATM   16  C11 UNL     1     -20.678  17.157 -16.396  1.00  0.00     0.043 A 
HETATM   17  S1  UNL     1     -21.960  17.859 -15.508  1.00  0.00    -0.062 SA
HETATM   18  C12 UNL     1     -21.775  16.979 -14.060  1.00  0.00     0.113 A 
HETATM   19  N4  UNL     1     -20.744  16.194 -14.331  1.00  0.00    -0.337 N 
HETATM   20  C14 UNL     1     -20.170  16.258 -15.493  1.00  0.00     0.105 A 
ATOM     21  H4  UNL     1     -20.402  15.540 -13.627  1.00  0.00     0.168 HD
BRANCH  18  22
HETATM   22  S2  UNL     1     -22.737  17.072 -12.526  1.00  0.00    -0.109 SA
HETATM   23  C13 UNL     1     -24.502  16.926 -12.901  1.00  0.00     0.097 C 
ENDBRANCH  18  22
BRANCH  20  24
HETATM   24  C15 UNL     1     -19.020  15.422 -15.873  1.00  0.00    -0.047 C 
HETATM   25  C16 UNL     1     -18.094  14.723 -16.199  1.00  0.00    -0.099 C 
BRANCH  25  26
HETATM   26  C17 UNL     1     -16.977  13.868 -16.619  1.00  0.00     0.109 C 
BRANCH  26  27
HETATM   27  C18 UNL     1     -16.678  12.949 -15.469  1.00  0.00     0.126 C 
HETATM   28 CL1  UNL     1     -18.146  12.013 -15.085  1.00  0.00    -0.130 Cl
ENDBRANCH  26  27
ENDBRANCH  25  26
ENDBRANCH  20  24
ENDBRANCH  15  16
ENDBRANCH  13  15
ENDBRANCH   2   5
TORSDOF 7
ENDMDL
MODEL 3
REMARK VINA RESULT: -8.281020680      2.541      7.382
REMARK  7 active torsions:
REMARK  status: ('A' for Active; 'I' for Inactive)
REMARK    1  A    between atoms: C2_2  and  N2_5 
REMARK    2  A    between atoms: C9_12  and  C10_13 
REMARK    3  A    between atoms: C10_13  and  C11_14 
REMARK    4  A    between atoms: C12_16  and  S2_17 
REMARK    5  A    between atoms: C14_21  and  C15_22 
REMARK    6  A    between atoms: C16_23  and  C17_24 
REMARK    7  A    between atoms: C17_24  and  C18_25 
ROOT
HETATM    1  C1  UNL     1     -22.967  17.692 -15.827  1.00  0.00     0.055 C 
HETATM    2  C2  UNL     1     -22.070  17.132 -15.031  1.00  0.00     0.111 C 
HETATM    3  C3  UNL     1     -22.180  17.360 -13.642  1.00  0.00     0.117 C 
HETATM    4  N1  UNL     1     -22.280  17.575 -12.486  1.00  0.00    -0.190 NA
ENDROOT
BRANCH   2   5
HETATM    5  N2  UNL     1     -21.029  16.391 -15.641  1.00  0.00    -0.311 N 
HETATM    6  C4  UNL     1     -20.490  15.241 -15.089  1.00  0.00     0.121 A 
HETATM    7  C5  UNL     1     -19.503  14.750 -15.904  1.00  0.00     0.069 A 
HETATM    8  C6  UNL     1     -18.728  13.572 -15.649  1.00  0.00     0.101 C 
HETATM    9  C7  UNL     1     -19.456  15.626 -16.958  1.00  0.00    -0.008 A 
HETATM   10  N3  UNL     1     -18.073  12.615 -15.444  1.00  0.00    -0.191 NA
HETATM   11  C8  UNL     1     -20.404  16.647 -16.788  1.00  0.00     0.054 A 
HETATM   12  C20 UNL     1     -18.725  15.810 -18.239  1.00  0.00     0.047 C 
HETATM   13  C9  UNL     1     -20.280  17.563 -17.928  1.00  0.00    -0.029 C 
HETATM   14  C19 UNL     1     -19.671  16.746 -19.003  1.00  0.00     0.045 C 
BRANCH  13  15
HETATM   15  C10 UNL     1     -20.586  18.821 -17.944  1.00  0.00     0.031 C 
BRANCH  15  16
HETATM   16  C11 UNL     1     -21.517  19.342 -18.981  1.00  0.00     0.043 A 
HETATM   17  S1  UNL     1     -23.201  19.628 -18.901  1.00  0.00    -0.062 SA
HETATM   18  C12 UNL     1     -23.435  20.206 -20.487  1.00  0.00     0.113 A 
HETATM   19  N4  UNL     1     -22.214  20.150 -20.995  1.00  0.00    -0.337 N 
HETATM   20  C14 UNL     1     -21.229  19.721 -20.268  1.00  0.00     0.105 A 
ATOM     21  H4  UNL     1     -22.048  20.445 -21.958  1.00  0.00     0.168 HD
BRANCH  18  22
HETATM   22  S2  UNL     1     -24.959  20.765 -21.296  1.00  0.00    -0.109 SA
HETATM   23  C13 UNL     1     -26.094  21.444 -20.059  1.00  0.00     0.097 C 
ENDBRANCH  18  22
BRANCH  20  24
HETATM   24  C15 UNL     1     -19.844  19.629 -20.756  1.00  0.00    -0.047 C 
HETATM   25  C16 UNL     1     -18.701  19.563 -21.134  1.00  0.00    -0.099 C 
BRANCH  25  26
HETATM   26  C17 UNL     1     -17.302  19.475 -21.569  1.00  0.00     0.109 C 
BRANCH  26  27
HETATM   27  C18 UNL     1     -16.965  18.013 -21.652  1.00  0.00     0.126 C 
HETATM   28 CL1  UNL     1     -16.187  17.516 -20.126  1.00  0.00    -0.130 Cl
ENDBRANCH  26  27
ENDBRANCH  25  26
ENDBRANCH  20  24
ENDBRANCH  15  16
ENDBRANCH  13  15
ENDBRANCH   2   5
TORSDOF 7
ENDMDL
MODEL 4
REMARK VINA RESULT: -8.275732378      2.504      4.214
REMARK  7 active torsions:
REMARK  status: ('A' for Active; 'I' for Inactive)
REMARK    1  A    between atoms: C2_2  and  N2_5 
REMARK    2  A    between atoms: C9_12  and  C10_13 
REMARK    3  A    between atoms: C10_13  and  C11_14 
REMARK    4  A    between atoms: C12_16  and  S2_17 
REMARK    5  A    between atoms: C14_21  and  C15_22 
REMARK    6  A    between atoms: C16_23  and  C17_24 
REMARK    7  A    between atoms: C17_24  and  C18_25 
ROOT
HETATM    1  C1  UNL     1     -25.227  16.233 -16.224  1.00  0.00     0.055 C 
HETATM    2  C2  UNL     1     -24.776  17.396 -15.782  1.00  0.00     0.111 C 
HETATM    3  C3  UNL     1     -24.109  17.421 -14.539  1.00  0.00     0.117 C 
HETATM    4  N1  UNL     1     -23.568  17.423 -13.489  1.00  0.00    -0.190 NA
ENDROOT
BRANCH   2   5
HETATM    5  N2  UNL     1     -25.049  18.542 -16.567  1.00  0.00    -0.311 N 
HETATM    6  C4  UNL     1     -26.046  19.454 -16.259  1.00  0.00     0.121 A 
HETATM    7  C5  UNL     1     -26.071  20.453 -17.199  1.00  0.00     0.069 A 
HETATM    8  C6  UNL     1     -26.974  21.566 -17.199  1.00  0.00     0.101 C 
HETATM    9  C7  UNL     1     -25.072  20.126 -18.079  1.00  0.00    -0.008 A 
HETATM   10  N3  UNL     1     -27.719  22.477 -17.221  1.00  0.00    -0.191 NA
HETATM   11  C8  UNL     1     -24.442  18.936 -17.684  1.00  0.00     0.054 A 
HETATM   12  C20 UNL     1     -24.435  20.662 -19.310  1.00  0.00     0.047 C 
HETATM   13  C9  UNL     1     -23.410  18.627 -18.681  1.00  0.00    -0.029 C 
HETATM   14  C19 UNL     1     -23.085  19.931 -19.303  1.00  0.00     0.045 C 
BRANCH  13  15
HETATM   15  C10 UNL     1     -22.947  17.454 -18.975  1.00  0.00     0.031 C 
BRANCH  15  16
HETATM   16  C11 UNL     1     -21.704  16.965 -18.320  1.00  0.00     0.043 A 
HETATM   17  S1  UNL     1     -21.506  15.978 -16.938  1.00  0.00    -0.062 SA
HETATM   18  C12 UNL     1     -19.802  15.922 -16.909  1.00  0.00     0.113 A 
HETATM   19  N4  UNL     1     -19.474  16.661 -17.957  1.00  0.00    -0.337 N 
HETATM   20  C14 UNL     1     -20.402  17.200 -18.686  1.00  0.00     0.105 A 
ATOM     21  H4  UNL     1     -18.492  16.806 -18.191  1.00  0.00     0.168 HD
BRANCH  18  22
HETATM   22  S2  UNL     1     -18.698  15.072 -15.750  1.00  0.00    -0.109 SA
HETATM   23  C13 UNL     1     -17.411  14.189 -16.668  1.00  0.00     0.097 C 
ENDBRANCH  18  22
BRANCH  20  24
HETATM   24  C15 UNL     1     -20.122  18.033 -19.867  1.00  0.00    -0.047 C 
HETATM   25  C16 UNL     1     -19.904  18.698 -20.847  1.00  0.00    -0.099 C 
BRANCH  25  26
HETATM   26  C17 UNL     1     -19.663  19.501 -22.052  1.00  0.00     0.109 C 
BRANCH  26  27
HETATM   27  C18 UNL     1     -18.337  20.183 -21.860  1.00  0.00     0.126 C 
HETATM   28 CL1  UNL     1     -17.091  18.942 -21.565  1.00  0.00    -0.130 Cl
ENDBRANCH  26  27
ENDBRANCH  25  26
ENDBRANCH  20  24
ENDBRANCH  15  16
ENDBRANCH  13  15
ENDBRANCH   2   5
TORSDOF 7
ENDMDL
MODEL 5
REMARK VINA RESULT: -8.205390886      2.674      4.350
REMARK  7 active torsions:
REMARK  status: ('A' for Active; 'I' for Inactive)
REMARK    1  A    between atoms: C2_2  and  N2_5 
REMARK    2  A    between atoms: C9_12  and  C10_13 
REMARK    3  A    between atoms: C10_13  and  C11_14 
REMARK    4  A    between atoms: C12_16  and  S2_17 
REMARK    5  A    between atoms: C14_21  and  C15_22 
REMARK    6  A    between atoms: C16_23  and  C17_24 
REMARK    7  A    between atoms: C17_24  and  C18_25 
ROOT
HETATM    1  C1  UNL     1     -25.205  16.251 -16.402  1.00  0.00     0.055 C 
HETATM    2  C2  UNL     1     -24.729  17.383 -15.911  1.00  0.00     0.111 C 
HETATM    3  C3  UNL     1     -24.100  17.346 -14.648  1.00  0.00     0.117 C 
HETATM    4  N1  UNL     1     -23.592  17.297 -13.583  1.00  0.00    -0.190 NA
ENDROOT
BRANCH   2   5
HETATM    5  N2  UNL     1     -24.939  18.562 -16.666  1.00  0.00    -0.311 N 
HETATM    6  C4  UNL     1     -25.921  19.491 -16.367  1.00  0.00     0.121 A 
HETATM    7  C5  UNL     1     -25.881  20.520 -17.273  1.00  0.00     0.069 A 
HETATM    8  C6  UNL     1     -26.752  21.659 -17.271  1.00  0.00     0.101 C 
HETATM    9  C7  UNL     1     -24.857  20.193 -18.124  1.00  0.00    -0.008 A 
HETATM   10  N3  UNL     1     -27.469  22.591 -17.292  1.00  0.00    -0.191 NA
HETATM   11  C8  UNL     1     -24.276  18.973 -17.745  1.00  0.00     0.054 A 
HETATM   12  C20 UNL     1     -24.156  20.751 -19.311  1.00  0.00     0.047 C 
HETATM   13  C9  UNL     1     -23.214  18.668 -18.711  1.00  0.00    -0.029 C 
HETATM   14  C19 UNL     1     -22.829  19.981 -19.275  1.00  0.00     0.045 C 
BRANCH  13  15
HETATM   15  C10 UNL     1     -22.772  17.492 -19.026  1.00  0.00     0.031 C 
BRANCH  15  16
HETATM   16  C11 UNL     1     -21.585  16.936 -18.321  1.00  0.00     0.043 A 
HETATM   17  S1  UNL     1     -21.500  15.899 -16.964  1.00  0.00    -0.062 SA
HETATM   18  C12 UNL     1     -19.804  15.777 -16.846  1.00  0.00     0.113 A 
HETATM   19  N4  UNL     1     -19.392  16.535 -17.850  1.00  0.00    -0.337 N 
HETATM   20  C14 UNL     1     -20.258  17.132 -18.609  1.00  0.00     0.105 A 
ATOM     21  H4  UNL     1     -18.393  16.650 -18.026  1.00  0.00     0.168 HD
BRANCH  18  22
HETATM   22  S2  UNL     1     -18.796  14.849 -15.658  1.00  0.00    -0.109 SA
HETATM   23  C13 UNL     1     -17.450  14.005 -16.527  1.00  0.00     0.097 C 
ENDBRANCH  18  22
BRANCH  20  24
HETATM   24  C15 UNL     1     -19.883  17.990 -19.744  1.00  0.00    -0.047 C 
HETATM   25  C16 UNL     1     -19.554  18.696 -20.663  1.00  0.00    -0.099 C 
BRANCH  25  26
HETATM   26  C17 UNL     1     -19.128  19.547 -21.781  1.00  0.00     0.109 C 
BRANCH  26  27
HETATM   27  C18 UNL     1     -20.265  20.487 -22.068  1.00  0.00     0.126 C 
HETATM   28 CL1  UNL     1     -21.659  19.541 -22.651  1.00  0.00    -0.130 Cl
ENDBRANCH  26  27
ENDBRANCH  25  26
ENDBRANCH  20  24
ENDBRANCH  15  16
ENDBRANCH  13  15
ENDBRANCH   2   5
TORSDOF 7
ENDMDL
