MODEL 1
REMARK VINA RESULT: -7.409991483      0.000      0.000
REMARK  4 active torsions:
REMARK  status: ('A' for Active; 'I' for Inactive)
REMARK    1  A    between atoms: C2_2  and  O1_3 
REMARK    2  A    between atoms: O1_3  and  N1_4 
REMARK    3  A    between atoms: C5_8  and  C6_9 
REMARK    4  A    between atoms: C12_17  and  C14_19 
ROOT
HETATM    1  N1  UNL     1     -25.131  15.571 -15.127  1.00  0.00    -0.274 N 
ATOM      2  H1  UNL     1     -24.270  15.273 -15.587  1.00  0.00     0.193 HD
HETATM    3  C3  UNL     1     -25.225  16.800 -14.820  1.00  0.00     0.027 C 
HETATM    4  C4  UNL     1     -26.460  17.286 -14.146  1.00  0.00     0.061 C 
HETATM    5  C5  UNL     1     -26.241  18.672 -13.642  1.00  0.00    -0.001 C 
HETATM    6  C9  UNL     1     -25.860  19.596 -14.748  1.00  0.00     0.059 C 
HETATM    7  C10 UNL     1     -24.770  19.013 -15.621  1.00  0.00     0.004 C 
HETATM    8  N2  UNL     1     -24.640  19.764 -16.654  1.00  0.00    -0.360 N 
ATOM      9  H2  UNL     1     -25.256  20.577 -16.701  1.00  0.00     0.165 HD
HETATM   10  C11 UNL     1     -23.708  19.590 -17.777  1.00  0.00     0.066 C 
HETATM   11  C12 UNL     1     -24.041  20.059 -18.937  1.00  0.00    -0.032 C 
HETATM   12  C13 UNL     1     -25.401  20.763 -18.920  1.00  0.00     0.048 C 
HETATM   13  C17 UNL     1     -22.397  18.999 -17.573  1.00  0.00     0.098 A 
HETATM   14  N3  UNL     1     -21.250  19.360 -18.144  1.00  0.00    -0.258 N 
ATOM     15  H3  UNL     1     -21.143  20.111 -18.826  1.00  0.00     0.195 HD
HETATM   16  O2  UNL     1     -20.288  18.609 -17.698  1.00  0.00    -0.241 OA
HETATM   17  C18 UNL     1     -20.730  17.734 -16.830  1.00  0.00     0.088 A 
HETATM   18  C19 UNL     1     -20.002  16.674 -16.063  1.00  0.00     0.080 C 
HETATM   19  C20 UNL     1     -22.096  17.955 -16.720  1.00  0.00     0.073 A 
HETATM   20  C21 UNL     1     -23.010  17.239 -15.824  1.00  0.00     0.179 C 
HETATM   21  O3  UNL     1     -22.689  16.014 -15.709  1.00  0.00    -0.291 OA
HETATM   22  C22 UNL     1     -24.153  17.798 -15.121  1.00  0.00     0.153 C 
ENDROOT
BRANCH  11  23
HETATM   23  C14 UNL     1     -23.412  20.035 -20.255  1.00  0.00     0.055 C 
HETATM   24  C15 UNL     1     -22.342  21.096 -20.341  1.00  0.00     0.037 C 
HETATM   25  C16 UNL     1     -23.055  18.730 -20.853  1.00  0.00     0.037 C 
HETATM   26 CL1  UNL     1     -24.712  20.733 -21.412  1.00  0.00    -0.115 Cl
ENDBRANCH  11  23
BRANCH   5  27
HETATM   27  C6  UNL     1     -27.437  19.222 -12.900  1.00  0.00    -0.018 C 
HETATM   28  C7  UNL     1     -28.682  19.227 -13.716  1.00  0.00     0.010 C 
HETATM   29  C8  UNL     1     -27.694  18.537 -11.586  1.00  0.00     0.010 C 
ENDBRANCH   5  27
BRANCH   1  30
HETATM   30  O1  UNL     1     -26.065  14.625 -14.901  1.00  0.00    -0.281 OA
BRANCH  30  31
HETATM   31  C2  UNL     1     -25.817  13.539 -14.048  1.00  0.00     0.196 C 
HETATM   32  C1  UNL     1     -24.349  13.442 -13.677  1.00  0.00     0.036 C 
ENDBRANCH  30  31
ENDBRANCH   1  30
TORSDOF 4
ENDMDL
MODEL 2
REMARK VINA RESULT: -7.187978169      3.560      5.307
REMARK  4 active torsions:
REMARK  status: ('A' for Active; 'I' for Inactive)
REMARK    1  A    between atoms: C2_2  and  O1_3 
REMARK    2  A    between atoms: O1_3  and  N1_4 
REMARK    3  A    between atoms: C5_8  and  C6_9 
REMARK    4  A    between atoms: C12_17  and  C14_19 
ROOT
HETATM    1  N1  UNL     1     -29.585  19.201 -16.756  1.00  0.00    -0.274 N 
ATOM      2  H1  UNL     1     -28.914  18.557 -16.336  1.00  0.00     0.193 HD
HETATM    3  C3  UNL     1     -29.179  20.379 -17.004  1.00  0.00     0.027 C 
HETATM    4  C4  UNL     1     -30.119  21.356 -17.616  1.00  0.00     0.061 C 
HETATM    5  C5  UNL     1     -29.524  22.722 -17.563  1.00  0.00    -0.001 C 
HETATM    6  C9  UNL     1     -28.208  22.765 -18.263  1.00  0.00     0.059 C 
HETATM    7  C10 UNL     1     -27.311  21.618 -17.850  1.00  0.00     0.004 C 
HETATM    8  N2  UNL     1     -26.293  21.606 -18.633  1.00  0.00    -0.360 N 
ATOM      9  H2  UNL     1     -26.267  22.331 -19.351  1.00  0.00     0.165 HD
HETATM   10  C11 UNL     1     -25.161  20.670 -18.615  1.00  0.00     0.066 C 
HETATM   11  C12 UNL     1     -24.534  20.434 -19.723  1.00  0.00    -0.032 C 
HETATM   12  C13 UNL     1     -25.101  21.229 -20.902  1.00  0.00     0.048 C 
HETATM   13  C17 UNL     1     -24.684  20.100 -17.366  1.00  0.00     0.098 A 
HETATM   14  N3  UNL     1     -23.422  19.875 -17.010  1.00  0.00    -0.258 N 
ATOM     15  H3  UNL     1     -22.604  20.067 -17.589  1.00  0.00     0.195 HD
HETATM   16  O2  UNL     1     -23.391  19.373 -15.813  1.00  0.00    -0.241 OA
HETATM   17  C18 UNL     1     -24.597  19.241 -15.321  1.00  0.00     0.088 A 
HETATM   18  C19 UNL     1     -25.053  18.714 -13.995  1.00  0.00     0.080 C 
HETATM   19  C20 UNL     1     -25.466  19.704 -16.299  1.00  0.00     0.073 A 
HETATM   20  C21 UNL     1     -26.925  19.793 -16.176  1.00  0.00     0.179 C 
HETATM   21  O3  UNL     1     -27.399  18.825 -15.502  1.00  0.00    -0.291 OA
HETATM   22  C22 UNL     1     -27.782  20.832 -16.726  1.00  0.00     0.153 C 
ENDROOT
BRANCH  11  23
HETATM   23  C14 UNL     1     -23.427  19.555 -20.090  1.00  0.00     0.055 C 
HETATM   24  C15 UNL     1     -22.118  20.301 -20.001  1.00  0.00     0.037 C 
HETATM   25  C16 UNL     1     -23.403  18.175 -19.559  1.00  0.00     0.037 C 
HETATM   26 CL1  UNL     1     -23.595  19.332 -21.944  1.00  0.00    -0.115 Cl
ENDBRANCH  11  23
BRANCH   5  27
HETATM   27  C6  UNL     1     -30.442  23.784 -18.123  1.00  0.00    -0.018 C 
HETATM   28  C7  UNL     1     -29.891  24.456 -19.333  1.00  0.00     0.010 C 
HETATM   29  C8  UNL     1     -31.831  23.287 -18.407  1.00  0.00     0.010 C 
ENDBRANCH   5  27
BRANCH   1  30
HETATM   30  O1  UNL     1     -30.824  18.723 -16.997  1.00  0.00    -0.281 OA
BRANCH  30  31
HETATM   31  C2  UNL     1     -31.696  18.386 -15.953  1.00  0.00     0.196 C 
HETATM   32  C1  UNL     1     -32.708  19.485 -15.690  1.00  0.00     0.036 C 
ENDBRANCH  30  31
ENDBRANCH   1  30
TORSDOF 4
ENDMDL
MODEL 3
REMARK VINA RESULT: -7.181343148      2.484      6.334
REMARK  4 active torsions:
REMARK  status: ('A' for Active; 'I' for Inactive)
REMARK    1  A    between atoms: C2_2  and  O1_3 
REMARK    2  A    between atoms: O1_3  and  N1_4 
REMARK    3  A    between atoms: C5_8  and  C6_9 
REMARK    4  A    between atoms: C12_17  and  C14_19 
ROOT
HETATM    1  N1  UNL     1     -20.301  16.113 -14.814  1.00  0.00    -0.274 N 
ATOM      2  H1  UNL     1     -21.023  15.907 -14.124  1.00  0.00     0.193 HD
HETATM    3  C3  UNL     1     -20.651  16.108 -16.036  1.00  0.00     0.027 C 
HETATM    4  C4  UNL     1     -19.635  16.402 -17.082  1.00  0.00     0.061 C 
HETATM    5  C5  UNL     1     -20.192  16.076 -18.425  1.00  0.00    -0.001 C 
HETATM    6  C9  UNL     1     -21.442  16.843 -18.692  1.00  0.00     0.059 C 
HETATM    7  C10 UNL     1     -22.404  16.779 -17.525  1.00  0.00     0.004 C 
HETATM    8  N2  UNL     1     -23.353  17.617 -17.743  1.00  0.00    -0.360 N 
ATOM      9  H2  UNL     1     -23.297  18.145 -18.614  1.00  0.00     0.165 HD
HETATM   10  C11 UNL     1     -24.509  17.903 -16.882  1.00  0.00     0.066 C 
HETATM   11  C12 UNL     1     -25.047  19.080 -16.939  1.00  0.00    -0.032 C 
HETATM   12  C13 UNL     1     -24.360  19.994 -17.956  1.00  0.00     0.048 C 
HETATM   13  C17 UNL     1     -25.105  16.862 -16.063  1.00  0.00     0.098 A 
HETATM   14  N3  UNL     1     -26.399  16.664 -15.822  1.00  0.00    -0.258 N 
ATOM     15  H3  UNL     1     -27.160  17.242 -16.182  1.00  0.00     0.195 HD
HETATM   16  O2  UNL     1     -26.545  15.623 -15.059  1.00  0.00    -0.241 OA
HETATM   17  C18 UNL     1     -25.389  15.087 -14.760  1.00  0.00     0.088 A 
HETATM   18  C19 UNL     1     -25.062  13.891 -13.920  1.00  0.00     0.080 C 
HETATM   19  C20 UNL     1     -24.428  15.862 -15.395  1.00  0.00     0.073 A 
HETATM   20  C21 UNL     1     -22.982  15.612 -15.383  1.00  0.00     0.179 C 
HETATM   21  O3  UNL     1     -22.595  15.150 -14.264  1.00  0.00    -0.291 OA
HETATM   22  C22 UNL     1     -22.053  15.838 -16.478  1.00  0.00     0.153 C 
ENDROOT
BRANCH  11  23
HETATM   23  C14 UNL     1     -26.144  19.724 -16.222  1.00  0.00     0.055 C 
HETATM   24  C15 UNL     1     -27.469  19.309 -16.815  1.00  0.00     0.037 C 
HETATM   25  C16 UNL     1     -26.103  19.773 -14.744  1.00  0.00     0.037 C 
HETATM   26 CL1  UNL     1     -26.059  21.523 -16.745  1.00  0.00    -0.115 Cl
ENDBRANCH  11  23
BRANCH   5  27
HETATM   27  C6  UNL     1     -19.201  16.302 -19.543  1.00  0.00    -0.018 C 
HETATM   28  C7  UNL     1     -19.170  17.711 -20.024  1.00  0.00     0.010 C 
HETATM   29  C8  UNL     1     -17.807  15.850 -19.208  1.00  0.00     0.010 C 
ENDBRANCH   5  27
BRANCH   1  30
HETATM   30  O1  UNL     1     -19.061  16.366 -14.347  1.00  0.00    -0.281 OA
BRANCH  30  31
HETATM   31  C2  UNL     1     -17.968  15.558 -14.693  1.00  0.00     0.196 C 
HETATM   32  C1  UNL     1     -18.209  14.104 -14.331  1.00  0.00     0.036 C 
ENDBRANCH  30  31
ENDBRANCH   1  30
TORSDOF 4
ENDMDL
MODEL 4
REMARK VINA RESULT: -7.158639479      3.128      5.456
REMARK  4 active torsions:
REMARK  status: ('A' for Active; 'I' for Inactive)
REMARK    1  A    between atoms: C2_2  and  O1_3 
REMARK    2  A    between atoms: O1_3  and  N1_4 
REMARK    3  A    between atoms: C5_8  and  C6_9 
REMARK    4  A    between atoms: C12_17  and  C14_19 
ROOT
HETATM    1  N1  UNL     1     -23.913  19.906 -16.527  1.00  0.00    -0.274 N 
ATOM      2  H1  UNL     1     -23.947  20.600 -17.274  1.00  0.00     0.193 HD
HETATM    3  C3  UNL     1     -23.727  18.697 -16.870  1.00  0.00     0.027 C 
HETATM    4  C4  UNL     1     -23.671  17.646 -15.819  1.00  0.00     0.061 C 
HETATM    5  C5  UNL     1     -23.721  16.299 -16.456  1.00  0.00    -0.001 C 
HETATM    6  C9  UNL     1     -22.603  16.118 -17.426  1.00  0.00     0.059 C 
HETATM    7  C10 UNL     1     -22.465  17.304 -18.356  1.00  0.00     0.004 C 
HETATM    8  N2  UNL     1     -21.372  17.168 -19.016  1.00  0.00    -0.360 N 
ATOM      9  H2  UNL     1     -20.822  16.333 -18.812  1.00  0.00     0.165 HD
HETATM   10  C11 UNL     1     -20.821  18.077 -20.032  1.00  0.00     0.066 C 
HETATM   11  C12 UNL     1     -19.537  18.113 -20.198  1.00  0.00    -0.032 C 
HETATM   12  C13 UNL     1     -18.795  17.141 -19.278  1.00  0.00     0.048 C 
HETATM   13  C17 UNL     1     -21.696  18.840 -20.904  1.00  0.00     0.098 A 
HETATM   14  N3  UNL     1     -21.522  19.102 -22.197  1.00  0.00    -0.258 N 
ATOM     15  H3  UNL     1     -20.722  18.802 -22.755  1.00  0.00     0.195 HD
HETATM   16  O2  UNL     1     -22.526  19.797 -22.639  1.00  0.00    -0.241 OA
HETATM   17  C18 UNL     1     -23.399  20.028 -21.691  1.00  0.00     0.088 A 
HETATM   18  C19 UNL     1     -24.695  20.778 -21.726  1.00  0.00     0.080 C 
HETATM   19  C20 UNL     1     -22.897  19.422 -20.548  1.00  0.00     0.073 A 
HETATM   20  C21 UNL     1     -23.561  19.378 -19.240  1.00  0.00     0.179 C 
HETATM   21  O3  UNL     1     -24.196  20.452 -19.000  1.00  0.00    -0.291 OA
HETATM   22  C22 UNL     1     -23.541  18.275 -18.292  1.00  0.00     0.153 C 
ENDROOT
BRANCH  11  23
HETATM   23  C14 UNL     1     -18.652  18.901 -21.052  1.00  0.00     0.055 C 
HETATM   24  C15 UNL     1     -18.218  18.085 -22.246  1.00  0.00     0.037 C 
HETATM   25  C16 UNL     1     -19.004  20.307 -21.345  1.00  0.00     0.037 C 
HETATM   26 CL1  UNL     1     -17.047  19.019 -20.088  1.00  0.00    -0.115 Cl
ENDBRANCH  11  23
BRANCH   5  27
HETATM   27  C6  UNL     1     -23.717  15.173 -15.449  1.00  0.00    -0.018 C 
HETATM   28  C7  UNL     1     -22.498  15.155 -14.593  1.00  0.00     0.010 C 
HETATM   29  C8  UNL     1     -24.945  15.139 -14.583  1.00  0.00     0.010 C 
ENDBRANCH   5  27
BRANCH   1  30
HETATM   30  O1  UNL     1     -24.071  20.356 -15.265  1.00  0.00    -0.281 OA
BRANCH  30  31
HETATM   31  C2  UNL     1     -25.315  20.797 -14.794  1.00  0.00     0.196 C 
HETATM   32  C1  UNL     1     -26.225  19.634 -14.440  1.00  0.00     0.036 C 
ENDBRANCH  30  31
ENDBRANCH   1  30
TORSDOF 4
ENDMDL
MODEL 5
REMARK VINA RESULT: -7.150089114      2.508      6.607
REMARK  4 active torsions:
REMARK  status: ('A' for Active; 'I' for Inactive)
REMARK    1  A    between atoms: C2_2  and  O1_3 
REMARK    2  A    between atoms: O1_3  and  N1_4 
REMARK    3  A    between atoms: C5_8  and  C6_9 
REMARK    4  A    between atoms: C12_17  and  C14_19 
ROOT
HETATM    1  N1  UNL     1     -20.812  16.299 -14.930  1.00  0.00    -0.274 N 
ATOM      2  H1  UNL     1     -21.181  15.643 -14.242  1.00  0.00     0.193 HD
HETATM    3  C3  UNL     1     -21.585  16.635 -15.881  1.00  0.00     0.027 C 
HETATM    4  C4  UNL     1     -21.096  17.589 -16.911  1.00  0.00     0.061 C 
HETATM    5  C5  UNL     1     -22.051  17.623 -18.055  1.00  0.00    -0.001 C 
HETATM    6  C9  UNL     1     -23.419  18.009 -17.605  1.00  0.00     0.059 C 
HETATM    7  C10 UNL     1     -23.852  17.229 -16.382  1.00  0.00     0.004 C 
HETATM    8  N2  UNL     1     -24.938  17.752 -15.939  1.00  0.00    -0.360 N 
ATOM      9  H2  UNL     1     -25.299  18.552 -16.459  1.00  0.00     0.165 HD
HETATM   10  C11 UNL     1     -25.721  17.332 -14.768  1.00  0.00     0.066 C 
HETATM   11  C12 UNL     1     -26.428  18.220 -14.144  1.00  0.00    -0.032 C 
HETATM   12  C13 UNL     1     -26.330  19.607 -14.784  1.00  0.00     0.048 C 
HETATM   13  C17 UNL     1     -25.788  15.934 -14.378  1.00  0.00     0.098 A 
HETATM   14  N3  UNL     1     -26.848  15.274 -13.917  1.00  0.00    -0.258 N 
ATOM     15  H3  UNL     1     -27.772  15.678 -13.762  1.00  0.00     0.195 HD
HETATM   16  O2  UNL     1     -26.525  14.035 -13.695  1.00  0.00    -0.241 OA
HETATM   17  C18 UNL     1     -25.269  13.811 -13.990  1.00  0.00     0.088 A 
HETATM   18  C19 UNL     1     -24.460  12.554 -13.897  1.00  0.00     0.080 C 
HETATM   19  C20 UNL     1     -24.756  15.020 -14.438  1.00  0.00     0.073 A 
HETATM   20  C21 UNL     1     -23.390  15.241 -14.926  1.00  0.00     0.179 C 
HETATM   21  O3  UNL     1     -22.543  14.545 -14.282  1.00  0.00    -0.291 OA
HETATM   22  C22 UNL     1     -22.986  16.127 -16.006  1.00  0.00     0.153 C 
ENDROOT
BRANCH  11  23
HETATM   23  C14 UNL     1     -27.269  18.185 -12.951  1.00  0.00     0.055 C 
HETATM   24  C15 UNL     1     -28.688  17.830 -13.325  1.00  0.00     0.037 C 
HETATM   25  C16 UNL     1     -26.755  17.524 -11.732  1.00  0.00     0.037 C 
HETATM   26 CL1  UNL     1     -27.461  19.983 -12.455  1.00  0.00    -0.115 Cl
ENDBRANCH  11  23
BRANCH   5  27
HETATM   27  C6  UNL     1     -21.599  18.536 -19.171  1.00  0.00    -0.018 C 
HETATM   28  C7  UNL     1     -22.385  19.799 -19.250  1.00  0.00     0.010 C 
HETATM   29  C8  UNL     1     -20.131  18.854 -19.128  1.00  0.00     0.010 C 
ENDBRANCH   5  27
BRANCH   1  30
HETATM   30  O1  UNL     1     -19.547  16.732 -14.749  1.00  0.00    -0.281 OA
BRANCH  30  31
HETATM   31  C2  UNL     1     -18.461  15.845 -14.752  1.00  0.00     0.196 C 
HETATM   32  C1  UNL     1     -18.326  15.131 -16.084  1.00  0.00     0.036 C 
ENDBRANCH  30  31
ENDBRANCH   1  30
TORSDOF 4
ENDMDL
