MODEL 1
REMARK VINA RESULT: -9.036600408      0.000      0.000
REMARK  13 active torsions:
REMARK  status: ('A' for Active; 'I' for Inactive)
REMARK    1  A    between atoms: O1_1  and  C1_3 
REMARK    2  A    between atoms: C1_3  and  C2_4 
REMARK    3  A    between atoms: C2_4  and  C3_5 
REMARK    4  A    between atoms: C3_5  and  O2_6 
REMARK    5  A    between atoms: O2_6  and  C4_7 
REMARK    6  A    between atoms: C9_13  and  O4_14 
REMARK    7  A    between atoms: O4_14  and  C10_15 
REMARK    8  A    between atoms: C10_15  and  C11_16 
REMARK    9  A    between atoms: C17_22  and  O5_23 
REMARK   10  A    between atoms: C18_25  and  O6_26 
REMARK   11  A    between atoms: C20_32  and  O7_33 
REMARK   12  A    between atoms: C21_35  and  O8_36 
REMARK   13  A    between atoms: C22_38  and  O9_39 
ROOT
HETATM    1  C2  UNL     1     145.536  13.428 -82.213  1.00  0.00     0.145 C 
HETATM    2  O3  UNL     1     145.617  14.761 -81.987  1.00  0.00    -0.340 OA
HETATM    3  C9  UNL     1     144.765  15.638 -82.592  1.00  0.00     0.292 C 
HETATM    4  C17 UNL     1     144.651  15.231 -84.053  1.00  0.00     0.204 C 
HETATM    5  C18 UNL     1     144.078  13.843 -84.078  1.00  0.00     0.194 C 
HETATM    6  C19 UNL     1     145.229  12.946 -83.550  1.00  0.00     0.219 C 
HETATM    7  N1  UNL     1     144.715  11.567 -83.432  1.00  0.00    -0.029 N 
ATOM      8  H11 UNL     1     143.731  11.528 -83.168  1.00  0.00     0.281 HD
ATOM      9  H12 UNL     1     145.086  11.068 -82.624  1.00  0.00     0.281 HD
HETATM   10  C20 UNL     1     144.995  10.903 -84.691  1.00  0.00     0.351 C 
HETATM   11  C21 UNL     1     146.388  11.409 -84.996  1.00  0.00     0.205 C 
HETATM   12  C22 UNL     1     146.189  12.904 -84.654  1.00  0.00     0.193 C 
ENDROOT
BRANCH   1  13
HETATM   13  C1  UNL     1     146.733  12.834 -81.494  1.00  0.00     0.207 C 
BRANCH  13  14
HETATM   14  O1  UNL     1     147.955  13.368 -81.862  1.00  0.00    -0.398 OA
ATOM     15  H1  UNL     1     148.468  12.824 -82.448  1.00  0.00     0.209 HD
ENDBRANCH  13  14
ENDBRANCH   1  13
BRANCH   1  16
HETATM   16  C3  UNL     1     144.343  12.962 -81.318  1.00  0.00     0.211 C 
BRANCH  16  17
HETATM   17  O2  UNL     1     144.589  13.398 -80.001  1.00  0.00    -0.383 OA
BRANCH  17  18
HETATM   18  C4  UNL     1     143.404  13.586 -79.354  1.00  0.00     0.121 C 
HETATM   19  C5  UNL     1     143.541  13.796 -77.862  1.00  0.00     0.032 C 
HETATM   20  C6  UNL     1     142.243  13.287 -77.272  1.00  0.00     0.002 C 
HETATM   21  C7  UNL     1     141.921  12.108 -78.133  1.00  0.00     0.002 C 
HETATM   22  C8  UNL     1     142.611  12.276 -79.448  1.00  0.00     0.032 C 
ENDBRANCH  17  18
ENDBRANCH  16  17
ENDBRANCH   1  16
BRANCH   5  23
HETATM   23  O6  UNL     1     143.761  13.493 -85.387  1.00  0.00    -0.390 OA
ATOM     24  H6  UNL     1     142.979  12.953 -85.391  1.00  0.00     0.210 HD
ENDBRANCH   5  23
BRANCH  12  25
HETATM   25  O9  UNL     1     147.383  13.533 -84.578  1.00  0.00    -0.390 OA
ATOM     26  H9  UNL     1     147.902  13.712 -85.354  1.00  0.00     0.210 HD
ENDBRANCH  12  25
BRANCH   4  27
HETATM   27  O5  UNL     1     143.907  16.135 -84.795  1.00  0.00    -0.388 OA
ATOM     28  H5  UNL     1     144.385  16.937 -84.971  1.00  0.00     0.210 HD
ENDBRANCH   4  27
BRANCH  10  29
HETATM   29  O7  UNL     1     145.060   9.535 -84.447  1.00  0.00    -0.368 OA
ATOM     30  H7  UNL     1     145.549   9.135 -85.157  1.00  0.00     0.212 HD
ENDBRANCH  10  29
BRANCH  11  31
HETATM   31  O8  UNL     1     147.368  10.825 -84.238  1.00  0.00    -0.389 OA
ATOM     32  H8  UNL     1     148.076  11.414 -84.005  1.00  0.00     0.210 HD
ENDBRANCH  11  31
BRANCH   3  33
HETATM   33  O4  UNL     1     143.623  15.844 -81.960  1.00  0.00    -0.358 OA
BRANCH  33  34
HETATM   34  C10 UNL     1     143.340  16.740 -81.029  1.00  0.00     0.175 C 
BRANCH  34  35
HETATM   35  C11 UNL     1     144.287  17.054 -79.930  1.00  0.00     0.009 C 
HETATM   36  C12 UNL     1     143.444  17.335 -78.677  1.00  0.00     0.007 C 
HETATM   37  C13 UNL     1     143.282  18.816 -78.440  1.00  0.00     0.000 C 
HETATM   38  C14 UNL     1     144.602  19.406 -77.923  1.00  0.00     0.000 C 
HETATM   39  C15 UNL     1     145.690  18.760 -78.760  1.00  0.00     0.000 C 
HETATM   40  C16 UNL     1     145.120  18.295 -80.095  1.00  0.00     0.007 C 
ENDBRANCH  34  35
ENDBRANCH  33  34
ENDBRANCH   3  33
TORSDOF 13
ENDMDL
MODEL 2
REMARK VINA RESULT: -8.885886506      1.451      2.034
REMARK  13 active torsions:
REMARK  status: ('A' for Active; 'I' for Inactive)
REMARK    1  A    between atoms: O1_1  and  C1_3 
REMARK    2  A    between atoms: C1_3  and  C2_4 
REMARK    3  A    between atoms: C2_4  and  C3_5 
REMARK    4  A    between atoms: C3_5  and  O2_6 
REMARK    5  A    between atoms: O2_6  and  C4_7 
REMARK    6  A    between atoms: C9_13  and  O4_14 
REMARK    7  A    between atoms: O4_14  and  C10_15 
REMARK    8  A    between atoms: C10_15  and  C11_16 
REMARK    9  A    between atoms: C17_22  and  O5_23 
REMARK   10  A    between atoms: C18_25  and  O6_26 
REMARK   11  A    between atoms: C20_32  and  O7_33 
REMARK   12  A    between atoms: C21_35  and  O8_36 
REMARK   13  A    between atoms: C22_38  and  O9_39 
ROOT
HETATM    1  C2  UNL     1     144.492  13.106 -82.304  1.00  0.00     0.145 C 
HETATM    2  O3  UNL     1     144.929  13.755 -81.197  1.00  0.00    -0.340 OA
HETATM    3  C9  UNL     1     144.764  15.102 -81.051  1.00  0.00     0.292 C 
HETATM    4  C17 UNL     1     145.128  15.754 -82.375  1.00  0.00     0.204 C 
HETATM    5  C18 UNL     1     144.176  15.219 -83.404  1.00  0.00     0.194 C 
HETATM    6  C19 UNL     1     144.618  13.746 -83.604  1.00  0.00     0.219 C 
HETATM    7  N1  UNL     1     143.659  13.102 -84.524  1.00  0.00    -0.029 N 
ATOM      8  H11 UNL     1     142.706  13.452 -84.419  1.00  0.00     0.281 HD
ATOM      9  H12 UNL     1     143.466  12.129 -84.286  1.00  0.00     0.281 HD
HETATM   10  C20 UNL     1     144.183  13.268 -85.865  1.00  0.00     0.351 C 
HETATM   11  C21 UNL     1     145.658  13.011 -85.647  1.00  0.00     0.205 C 
HETATM   12  C22 UNL     1     145.867  13.842 -84.360  1.00  0.00     0.193 C 
ENDROOT
BRANCH   1  13
HETATM   13  C1  UNL     1     144.999  11.685 -82.151  1.00  0.00     0.207 C 
BRANCH  13  14
HETATM   14  O1  UNL     1     144.570  10.807 -83.131  1.00  0.00    -0.398 OA
ATOM     15  H1  UNL     1     144.144  10.022 -82.805  1.00  0.00     0.209 HD
ENDBRANCH  13  14
ENDBRANCH   1  13
BRANCH   1  16
HETATM   16  C3  UNL     1     142.957  12.942 -82.066  1.00  0.00     0.211 C 
BRANCH  16  17
HETATM   17  O2  UNL     1     142.751  11.744 -81.356  1.00  0.00    -0.383 OA
BRANCH  17  18
HETATM   18  C4  UNL     1     141.856  11.958 -80.349  1.00  0.00     0.121 C 
HETATM   19  C5  UNL     1     142.484  12.406 -79.049  1.00  0.00     0.032 C 
HETATM   20  C6  UNL     1     141.543  11.917 -77.968  1.00  0.00     0.002 C 
HETATM   21  C7  UNL     1     141.075  10.601 -78.499  1.00  0.00     0.002 C 
HETATM   22  C8  UNL     1     141.235  10.603 -79.985  1.00  0.00     0.032 C 
ENDBRANCH  17  18
ENDBRANCH  16  17
ENDBRANCH   1  16
BRANCH   5  23
HETATM   23  O6  UNL     1     144.326  15.928 -84.593  1.00  0.00    -0.390 OA
ATOM     24  H6  UNL     1     143.522  16.392 -84.791  1.00  0.00     0.210 HD
ENDBRANCH   5  23
BRANCH  12  25
HETATM   25  O9  UNL     1     147.060  13.547 -83.797  1.00  0.00    -0.390 OA
ATOM     26  H9  UNL     1     147.473  12.701 -83.920  1.00  0.00     0.210 HD
ENDBRANCH  12  25
BRANCH   4  27
HETATM   27  O5  UNL     1     145.120  17.138 -82.300  1.00  0.00    -0.388 OA
ATOM     28  H5  UNL     1     145.100  17.546 -83.157  1.00  0.00     0.210 HD
ENDBRANCH   4  27
BRANCH  10  29
HETATM   29  O7  UNL     1     143.664  12.249 -86.657  1.00  0.00    -0.368 OA
ATOM     30  H7  UNL     1     144.394  11.753 -87.011  1.00  0.00     0.212 HD
ENDBRANCH  10  29
BRANCH  11  31
HETATM   31  O8  UNL     1     145.969  11.688 -85.472  1.00  0.00    -0.389 OA
ATOM     32  H8  UNL     1     145.926  11.400 -84.568  1.00  0.00     0.210 HD
ENDBRANCH  11  31
BRANCH   3  33
HETATM   33  O4  UNL     1     143.612  15.475 -80.521  1.00  0.00    -0.358 OA
BRANCH  33  34
HETATM   34  C10 UNL     1     143.384  16.391 -79.594  1.00  0.00     0.175 C 
BRANCH  34  35
HETATM   35  C11 UNL     1     144.484  17.000 -78.806  1.00  0.00     0.009 C 
HETATM   36  C12 UNL     1     143.967  17.169 -77.370  1.00  0.00     0.007 C 
HETATM   37  C13 UNL     1     143.515  18.585 -77.108  1.00  0.00     0.000 C 
HETATM   38  C14 UNL     1     144.739  19.504 -76.984  1.00  0.00     0.000 C 
HETATM   39  C15 UNL     1     145.686  19.069 -78.087  1.00  0.00     0.000 C 
HETATM   40  C16 UNL     1     144.911  18.384 -79.206  1.00  0.00     0.007 C 
ENDBRANCH  34  35
ENDBRANCH  33  34
ENDBRANCH   3  33
TORSDOF 13
ENDMDL
MODEL 3
REMARK VINA RESULT: -8.834319176      1.679      2.675
REMARK  13 active torsions:
REMARK  status: ('A' for Active; 'I' for Inactive)
REMARK    1  A    between atoms: O1_1  and  C1_3 
REMARK    2  A    between atoms: C1_3  and  C2_4 
REMARK    3  A    between atoms: C2_4  and  C3_5 
REMARK    4  A    between atoms: C3_5  and  O2_6 
REMARK    5  A    between atoms: O2_6  and  C4_7 
REMARK    6  A    between atoms: C9_13  and  O4_14 
REMARK    7  A    between atoms: O4_14  and  C10_15 
REMARK    8  A    between atoms: C10_15  and  C11_16 
REMARK    9  A    between atoms: C17_22  and  O5_23 
REMARK   10  A    between atoms: C18_25  and  O6_26 
REMARK   11  A    between atoms: C20_32  and  O7_33 
REMARK   12  A    between atoms: C21_35  and  O8_36 
REMARK   13  A    between atoms: C22_38  and  O9_39 
ROOT
HETATM    1  C2  UNL     1     144.405  12.621 -82.232  1.00  0.00     0.145 C 
HETATM    2  O3  UNL     1     145.154  12.909 -81.140  1.00  0.00    -0.340 OA
HETATM    3  C9  UNL     1     145.287  14.189 -80.686  1.00  0.00     0.292 C 
HETATM    4  C17 UNL     1     145.527  15.080 -81.895  1.00  0.00     0.204 C 
HETATM    5  C18 UNL     1     144.318  14.960 -82.776  1.00  0.00     0.194 C 
HETATM    6  C19 UNL     1     144.418  13.529 -83.367  1.00  0.00     0.219 C 
HETATM    7  N1  UNL     1     143.201  13.279 -84.165  1.00  0.00    -0.029 N 
ATOM      8  H11 UNL     1     142.371  13.733 -83.782  1.00  0.00     0.281 HD
ATOM      9  H12 UNL     1     142.866  12.318 -84.096  1.00  0.00     0.281 HD
HETATM   10  C20 UNL     1     143.496  13.685 -85.525  1.00  0.00     0.351 C 
HETATM   11  C21 UNL     1     144.906  13.163 -85.696  1.00  0.00     0.205 C 
HETATM   12  C22 UNL     1     145.504  13.617 -84.344  1.00  0.00     0.193 C 
ENDROOT
BRANCH   1  13
HETATM   13  C1  UNL     1     144.642  11.144 -82.492  1.00  0.00     0.207 C 
BRANCH  13  14
HETATM   14  O1  UNL     1     145.970  10.756 -82.469  1.00  0.00    -0.398 OA
ATOM     15  H1  UNL     1     146.360  10.620 -83.324  1.00  0.00     0.209 HD
ENDBRANCH  13  14
ENDBRANCH   1  13
BRANCH   1  16
HETATM   16  C3  UNL     1     142.937  12.637 -81.701  1.00  0.00     0.211 C 
BRANCH  16  17
HETATM   17  O2  UNL     1     142.429  11.325 -81.781  1.00  0.00    -0.383 OA
BRANCH  17  18
HETATM   18  C4  UNL     1     142.303  10.807 -80.526  1.00  0.00     0.121 C 
HETATM   19  C5  UNL     1     140.984  10.110 -80.276  1.00  0.00     0.032 C 
HETATM   20  C6  UNL     1     140.742  10.250 -78.787  1.00  0.00     0.002 C 
HETATM   21  C7  UNL     1     141.273  11.615 -78.487  1.00  0.00     0.002 C 
HETATM   22  C8  UNL     1     142.268  11.981 -79.541  1.00  0.00     0.032 C 
ENDBRANCH  17  18
ENDBRANCH  16  17
ENDBRANCH   1  16
BRANCH   5  23
HETATM   23  O6  UNL     1     144.388  15.904 -83.796  1.00  0.00    -0.390 OA
ATOM     24  H6  UNL     1     143.554  15.947 -84.248  1.00  0.00     0.210 HD
ENDBRANCH   5  23
BRANCH  12  25
HETATM   25  O9  UNL     1     146.697  13.018 -84.132  1.00  0.00    -0.390 OA
ATOM     26  H9  UNL     1     147.452  13.506 -83.824  1.00  0.00     0.210 HD
ENDBRANCH  12  25
BRANCH   4  27
HETATM   27  O5  UNL     1     145.806  16.390 -81.536  1.00  0.00    -0.388 OA
ATOM     28  H5  UNL     1     145.054  16.960 -81.641  1.00  0.00     0.210 HD
ENDBRANCH   4  27
BRANCH  10  29
HETATM   29  O7  UNL     1     142.653  12.977 -86.376  1.00  0.00    -0.368 OA
ATOM     30  H7  UNL     1     143.117  12.830 -87.192  1.00  0.00     0.212 HD
ENDBRANCH  10  29
BRANCH  11  31
HETATM   31  O8  UNL     1     144.977  11.806 -85.871  1.00  0.00    -0.389 OA
ATOM     32  H8  UNL     1     144.858  11.309 -85.070  1.00  0.00     0.210 HD
ENDBRANCH  11  31
BRANCH   3  33
HETATM   33  O4  UNL     1     144.347  14.592 -79.850  1.00  0.00    -0.358 OA
BRANCH  33  34
HETATM   34  C10 UNL     1     144.455  14.909 -78.571  1.00  0.00     0.175 C 
BRANCH  34  35
HETATM   35  C11 UNL     1     143.652  16.000 -77.963  1.00  0.00     0.009 C 
HETATM   36  C12 UNL     1     142.831  16.637 -79.093  1.00  0.00     0.007 C 
HETATM   37  C13 UNL     1     143.470  17.910 -79.591  1.00  0.00     0.000 C 
HETATM   38  C14 UNL     1     143.276  19.027 -78.556  1.00  0.00     0.000 C 
HETATM   39  C15 UNL     1     143.532  18.378 -77.208  1.00  0.00     0.000 C 
HETATM   40  C16 UNL     1     144.419  17.151 -77.375  1.00  0.00     0.007 C 
ENDBRANCH  34  35
ENDBRANCH  33  34
ENDBRANCH   3  33
TORSDOF 13
ENDMDL
MODEL 4
REMARK VINA RESULT: -8.157404831      1.756      2.935
REMARK  13 active torsions:
REMARK  status: ('A' for Active; 'I' for Inactive)
REMARK    1  A    between atoms: O1_1  and  C1_3 
REMARK    2  A    between atoms: C1_3  and  C2_4 
REMARK    3  A    between atoms: C2_4  and  C3_5 
REMARK    4  A    between atoms: C3_5  and  O2_6 
REMARK    5  A    between atoms: O2_6  and  C4_7 
REMARK    6  A    between atoms: C9_13  and  O4_14 
REMARK    7  A    between atoms: O4_14  and  C10_15 
REMARK    8  A    between atoms: C10_15  and  C11_16 
REMARK    9  A    between atoms: C17_22  and  O5_23 
REMARK   10  A    between atoms: C18_25  and  O6_26 
REMARK   11  A    between atoms: C20_32  and  O7_33 
REMARK   12  A    between atoms: C21_35  and  O8_36 
REMARK   13  A    between atoms: C22_38  and  O9_39 
ROOT
HETATM    1  C2  UNL     1     144.533  13.414 -82.204  1.00  0.00     0.145 C 
HETATM    2  O3  UNL     1     145.037  14.122 -81.164  1.00  0.00    -0.340 OA
HETATM    3  C9  UNL     1     144.863  15.472 -81.071  1.00  0.00     0.292 C 
HETATM    4  C17 UNL     1     145.124  16.063 -82.448  1.00  0.00     0.204 C 
HETATM    5  C18 UNL     1     144.109  15.467 -83.380  1.00  0.00     0.194 C 
HETATM    6  C19 UNL     1     144.558  13.990 -83.539  1.00  0.00     0.219 C 
HETATM    7  N1  UNL     1     143.547  13.291 -84.356  1.00  0.00    -0.029 N 
ATOM      8  H11 UNL     1     142.599  13.635 -84.201  1.00  0.00     0.281 HD
ATOM      9  H12 UNL     1     143.385  12.329 -84.059  1.00  0.00     0.281 HD
HETATM   10  C20 UNL     1     143.973  13.397 -85.738  1.00  0.00     0.351 C 
HETATM   11  C21 UNL     1     145.464  13.167 -85.613  1.00  0.00     0.205 C 
HETATM   12  C22 UNL     1     145.750  14.064 -84.385  1.00  0.00     0.193 C 
ENDROOT
BRANCH   1  13
HETATM   13  C1  UNL     1     145.071  12.008 -82.019  1.00  0.00     0.207 C 
BRANCH  13  14
HETATM   14  O1  UNL     1     146.402  11.939 -81.644  1.00  0.00    -0.398 OA
ATOM     15  H1  UNL     1     146.584  11.337 -80.932  1.00  0.00     0.209 HD
ENDBRANCH  13  14
ENDBRANCH   1  13
BRANCH   1  16
HETATM   16  C3  UNL     1     143.022  13.244 -81.851  1.00  0.00     0.211 C 
BRANCH  16  17
HETATM   17  O2  UNL     1     142.779  11.877 -81.617  1.00  0.00    -0.383 OA
BRANCH  17  18
HETATM   18  C4  UNL     1     141.989  11.735 -80.514  1.00  0.00     0.121 C 
HETATM   19  C5  UNL     1     142.714  11.199 -79.300  1.00  0.00     0.032 C 
HETATM   20  C6  UNL     1     141.654  10.475 -78.496  1.00  0.00     0.002 C 
HETATM   21  C7  UNL     1     140.794   9.859 -79.552  1.00  0.00     0.002 C 
HETATM   22  C8  UNL     1     140.962  10.637 -80.817  1.00  0.00     0.032 C 
ENDBRANCH  17  18
ENDBRANCH  16  17
ENDBRANCH   1  16
BRANCH   5  23
HETATM   23  O6  UNL     1     144.166  16.118 -84.609  1.00  0.00    -0.390 OA
ATOM     24  H6  UNL     1     143.287  16.346 -84.888  1.00  0.00     0.210 HD
ENDBRANCH   5  23
BRANCH  12  25
HETATM   25  O9  UNL     1     146.984  13.810 -83.895  1.00  0.00    -0.390 OA
ATOM     26  H9  UNL     1     147.757  13.858 -84.444  1.00  0.00     0.210 HD
ENDBRANCH  12  25
BRANCH   4  27
HETATM   27  O5  UNL     1     145.100  17.448 -82.439  1.00  0.00    -0.388 OA
ATOM     28  H5  UNL     1     144.294  17.793 -82.075  1.00  0.00     0.210 HD
ENDBRANCH   4  27
BRANCH  10  29
HETATM   29  O7  UNL     1     143.416  12.334 -86.441  1.00  0.00    -0.368 OA
ATOM     30  H7  UNL     1     142.836  11.865 -85.851  1.00  0.00     0.212 HD
ENDBRANCH  10  29
BRANCH  11  31
HETATM   31  O8  UNL     1     145.806  11.859 -85.396  1.00  0.00    -0.389 OA
ATOM     32  H8  UNL     1     146.033  11.666 -84.494  1.00  0.00     0.210 HD
ENDBRANCH  11  31
BRANCH   3  33
HETATM   33  O4  UNL     1     143.746  15.858 -80.480  1.00  0.00    -0.358 OA
BRANCH  33  34
HETATM   34  C10 UNL     1     143.595  16.573 -79.377  1.00  0.00     0.175 C 
BRANCH  34  35
HETATM   35  C11 UNL     1     143.176  15.956 -78.094  1.00  0.00     0.009 C 
HETATM   36  C12 UNL     1     144.448  15.432 -77.411  1.00  0.00     0.007 C 
HETATM   37  C13 UNL     1     144.618  13.948 -77.624  1.00  0.00     0.000 C 
HETATM   38  C14 UNL     1     143.604  13.182 -76.762  1.00  0.00     0.000 C 
HETATM   39  C15 UNL     1     142.301  13.949 -76.891  1.00  0.00     0.000 C 
HETATM   40  C16 UNL     1     142.287  14.748 -78.188  1.00  0.00     0.007 C 
ENDBRANCH  34  35
ENDBRANCH  33  34
ENDBRANCH   3  33
TORSDOF 13
ENDMDL
MODEL 5
REMARK VINA RESULT: -8.001286212      0.656      1.076
REMARK  13 active torsions:
REMARK  status: ('A' for Active; 'I' for Inactive)
REMARK    1  A    between atoms: O1_1  and  C1_3 
REMARK    2  A    between atoms: C1_3  and  C2_4 
REMARK    3  A    between atoms: C2_4  and  C3_5 
REMARK    4  A    between atoms: C3_5  and  O2_6 
REMARK    5  A    between atoms: O2_6  and  C4_7 
REMARK    6  A    between atoms: C9_13  and  O4_14 
REMARK    7  A    between atoms: O4_14  and  C10_15 
REMARK    8  A    between atoms: C10_15  and  C11_16 
REMARK    9  A    between atoms: C17_22  and  O5_23 
REMARK   10  A    between atoms: C18_25  and  O6_26 
REMARK   11  A    between atoms: C20_32  and  O7_33 
REMARK   12  A    between atoms: C21_35  and  O8_36 
REMARK   13  A    between atoms: C22_38  and  O9_39 
ROOT
HETATM    1  C2  UNL     1     145.406  13.371 -82.154  1.00  0.00     0.145 C 
HETATM    2  O3  UNL     1     145.421  14.687 -81.829  1.00  0.00    -0.340 OA
HETATM    3  C9  UNL     1     144.581  15.578 -82.430  1.00  0.00     0.292 C 
HETATM    4  C17 UNL     1     144.583  15.275 -83.920  1.00  0.00     0.204 C 
HETATM    5  C18 UNL     1     144.065  13.876 -84.084  1.00  0.00     0.194 C 
HETATM    6  C19 UNL     1     145.210  12.980 -83.541  1.00  0.00     0.219 C 
HETATM    7  N1  UNL     1     144.741  11.580 -83.558  1.00  0.00    -0.029 N 
ATOM      8  H11 UNL     1     143.743  11.489 -83.368  1.00  0.00     0.281 HD
ATOM      9  H12 UNL     1     145.074  11.035 -82.762  1.00  0.00     0.281 HD
HETATM   10  C20 UNL     1     145.131  11.019 -84.836  1.00  0.00     0.351 C 
HETATM   11  C21 UNL     1     146.522  11.591 -85.005  1.00  0.00     0.205 C 
HETATM   12  C22 UNL     1     146.244  13.049 -84.573  1.00  0.00     0.193 C 
ENDROOT
BRANCH   1  13
HETATM   13  C1  UNL     1     146.572  12.765 -81.395  1.00  0.00     0.207 C 
BRANCH  13  14
HETATM   14  O1  UNL     1     147.815  13.256 -81.754  1.00  0.00    -0.398 OA
ATOM     15  H1  UNL     1     147.818  14.159 -82.048  1.00  0.00     0.209 HD
ENDBRANCH  13  14
ENDBRANCH   1  13
BRANCH   1  16
HETATM   16  C3  UNL     1     144.172  12.804 -81.382  1.00  0.00     0.211 C 
BRANCH  16  17
HETATM   17  O2  UNL     1     144.292  13.180 -80.030  1.00  0.00    -0.383 OA
BRANCH  17  18
HETATM   18  C4  UNL     1     143.560  12.331 -79.253  1.00  0.00     0.121 C 
HETATM   19  C5  UNL     1     142.318  11.793 -79.927  1.00  0.00     0.032 C 
HETATM   20  C6  UNL     1     141.348  11.512 -78.798  1.00  0.00     0.002 C 
HETATM   21  C7  UNL     1     141.613  12.629 -77.841  1.00  0.00     0.002 C 
HETATM   22  C8  UNL     1     142.994  13.146 -78.083  1.00  0.00     0.032 C 
ENDBRANCH  17  18
ENDBRANCH  16  17
ENDBRANCH   1  16
BRANCH   5  23
HETATM   23  O6  UNL     1     143.852  13.612 -85.434  1.00  0.00    -0.390 OA
ATOM     24  H6  UNL     1     142.933  13.423 -85.580  1.00  0.00     0.210 HD
ENDBRANCH   5  23
BRANCH  12  25
HETATM   25  O9  UNL     1     147.406  13.709 -84.368  1.00  0.00    -0.390 OA
ATOM     26  H9  UNL     1     147.431  14.652 -84.258  1.00  0.00     0.210 HD
ENDBRANCH  12  25
BRANCH   4  27
HETATM   27  O5  UNL     1     143.859  16.207 -84.648  1.00  0.00    -0.388 OA
ATOM     28  H5  UNL     1     144.373  16.975 -84.863  1.00  0.00     0.210 HD
ENDBRANCH   4  27
BRANCH  10  29
HETATM   29  O7  UNL     1     145.231   9.640 -84.687  1.00  0.00    -0.368 OA
ATOM     30  H7  UNL     1     145.238   9.446 -83.756  1.00  0.00     0.212 HD
ENDBRANCH  10  29
BRANCH  11  31
HETATM   31  O8  UNL     1     147.469  10.984 -84.222  1.00  0.00    -0.389 OA
ATOM     32  H8  UNL     1     147.167  10.779 -83.345  1.00  0.00     0.210 HD
ENDBRANCH  11  31
BRANCH   3  33
HETATM   33  O4  UNL     1     143.391  15.700 -81.868  1.00  0.00    -0.358 OA
BRANCH  33  34
HETATM   34  C10 UNL     1     143.069  16.289 -80.728  1.00  0.00     0.175 C 
BRANCH  34  35
HETATM   35  C11 UNL     1     143.998  17.215 -80.034  1.00  0.00     0.009 C 
HETATM   36  C12 UNL     1     144.564  16.460 -78.823  1.00  0.00     0.007 C 
HETATM   37  C13 UNL     1     143.849  16.842 -77.550  1.00  0.00     0.000 C 
HETATM   38  C14 UNL     1     144.277  18.252 -77.118  1.00  0.00     0.000 C 
HETATM   39  C15 UNL     1     144.310  19.074 -78.393  1.00  0.00     0.000 C 
HETATM   40  C16 UNL     1     143.392  18.456 -79.441  1.00  0.00     0.007 C 
ENDBRANCH  34  35
ENDBRANCH  33  34
ENDBRANCH   3  33
TORSDOF 13
ENDMDL
