MODEL 1
REMARK VINA RESULT: -5.196878430      0.000      0.000
REMARK  4 active torsions:
REMARK  status: ('A' for Active; 'I' for Inactive)
REMARK    1  A    between atoms: N1_1  and  C1_4 
REMARK    2  A    between atoms: C2_9  and  S1_10 
REMARK    3  A    between atoms: S1_10  and  N4_13 
REMARK    4  A    between atoms: N7_18  and  N8_19 
ROOT
HETATM    1  C1  UNL     1      22.889  -2.536  -0.202  1.00  0.00     0.713 A 
HETATM    2  N2  UNL     1      23.521  -2.705  -1.376  1.00  0.00    -0.128 N 
ATOM      3  H2  UNL     1      24.444  -3.122  -1.495  1.00  0.00     0.205 HD
HETATM    4  N3  UNL     1      22.750  -2.242  -2.364  1.00  0.00    -0.258 N 
ATOM      5  H3  UNL     1      22.974  -2.242  -3.359  1.00  0.00     0.190 HD
HETATM    6  C2  UNL     1      21.638  -1.783  -1.808  1.00  0.00     0.276 A 
HETATM    7  N7  UNL     1      21.702  -1.956  -0.458  1.00  0.00    -0.061 N 
ENDROOT
BRANCH   6   8
HETATM    8  S1  UNL     1      20.234  -1.049  -2.569  1.00  0.00     0.300 S 
HETATM    9  O1  UNL     1      20.034   0.351  -2.049  1.00  0.00    -0.197 OA
HETATM   10  O2  UNL     1      18.992  -1.825  -2.272  1.00  0.00    -0.197 OA
BRANCH   8  11
HETATM   11  N4  UNL     1      20.580  -0.975  -4.255  1.00  0.00    -0.254 N 
HETATM   12  C3  UNL     1      20.320  -1.979  -4.996  1.00  0.00     0.210 C 
HETATM   13  N5  UNL     1      19.749  -3.156  -4.444  1.00  0.00    -0.066 NA
HETATM   14  N6  UNL     1      20.620  -1.878  -6.380  1.00  0.00    -0.066 NA
ATOM     15  H4  UNL     1      20.992  -0.133  -4.658  1.00  0.00     0.181 HD
ENDBRANCH   8  11
ENDBRANCH   6   8
BRANCH   7  16
HETATM   16  N8  UNL     1      20.744  -1.609   0.485  1.00  0.00    -0.322 N 
ATOM     17  H82 UNL     1      20.282  -2.223   1.157  1.00  0.00     0.178 HD
ATOM     18  H81 UNL     1      20.363  -0.675   0.636  1.00  0.00     0.178 HD
ENDBRANCH   7  16
BRANCH   1  19
HETATM   19  N1  UNL     1      23.355  -2.874   0.944  1.00  0.00    -0.231 N 
ATOM     20  H12 UNL     1      23.668  -2.252   1.690  1.00  0.00     0.174 HD
ATOM     21  H11 UNL     1      23.478  -3.833   1.271  1.00  0.00     0.174 HD
ENDBRANCH   1  19
TORSDOF 4
ENDMDL
MODEL 2
REMARK VINA RESULT: -5.016305123      1.442      1.762
REMARK  4 active torsions:
REMARK  status: ('A' for Active; 'I' for Inactive)
REMARK    1  A    between atoms: N1_1  and  C1_4 
REMARK    2  A    between atoms: C2_9  and  S1_10 
REMARK    3  A    between atoms: S1_10  and  N4_13 
REMARK    4  A    between atoms: N7_18  and  N8_19 
ROOT
HETATM    1  C1  UNL     1      24.030  -1.254  -0.938  1.00  0.00     0.713 A 
HETATM    2  N2  UNL     1      24.123  -0.770  -2.188  1.00  0.00    -0.128 N 
ATOM      3  H2  UNL     1      24.987  -0.474  -2.644  1.00  0.00     0.205 HD
HETATM    4  N3  UNL     1      22.908  -0.738  -2.742  1.00  0.00    -0.258 N 
ATOM      5  H3  UNL     1      22.679  -0.417  -3.683  1.00  0.00     0.190 HD
HETATM    6  C2  UNL     1      22.055  -1.200  -1.839  1.00  0.00     0.276 A 
HETATM    7  N7  UNL     1      22.733  -1.529  -0.704  1.00  0.00    -0.061 N 
ENDROOT
BRANCH   6   8
HETATM    8  S1  UNL     1      20.314  -1.407  -1.956  1.00  0.00     0.300 S 
HETATM    9  O1  UNL     1      19.700  -0.241  -2.687  1.00  0.00    -0.197 OA
HETATM   10  O2  UNL     1      19.687  -1.475  -0.602  1.00  0.00    -0.197 OA
BRANCH   8  11
HETATM   11  N4  UNL     1      20.058  -2.841  -2.877  1.00  0.00    -0.254 N 
HETATM   12  C3  UNL     1      20.289  -2.833  -4.131  1.00  0.00     0.210 C 
HETATM   13  N5  UNL     1      20.752  -1.655  -4.772  1.00  0.00    -0.066 NA
HETATM   14  N6  UNL     1      20.065  -4.034  -4.853  1.00  0.00    -0.066 NA
ATOM     15  H4  UNL     1      19.723  -3.690  -2.422  1.00  0.00     0.181 HD
ENDBRANCH   8  11
ENDBRANCH   6   8
BRANCH   7  16
HETATM   16  N8  UNL     1      22.209  -2.046   0.473  1.00  0.00    -0.322 N 
ATOM     17  H82 UNL     1      21.352  -2.588   0.587  1.00  0.00     0.178 HD
ATOM     18  H81 UNL     1      22.618  -1.951   1.403  1.00  0.00     0.178 HD
ENDBRANCH   7  16
BRANCH   1  19
HETATM   19  N1  UNL     1      25.014  -1.415  -0.131  1.00  0.00    -0.231 N 
ATOM     20  H12 UNL     1      25.647  -0.697   0.219  1.00  0.00     0.174 HD
ATOM     21  H11 UNL     1      25.301  -2.305   0.277  1.00  0.00     0.174 HD
ENDBRANCH   1  19
TORSDOF 4
ENDMDL
MODEL 3
REMARK VINA RESULT: -5.009323916      2.007      2.646
REMARK  4 active torsions:
REMARK  status: ('A' for Active; 'I' for Inactive)
REMARK    1  A    between atoms: N1_1  and  C1_4 
REMARK    2  A    between atoms: C2_9  and  S1_10 
REMARK    3  A    between atoms: S1_10  and  N4_13 
REMARK    4  A    between atoms: N7_18  and  N8_19 
ROOT
HETATM    1  C1  UNL     1      20.502  -1.691   0.336  1.00  0.00     0.713 A 
HETATM    2  N2  UNL     1      19.433  -1.575  -0.470  1.00  0.00    -0.128 N 
ATOM      3  H2  UNL     1      18.459  -1.590  -0.166  1.00  0.00     0.205 HD
HETATM    4  N3  UNL     1      19.845  -1.438  -1.734  1.00  0.00    -0.258 N 
ATOM      5  H3  UNL     1      19.252  -1.331  -2.556  1.00  0.00     0.190 HD
HETATM    6  C2  UNL     1      21.170  -1.468  -1.717  1.00  0.00     0.276 A 
HETATM    7  N7  UNL     1      21.603  -1.624  -0.435  1.00  0.00    -0.061 N 
ENDROOT
BRANCH   6   8
HETATM    8  S1  UNL     1      22.302  -1.338  -3.054  1.00  0.00     0.300 S 
HETATM    9  O1  UNL     1      23.168  -2.570  -3.124  1.00  0.00    -0.197 OA
HETATM   10  O2  UNL     1      23.204  -0.159  -2.885  1.00  0.00    -0.197 OA
BRANCH   8  11
HETATM   11  N4  UNL     1      21.351  -1.243  -4.488  1.00  0.00    -0.254 N 
HETATM   12  C3  UNL     1      20.643  -2.243  -4.841  1.00  0.00     0.210 C 
HETATM   13  N5  UNL     1      20.634  -3.431  -4.065  1.00  0.00    -0.066 NA
HETATM   14  N6  UNL     1      19.873  -2.124  -6.028  1.00  0.00    -0.066 NA
ATOM     15  H4  UNL     1      21.354  -0.392  -5.051  1.00  0.00     0.181 HD
ENDBRANCH   8  11
ENDBRANCH   6   8
BRANCH   7  16
HETATM   16  N8  UNL     1      22.916  -1.704   0.010  1.00  0.00    -0.322 N 
ATOM     17  H82 UNL     1      23.247  -1.686   0.975  1.00  0.00     0.178 HD
ATOM     18  H81 UNL     1      23.743  -1.792  -0.580  1.00  0.00     0.178 HD
ENDBRANCH   7  16
BRANCH   1  19
HETATM   19  N1  UNL     1      20.455  -1.836   1.610  1.00  0.00    -0.231 N 
ATOM     20  H12 UNL     1      19.713  -1.529   2.239  1.00  0.00     0.174 HD
ATOM     21  H11 UNL     1      21.172  -2.290   2.177  1.00  0.00     0.174 HD
ENDBRANCH   1  19
TORSDOF 4
ENDMDL
MODEL 4
REMARK VINA RESULT: -4.909900796      2.201      2.700
REMARK  4 active torsions:
REMARK  status: ('A' for Active; 'I' for Inactive)
REMARK    1  A    between atoms: N1_1  and  C1_4 
REMARK    2  A    between atoms: C2_9  and  S1_10 
REMARK    3  A    between atoms: S1_10  and  N4_13 
REMARK    4  A    between atoms: N7_18  and  N8_19 
ROOT
HETATM    1  C1  UNL     1      21.001  -1.860   0.227  1.00  0.00     0.713 A 
HETATM    2  N2  UNL     1      22.259  -2.229   0.523  1.00  0.00    -0.128 N 
ATOM      3  H2  UNL     1      22.637  -2.335   1.465  1.00  0.00     0.205 HD
HETATM    4  N3  UNL     1      22.937  -2.437  -0.609  1.00  0.00    -0.258 N 
ATOM      5  H3  UNL     1      23.912  -2.726  -0.687  1.00  0.00     0.190 HD
HETATM    6  C2  UNL     1      22.105  -2.198  -1.612  1.00  0.00     0.276 A 
HETATM    7  N7  UNL     1      20.889  -1.837  -1.114  1.00  0.00    -0.061 N 
ENDROOT
BRANCH   6   8
HETATM    8  S1  UNL     1      22.391  -2.294  -3.343  1.00  0.00     0.300 S 
HETATM    9  O1  UNL     1      23.871  -2.288  -3.626  1.00  0.00    -0.197 OA
HETATM   10  O2  UNL     1      21.789  -1.127  -4.055  1.00  0.00    -0.197 OA
BRANCH   8  11
HETATM   11  N4  UNL     1      21.729  -3.799  -3.860  1.00  0.00    -0.254 N 
HETATM   12  C3  UNL     1      20.584  -3.823  -4.422  1.00  0.00     0.210 C 
HETATM   13  N5  UNL     1      19.852  -2.624  -4.621  1.00  0.00    -0.066 NA
HETATM   14  N6  UNL     1      20.075  -5.083  -4.833  1.00  0.00    -0.066 NA
ATOM     15  H4  UNL     1      22.249  -4.665  -3.718  1.00  0.00     0.181 HD
ENDBRANCH   8  11
ENDBRANCH   6   8
BRANCH   7  16
HETATM   16  N8  UNL     1      19.747  -1.504  -1.831  1.00  0.00    -0.322 N 
ATOM     17  H82 UNL     1      18.855  -1.176  -1.460  1.00  0.00     0.178 HD
ATOM     18  H81 UNL     1      19.644  -1.545  -2.844  1.00  0.00     0.178 HD
ENDBRANCH   7  16
BRANCH   1  19
HETATM   19  N1  UNL     1      20.089  -1.586   1.086  1.00  0.00    -0.231 N 
ATOM     20  H12 UNL     1      19.868  -0.671   1.479  1.00  0.00     0.174 HD
ATOM     21  H11 UNL     1      19.448  -2.262   1.501  1.00  0.00     0.174 HD
ENDBRANCH   1  19
TORSDOF 4
ENDMDL
MODEL 5
REMARK VINA RESULT: -4.888948791      1.411      2.227
REMARK  4 active torsions:
REMARK  status: ('A' for Active; 'I' for Inactive)
REMARK    1  A    between atoms: N1_1  and  C1_4 
REMARK    2  A    between atoms: C2_9  and  S1_10 
REMARK    3  A    between atoms: S1_10  and  N4_13 
REMARK    4  A    between atoms: N7_18  and  N8_19 
ROOT
HETATM    1  C1  UNL     1      23.557  -1.647  -0.435  1.00  0.00     0.713 A 
HETATM    2  N2  UNL     1      22.592  -1.943   0.453  1.00  0.00    -0.128 N 
ATOM      3  H2  UNL     1      22.728  -2.049   1.458  1.00  0.00     0.205 HD
HETATM    4  N3  UNL     1      21.428  -2.078  -0.188  1.00  0.00    -0.258 N 
ATOM      5  H3  UNL     1      20.526  -2.301   0.234  1.00  0.00     0.190 HD
HETATM    6  C2  UNL     1      21.663  -1.866  -1.475  1.00  0.00     0.276 A 
HETATM    7  N7  UNL     1      22.987  -1.595  -1.654  1.00  0.00    -0.061 N 
ENDROOT
BRANCH   6   8
HETATM    8  S1  UNL     1      20.546  -1.899  -2.831  1.00  0.00     0.300 S 
HETATM    9  O1  UNL     1      20.952  -0.877  -3.862  1.00  0.00    -0.197 OA
HETATM   10  O2  UNL     1      19.156  -1.574  -2.393  1.00  0.00    -0.197 OA
BRANCH   8  11
HETATM   11  N4  UNL     1      20.671  -3.472  -3.524  1.00  0.00    -0.254 N 
HETATM   12  C3  UNL     1      20.269  -3.666  -4.718  1.00  0.00     0.210 C 
HETATM   13  N5  UNL     1      19.720  -2.602  -5.478  1.00  0.00    -0.066 NA
HETATM   14  N6  UNL     1      20.390  -4.977  -5.252  1.00  0.00    -0.066 NA
ATOM     15  H4  UNL     1      21.064  -4.242  -2.982  1.00  0.00     0.181 HD
ENDBRANCH   8  11
ENDBRANCH   6   8
BRANCH   7  16
HETATM   16  N8  UNL     1      23.639  -1.318  -2.847  1.00  0.00    -0.322 N 
ATOM     17  H82 UNL     1      24.597  -0.989  -2.971  1.00  0.00     0.178 HD
ATOM     18  H81 UNL     1      23.240  -1.406  -3.782  1.00  0.00     0.178 HD
ENDBRANCH   7  16
BRANCH   1  19
HETATM   19  N1  UNL     1      24.792  -1.453  -0.149  1.00  0.00    -0.231 N 
ATOM     20  H12 UNL     1      25.348  -1.948   0.548  1.00  0.00     0.174 HD
ATOM     21  H11 UNL     1      25.397  -0.760  -0.591  1.00  0.00     0.174 HD
ENDBRANCH   1  19
TORSDOF 4
ENDMDL
