MODEL 1
REMARK VINA RESULT: -6.116022621      0.000      0.000
REMARK  3 active torsions:
REMARK  status: ('A' for Active; 'I' for Inactive)
REMARK    1  A    between atoms: C4_5  and  C5_6 
REMARK    2  A    between atoms: C8_15  and  N3_16 
REMARK    3  A    between atoms: N3_16  and  C9_18 
ROOT
HETATM    1  C5  UNL     1     -11.223  -0.851  -1.144  1.00  0.00     0.144 C 
HETATM    2  C6  UNL     1     -12.483  -0.042  -1.479  1.00  0.00     0.055 C 
HETATM    3  N1  UNL     1     -10.389  -0.091  -0.216  1.00  0.00    -0.349 N 
ATOM      4  H1  UNL     1     -10.140  -0.555   0.657  1.00  0.00     0.163 HD
HETATM    5  C7  UNL     1      -9.887   1.221  -0.398  1.00  0.00     0.142 C 
HETATM    6  N2  UNL     1      -9.532   1.811   0.681  1.00  0.00    -0.380 N 
ATOM      7  H21 UNL     1      -9.171   2.756   0.551  1.00  0.00     0.158 HD
ATOM      8  H22 UNL     1      -9.634   1.308   1.563  1.00  0.00     0.158 HD
HETATM    9  S2  UNL     1      -9.710   2.102  -1.942  1.00  0.00    -0.019 SA
HETATM   10  C8  UNL     1      -9.538   0.947  -3.260  1.00  0.00     0.151 C 
HETATM   11  N4  UNL     1      -9.904  -0.272  -3.311  1.00  0.00    -0.305 N 
ATOM     12  H4  UNL     1      -9.682  -0.719  -4.201  1.00  0.00     0.171 HD
HETATM   13  C13 UNL     1     -10.550  -1.134  -2.404  1.00  0.00     0.257 C 
HETATM   14  O1  UNL     1     -10.541  -2.341  -2.744  1.00  0.00    -0.270 OA
ENDROOT
BRANCH   1  15
HETATM   15  C4  UNL     1     -11.672  -2.115  -0.469  1.00  0.00     0.020 A 
HETATM   16  S1  UNL     1     -11.527  -3.688  -1.096  1.00  0.00    -0.103 SA
HETATM   17  C3  UNL     1     -12.232  -4.564   0.184  1.00  0.00     0.056 A 
HETATM   18  C2  UNL     1     -12.565  -3.586   1.080  1.00  0.00    -0.054 A 
HETATM   19  C1  UNL     1     -13.236  -3.952   2.397  1.00  0.00     0.048 C 
HETATM   20  C14 UNL     1     -12.274  -2.315   0.739  1.00  0.00     0.024 A 
ENDBRANCH   1  15
BRANCH  10  21
HETATM   21  N3  UNL     1      -8.904   1.445  -4.422  1.00  0.00    -0.362 N 
ATOM     22  H3  UNL     1      -9.019   2.435  -4.643  1.00  0.00     0.162 HD
BRANCH  21  23
HETATM   23  C9  UNL     1      -8.105   0.643  -5.314  1.00  0.00     0.021 C 
HETATM   24  C10 UNL     1      -8.967   0.202  -6.500  1.00  0.00     0.037 C 
HETATM   25  C11 UNL     1      -6.958   1.421  -5.874  1.00  0.00     0.037 C 
HETATM   26  C12 UNL     1      -7.549  -0.577  -4.607  1.00  0.00     0.037 C 
ENDBRANCH  21  23
ENDBRANCH  10  21
TORSDOF 3
ENDMDL
MODEL 2
REMARK VINA RESULT: -5.943716397      1.568      1.742
REMARK  3 active torsions:
REMARK  status: ('A' for Active; 'I' for Inactive)
REMARK    1  A    between atoms: C4_5  and  C5_6 
REMARK    2  A    between atoms: C8_15  and  N3_16 
REMARK    3  A    between atoms: N3_16  and  C9_18 
ROOT
HETATM    1  C5  UNL     1     -11.041  -0.733  -0.965  1.00  0.00     0.144 C 
HETATM    2  C6  UNL     1     -12.144  -0.418  -1.984  1.00  0.00     0.055 C 
HETATM    3  N1  UNL     1     -10.457   0.514  -0.477  1.00  0.00    -0.349 N 
ATOM      4  H1  UNL     1     -10.461   0.654   0.533  1.00  0.00     0.163 HD
HETATM    5  C7  UNL     1      -9.887   1.552  -1.255  1.00  0.00     0.142 C 
HETATM    6  N2  UNL     1      -9.811   2.683  -0.660  1.00  0.00    -0.380 N 
ATOM      7  H21 UNL     1      -9.401   3.431  -1.220  1.00  0.00     0.158 HD
ATOM      8  H22 UNL     1     -10.155   2.750   0.297  1.00  0.00     0.158 HD
HETATM    9  S2  UNL     1      -9.285   1.434  -2.932  1.00  0.00    -0.019 SA
HETATM   10  C8  UNL     1      -8.806  -0.227  -3.267  1.00  0.00     0.151 C 
HETATM   11  N4  UNL     1      -9.182  -1.302  -2.696  1.00  0.00    -0.305 N 
ATOM     12  H4  UNL     1      -8.747  -2.137  -3.088  1.00  0.00     0.171 HD
HETATM   13  C13 UNL     1     -10.069  -1.583  -1.638  1.00  0.00     0.257 C 
HETATM   14  O1  UNL     1     -10.007  -2.762  -1.213  1.00  0.00    -0.270 OA
ENDROOT
BRANCH   1  15
HETATM   15  C4  UNL     1     -11.688  -1.449   0.185  1.00  0.00     0.020 A 
HETATM   16  S1  UNL     1     -12.075  -0.769   1.694  1.00  0.00    -0.103 SA
HETATM   17  C3  UNL     1     -12.753  -2.137   2.450  1.00  0.00     0.056 A 
HETATM   18  C2  UNL     1     -12.656  -3.102   1.486  1.00  0.00    -0.054 A 
HETATM   19  C1  UNL     1     -13.161  -4.512   1.761  1.00  0.00     0.048 C 
HETATM   20  C14 UNL     1     -12.103  -2.743   0.310  1.00  0.00     0.024 A 
ENDBRANCH   1  15
BRANCH  10  21
HETATM   21  N3  UNL     1      -7.874  -0.388  -4.319  1.00  0.00    -0.362 N 
ATOM     22  H3  UNL     1      -6.915  -0.079  -4.160  1.00  0.00     0.162 HD
BRANCH  21  23
HETATM   23  C9  UNL     1      -8.194  -0.961  -5.602  1.00  0.00     0.021 C 
HETATM   24  C10 UNL     1      -9.107   0.002  -6.368  1.00  0.00     0.037 C 
HETATM   25  C11 UNL     1      -6.970  -1.157  -6.437  1.00  0.00     0.037 C 
HETATM   26  C12 UNL     1      -8.883  -2.302  -5.449  1.00  0.00     0.037 C 
ENDBRANCH  21  23
ENDBRANCH  10  21
TORSDOF 3
ENDMDL
MODEL 3
REMARK VINA RESULT: -5.349905354      3.364      5.391
REMARK  3 active torsions:
REMARK  status: ('A' for Active; 'I' for Inactive)
REMARK    1  A    between atoms: C4_5  and  C5_6 
REMARK    2  A    between atoms: C8_15  and  N3_16 
REMARK    3  A    between atoms: N3_16  and  C9_18 
ROOT
HETATM    1  C5  UNL     1      -8.588  -1.000  -3.957  1.00  0.00     0.144 C 
HETATM    2  C6  UNL     1      -7.190  -0.366  -3.913  1.00  0.00     0.055 C 
HETATM    3  N1  UNL     1      -9.390  -0.339  -4.984  1.00  0.00    -0.349 N 
ATOM      4  H1  UNL     1      -9.797  -0.940  -5.700  1.00  0.00     0.163 HD
HETATM    5  C7  UNL     1      -9.663   1.047  -5.094  1.00  0.00     0.142 C 
HETATM    6  N2  UNL     1     -10.036   1.426  -6.259  1.00  0.00    -0.380 N 
ATOM      7  H21 UNL     1     -10.233   2.423  -6.338  1.00  0.00     0.158 HD
ATOM      8  H22 UNL     1     -10.106   0.724  -6.996  1.00  0.00     0.158 HD
HETATM    9  S2  UNL     1      -9.539   2.275  -3.803  1.00  0.00    -0.019 SA
HETATM   10  C8  UNL     1      -9.745   1.500  -2.235  1.00  0.00     0.151 C 
HETATM   11  N4  UNL     1      -9.566   0.280  -1.913  1.00  0.00    -0.305 N 
ATOM     12  H4  UNL     1      -9.758   0.094  -0.928  1.00  0.00     0.171 HD
HETATM   13  C13 UNL     1      -9.158  -0.865  -2.624  1.00  0.00     0.257 C 
HETATM   14  O1  UNL     1      -9.315  -1.942  -2.001  1.00  0.00    -0.270 OA
ENDROOT
BRANCH   1  15
HETATM   15  C4  UNL     1      -8.411  -2.443  -4.333  1.00  0.00     0.020 A 
HETATM   16  S1  UNL     1      -8.785  -3.135  -5.839  1.00  0.00    -0.103 SA
HETATM   17  C3  UNL     1      -8.337  -4.748  -5.522  1.00  0.00     0.056 A 
HETATM   18  C2  UNL     1      -7.900  -4.699  -4.227  1.00  0.00    -0.054 A 
HETATM   19  C1  UNL     1      -7.398  -5.962  -3.540  1.00  0.00     0.048 C 
HETATM   20  C14 UNL     1      -7.940  -3.501  -3.611  1.00  0.00     0.024 A 
ENDBRANCH   1  15
BRANCH  10  21
HETATM   21  N3  UNL     1     -10.169   2.352  -1.189  1.00  0.00    -0.362 N 
ATOM     22  H3  UNL     1     -11.140   2.667  -1.193  1.00  0.00     0.162 HD
BRANCH  21  23
HETATM   23  C9  UNL     1      -9.317   2.805  -0.119  1.00  0.00     0.021 C 
HETATM   24  C10 UNL     1      -8.665   4.131  -0.524  1.00  0.00     0.037 C 
HETATM   25  C11 UNL     1     -10.095   3.066   1.130  1.00  0.00     0.037 C 
HETATM   26  C12 UNL     1      -8.243   1.784   0.197  1.00  0.00     0.037 C 
ENDBRANCH  21  23
ENDBRANCH  10  21
TORSDOF 3
ENDMDL
MODEL 4
REMARK VINA RESULT: -5.239324883      2.101      2.648
REMARK  3 active torsions:
REMARK  status: ('A' for Active; 'I' for Inactive)
REMARK    1  A    between atoms: C4_5  and  C5_6 
REMARK    2  A    between atoms: C8_15  and  N3_16 
REMARK    3  A    between atoms: N3_16  and  C9_18 
ROOT
HETATM    1  C5  UNL     1     -10.546  -1.891  -0.550  1.00  0.00     0.144 C 
HETATM    2  C6  UNL     1      -9.520  -1.134   0.305  1.00  0.00     0.055 C 
HETATM    3  N1  UNL     1      -9.905  -3.051  -1.165  1.00  0.00    -0.349 N 
ATOM      4  H1  UNL     1     -10.339  -3.957  -0.990  1.00  0.00     0.163 HD
HETATM    5  C7  UNL     1      -8.745  -3.054  -1.979  1.00  0.00     0.142 C 
HETATM    6  N2  UNL     1      -8.159  -4.189  -2.067  1.00  0.00    -0.380 N 
ATOM      7  H21 UNL     1      -7.324  -4.191  -2.653  1.00  0.00     0.158 HD
ATOM      8  H22 UNL     1      -8.557  -4.979  -1.560  1.00  0.00     0.158 HD
HETATM    9  S2  UNL     1      -8.048  -1.669  -2.865  1.00  0.00    -0.019 SA
HETATM   10  C8  UNL     1      -9.316  -0.498  -3.214  1.00  0.00     0.151 C 
HETATM   11  N4  UNL     1     -10.431  -0.323  -2.624  1.00  0.00    -0.305 N 
ATOM     12  H4  UNL     1     -10.986   0.431  -3.030  1.00  0.00     0.171 HD
HETATM   13  C13 UNL     1     -11.063  -0.948  -1.530  1.00  0.00     0.257 C 
HETATM   14  O1  UNL     1     -12.269  -0.635  -1.384  1.00  0.00    -0.270 OA
ENDROOT
BRANCH   1  15
HETATM   15  C4  UNL     1     -11.629  -2.369   0.374  1.00  0.00     0.020 A 
HETATM   16  S1  UNL     1     -12.236  -3.953   0.466  1.00  0.00    -0.103 SA
HETATM   17  C3  UNL     1     -13.401  -3.734   1.690  1.00  0.00     0.056 A 
HETATM   18  C2  UNL     1     -13.281  -2.406   1.997  1.00  0.00    -0.054 A 
HETATM   19  C1  UNL     1     -14.164  -1.786   3.070  1.00  0.00     0.048 C 
HETATM   20  C14 UNL     1     -12.360  -1.699   1.312  1.00  0.00     0.024 A 
ENDBRANCH   1  15
BRANCH  10  21
HETATM   21  N3  UNL     1      -9.057   0.369  -4.301  1.00  0.00    -0.362 N 
ATOM     22  H3  UNL     1      -9.340   1.345  -4.212  1.00  0.00     0.162 HD
BRANCH  21  23
HETATM   23  C9  UNL     1      -8.420  -0.040  -5.527  1.00  0.00     0.021 C 
HETATM   24  C10 UNL     1      -8.931   0.837  -6.675  1.00  0.00     0.037 C 
HETATM   25  C11 UNL     1      -6.939   0.145  -5.465  1.00  0.00     0.037 C 
HETATM   26  C12 UNL     1      -8.702  -1.496  -5.835  1.00  0.00     0.037 C 
ENDBRANCH  21  23
ENDBRANCH  10  21
TORSDOF 3
ENDMDL
MODEL 5
REMARK VINA RESULT: -4.989281624      2.296      3.048
REMARK  3 active torsions:
REMARK  status: ('A' for Active; 'I' for Inactive)
REMARK    1  A    between atoms: C4_5  and  C5_6 
REMARK    2  A    between atoms: C8_15  and  N3_16 
REMARK    3  A    between atoms: N3_16  and  C9_18 
ROOT
HETATM    1  C5  UNL     1     -10.205  -1.858  -0.882  1.00  0.00     0.144 C 
HETATM    2  C6  UNL     1      -9.067  -0.972  -0.358  1.00  0.00     0.055 C 
HETATM    3  N1  UNL     1      -9.688  -3.193  -1.175  1.00  0.00    -0.349 N 
ATOM      4  H1  UNL     1     -10.155  -3.973  -0.714  1.00  0.00     0.163 HD
HETATM    5  C7  UNL     1      -8.607  -3.521  -2.029  1.00  0.00     0.142 C 
HETATM    6  N2  UNL     1      -8.095  -4.677  -1.822  1.00  0.00    -0.380 N 
ATOM      7  H21 UNL     1      -7.317  -4.913  -2.437  1.00  0.00     0.158 HD
ATOM      8  H22 UNL     1      -8.492  -5.255  -1.081  1.00  0.00     0.158 HD
HETATM    9  S2  UNL     1      -7.913  -2.508  -3.326  1.00  0.00    -0.019 SA
HETATM   10  C8  UNL     1      -9.138  -1.389  -3.914  1.00  0.00     0.151 C 
HETATM   11  N4  UNL     1     -10.185  -0.964  -3.326  1.00  0.00    -0.305 N 
ATOM     12  H4  UNL     1     -10.729  -0.315  -3.896  1.00  0.00     0.171 HD
HETATM   13  C13 UNL     1     -10.752  -1.197  -2.058  1.00  0.00     0.257 C 
HETATM   14  O1  UNL     1     -11.921  -0.760  -1.928  1.00  0.00    -0.270 OA
ENDROOT
BRANCH   1  15
HETATM   15  C4  UNL     1     -11.228  -1.963   0.212  1.00  0.00     0.020 A 
HETATM   16  S1  UNL     1     -11.769  -0.689   1.198  1.00  0.00    -0.103 SA
HETATM   17  C3  UNL     1     -12.882  -1.542   2.167  1.00  0.00     0.056 A 
HETATM   18  C2  UNL     1     -12.797  -2.819   1.684  1.00  0.00    -0.054 A 
HETATM   19  C1  UNL     1     -13.651  -3.924   2.291  1.00  0.00     0.048 C 
HETATM   20  C14 UNL     1     -11.938  -3.035   0.669  1.00  0.00     0.024 A 
ENDBRANCH   1  15
BRANCH  10  21
HETATM   21  N3  UNL     1      -8.927  -0.893  -5.222  1.00  0.00    -0.362 N 
ATOM     22  H3  UNL     1      -9.162  -1.500  -6.007  1.00  0.00     0.162 HD
BRANCH  21  23
HETATM   23  C9  UNL     1      -8.402   0.417  -5.515  1.00  0.00     0.021 C 
HETATM   24  C10 UNL     1      -6.872   0.368  -5.455  1.00  0.00     0.037 C 
HETATM   25  C11 UNL     1      -8.769   0.860  -6.894  1.00  0.00     0.037 C 
HETATM   26  C12 UNL     1      -8.918   1.449  -4.534  1.00  0.00     0.037 C 
ENDBRANCH  21  23
ENDBRANCH  10  21
TORSDOF 3
ENDMDL
