MODEL 1
REMARK VINA RESULT: -5.930154244      0.000      0.000
REMARK  8 active torsions:
REMARK  status: ('A' for Active; 'I' for Inactive)
REMARK    1  A    between atoms: C1_2  and  C2_3 
REMARK       I    between atoms: C1_2  and  N2_20 
REMARK    2  A    between atoms: C2_3  and  N1_4 
REMARK    3  A    between atoms: N1_4  and  C3_7 
REMARK    4  A    between atoms: C3_7  and  C4_8 
REMARK    5  A    between atoms: C4_8  and  C5_9 
REMARK    6  A    between atoms: C8_13  and  O3_14 
REMARK    7  A    between atoms: O3_14  and  C9_15 
REMARK    8  A    between atoms: N2_20  and  C14_22 
ROOT
HETATM    1  N1  UNL     1     -34.812   1.612   4.668  1.00  0.00    -0.067 N 
ATOM      2  H11 UNL     1     -35.344   1.853   3.831  1.00  0.00     0.277 HD
ATOM      3  H12 UNL     1     -34.216   2.437   4.743  1.00  0.00     0.277 HD
ENDROOT
BRANCH   1   4
HETATM    4  C2  UNL     1     -34.024   0.458   4.434  1.00  0.00     0.334 C 
BRANCH   4   5
HETATM    5  C1  UNL     1     -33.160   0.558   3.257  1.00  0.00     0.243 C 
HETATM    6  O1  UNL     1     -33.573   0.384   2.090  1.00  0.00    -0.272 OA
HETATM    7  N2  UNL     1     -31.763   0.871   3.398  1.00  0.00    -0.354 N 
ATOM      8  H2  UNL     1     -31.377   1.024   4.330  1.00  0.00     0.162 HD
BRANCH   7   9
HETATM    9  C14 UNL     1     -30.894   0.973   2.247  1.00  0.00     0.099 C 
HETATM   10  C15 UNL     1     -30.745   2.441   1.931  1.00  0.00     0.041 C 
HETATM   11  C16 UNL     1     -29.645   2.548   0.896  1.00  0.00     0.142 C 
HETATM   12  S1  UNL     1     -28.470   1.346   1.540  1.00  0.00     0.146 S 
HETATM   13  O4  UNL     1     -27.919   0.478   0.431  1.00  0.00    -0.228 OA
HETATM   14  O5  UNL     1     -27.384   2.035   2.308  1.00  0.00    -0.228 OA
HETATM   15  C17 UNL     1     -29.557   0.420   2.612  1.00  0.00     0.165 C 
ENDBRANCH   7   9
ENDBRANCH   4   5
ENDBRANCH   1   4
BRANCH   1  16
HETATM   16  C3  UNL     1     -35.680   1.525   5.799  1.00  0.00     0.235 C 
BRANCH  16  17
HETATM   17  C4  UNL     1     -36.101   0.089   6.015  1.00  0.00     0.062 C 
BRANCH  17  18
HETATM   18  C5  UNL     1     -37.560  -0.156   5.779  1.00  0.00     0.152 C 
HETATM   19  O2  UNL     1     -38.289  -0.364   6.937  1.00  0.00    -0.383 OA
HETATM   20  C6  UNL     1     -38.073  -1.645   7.382  1.00  0.00     0.171 C 
HETATM   21  C7  UNL     1     -37.691  -2.474   6.189  1.00  0.00     0.061 C 
HETATM   22  C8  UNL     1     -37.680  -1.468   5.037  1.00  0.00     0.153 C 
BRANCH  22  23
HETATM   23  O3  UNL     1     -36.597  -1.685   4.213  1.00  0.00    -0.378 OA
BRANCH  23  24
HETATM   24  C9  UNL     1     -36.288  -3.008   4.027  1.00  0.00     0.122 C 
HETATM   25  C10 UNL     1     -34.821  -3.063   3.596  1.00  0.00     0.032 C 
HETATM   26  C11 UNL     1     -34.854  -3.084   2.085  1.00  0.00     0.002 C 
HETATM   27  C12 UNL     1     -36.295  -2.994   1.655  1.00  0.00     0.002 C 
HETATM   28  C13 UNL     1     -37.042  -3.593   2.830  1.00  0.00     0.032 C 
ENDBRANCH  23  24
ENDBRANCH  22  23
ENDBRANCH  17  18
ENDBRANCH  16  17
ENDBRANCH   1  16
TORSDOF 8
ENDMDL
MODEL 2
REMARK VINA RESULT: -5.865515632      1.040      1.434
REMARK  8 active torsions:
REMARK  status: ('A' for Active; 'I' for Inactive)
REMARK    1  A    between atoms: C1_2  and  C2_3 
REMARK       I    between atoms: C1_2  and  N2_20 
REMARK    2  A    between atoms: C2_3  and  N1_4 
REMARK    3  A    between atoms: N1_4  and  C3_7 
REMARK    4  A    between atoms: C3_7  and  C4_8 
REMARK    5  A    between atoms: C4_8  and  C5_9 
REMARK    6  A    between atoms: C8_13  and  O3_14 
REMARK    7  A    between atoms: O3_14  and  C9_15 
REMARK    8  A    between atoms: N2_20  and  C14_22 
ROOT
HETATM    1  N1  UNL     1     -34.821   1.974   4.645  1.00  0.00    -0.067 N 
ATOM      2  H11 UNL     1     -35.424   2.235   3.864  1.00  0.00     0.277 HD
ATOM      3  H12 UNL     1     -34.282   2.834   4.748  1.00  0.00     0.277 HD
ENDROOT
BRANCH   1   4
HETATM    4  C2  UNL     1     -33.970   0.904   4.270  1.00  0.00     0.334 C 
BRANCH   4   5
HETATM    5  C1  UNL     1     -32.692   1.333   3.702  1.00  0.00     0.243 C 
HETATM    6  O1  UNL     1     -32.478   2.500   3.306  1.00  0.00    -0.272 OA
HETATM    7  N2  UNL     1     -31.599   0.407   3.575  1.00  0.00    -0.354 N 
ATOM      8  H2  UNL     1     -31.722  -0.557   3.886  1.00  0.00     0.162 HD
BRANCH   7   9
HETATM    9  C14 UNL     1     -30.329   0.813   3.015  1.00  0.00     0.099 C 
HETATM   10  C15 UNL     1     -29.258   0.017   3.719  1.00  0.00     0.041 C 
HETATM   11  C16 UNL     1     -27.971   0.260   2.958  1.00  0.00     0.142 C 
HETATM   12  S1  UNL     1     -28.576   0.201   1.263  1.00  0.00     0.146 S 
HETATM   13  O4  UNL     1     -27.986   1.322   0.438  1.00  0.00    -0.228 OA
HETATM   14  O5  UNL     1     -28.310  -1.144   0.661  1.00  0.00    -0.228 OA
HETATM   15  C17 UNL     1     -30.317   0.461   1.565  1.00  0.00     0.165 C 
ENDBRANCH   7   9
ENDBRANCH   4   5
ENDBRANCH   1   4
BRANCH   1  16
HETATM   16  C3  UNL     1     -35.603   1.735   5.816  1.00  0.00     0.235 C 
BRANCH  16  17
HETATM   17  C4  UNL     1     -35.961   0.268   5.905  1.00  0.00     0.062 C 
BRANCH  17  18
HETATM   18  C5  UNL     1     -37.430  -0.003   5.794  1.00  0.00     0.152 C 
HETATM   19  O2  UNL     1     -38.069  -0.151   7.013  1.00  0.00    -0.383 OA
HETATM   20  C6  UNL     1     -37.803  -1.402   7.512  1.00  0.00     0.171 C 
HETATM   21  C7  UNL     1     -37.499  -2.295   6.343  1.00  0.00     0.061 C 
HETATM   22  C8  UNL     1     -37.587  -1.355   5.138  1.00  0.00     0.153 C 
BRANCH  22  23
HETATM   23  O3  UNL     1     -36.565  -1.609   4.249  1.00  0.00    -0.378 OA
BRANCH  23  24
HETATM   24  C9  UNL     1     -36.254  -2.938   4.113  1.00  0.00     0.122 C 
HETATM   25  C10 UNL     1     -34.827  -3.004   3.567  1.00  0.00     0.032 C 
HETATM   26  C11 UNL     1     -34.983  -3.113   2.068  1.00  0.00     0.002 C 
HETATM   27  C12 UNL     1     -36.454  -3.061   1.753  1.00  0.00     0.002 C 
HETATM   28  C13 UNL     1     -37.095  -3.598   3.018  1.00  0.00     0.032 C 
ENDBRANCH  23  24
ENDBRANCH  22  23
ENDBRANCH  17  18
ENDBRANCH  16  17
ENDBRANCH   1  16
TORSDOF 8
ENDMDL
MODEL 3
REMARK VINA RESULT: -5.702818937      6.577      8.460
REMARK  8 active torsions:
REMARK  status: ('A' for Active; 'I' for Inactive)
REMARK    1  A    between atoms: C1_2  and  C2_3 
REMARK       I    between atoms: C1_2  and  N2_20 
REMARK    2  A    between atoms: C2_3  and  N1_4 
REMARK    3  A    between atoms: N1_4  and  C3_7 
REMARK    4  A    between atoms: C3_7  and  C4_8 
REMARK    5  A    between atoms: C4_8  and  C5_9 
REMARK    6  A    between atoms: C8_13  and  O3_14 
REMARK    7  A    between atoms: O3_14  and  C9_15 
REMARK    8  A    between atoms: N2_20  and  C14_22 
ROOT
HETATM    1  N1  UNL     1     -33.859  -2.112   8.551  1.00  0.00    -0.067 N 
ATOM      2  H11 UNL     1     -32.979  -2.267   8.058  1.00  0.00     0.277 HD
ATOM      3  H12 UNL     1     -33.764  -1.121   8.775  1.00  0.00     0.277 HD
ENDROOT
BRANCH   1   4
HETATM    4  C2  UNL     1     -33.896  -2.882   9.741  1.00  0.00     0.334 C 
BRANCH   4   5
HETATM    5  C1  UNL     1     -32.902  -3.955   9.784  1.00  0.00     0.243 C 
HETATM    6  O1  UNL     1     -31.830  -3.920   9.141  1.00  0.00    -0.272 OA
HETATM    7  N2  UNL     1     -33.121  -5.124  10.592  1.00  0.00    -0.354 N 
ATOM      8  H2  UNL     1     -33.980  -5.201  11.138  1.00  0.00     0.162 HD
BRANCH   7   9
HETATM    9  C14 UNL     1     -32.150  -6.195  10.646  1.00  0.00     0.099 C 
HETATM   10  C15 UNL     1     -31.475  -6.115  11.993  1.00  0.00     0.041 C 
HETATM   11  C16 UNL     1     -30.653  -7.378  12.137  1.00  0.00     0.142 C 
HETATM   12  S1  UNL     1     -31.791  -8.592  11.448  1.00  0.00     0.146 S 
HETATM   13  O4  UNL     1     -31.071  -9.543  10.520  1.00  0.00    -0.228 OA
HETATM   14  O5  UNL     1     -32.513  -9.312  12.545  1.00  0.00    -0.228 OA
HETATM   15  C17 UNL     1     -32.874  -7.496  10.546  1.00  0.00     0.165 C 
ENDBRANCH   7   9
ENDBRANCH   4   5
ENDBRANCH   1   4
BRANCH   1  16
HETATM   16  C3  UNL     1     -34.964  -2.317   7.670  1.00  0.00     0.235 C 
BRANCH  16  17
HETATM   17  C4  UNL     1     -34.956  -1.267   6.582  1.00  0.00     0.062 C 
BRANCH  17  18
HETATM   18  C5  UNL     1     -33.625  -1.098   5.915  1.00  0.00     0.152 C 
HETATM   19  O2  UNL     1     -32.925   0.020   6.331  1.00  0.00    -0.383 OA
HETATM   20  C6  UNL     1     -33.451   1.134   5.724  1.00  0.00     0.171 C 
HETATM   21  C7  UNL     1     -34.093   0.684   4.443  1.00  0.00     0.061 C 
HETATM   22  C8  UNL     1     -33.891  -0.833   4.450  1.00  0.00     0.153 C 
BRANCH  22  23
HETATM   23  O3  UNL     1     -35.029  -1.477   4.016  1.00  0.00    -0.378 OA
BRANCH  23  24
HETATM   24  C9  UNL     1     -34.847  -2.804   3.722  1.00  0.00     0.122 C 
HETATM   25  C10 UNL     1     -34.852  -2.924   2.197  1.00  0.00     0.032 C 
HETATM   26  C11 UNL     1     -36.279  -3.264   1.833  1.00  0.00     0.002 C 
HETATM   27  C12 UNL     1     -37.085  -3.291   3.104  1.00  0.00     0.002 C 
HETATM   28  C13 UNL     1     -36.052  -3.641   4.157  1.00  0.00     0.032 C 
ENDBRANCH  23  24
ENDBRANCH  22  23
ENDBRANCH  17  18
ENDBRANCH  16  17
ENDBRANCH   1  16
TORSDOF 8
ENDMDL
MODEL 4
REMARK VINA RESULT: -5.429381113      1.836      2.694
REMARK  8 active torsions:
REMARK  status: ('A' for Active; 'I' for Inactive)
REMARK    1  A    between atoms: C1_2  and  C2_3 
REMARK       I    between atoms: C1_2  and  N2_20 
REMARK    2  A    between atoms: C2_3  and  N1_4 
REMARK    3  A    between atoms: N1_4  and  C3_7 
REMARK    4  A    between atoms: C3_7  and  C4_8 
REMARK    5  A    between atoms: C4_8  and  C5_9 
REMARK    6  A    between atoms: C8_13  and  O3_14 
REMARK    7  A    between atoms: O3_14  and  C9_15 
REMARK    8  A    between atoms: N2_20  and  C14_22 
ROOT
HETATM    1  N1  UNL     1     -36.778   2.339   6.302  1.00  0.00    -0.067 N 
ATOM      2  H11 UNL     1     -37.400   1.900   5.623  1.00  0.00     0.277 HD
ATOM      3  H12 UNL     1     -37.444   2.537   7.050  1.00  0.00     0.277 HD
ENDROOT
BRANCH   1   4
HETATM    4  C2  UNL     1     -36.254   3.547   5.779  1.00  0.00     0.334 C 
BRANCH   4   5
HETATM    5  C1  UNL     1     -34.890   3.428   5.262  1.00  0.00     0.243 C 
HETATM    6  O1  UNL     1     -33.909   3.997   5.788  1.00  0.00    -0.272 OA
HETATM    7  N2  UNL     1     -34.615   2.629   4.099  1.00  0.00    -0.354 N 
ATOM      8  H2  UNL     1     -35.382   2.142   3.634  1.00  0.00     0.162 HD
BRANCH   7   9
HETATM    9  C14 UNL     1     -33.273   2.501   3.574  1.00  0.00     0.099 C 
HETATM   10  C15 UNL     1     -32.703   1.215   4.120  1.00  0.00     0.041 C 
HETATM   11  C16 UNL     1     -31.411   0.966   3.372  1.00  0.00     0.142 C 
HETATM   12  S1  UNL     1     -31.902   1.434   1.704  1.00  0.00     0.146 S 
HETATM   13  O4  UNL     1     -30.837   2.279   1.042  1.00  0.00    -0.228 OA
HETATM   14  O5  UNL     1     -32.238   0.217   0.897  1.00  0.00    -0.228 OA
HETATM   15  C17 UNL     1     -33.355   2.399   2.087  1.00  0.00     0.165 C 
ENDBRANCH   7   9
ENDBRANCH   4   5
ENDBRANCH   1   4
BRANCH   1  16
HETATM   16  C3  UNL     1     -35.795   1.405   6.750  1.00  0.00     0.235 C 
BRANCH  16  17
HETATM   17  C4  UNL     1     -36.138   0.018   6.253  1.00  0.00     0.062 C 
BRANCH  17  18
HETATM   18  C5  UNL     1     -37.577  -0.148   5.872  1.00  0.00     0.152 C 
HETATM   19  O2  UNL     1     -38.422  -0.366   6.946  1.00  0.00    -0.383 OA
HETATM   20  C6  UNL     1     -38.305  -1.671   7.354  1.00  0.00     0.171 C 
HETATM   21  C7  UNL     1     -37.847  -2.472   6.168  1.00  0.00     0.061 C 
HETATM   22  C8  UNL     1     -37.682  -1.423   5.067  1.00  0.00     0.153 C 
BRANCH  22  23
HETATM   23  O3  UNL     1     -36.536  -1.658   4.339  1.00  0.00    -0.378 OA
BRANCH  23  24
HETATM   24  C9  UNL     1     -36.257  -2.987   4.143  1.00  0.00     0.122 C 
HETATM   25  C10 UNL     1     -34.804  -3.069   3.671  1.00  0.00     0.032 C 
HETATM   26  C11 UNL     1     -34.880  -3.088   2.162  1.00  0.00     0.002 C 
HETATM   27  C12 UNL     1     -36.330  -2.971   1.773  1.00  0.00     0.002 C 
HETATM   28  C13 UNL     1     -37.055  -3.556   2.968  1.00  0.00     0.032 C 
ENDBRANCH  23  24
ENDBRANCH  22  23
ENDBRANCH  17  18
ENDBRANCH  16  17
ENDBRANCH   1  16
TORSDOF 8
ENDMDL
MODEL 5
REMARK VINA RESULT: -5.392232417      5.175      8.605
REMARK  8 active torsions:
REMARK  status: ('A' for Active; 'I' for Inactive)
REMARK    1  A    between atoms: C1_2  and  C2_3 
REMARK       I    between atoms: C1_2  and  N2_20 
REMARK    2  A    between atoms: C2_3  and  N1_4 
REMARK    3  A    between atoms: N1_4  and  C3_7 
REMARK    4  A    between atoms: C3_7  and  C4_8 
REMARK    5  A    between atoms: C4_8  and  C5_9 
REMARK    6  A    between atoms: C8_13  and  O3_14 
REMARK    7  A    between atoms: O3_14  and  C9_15 
REMARK    8  A    between atoms: N2_20  and  C14_22 
ROOT
HETATM    1  N1  UNL     1     -36.776  -1.490   7.188  1.00  0.00    -0.067 N 
ATOM      2  H11 UNL     1     -36.007  -2.031   6.790  1.00  0.00     0.277 HD
ATOM      3  H12 UNL     1     -36.286  -1.020   7.949  1.00  0.00     0.277 HD
ENDROOT
BRANCH   1   4
HETATM    4  C2  UNL     1     -37.769  -2.359   7.706  1.00  0.00     0.334 C 
BRANCH   4   5
HETATM    5  C1  UNL     1     -37.256  -3.663   8.128  1.00  0.00     0.243 C 
HETATM    6  O1  UNL     1     -36.999  -4.588   7.326  1.00  0.00    -0.272 OA
HETATM    7  N2  UNL     1     -37.017  -3.941   9.518  1.00  0.00    -0.354 N 
ATOM      8  H2  UNL     1     -37.208  -3.218  10.212  1.00  0.00     0.162 HD
BRANCH   7   9
HETATM    9  C14 UNL     1     -36.511  -5.224   9.953  1.00  0.00     0.099 C 
HETATM   10  C15 UNL     1     -35.182  -4.974  10.625  1.00  0.00     0.041 C 
HETATM   11  C16 UNL     1     -34.787  -6.273  11.293  1.00  0.00     0.142 C 
HETATM   12  S1  UNL     1     -36.376  -6.796  11.960  1.00  0.00     0.146 S 
HETATM   13  O4  UNL     1     -36.608  -8.270  11.715  1.00  0.00    -0.228 OA
HETATM   14  O5  UNL     1     -36.475  -6.443  13.412  1.00  0.00    -0.228 OA
HETATM   15  C17 UNL     1     -37.459  -5.791  10.956  1.00  0.00     0.165 C 
ENDBRANCH   7   9
ENDBRANCH   4   5
ENDBRANCH   1   4
BRANCH   1  16
HETATM   16  C3  UNL     1     -37.252  -0.534   6.240  1.00  0.00     0.235 C 
BRANCH  16  17
HETATM   17  C4  UNL     1     -36.085   0.097   5.515  1.00  0.00     0.062 C 
BRANCH  17  18
HETATM   18  C5  UNL     1     -34.749  -0.413   5.962  1.00  0.00     0.152 C 
HETATM   19  O2  UNL     1     -33.910   0.568   6.462  1.00  0.00    -0.383 OA
HETATM   20  C6  UNL     1     -33.370   1.276   5.416  1.00  0.00     0.171 C 
HETATM   21  C7  UNL     1     -33.371   0.371   4.216  1.00  0.00     0.061 C 
HETATM   22  C8  UNL     1     -34.026  -0.912   4.731  1.00  0.00     0.153 C 
BRANCH  22  23
HETATM   23  O3  UNL     1     -34.905  -1.417   3.797  1.00  0.00    -0.378 OA
BRANCH  23  24
HETATM   24  C9  UNL     1     -34.800  -2.769   3.599  1.00  0.00     0.122 C 
HETATM   25  C10 UNL     1     -34.979  -3.012   2.099  1.00  0.00     0.032 C 
HETATM   26  C11 UNL     1     -36.447  -3.322   1.922  1.00  0.00     0.002 C 
HETATM   27  C12 UNL     1     -37.107  -3.213   3.271  1.00  0.00     0.002 C 
HETATM   28  C13 UNL     1     -35.975  -3.518   4.232  1.00  0.00     0.032 C 
ENDBRANCH  23  24
ENDBRANCH  22  23
ENDBRANCH  17  18
ENDBRANCH  16  17
ENDBRANCH   1  16
TORSDOF 8
ENDMDL
