MODEL 1
REMARK VINA RESULT: -8.809019287      0.000      0.000
REMARK  5 active torsions:
REMARK  status: ('A' for Active; 'I' for Inactive)
REMARK    1  A    between atoms: C1_2  and  C2_3 
REMARK    2  A    between atoms: C5_6  and  N1_7 
REMARK    3  A    between atoms: N1_7  and  C6_9 
REMARK    4  A    between atoms: C7_12  and  N3_13 
REMARK    5  A    between atoms: N3_13  and  C8_15 
ROOT
HETATM    1  C6  UNL     1      -5.736  -8.804  15.584  1.00  0.00     0.140 A 
HETATM    2  N2  UNL     1      -5.337  -7.623  15.079  1.00  0.00    -0.175 N 
ATOM      3  H2  UNL     1      -5.791  -6.766  15.395  1.00  0.00     0.186 HD
HETATM    4  C7  UNL     1      -4.342  -7.546  14.158  1.00  0.00     0.685 A 
HETATM    5  N4  UNL     1      -3.719  -8.649  13.716  1.00  0.00    -0.185 N 
ATOM      6  H4  UNL     1      -2.974  -8.568  13.024  1.00  0.00     0.184 HD
HETATM    7  C14 UNL     1      -4.069  -9.863  14.181  1.00  0.00     0.136 A 
HETATM    8  C15 UNL     1      -5.089  -9.933  15.125  1.00  0.00     0.109 A 
HETATM    9  C16 UNL     1      -5.255 -11.336  15.443  1.00  0.00     0.264 A 
HETATM   10  O2  UNL     1      -6.090 -11.774  16.260  1.00  0.00    -0.267 OA
HETATM   11  N5  UNL     1      -4.318 -12.116  14.677  1.00  0.00    -0.288 N 
ATOM     12  H5  UNL     1      -4.209 -13.130  14.697  1.00  0.00     0.172 HD
HETATM   13  C17 UNL     1      -3.580 -11.200  13.891  1.00  0.00     0.276 A 
HETATM   14  O3  UNL     1      -2.671 -11.507  13.094  1.00  0.00    -0.266 OA
ENDROOT
BRANCH   1  15
HETATM   15  N1  UNL     1      -6.655  -8.925  16.442  1.00  0.00    -0.341 N 
ATOM     16  H1  UNL     1      -7.527  -9.333  16.106  1.00  0.00     0.167 HD
BRANCH  15  17
HETATM   17  C5  UNL     1      -6.628  -8.570  17.790  1.00  0.00     0.033 A 
HETATM   18  C4  UNL     1      -6.588  -7.238  18.135  1.00  0.00     0.030 A 
HETATM   19  C3  UNL     1      -6.560  -6.807  19.440  1.00  0.00     0.017 A 
HETATM   20  C2  UNL     1      -6.573  -7.728  20.452  1.00  0.00     0.002 A 
HETATM   21  C19 UNL     1      -6.613  -9.086  20.144  1.00  0.00     0.017 A 
HETATM   22  C18 UNL     1      -6.640  -9.484  18.824  1.00  0.00     0.030 A 
BRANCH  20  23
HETATM   23  C1  UNL     1      -6.543  -7.283  21.841  1.00  0.00     0.269 C 
HETATM   24  O1  UNL     1      -7.557  -6.795  22.369  1.00  0.00    -0.301 OA
ENDBRANCH  20  23
ENDBRANCH  15  17
ENDBRANCH   1  15
BRANCH   4  25
HETATM   25  N3  UNL     1      -3.961  -6.411  13.673  1.00  0.00    -0.189 N 
ATOM     26  H3  UNL     1      -4.094  -6.249  12.676  1.00  0.00     0.184 HD
BRANCH  25  27
HETATM   27  C8  UNL     1      -3.376  -5.389  14.434  1.00  0.00     0.087 A 
HETATM   28  C9  UNL     1      -2.755  -5.687  15.622  1.00  0.00     0.033 A 
HETATM   29  C10 UNL     1      -2.164  -4.728  16.411  1.00  0.00     0.002 A 
HETATM   30  C11 UNL     1      -2.183  -3.395  16.010  1.00  0.00     0.003 A 
HETATM   31  C12 UNL     1      -2.803  -3.107  14.827  1.00  0.00     0.044 A 
HETATM   32  C13 UNL     1      -3.403  -4.075  14.025  1.00  0.00     0.143 A 
HETATM   33  F1  UNL     1      -4.013  -3.768  12.855  1.00  0.00    -0.204 F 
ENDBRANCH  25  27
ENDBRANCH   4  25
TORSDOF 5
ENDMDL
MODEL 2
REMARK VINA RESULT: -8.682203821      2.769      6.048
REMARK  5 active torsions:
REMARK  status: ('A' for Active; 'I' for Inactive)
REMARK    1  A    between atoms: C1_2  and  C2_3 
REMARK    2  A    between atoms: C5_6  and  N1_7 
REMARK    3  A    between atoms: N1_7  and  C6_9 
REMARK    4  A    between atoms: C7_12  and  N3_13 
REMARK    5  A    between atoms: N3_13  and  C8_15 
ROOT
HETATM    1  C6  UNL     1      -4.728  -8.587  14.852  1.00  0.00     0.140 A 
HETATM    2  N2  UNL     1      -5.483  -8.033  15.819  1.00  0.00    -0.175 N 
ATOM      3  H2  UNL     1      -5.343  -7.053  16.061  1.00  0.00     0.186 HD
HETATM    4  C7  UNL     1      -6.428  -8.752  16.478  1.00  0.00     0.685 A 
HETATM    5  N4  UNL     1      -6.644 -10.044  16.189  1.00  0.00    -0.185 N 
ATOM      6  H4  UNL     1      -7.359 -10.565  16.697  1.00  0.00     0.184 HD
HETATM    7  C14 UNL     1      -5.923 -10.659  15.232  1.00  0.00     0.136 A 
HETATM    8  C15 UNL     1      -4.957  -9.916  14.561  1.00  0.00     0.109 A 
HETATM    9  C16 UNL     1      -4.345 -10.813  13.603  1.00  0.00     0.264 A 
HETATM   10  O2  UNL     1      -3.430 -10.483  12.822  1.00  0.00    -0.267 OA
HETATM   11  N5  UNL     1      -4.956 -12.113  13.703  1.00  0.00    -0.288 N 
ATOM     12  H5  UNL     1      -4.726 -12.939  13.152  1.00  0.00     0.172 HD
HETATM   13  C17 UNL     1      -5.938 -12.018  14.717  1.00  0.00     0.276 A 
HETATM   14  O3  UNL     1      -6.679 -12.950  15.090  1.00  0.00    -0.266 OA
ENDROOT
BRANCH   1  15
HETATM   15  N1  UNL     1      -3.839  -7.959  14.212  1.00  0.00    -0.341 N 
ATOM     16  H1  UNL     1      -3.250  -8.523  13.599  1.00  0.00     0.167 HD
BRANCH  15  17
HETATM   17  C5  UNL     1      -3.560  -6.593  14.238  1.00  0.00     0.033 A 
HETATM   18  C4  UNL     1      -3.894  -5.818  13.151  1.00  0.00     0.030 A 
HETATM   19  C3  UNL     1      -3.653  -4.465  13.098  1.00  0.00     0.017 A 
HETATM   20  C2  UNL     1      -3.056  -3.847  14.162  1.00  0.00     0.002 A 
HETATM   21  C19 UNL     1      -2.702  -4.597  15.281  1.00  0.00     0.017 A 
HETATM   22  C18 UNL     1      -2.958  -5.952  15.302  1.00  0.00     0.030 A 
BRANCH  20  23
HETATM   23  C1  UNL     1      -2.795  -2.413  14.118  1.00  0.00     0.269 C 
HETATM   24  O1  UNL     1      -1.837  -1.965  13.465  1.00  0.00    -0.301 OA
ENDBRANCH  20  23
ENDBRANCH  15  17
ENDBRANCH   1  15
BRANCH   4  25
HETATM   25  N3  UNL     1      -7.151  -8.219  17.406  1.00  0.00    -0.189 N 
ATOM     26  H3  UNL     1      -8.125  -8.009  17.191  1.00  0.00     0.184 HD
BRANCH  25  27
HETATM   27  C8  UNL     1      -6.680  -7.913  18.690  1.00  0.00     0.087 A 
HETATM   28  C9  UNL     1      -6.200  -6.655  18.963  1.00  0.00     0.033 A 
HETATM   29  C10 UNL     1      -5.725  -6.295  20.202  1.00  0.00     0.002 A 
HETATM   30  C11 UNL     1      -5.719  -7.226  21.237  1.00  0.00     0.003 A 
HETATM   31  C12 UNL     1      -6.198  -8.475  20.958  1.00  0.00     0.044 A 
HETATM   32  C13 UNL     1      -6.680  -8.844  19.705  1.00  0.00     0.143 A 
HETATM   33  F1  UNL     1      -7.150 -10.088  19.448  1.00  0.00    -0.204 F 
ENDBRANCH  25  27
ENDBRANCH   4  25
TORSDOF 5
ENDMDL
MODEL 3
REMARK VINA RESULT: -8.616079273      3.420      4.939
REMARK  5 active torsions:
REMARK  status: ('A' for Active; 'I' for Inactive)
REMARK    1  A    between atoms: C1_2  and  C2_3 
REMARK    2  A    between atoms: C5_6  and  N1_7 
REMARK    3  A    between atoms: N1_7  and  C6_9 
REMARK    4  A    between atoms: C7_12  and  N3_13 
REMARK    5  A    between atoms: N3_13  and  C8_15 
ROOT
HETATM    1  C6  UNL     1      -6.939 -12.797  18.016  1.00  0.00     0.140 A 
HETATM    2  N2  UNL     1      -6.676 -11.951  17.004  1.00  0.00    -0.175 N 
ATOM      3  H2  UNL     1      -6.645 -10.948  17.187  1.00  0.00     0.186 HD
HETATM    4  C7  UNL     1      -6.449 -12.403  15.743  1.00  0.00     0.685 A 
HETATM    5  N4  UNL     1      -6.479 -13.714  15.461  1.00  0.00    -0.185 N 
ATOM      6  H4  UNL     1      -6.306 -14.031  14.506  1.00  0.00     0.184 HD
HETATM    7  C14 UNL     1      -6.736 -14.615  16.428  1.00  0.00     0.136 A 
HETATM    8  C15 UNL     1      -6.968 -14.144  17.716  1.00  0.00     0.109 A 
HETATM    9  C16 UNL     1      -7.213 -15.309  18.539  1.00  0.00     0.264 A 
HETATM   10  O2  UNL     1      -7.459 -15.264  19.762  1.00  0.00    -0.267 OA
HETATM   11  N5  UNL     1      -7.127 -16.496  17.729  1.00  0.00    -0.288 N 
ATOM     12  H5  UNL     1      -7.255 -17.459  18.041  1.00  0.00     0.172 HD
HETATM   13  C17 UNL     1      -6.831 -16.065  16.415  1.00  0.00     0.276 A 
HETATM   14  O3  UNL     1      -6.680 -16.814  15.428  1.00  0.00    -0.266 OA
ENDROOT
BRANCH   1  15
HETATM   15  N1  UNL     1      -7.155 -12.424  19.203  1.00  0.00    -0.341 N 
ATOM     16  H1  UNL     1      -7.390 -13.162  19.866  1.00  0.00     0.167 HD
BRANCH  15  17
HETATM   17  C5  UNL     1      -7.113 -11.130  19.721  1.00  0.00     0.033 A 
HETATM   18  C4  UNL     1      -7.800 -10.847  20.880  1.00  0.00     0.030 A 
HETATM   19  C3  UNL     1      -7.809  -9.598  21.455  1.00  0.00     0.017 A 
HETATM   20  C2  UNL     1      -7.110  -8.581  20.864  1.00  0.00     0.002 A 
HETATM   21  C19 UNL     1      -6.402  -8.827  19.689  1.00  0.00     0.017 A 
HETATM   22  C18 UNL     1      -6.414 -10.092  19.139  1.00  0.00     0.030 A 
BRANCH  20  23
HETATM   23  C1  UNL     1      -7.112  -7.252  21.463  1.00  0.00     0.269 C 
HETATM   24  O1  UNL     1      -7.846  -6.357  21.013  1.00  0.00    -0.301 OA
ENDBRANCH  20  23
ENDBRANCH  15  17
ENDBRANCH   1  15
BRANCH   4  25
HETATM   25  N3  UNL     1      -6.197 -11.589  14.773  1.00  0.00    -0.189 N 
ATOM     26  H3  UNL     1      -6.427 -11.889  13.826  1.00  0.00     0.184 HD
BRANCH  25  27
HETATM   27  C8  UNL     1      -5.628 -10.319  14.940  1.00  0.00     0.087 A 
HETATM   28  C9  UNL     1      -4.268 -10.158  14.844  1.00  0.00     0.033 A 
HETATM   29  C10 UNL     1      -3.651  -8.939  14.999  1.00  0.00     0.002 A 
HETATM   30  C11 UNL     1      -4.417  -7.807  15.264  1.00  0.00     0.003 A 
HETATM   31  C12 UNL     1      -5.770  -7.975  15.358  1.00  0.00     0.044 A 
HETATM   32  C13 UNL     1      -6.398  -9.208  15.202  1.00  0.00     0.143 A 
HETATM   33  F1  UNL     1      -7.741  -9.353  15.299  1.00  0.00    -0.204 F 
ENDBRANCH  25  27
ENDBRANCH   4  25
TORSDOF 5
ENDMDL
MODEL 4
REMARK VINA RESULT: -8.532186895      3.449      4.978
REMARK  5 active torsions:
REMARK  status: ('A' for Active; 'I' for Inactive)
REMARK    1  A    between atoms: C1_2  and  C2_3 
REMARK    2  A    between atoms: C5_6  and  N1_7 
REMARK    3  A    between atoms: N1_7  and  C6_9 
REMARK    4  A    between atoms: C7_12  and  N3_13 
REMARK    5  A    between atoms: N3_13  and  C8_15 
ROOT
HETATM    1  C6  UNL     1      -6.909 -12.817  17.984  1.00  0.00     0.140 A 
HETATM    2  N2  UNL     1      -6.644 -11.966  16.976  1.00  0.00    -0.175 N 
ATOM      3  H2  UNL     1      -6.616 -10.964  17.163  1.00  0.00     0.186 HD
HETATM    4  C7  UNL     1      -6.413 -12.413  15.715  1.00  0.00     0.685 A 
HETATM    5  N4  UNL     1      -6.441 -13.724  15.427  1.00  0.00    -0.185 N 
ATOM      6  H4  UNL     1      -6.265 -14.037  14.472  1.00  0.00     0.184 HD
HETATM    7  C14 UNL     1      -6.700 -14.628  16.390  1.00  0.00     0.136 A 
HETATM    8  C15 UNL     1      -6.935 -14.163  17.679  1.00  0.00     0.109 A 
HETATM    9  C16 UNL     1      -7.181 -15.332  18.497  1.00  0.00     0.264 A 
HETATM   10  O2  UNL     1      -7.431 -15.292  19.719  1.00  0.00    -0.267 OA
HETATM   11  N5  UNL     1      -7.091 -16.516  17.682  1.00  0.00    -0.288 N 
ATOM     12  H5  UNL     1      -7.218 -17.480  17.990  1.00  0.00     0.172 HD
HETATM   13  C17 UNL     1      -6.792 -16.078  16.370  1.00  0.00     0.276 A 
HETATM   14  O3  UNL     1      -6.637 -16.824  15.382  1.00  0.00    -0.266 OA
ENDROOT
BRANCH   1  15
HETATM   15  N1  UNL     1      -7.129 -12.449  19.172  1.00  0.00    -0.341 N 
ATOM     16  H1  UNL     1      -7.363 -13.190  19.832  1.00  0.00     0.167 HD
BRANCH  15  17
HETATM   17  C5  UNL     1      -7.094 -11.157  19.695  1.00  0.00     0.033 A 
HETATM   18  C4  UNL     1      -7.786 -10.881  20.852  1.00  0.00     0.030 A 
HETATM   19  C3  UNL     1      -7.801  -9.634  21.432  1.00  0.00     0.017 A 
HETATM   20  C2  UNL     1      -7.104  -8.612  20.846  1.00  0.00     0.002 A 
HETATM   21  C19 UNL     1      -6.391  -8.852  19.673  1.00  0.00     0.017 A 
HETATM   22  C18 UNL     1      -6.397 -10.114  19.118  1.00  0.00     0.030 A 
BRANCH  20  23
HETATM   23  C1  UNL     1      -7.112  -7.285  21.450  1.00  0.00     0.269 C 
HETATM   24  O1  UNL     1      -7.851  -6.392  21.002  1.00  0.00    -0.301 OA
ENDBRANCH  20  23
ENDBRANCH  15  17
ENDBRANCH   1  15
BRANCH   4  25
HETATM   25  N3  UNL     1      -6.161 -11.596  14.748  1.00  0.00    -0.189 N 
ATOM     26  H3  UNL     1      -6.331 -11.915  13.795  1.00  0.00     0.184 HD
BRANCH  25  27
HETATM   27  C8  UNL     1      -5.666 -10.296  14.928  1.00  0.00     0.087 A 
HETATM   28  C9  UNL     1      -6.523  -9.275  15.257  1.00  0.00     0.033 A 
HETATM   29  C10 UNL     1      -6.097  -7.981  15.446  1.00  0.00     0.002 A 
HETATM   30  C11 UNL     1      -4.748  -7.670  15.303  1.00  0.00     0.003 A 
HETATM   31  C12 UNL     1      -3.902  -8.691  14.975  1.00  0.00     0.044 A 
HETATM   32  C13 UNL     1      -4.329 -10.002  14.782  1.00  0.00     0.143 A 
HETATM   33  F1  UNL     1      -3.473 -11.001  14.457  1.00  0.00    -0.204 F 
ENDBRANCH  25  27
ENDBRANCH   4  25
TORSDOF 5
ENDMDL
MODEL 5
REMARK VINA RESULT: -8.461640556      2.003      5.835
REMARK  5 active torsions:
REMARK  status: ('A' for Active; 'I' for Inactive)
REMARK    1  A    between atoms: C1_2  and  C2_3 
REMARK    2  A    between atoms: C5_6  and  N1_7 
REMARK    3  A    between atoms: N1_7  and  C6_9 
REMARK    4  A    between atoms: C7_12  and  N3_13 
REMARK    5  A    between atoms: N3_13  and  C8_15 
ROOT
HETATM    1  C6  UNL     1      -4.397  -9.606  15.455  1.00  0.00     0.140 A 
HETATM    2  N2  UNL     1      -4.046  -8.592  14.643  1.00  0.00    -0.175 N 
ATOM      3  H2  UNL     1      -3.476  -8.786  13.820  1.00  0.00     0.186 HD
HETATM    4  C7  UNL     1      -4.434  -7.315  14.896  1.00  0.00     0.685 A 
HETATM    5  N4  UNL     1      -5.184  -7.018  15.969  1.00  0.00    -0.185 N 
ATOM      6  H4  UNL     1      -5.464  -6.052  16.139  1.00  0.00     0.184 HD
HETATM    7  C14 UNL     1      -5.570  -7.986  16.821  1.00  0.00     0.136 A 
HETATM    8  C15 UNL     1      -5.168  -9.291  16.554  1.00  0.00     0.109 A 
HETATM    9  C16 UNL     1      -5.716 -10.111  17.615  1.00  0.00     0.264 A 
HETATM   10  O2  UNL     1      -5.555 -11.346  17.698  1.00  0.00    -0.267 OA
HETATM   11  N5  UNL     1      -6.457  -9.282  18.529  1.00  0.00    -0.288 N 
ATOM     12  H5  UNL     1      -6.950  -9.589  19.368  1.00  0.00     0.172 HD
HETATM   13  C17 UNL     1      -6.366  -7.960  18.036  1.00  0.00     0.276 A 
HETATM   14  O3  UNL     1      -6.887  -6.957  18.566  1.00  0.00    -0.266 OA
ENDROOT
BRANCH   1  15
HETATM   15  N1  UNL     1      -4.061 -10.807  15.259  1.00  0.00    -0.341 N 
ATOM     16  H1  UNL     1      -3.552 -11.257  16.021  1.00  0.00     0.167 HD
BRANCH  15  17
HETATM   17  C5  UNL     1      -4.296 -11.598  14.134  1.00  0.00     0.033 A 
HETATM   18  C4  UNL     1      -5.524 -12.199  13.980  1.00  0.00     0.030 A 
HETATM   19  C3  UNL     1      -5.834 -12.992  12.900  1.00  0.00     0.017 A 
HETATM   20  C2  UNL     1      -4.894 -13.203  11.929  1.00  0.00     0.002 A 
HETATM   21  C19 UNL     1      -3.639 -12.611  12.049  1.00  0.00     0.017 A 
HETATM   22  C18 UNL     1      -3.360 -11.821  13.145  1.00  0.00     0.030 A 
BRANCH  20  23
HETATM   23  C1  UNL     1      -5.211 -14.042  10.779  1.00  0.00     0.269 C 
HETATM   24  O1  UNL     1      -6.003 -13.646   9.908  1.00  0.00    -0.301 OA
ENDBRANCH  20  23
ENDBRANCH  15  17
ENDBRANCH   1  15
BRANCH   4  25
HETATM   25  N3  UNL     1      -4.095  -6.343  14.117  1.00  0.00    -0.189 N 
ATOM     26  H3  UNL     1      -4.463  -6.342  13.167  1.00  0.00     0.184 HD
BRANCH  25  27
HETATM   27  C8  UNL     1      -3.254  -5.288  14.498  1.00  0.00     0.087 A 
HETATM   28  C9  UNL     1      -2.361  -5.459  15.527  1.00  0.00     0.033 A 
HETATM   29  C10 UNL     1      -1.511  -4.463  15.946  1.00  0.00     0.002 A 
HETATM   30  C11 UNL     1      -1.539  -3.221  15.316  1.00  0.00     0.003 A 
HETATM   31  C12 UNL     1      -2.430  -3.059  14.293  1.00  0.00     0.044 A 
HETATM   32  C13 UNL     1      -3.293  -4.065  13.867  1.00  0.00     0.143 A 
HETATM   33  F1  UNL     1      -4.170  -3.883  12.851  1.00  0.00    -0.204 F 
ENDBRANCH  25  27
ENDBRANCH   4  25
TORSDOF 5
ENDMDL
