MODEL 1
REMARK VINA RESULT: -7.925466393      0.000      0.000
REMARK  4 active torsions:
REMARK  status: ('A' for Active; 'I' for Inactive)
REMARK    1  A    between atoms: C2_2  and  O1_5 
REMARK    2  A    between atoms: O1_5  and  C5_6 
REMARK       I    between atoms: C5_6  and  N1_8 
REMARK    3  A    between atoms: N4_14  and  C7_15 
REMARK    4  A    between atoms: C10_18  and  C11_19 
ROOT
HETATM    1  C5  UNL     1       0.333   5.894  25.103  1.00  0.00     0.388 C 
HETATM    2  O2  UNL     1       1.013   6.750  25.691  1.00  0.00    -0.236 OA
HETATM    3  N1  UNL     1       0.343   5.842  23.673  1.00  0.00    -0.147 N 
HETATM    4  C6  UNL     1      -0.357   4.950  22.819  1.00  0.00     0.360 C 
HETATM    5  O3  UNL     1      -0.893   3.882  23.204  1.00  0.00    -0.244 OA
HETATM    6  N2  UNL     1      -0.308   5.521  21.519  1.00  0.00    -0.237 N 
ATOM      7  H2  UNL     1      -0.668   5.103  20.661  1.00  0.00     0.188 HD
HETATM    8  N3  UNL     1       0.325   6.761  21.633  1.00  0.00    -0.021 NA
HETATM    9  N4  UNL     1       1.065   6.683  22.819  1.00  0.00    -0.078 NA
ENDROOT
BRANCH   9  10
HETATM   10  C7  UNL     1       2.312   5.991  22.476  1.00  0.00     0.237 C 
HETATM   11  C8  UNL     1       2.846   6.588  21.212  1.00  0.00     0.052 C 
HETATM   12  C9  UNL     1       4.329   6.909  21.292  1.00  0.00     0.021 C 
HETATM   13  C10 UNL     1       5.088   5.827  22.019  1.00  0.00     0.024 A 
HETATM   14  C15 UNL     1       4.416   4.424  22.081  1.00  0.00     0.050 A 
HETATM   15  C16 UNL     1       4.355   5.370  23.197  1.00  0.00     0.138 A 
HETATM   16  O5  UNL     1       3.216   6.097  23.503  1.00  0.00    -0.361 OA
BRANCH  13  17
HETATM   17  C11 UNL     1       6.546   5.834  21.909  1.00  0.00     0.057 A 
HETATM   18  C12 UNL     1       7.395   6.856  22.270  1.00  0.00     0.150 A 
HETATM   19  F1  UNL     1       7.004   8.042  22.796  1.00  0.00    -0.203 F 
HETATM   20  C13 UNL     1       8.698   6.443  21.997  1.00  0.00     0.188 A 
HETATM   21  O4  UNL     1       8.631   5.237  21.499  1.00  0.00    -0.293 OA
HETATM   22  C14 UNL     1       7.367   4.834  21.429  1.00  0.00     0.240 A 
HETATM   23  F2  UNL     1       6.998   3.622  20.951  1.00  0.00    -0.177 F 
ENDBRANCH  13  17
ENDBRANCH   9  10
BRANCH   1  24
HETATM   24  O1  UNL     1      -0.416   5.016  25.848  1.00  0.00    -0.292 OA
BRANCH  24  25
HETATM   25  C2  UNL     1      -0.337   4.846  27.231  1.00  0.00     0.061 C 
HETATM   26  C1  UNL     1      -0.944   3.472  27.543  1.00  0.00     0.046 C 
HETATM   27  C3  UNL     1      -1.141   5.871  27.996  1.00  0.00     0.046 C 
HETATM   28  C4  UNL     1       1.067   4.822  27.767  1.00  0.00     0.046 C 
ENDBRANCH  24  25
ENDBRANCH   1  24
TORSDOF 4
ENDMDL
MODEL 2
REMARK VINA RESULT: -7.858953534      1.978      2.540
REMARK  4 active torsions:
REMARK  status: ('A' for Active; 'I' for Inactive)
REMARK    1  A    between atoms: C2_2  and  O1_5 
REMARK    2  A    between atoms: O1_5  and  C5_6 
REMARK       I    between atoms: C5_6  and  N1_8 
REMARK    3  A    between atoms: N4_14  and  C7_15 
REMARK    4  A    between atoms: C10_18  and  C11_19 
ROOT
HETATM    1  C5  UNL     1       2.959   6.263  25.231  1.00  0.00     0.388 C 
HETATM    2  O2  UNL     1       4.071   6.800  25.374  1.00  0.00    -0.236 OA
HETATM    3  N1  UNL     1       2.335   6.261  23.943  1.00  0.00    -0.147 N 
HETATM    4  C6  UNL     1       1.081   5.708  23.573  1.00  0.00     0.360 C 
HETATM    5  O3  UNL     1       0.439   4.889  24.276  1.00  0.00    -0.244 OA
HETATM    6  N2  UNL     1       0.756   6.269  22.309  1.00  0.00    -0.237 N 
ATOM      7  H2  UNL     1      -0.055   6.037  21.737  1.00  0.00     0.188 HD
HETATM    8  N3  UNL     1       1.752   7.196  21.996  1.00  0.00    -0.021 NA
HETATM    9  N4  UNL     1       2.856   6.818  22.771  1.00  0.00    -0.078 NA
ENDROOT
BRANCH   9  10
HETATM   10  C7  UNL     1       3.520   5.740  22.032  1.00  0.00     0.237 C 
HETATM   11  C8  UNL     1       4.549   6.351  21.134  1.00  0.00     0.052 C 
HETATM   12  C9  UNL     1       5.892   5.645  21.209  1.00  0.00     0.021 C 
HETATM   13  C10 UNL     1       5.722   4.147  21.285  1.00  0.00     0.024 A 
HETATM   14  C15 UNL     1       4.373   3.570  20.767  1.00  0.00     0.050 A 
HETATM   15  C16 UNL     1       4.634   3.787  22.191  1.00  0.00     0.138 A 
HETATM   16  O5  UNL     1       4.083   4.840  22.902  1.00  0.00    -0.361 OA
BRANCH  13  17
HETATM   17  C11 UNL     1       6.906   3.321  21.051  1.00  0.00     0.057 A 
HETATM   18  C12 UNL     1       8.221   3.700  21.206  1.00  0.00     0.150 A 
HETATM   19  F1  UNL     1       8.633   4.927  21.608  1.00  0.00    -0.203 F 
HETATM   20  C13 UNL     1       9.020   2.607  20.878  1.00  0.00     0.188 A 
HETATM   21  O4  UNL     1       8.225   1.625  20.545  1.00  0.00    -0.293 OA
HETATM   22  C14 UNL     1       6.955   2.007  20.634  1.00  0.00     0.240 A 
HETATM   23  F2  UNL     1       5.912   1.192  20.347  1.00  0.00    -0.177 F 
ENDBRANCH  13  17
ENDBRANCH   9  10
BRANCH   1  24
HETATM   24  O1  UNL     1       2.357   5.686  26.322  1.00  0.00    -0.292 OA
BRANCH  24  25
HETATM   25  C2  UNL     1       1.783   6.370  27.395  1.00  0.00     0.061 C 
HETATM   26  C1  UNL     1       0.888   5.365  28.132  1.00  0.00     0.046 C 
HETATM   27  C3  UNL     1       0.900   7.514  26.957  1.00  0.00     0.046 C 
HETATM   28  C4  UNL     1       2.776   6.874  28.404  1.00  0.00     0.046 C 
ENDBRANCH  24  25
ENDBRANCH   1  24
TORSDOF 4
ENDMDL
MODEL 3
REMARK VINA RESULT: -7.673232823      0.344      1.483
REMARK  4 active torsions:
REMARK  status: ('A' for Active; 'I' for Inactive)
REMARK    1  A    between atoms: C2_2  and  O1_5 
REMARK    2  A    between atoms: O1_5  and  C5_6 
REMARK       I    between atoms: C5_6  and  N1_8 
REMARK    3  A    between atoms: N4_14  and  C7_15 
REMARK    4  A    between atoms: C10_18  and  C11_19 
ROOT
HETATM    1  C5  UNL     1       0.350   5.885  25.095  1.00  0.00     0.388 C 
HETATM    2  O2  UNL     1       1.063   6.714  25.685  1.00  0.00    -0.236 OA
HETATM    3  N1  UNL     1       0.355   5.837  23.665  1.00  0.00    -0.147 N 
HETATM    4  C6  UNL     1      -0.380   4.975  22.810  1.00  0.00     0.360 C 
HETATM    5  O3  UNL     1      -0.952   3.925  23.194  1.00  0.00    -0.244 OA
HETATM    6  N2  UNL     1      -0.314   5.548  21.512  1.00  0.00    -0.237 N 
ATOM      7  H2  UNL     1      -0.691   5.146  20.654  1.00  0.00     0.188 HD
HETATM    8  N3  UNL     1       0.363   6.764  21.628  1.00  0.00    -0.021 NA
HETATM    9  N4  UNL     1       1.103   6.656  22.812  1.00  0.00    -0.078 NA
ENDROOT
BRANCH   9  10
HETATM   10  C7  UNL     1       2.324   5.922  22.462  1.00  0.00     0.237 C 
HETATM   11  C8  UNL     1       2.860   6.486  21.185  1.00  0.00     0.052 C 
HETATM   12  C9  UNL     1       4.353   6.762  21.243  1.00  0.00     0.021 C 
HETATM   13  C10 UNL     1       5.087   5.665  21.974  1.00  0.00     0.024 A 
HETATM   14  C15 UNL     1       4.373   4.286  22.062  1.00  0.00     0.050 A 
HETATM   15  C16 UNL     1       4.355   5.246  23.167  1.00  0.00     0.138 A 
HETATM   16  O5  UNL     1       3.243   6.011  23.477  1.00  0.00    -0.361 OA
BRANCH  13  17
HETATM   17  C11 UNL     1       6.544   5.626  21.846  1.00  0.00     0.057 A 
HETATM   18  C12 UNL     1       7.302   4.574  21.383  1.00  0.00     0.150 A 
HETATM   19  F1  UNL     1       6.808   3.384  20.965  1.00  0.00    -0.203 F 
HETATM   20  C13 UNL     1       8.640   4.963  21.429  1.00  0.00     0.188 A 
HETATM   21  O4  UNL     1       8.678   6.183  21.894  1.00  0.00    -0.293 OA
HETATM   22  C14 UNL     1       7.450   6.618  22.156  1.00  0.00     0.240 A 
HETATM   23  F2  UNL     1       7.188   7.852  22.650  1.00  0.00    -0.177 F 
ENDBRANCH  13  17
ENDBRANCH   9  10
BRANCH   1  24
HETATM   24  O1  UNL     1      -0.427   5.031  25.840  1.00  0.00    -0.292 OA
BRANCH  24  25
HETATM   25  C2  UNL     1      -0.337   4.840  27.219  1.00  0.00     0.061 C 
HETATM   26  C1  UNL     1      -0.954   3.467  27.516  1.00  0.00     0.046 C 
HETATM   27  C3  UNL     1      -1.124   5.861  28.007  1.00  0.00     0.046 C 
HETATM   28  C4  UNL     1       1.071   4.794  27.742  1.00  0.00     0.046 C 
ENDBRANCH  24  25
ENDBRANCH   1  24
TORSDOF 4
ENDMDL
MODEL 4
REMARK VINA RESULT: -7.556113532      3.106      4.930
REMARK  4 active torsions:
REMARK  status: ('A' for Active; 'I' for Inactive)
REMARK    1  A    between atoms: C2_2  and  O1_5 
REMARK    2  A    between atoms: O1_5  and  C5_6 
REMARK       I    between atoms: C5_6  and  N1_8 
REMARK    3  A    between atoms: N4_14  and  C7_15 
REMARK    4  A    between atoms: C10_18  and  C11_19 
ROOT
HETATM    1  C5  UNL     1       0.530   5.411  19.521  1.00  0.00     0.388 C 
HETATM    2  O2  UNL     1       1.270   4.583  18.964  1.00  0.00    -0.236 OA
HETATM    3  N1  UNL     1       0.705   5.692  20.914  1.00  0.00    -0.147 N 
HETATM    4  C6  UNL     1      -0.028   6.594  21.729  1.00  0.00     0.360 C 
HETATM    5  O3  UNL     1      -0.780   7.493  21.281  1.00  0.00    -0.244 OA
HETATM    6  N2  UNL     1       0.275   6.252  23.074  1.00  0.00    -0.237 N 
ATOM      7  H2  UNL     1      -0.044   6.743  23.909  1.00  0.00     0.188 HD
HETATM    8  N3  UNL     1       1.092   5.119  23.042  1.00  0.00    -0.021 NA
HETATM    9  N4  UNL     1       1.658   5.116  21.761  1.00  0.00    -0.078 NA
ENDROOT
BRANCH   9  10
HETATM   10  C7  UNL     1       2.801   6.033  21.820  1.00  0.00     0.237 C 
HETATM   11  C8  UNL     1       3.387   5.963  23.195  1.00  0.00     0.052 C 
HETATM   12  C9  UNL     1       4.900   5.821  23.185  1.00  0.00     0.021 C 
HETATM   13  C10 UNL     1       5.526   6.686  22.119  1.00  0.00     0.024 A 
HETATM   14  C15 UNL     1       4.682   7.892  21.613  1.00  0.00     0.050 A 
HETATM   15  C16 UNL     1       4.759   6.629  20.876  1.00  0.00     0.138 A 
HETATM   16  O5  UNL     1       3.727   5.706  20.862  1.00  0.00    -0.361 OA
BRANCH  13  17
HETATM   17  C11 UNL     1       6.972   6.899  22.184  1.00  0.00     0.057 A 
HETATM   18  C12 UNL     1       7.953   6.018  21.786  1.00  0.00     0.150 A 
HETATM   19  F1  UNL     1       7.728   4.789  21.262  1.00  0.00    -0.203 F 
HETATM   20  C13 UNL     1       9.187   6.622  22.024  1.00  0.00     0.188 A 
HETATM   21  O4  UNL     1       8.955   7.801  22.535  1.00  0.00    -0.293 OA
HETATM   22  C14 UNL     1       7.647   8.008  22.648  1.00  0.00     0.240 A 
HETATM   23  F2  UNL     1       7.115   9.149  23.149  1.00  0.00    -0.177 F 
ENDBRANCH  13  17
ENDBRANCH   9  10
BRANCH   1  24
HETATM   24  O1  UNL     1      -0.442   6.035  18.779  1.00  0.00    -0.292 OA
BRANCH  24  25
HETATM   25  C2  UNL     1      -1.686   5.497  18.446  1.00  0.00     0.061 C 
HETATM   26  C1  UNL     1      -2.643   6.681  18.254  1.00  0.00     0.046 C 
HETATM   27  C3  UNL     1      -2.263   4.630  19.540  1.00  0.00     0.046 C 
HETATM   28  C4  UNL     1      -1.696   4.729  17.153  1.00  0.00     0.046 C 
ENDBRANCH  24  25
ENDBRANCH   1  24
TORSDOF 4
ENDMDL
MODEL 5
REMARK VINA RESULT: -7.498357523      3.079      4.702
REMARK  4 active torsions:
REMARK  status: ('A' for Active; 'I' for Inactive)
REMARK    1  A    between atoms: C2_2  and  O1_5 
REMARK    2  A    between atoms: O1_5  and  C5_6 
REMARK       I    between atoms: C5_6  and  N1_8 
REMARK    3  A    between atoms: N4_14  and  C7_15 
REMARK    4  A    between atoms: C10_18  and  C11_19 
ROOT
HETATM    1  C5  UNL     1       0.551   5.387  19.523  1.00  0.00     0.388 C 
HETATM    2  O2  UNL     1       1.294   4.558  18.972  1.00  0.00    -0.236 OA
HETATM    3  N1  UNL     1       0.721   5.675  20.915  1.00  0.00    -0.147 N 
HETATM    4  C6  UNL     1      -0.016   6.578  21.724  1.00  0.00     0.360 C 
HETATM    5  O3  UNL     1      -0.769   7.475  21.270  1.00  0.00    -0.244 OA
HETATM    6  N2  UNL     1       0.284   6.244  23.072  1.00  0.00    -0.237 N 
ATOM      7  H2  UNL     1      -0.039   6.738  23.903  1.00  0.00     0.188 HD
HETATM    8  N3  UNL     1       1.102   5.112  23.047  1.00  0.00    -0.021 NA
HETATM    9  N4  UNL     1       1.672   5.104  21.767  1.00  0.00    -0.078 NA
ENDROOT
BRANCH   9  10
HETATM   10  C7  UNL     1       2.813   6.024  21.826  1.00  0.00     0.237 C 
HETATM   11  C8  UNL     1       3.404   5.951  23.199  1.00  0.00     0.052 C 
HETATM   12  C9  UNL     1       4.917   5.812  23.183  1.00  0.00     0.021 C 
HETATM   13  C10 UNL     1       5.538   6.682  22.118  1.00  0.00     0.024 A 
HETATM   14  C15 UNL     1       4.689   7.887  21.619  1.00  0.00     0.050 A 
HETATM   15  C16 UNL     1       4.767   6.627  20.878  1.00  0.00     0.138 A 
HETATM   16  O5  UNL     1       3.737   5.701  20.864  1.00  0.00    -0.361 OA
BRANCH  13  17
HETATM   17  C11 UNL     1       6.983   6.898  22.180  1.00  0.00     0.057 A 
HETATM   18  C12 UNL     1       7.630   8.019  22.649  1.00  0.00     0.150 A 
HETATM   19  F1  UNL     1       7.016   9.124  23.136  1.00  0.00    -0.203 F 
HETATM   20  C13 UNL     1       9.001   7.801  22.526  1.00  0.00     0.188 A 
HETATM   21  O4  UNL     1       9.165   6.611  22.011  1.00  0.00    -0.293 OA
HETATM   22  C14 UNL     1       7.987   6.036  21.789  1.00  0.00     0.240 A 
HETATM   23  F2  UNL     1       7.853   4.797  21.259  1.00  0.00    -0.177 F 
ENDBRANCH  13  17
ENDBRANCH   9  10
BRANCH   1  24
HETATM   24  O1  UNL     1      -0.421   6.007  18.775  1.00  0.00    -0.292 OA
BRANCH  24  25
HETATM   25  C2  UNL     1      -1.670   5.472  18.457  1.00  0.00     0.061 C 
HETATM   26  C1  UNL     1      -2.640   6.655  18.342  1.00  0.00     0.046 C 
HETATM   27  C3  UNL     1      -2.209   4.557  19.531  1.00  0.00     0.046 C 
HETATM   28  C4  UNL     1      -1.713   4.758  17.135  1.00  0.00     0.046 C 
ENDBRANCH  24  25
ENDBRANCH   1  24
TORSDOF 4
ENDMDL
