MODEL 1
REMARK VINA RESULT: -7.515387797      0.000      0.000
REMARK  7 active torsions:
REMARK  status: ('A' for Active; 'I' for Inactive)
REMARK    1  A    between atoms: C2_2  and  O1_3 
REMARK    2  A    between atoms: O1_3  and  C3_4 
REMARK    3  A    between atoms: C3_4  and  C4_6 
REMARK    4  A    between atoms: N1_8  and  C6_9 
REMARK    5  A    between atoms: N2_15  and  C12_16 
REMARK    6  A    between atoms: C12_16  and  C13_17 
REMARK       I    between atoms: C13_17  and  N3_19 
REMARK    7  A    between atoms: N3_19  and  C14_21 
ROOT
HETATM    1  C4  UNL     1      -6.137   9.753   2.527  1.00  0.00     0.101 A 
HETATM    2  C5  UNL     1      -6.306   9.831   1.153  1.00  0.00     0.132 A 
HETATM    3  N1  UNL     1      -7.616   9.791   0.925  1.00  0.00    -0.293 N 
HETATM    4  N2  UNL     1      -8.322   9.695   2.022  1.00  0.00    -0.265 N 
HETATM    5  C18 UNL     1      -7.410   9.670   3.040  1.00  0.00     0.134 A 
HETATM    6  N5  UNL     1      -7.723   9.581   4.269  1.00  0.00    -0.383 N 
ATOM      7  H51 UNL     1      -8.668   9.519   4.649  1.00  0.00     0.157 HD
ATOM      8  H52 UNL     1      -7.043   9.562   5.028  1.00  0.00     0.157 HD
ENDROOT
BRANCH   4   9
HETATM    9  C12 UNL     1      -9.747   9.637   2.243  1.00  0.00     0.254 C 
BRANCH   9  10
HETATM   10  C13 UNL     1     -10.230   8.244   2.316  1.00  0.00     0.243 C 
HETATM   11  O3  UNL     1     -11.437   7.963   2.103  1.00  0.00    -0.271 OA
HETATM   12  N3  UNL     1      -9.339   7.201   2.626  1.00  0.00    -0.306 N 
ATOM     13  H3  UNL     1      -8.560   6.991   2.002  1.00  0.00     0.171 HD
BRANCH  12  14
HETATM   14  C14 UNL     1      -9.514   6.498   3.722  1.00  0.00     0.153 A 
HETATM   15  N4  UNL     1     -10.602   5.839   4.110  1.00  0.00    -0.338 N 
HETATM   16  C15 UNL     1     -10.571   5.192   5.247  1.00  0.00     0.036 A 
ATOM     17  H4  UNL     1     -11.443   5.839   3.533  1.00  0.00     0.168 HD
HETATM   18  C16 UNL     1     -11.753   4.409   5.788  1.00  0.00     0.070 C 
HETATM   19  C17 UNL     1      -9.411   5.234   5.970  1.00  0.00     0.100 A 
HETATM   20 CL1  UNL     1      -9.066   4.468   7.526  1.00  0.00    -0.074 Cl
HETATM   21  S1  UNL     1      -8.409   6.206   4.985  1.00  0.00    -0.040 SA
ENDBRANCH  12  14
ENDBRANCH   9  10
ENDBRANCH   4   9
BRANCH   3  22
HETATM   22  C6  UNL     1      -8.150   9.872  -0.444  1.00  0.00     0.107 C 
HETATM   23  C7  UNL     1      -6.996   9.691  -1.374  1.00  0.00     0.027 C 
HETATM   24  C8  UNL     1      -6.708  10.900  -2.214  1.00  0.00     0.002 C 
HETATM   25  C9  UNL     1      -7.940  11.420  -2.906  1.00  0.00     0.000 C 
HETATM   26  C10 UNL     1      -9.083  11.649  -1.951  1.00  0.00     0.002 C 
HETATM   27  C11 UNL     1      -8.767  11.252  -0.543  1.00  0.00     0.027 C 
ENDBRANCH   3  22
BRANCH   1  28
HETATM   28  C3  UNL     1      -4.852   9.762   3.223  1.00  0.00     0.298 C 
HETATM   29  O2  UNL     1      -3.848  10.244   2.629  1.00  0.00    -0.259 OA
BRANCH  28  30
HETATM   30  O1  UNL     1      -4.673   9.273   4.489  1.00  0.00    -0.318 OA
BRANCH  30  31
HETATM   31  C2  UNL     1      -3.487   9.351   5.249  1.00  0.00     0.174 C 
HETATM   32  C1  UNL     1      -3.840   9.680   6.685  1.00  0.00     0.034 C 
ENDBRANCH  30  31
ENDBRANCH  28  30
ENDBRANCH   1  28
TORSDOF 7
ENDMDL
MODEL 2
REMARK VINA RESULT: -7.437966073      3.828      6.447
REMARK  7 active torsions:
REMARK  status: ('A' for Active; 'I' for Inactive)
REMARK    1  A    between atoms: C2_2  and  O1_3 
REMARK    2  A    between atoms: O1_3  and  C3_4 
REMARK    3  A    between atoms: C3_4  and  C4_6 
REMARK    4  A    between atoms: N1_8  and  C6_9 
REMARK    5  A    between atoms: N2_15  and  C12_16 
REMARK    6  A    between atoms: C12_16  and  C13_17 
REMARK       I    between atoms: C13_17  and  N3_19 
REMARK    7  A    between atoms: N3_19  and  C14_21 
ROOT
HETATM    1  C4  UNL     1      -5.270   9.177   5.841  1.00  0.00     0.101 A 
HETATM    2  C5  UNL     1      -6.448   8.775   5.230  1.00  0.00     0.132 A 
HETATM    3  N1  UNL     1      -6.223   8.782   3.920  1.00  0.00    -0.293 N 
HETATM    4  N2  UNL     1      -5.007   9.151   3.613  1.00  0.00    -0.265 N 
HETATM    5  C18 UNL     1      -4.392   9.404   4.807  1.00  0.00     0.134 A 
HETATM    6  N5  UNL     1      -3.185   9.790   4.915  1.00  0.00    -0.383 N 
ATOM      7  H51 UNL     1      -2.534   9.958   4.148  1.00  0.00     0.157 HD
ATOM      8  H52 UNL     1      -2.727   9.979   5.806  1.00  0.00     0.157 HD
ENDROOT
BRANCH   4   9
HETATM    9  C12 UNL     1      -4.337   9.286   2.341  1.00  0.00     0.254 C 
BRANCH   9  10
HETATM   10  C13 UNL     1      -4.835  10.450   1.585  1.00  0.00     0.243 C 
HETATM   11  O3  UNL     1      -5.390  11.416   2.169  1.00  0.00    -0.271 OA
HETATM   12  N3  UNL     1      -4.693  10.500   0.187  1.00  0.00    -0.306 N 
ATOM     13  H3  UNL     1      -3.764  10.513  -0.234  1.00  0.00     0.171 HD
BRANCH  12  14
HETATM   14  C14 UNL     1      -5.763  10.528  -0.577  1.00  0.00     0.153 A 
HETATM   15  N4  UNL     1      -6.919  11.144  -0.347  1.00  0.00    -0.338 N 
HETATM   16  C15 UNL     1      -7.868  11.050  -1.244  1.00  0.00     0.036 A 
ATOM     17  H4  UNL     1      -7.063  11.678   0.510  1.00  0.00     0.168 HD
HETATM   18  C16 UNL     1      -9.226  11.709  -1.086  1.00  0.00     0.070 C 
HETATM   19  C17 UNL     1      -7.607  10.319  -2.370  1.00  0.00     0.100 A 
HETATM   20 CL1  UNL     1      -8.677  10.014  -3.745  1.00  0.00    -0.074 Cl
HETATM   21  S1  UNL     1      -6.005   9.794  -2.095  1.00  0.00    -0.040 SA
ENDBRANCH  12  14
ENDBRANCH   9  10
ENDBRANCH   4   9
BRANCH   3  22
HETATM   22  C6  UNL     1      -7.273   8.384   2.967  1.00  0.00     0.107 C 
HETATM   23  C7  UNL     1      -8.213   9.538   2.848  1.00  0.00     0.027 C 
HETATM   24  C8  UNL     1      -9.595   9.240   3.348  1.00  0.00     0.002 C 
HETATM   25  C9  UNL     1     -10.152   7.970   2.761  1.00  0.00     0.000 C 
HETATM   26  C10 UNL     1      -9.219   6.800   2.933  1.00  0.00     0.002 C 
HETATM   27  C11 UNL     1      -7.924   7.166   3.589  1.00  0.00     0.027 C 
ENDBRANCH   3  22
BRANCH   1  28
HETATM   28  C3  UNL     1      -5.067   9.313   7.281  1.00  0.00     0.298 C 
HETATM   29  O2  UNL     1      -5.866   8.724   8.061  1.00  0.00    -0.259 OA
BRANCH  28  30
HETATM   30  O1  UNL     1      -4.055  10.048   7.839  1.00  0.00    -0.318 OA
BRANCH  30  31
HETATM   31  C2  UNL     1      -4.206  11.110   8.753  1.00  0.00     0.174 C 
HETATM   32  C1  UNL     1      -3.049  12.074   8.590  1.00  0.00     0.034 C 
ENDBRANCH  30  31
ENDBRANCH  28  30
ENDBRANCH   1  28
TORSDOF 7
ENDMDL
MODEL 3
REMARK VINA RESULT: -7.336939553      2.119      4.470
REMARK  7 active torsions:
REMARK  status: ('A' for Active; 'I' for Inactive)
REMARK    1  A    between atoms: C2_2  and  O1_3 
REMARK    2  A    between atoms: O1_3  and  C3_4 
REMARK    3  A    between atoms: C3_4  and  C4_6 
REMARK    4  A    between atoms: N1_8  and  C6_9 
REMARK    5  A    between atoms: N2_15  and  C12_16 
REMARK    6  A    between atoms: C12_16  and  C13_17 
REMARK       I    between atoms: C13_17  and  N3_19 
REMARK    7  A    between atoms: N3_19  and  C14_21 
ROOT
HETATM    1  C4  UNL     1      -6.404   9.758  -0.722  1.00  0.00     0.101 A 
HETATM    2  C5  UNL     1      -5.615  10.022   0.387  1.00  0.00     0.132 A 
HETATM    3  N1  UNL     1      -6.439  10.145   1.424  1.00  0.00    -0.293 N 
HETATM    4  N2  UNL     1      -7.696   9.987   1.099  1.00  0.00    -0.265 N 
HETATM    5  C18 UNL     1      -7.694   9.743  -0.246  1.00  0.00     0.134 A 
HETATM    6  N5  UNL     1      -8.746   9.536  -0.930  1.00  0.00    -0.383 N 
ATOM      7  H51 UNL     1      -9.703   9.525  -0.577  1.00  0.00     0.157 HD
ATOM      8  H52 UNL     1      -8.745   9.354  -1.934  1.00  0.00     0.157 HD
ENDROOT
BRANCH   4   9
HETATM    9  C12 UNL     1      -8.903  10.021   1.889  1.00  0.00     0.254 C 
BRANCH   9  10
HETATM   10  C13 UNL     1      -9.587   8.714   1.894  1.00  0.00     0.243 C 
HETATM   11  O3  UNL     1     -10.812   8.620   1.626  1.00  0.00    -0.271 OA
HETATM   12  N3  UNL     1      -8.872   7.542   2.199  1.00  0.00    -0.306 N 
ATOM     13  H3  UNL     1      -8.106   7.238   1.598  1.00  0.00     0.171 HD
BRANCH  12  14
HETATM   14  C14 UNL     1      -9.195   6.840   3.262  1.00  0.00     0.153 A 
HETATM   15  N4  UNL     1     -10.325   6.180   3.498  1.00  0.00    -0.338 N 
HETATM   16  C15 UNL     1     -10.449   5.534   4.630  1.00  0.00     0.036 A 
ATOM     17  H4  UNL     1     -11.079   6.177   2.811  1.00  0.00     0.168 HD
HETATM   18  C16 UNL     1     -11.693   4.750   5.005  1.00  0.00     0.070 C 
HETATM   19  C17 UNL     1      -9.399   5.579   5.505  1.00  0.00     0.100 A 
HETATM   20 CL1  UNL     1      -9.269   4.815   7.095  1.00  0.00    -0.074 Cl
HETATM   21  S1  UNL     1      -8.272   6.551   4.665  1.00  0.00    -0.040 SA
ENDBRANCH  12  14
ENDBRANCH   9  10
ENDBRANCH   4   9
BRANCH   3  22
HETATM   22  C6  UNL     1      -5.922  10.412   2.776  1.00  0.00     0.107 C 
HETATM   23  C7  UNL     1      -4.574  11.034   2.613  1.00  0.00     0.027 C 
HETATM   24  C8  UNL     1      -3.457  10.196   3.160  1.00  0.00     0.002 C 
HETATM   25  C9  UNL     1      -3.724   9.742   4.571  1.00  0.00     0.000 C 
HETATM   26  C10 UNL     1      -5.065   9.069   4.715  1.00  0.00     0.002 C 
HETATM   27  C11 UNL     1      -5.859   9.055   3.447  1.00  0.00     0.027 C 
ENDBRANCH   3  22
BRANCH   1  28
HETATM   28  C3  UNL     1      -5.911   9.552  -2.082  1.00  0.00     0.298 C 
HETATM   29  O2  UNL     1      -6.721   9.676  -3.042  1.00  0.00    -0.259 OA
BRANCH  28  30
HETATM   30  O1  UNL     1      -4.614   9.229  -2.377  1.00  0.00    -0.318 OA
BRANCH  30  31
HETATM   31  C2  UNL     1      -4.091   7.926  -2.509  1.00  0.00     0.174 C 
HETATM   32  C1  UNL     1      -3.414   7.529  -1.214  1.00  0.00     0.034 C 
ENDBRANCH  30  31
ENDBRANCH  28  30
ENDBRANCH   1  28
TORSDOF 7
ENDMDL
MODEL 4
REMARK VINA RESULT: -7.178635496      2.205      5.025
REMARK  7 active torsions:
REMARK  status: ('A' for Active; 'I' for Inactive)
REMARK    1  A    between atoms: C2_2  and  O1_3 
REMARK    2  A    between atoms: O1_3  and  C3_4 
REMARK    3  A    between atoms: C3_4  and  C4_6 
REMARK    4  A    between atoms: N1_8  and  C6_9 
REMARK    5  A    between atoms: N2_15  and  C12_16 
REMARK    6  A    between atoms: C12_16  and  C13_17 
REMARK       I    between atoms: C13_17  and  N3_19 
REMARK    7  A    between atoms: N3_19  and  C14_21 
ROOT
HETATM    1  C4  UNL     1      -6.343   9.577  -0.452  1.00  0.00     0.101 A 
HETATM    2  C5  UNL     1      -5.547   9.885   0.641  1.00  0.00     0.132 A 
HETATM    3  N1  UNL     1      -6.357   9.986   1.690  1.00  0.00    -0.293 N 
HETATM    4  N2  UNL     1      -7.612   9.773   1.388  1.00  0.00    -0.265 N 
HETATM    5  C18 UNL     1      -7.623   9.514   0.046  1.00  0.00     0.134 A 
HETATM    6  N5  UNL     1      -8.678   9.256  -0.616  1.00  0.00    -0.383 N 
ATOM      7  H51 UNL     1      -9.627   9.210  -0.247  1.00  0.00     0.157 HD
ATOM      8  H52 UNL     1      -8.686   9.063  -1.618  1.00  0.00     0.157 HD
ENDROOT
BRANCH   4   9
HETATM    9  C12 UNL     1      -8.806   9.767   2.199  1.00  0.00     0.254 C 
BRANCH   9  10
HETATM   10  C13 UNL     1      -9.495   8.464   2.143  1.00  0.00     0.243 C 
HETATM   11  O3  UNL     1     -10.666   8.367   1.696  1.00  0.00    -0.271 OA
HETATM   12  N3  UNL     1      -8.846   7.300   2.590  1.00  0.00    -0.306 N 
ATOM     13  H3  UNL     1      -8.001   6.972   2.121  1.00  0.00     0.171 HD
BRANCH  12  14
HETATM   14  C14 UNL     1      -9.331   6.634   3.614  1.00  0.00     0.153 A 
HETATM   15  N4  UNL     1      -8.726   6.336   4.761  1.00  0.00    -0.338 N 
HETATM   16  C15 UNL     1      -9.391   5.660   5.663  1.00  0.00     0.036 A 
ATOM     17  H4  UNL     1      -7.764   6.629   4.932  1.00  0.00     0.168 HD
HETATM   18  C16 UNL     1      -8.800   5.264   7.004  1.00  0.00     0.070 C 
HETATM   19  C17 UNL     1     -10.676   5.301   5.367  1.00  0.00     0.100 A 
HETATM   20 CL1  UNL     1     -11.815   4.395   6.372  1.00  0.00    -0.074 Cl
HETATM   21  S1  UNL     1     -10.880   5.949   3.800  1.00  0.00    -0.040 SA
ENDBRANCH  12  14
ENDBRANCH   9  10
ENDBRANCH   4   9
BRANCH   3  22
HETATM   22  C6  UNL     1      -5.829  10.290   3.030  1.00  0.00     0.107 C 
HETATM   23  C7  UNL     1      -4.417  10.743   2.850  1.00  0.00     0.027 C 
HETATM   24  C8  UNL     1      -3.409   9.826   3.476  1.00  0.00     0.002 C 
HETATM   25  C9  UNL     1      -3.742   9.508   4.910  1.00  0.00     0.000 C 
HETATM   26  C10 UNL     1      -5.152   9.002   5.075  1.00  0.00     0.002 C 
HETATM   27  C11 UNL     1      -5.928   8.987   3.795  1.00  0.00     0.027 C 
ENDBRANCH   3  22
BRANCH   1  28
HETATM   28  C3  UNL     1      -5.865   9.375  -1.818  1.00  0.00     0.298 C 
HETATM   29  O2  UNL     1      -4.841   8.659  -1.998  1.00  0.00    -0.259 OA
BRANCH  28  30
HETATM   30  O1  UNL     1      -6.465   9.922  -2.920  1.00  0.00    -0.318 OA
BRANCH  30  31
HETATM   31  C2  UNL     1      -7.004   9.210  -4.011  1.00  0.00     0.174 C 
HETATM   32  C1  UNL     1      -8.446   9.626  -4.212  1.00  0.00     0.034 C 
ENDBRANCH  30  31
ENDBRANCH  28  30
ENDBRANCH   1  28
TORSDOF 7
ENDMDL
MODEL 5
REMARK VINA RESULT: -7.170760421      1.998      2.583
REMARK  7 active torsions:
REMARK  status: ('A' for Active; 'I' for Inactive)
REMARK    1  A    between atoms: C2_2  and  O1_3 
REMARK    2  A    between atoms: O1_3  and  C3_4 
REMARK    3  A    between atoms: C3_4  and  C4_6 
REMARK    4  A    between atoms: N1_8  and  C6_9 
REMARK    5  A    between atoms: N2_15  and  C12_16 
REMARK    6  A    between atoms: C12_16  and  C13_17 
REMARK       I    between atoms: C13_17  and  N3_19 
REMARK    7  A    between atoms: N3_19  and  C14_21 
ROOT
HETATM    1  C4  UNL     1      -4.909   9.311   4.175  1.00  0.00     0.101 A 
HETATM    2  C5  UNL     1      -4.530   9.347   2.841  1.00  0.00     0.132 A 
HETATM    3  N1  UNL     1      -5.650   9.368   2.125  1.00  0.00    -0.293 N 
HETATM    4  N2  UNL     1      -6.729   9.349   2.863  1.00  0.00    -0.265 N 
HETATM    5  C18 UNL     1      -6.284   9.313   4.155  1.00  0.00     0.134 A 
HETATM    6  N5  UNL     1      -7.051   9.286   5.168  1.00  0.00    -0.383 N 
ATOM      7  H51 UNL     1      -8.071   9.287   5.154  1.00  0.00     0.157 HD
ATOM      8  H52 UNL     1      -6.719   9.258   6.132  1.00  0.00     0.157 HD
ENDROOT
BRANCH   4   9
HETATM    9  C12 UNL     1      -8.129   9.374   2.517  1.00  0.00     0.254 C 
BRANCH   9  10
HETATM   10  C13 UNL     1      -8.687   8.013   2.407  1.00  0.00     0.243 C 
HETATM   11  O3  UNL     1      -9.669   7.771   1.659  1.00  0.00    -0.271 OA
HETATM   12  N3  UNL     1      -8.123   6.955   3.142  1.00  0.00    -0.306 N 
ATOM     13  H3  UNL     1      -7.159   6.669   2.970  1.00  0.00     0.171 HD
BRANCH  12  14
HETATM   14  C14 UNL     1      -8.842   6.336   4.052  1.00  0.00     0.153 A 
HETATM   15  N4  UNL     1      -8.483   5.990   5.285  1.00  0.00    -0.338 N 
HETATM   16  C15 UNL     1      -9.357   5.376   6.042  1.00  0.00     0.036 A 
ATOM     17  H4  UNL     1      -7.548   6.200   5.633  1.00  0.00     0.168 HD
HETATM   18  C16 UNL     1      -9.057   4.934   7.463  1.00  0.00     0.070 C 
HETATM   19  C17 UNL     1     -10.592   5.126   5.512  1.00  0.00     0.100 A 
HETATM   20 CL1  UNL     1     -11.968   4.324   6.281  1.00  0.00    -0.074 Cl
HETATM   21  S1  UNL     1     -10.450   5.786   3.943  1.00  0.00    -0.040 SA
ENDBRANCH  12  14
ENDBRANCH   9  10
ENDBRANCH   4   9
BRANCH   3  22
HETATM   22  C6  UNL     1      -5.608   9.427   0.654  1.00  0.00     0.107 C 
HETATM   23  C7  UNL     1      -4.277   8.898   0.234  1.00  0.00     0.027 C 
HETATM   24  C8  UNL     1      -3.413   9.919  -0.445  1.00  0.00     0.002 C 
HETATM   25  C9  UNL     1      -4.138  10.630  -1.558  1.00  0.00     0.000 C 
HETATM   26  C10 UNL     1      -5.456  11.205  -1.110  1.00  0.00     0.002 C 
HETATM   27  C11 UNL     1      -5.785  10.893   0.316  1.00  0.00     0.027 C 
ENDBRANCH   3  22
BRANCH   1  28
HETATM   28  C3  UNL     1      -3.994   9.276   5.314  1.00  0.00     0.298 C 
HETATM   29  O2  UNL     1      -4.438   8.893   6.432  1.00  0.00    -0.259 OA
BRANCH  28  30
HETATM   30  O1  UNL     1      -2.676   9.639   5.240  1.00  0.00    -0.318 OA
BRANCH  30  31
HETATM   31  C2  UNL     1      -1.774   9.718   6.320  1.00  0.00     0.174 C 
HETATM   32  C1  UNL     1      -0.616  10.616   5.935  1.00  0.00     0.034 C 
ENDBRANCH  30  31
ENDBRANCH  28  30
ENDBRANCH   1  28
TORSDOF 7
ENDMDL
