MODEL 1
REMARK VINA RESULT: -6.833308482      0.000      0.000
REMARK  10 active torsions:
REMARK  status: ('A' for Active; 'I' for Inactive)
REMARK    1  A    between atoms: C2_2  and  C3_3 
REMARK    2  A    between atoms: C3_3  and  N1_4 
REMARK    3  A    between atoms: C3_3  and  C4_9 
REMARK    4  A    between atoms: N1_4  and  N2_6 
REMARK    5  A    between atoms: C4_9  and  O1_10 
REMARK    6  A    between atoms: C4_9  and  C5_12 
REMARK    7  A    between atoms: C6_15  and  N4_16 
REMARK    8  A    between atoms: N4_16  and  N5_18 
REMARK    9  A    between atoms: C7_21  and  N7_22 
REMARK   10  A    between atoms: C8_27  and  N9_28 
ROOT
HETATM    1  C5  UNL     1      69.677  68.614 280.932  1.00  0.00     0.143 A 
HETATM    2  N3  UNL     1      68.916  69.441 280.188  1.00  0.00    -0.174 N 
ATOM      3  H3  UNL     1      68.976  69.545 279.175  1.00  0.00     0.185 HD
HETATM    4  C6  UNL     1      68.067  70.109 280.989  1.00  0.00     0.714 A 
HETATM    5  N10 UNL     1      68.293  69.700 282.249  1.00  0.00    -0.129 N 
ATOM      6  H10 UNL     1      67.807  70.022 283.086  1.00  0.00     0.205 HD
HETATM    7  N11 UNL     1      69.259  68.805 282.201  1.00  0.00    -0.272 N 
ATOM      8  H11 UNL     1      69.641  68.322 283.014  1.00  0.00     0.189 HD
ENDROOT
BRANCH   4   9
HETATM    9  N4  UNL     1      67.205  70.979 280.566  1.00  0.00    -0.106 N 
ATOM     10  H4  UNL     1      67.524  71.910 280.297  1.00  0.00     0.208 HD
BRANCH   9  11
HETATM   11  N5  UNL     1      65.847  70.665 280.471  1.00  0.00    -0.127 N 
HETATM   12  N6  UNL     1      65.030  70.286 281.451  1.00  0.00    -0.107 N 
HETATM   13  C7  UNL     1      63.802  70.078 280.948  1.00  0.00     0.695 A 
ATOM     14  H6  UNL     1      65.296  70.171 282.429  1.00  0.00     0.208 HD
HETATM   15  N8  UNL     1      63.886  70.339 279.634  1.00  0.00    -0.152 N 
HETATM   16  C8  UNL     1      65.150  70.706 279.318  1.00  0.00     0.302 A 
ATOM     17  H8  UNL     1      63.113  70.271 278.972  1.00  0.00     0.187 HD
BRANCH  13  18
HETATM   18  N7  UNL     1      62.764  69.700 281.629  1.00  0.00    -0.233 N 
ATOM     19  H72 UNL     1      61.816  70.077 281.601  1.00  0.00     0.174 HD
ATOM     20  H71 UNL     1      62.749  68.943 282.312  1.00  0.00     0.174 HD
ENDBRANCH  13  18
BRANCH  16  21
HETATM   21  N9  UNL     1      65.668  71.065 278.044  1.00  0.00    -0.075 N 
HETATM   22  O2  UNL     1      66.792  71.575 277.975  1.00  0.00    -0.529 OA
HETATM   23  O3  UNL     1      64.881  70.825 276.942  1.00  0.00    -0.529 OA
ENDBRANCH  16  21
ENDBRANCH   9  11
ENDBRANCH   4   9
BRANCH   1  24
HETATM   24  C4  UNL     1      70.753  67.680 280.488  1.00  0.00     0.211 C 
BRANCH  24  25
HETATM   25  C3  UNL     1      70.653  67.482 279.003  1.00  0.00     0.134 C 
BRANCH  25  26
HETATM   26  C2  UNL     1      69.230  67.075 278.663  1.00  0.00     0.025 C 
HETATM   27  C1  UNL     1      69.207  66.325 277.326  1.00  0.00     0.007 C 
ENDBRANCH  25  26
BRANCH  25  28
HETATM   28  N1  UNL     1      71.634  66.627 278.451  1.00  0.00    -0.335 N 
ATOM     29  H1  UNL     1      71.532  66.253 277.507  1.00  0.00     0.180 HD
BRANCH  28  30
HETATM   30  N2  UNL     1      72.705  66.320 279.202  1.00  0.00    -0.349 N 
ATOM     31  H22 UNL     1      73.359  67.053 279.479  1.00  0.00     0.176 HD
ATOM     32  H21 UNL     1      72.839  65.348 279.479  1.00  0.00     0.176 HD
ENDBRANCH  28  30
ENDBRANCH  25  28
ENDBRANCH  24  25
BRANCH  24  33
HETATM   33  O1  UNL     1      71.991  68.077 280.916  1.00  0.00    -0.386 OA
ATOM     34  H1  UNL     1      72.367  67.518 281.586  1.00  0.00     0.210 HD
ENDBRANCH  24  33
ENDBRANCH   1  24
TORSDOF 10
ENDMDL
MODEL 2
REMARK VINA RESULT: -6.781548225      1.595      2.558
REMARK  10 active torsions:
REMARK  status: ('A' for Active; 'I' for Inactive)
REMARK    1  A    between atoms: C2_2  and  C3_3 
REMARK    2  A    between atoms: C3_3  and  N1_4 
REMARK    3  A    between atoms: C3_3  and  C4_9 
REMARK    4  A    between atoms: N1_4  and  N2_6 
REMARK    5  A    between atoms: C4_9  and  O1_10 
REMARK    6  A    between atoms: C4_9  and  C5_12 
REMARK    7  A    between atoms: C6_15  and  N4_16 
REMARK    8  A    between atoms: N4_16  and  N5_18 
REMARK    9  A    between atoms: C7_21  and  N7_22 
REMARK   10  A    between atoms: C8_27  and  N9_28 
ROOT
HETATM    1  C5  UNL     1      69.121  69.110 280.725  1.00  0.00     0.143 A 
HETATM    2  N3  UNL     1      68.567  69.997 279.875  1.00  0.00    -0.174 N 
ATOM      3  H3  UNL     1      68.822  70.111 278.894  1.00  0.00     0.185 HD
HETATM    4  C6  UNL     1      67.626  70.709 280.521  1.00  0.00     0.714 A 
HETATM    5  N10 UNL     1      67.585  70.268 281.790  1.00  0.00    -0.129 N 
ATOM      6  H10 UNL     1      66.972  70.610 282.530  1.00  0.00     0.205 HD
HETATM    7  N11 UNL     1      68.484  69.311 281.899  1.00  0.00    -0.272 N 
ATOM      8  H11 UNL     1      68.675  68.792 282.756  1.00  0.00     0.189 HD
ENDROOT
BRANCH   4   9
HETATM    9  N4  UNL     1      66.916  71.640 279.968  1.00  0.00    -0.106 N 
ATOM     10  H4  UNL     1      66.889  72.568 280.392  1.00  0.00     0.208 HD
BRANCH   9  11
HETATM   11  N5  UNL     1      66.187  71.397 278.801  1.00  0.00    -0.127 N 
HETATM   12  N6  UNL     1      66.576  71.596 277.544  1.00  0.00    -0.107 N 
HETATM   13  C7  UNL     1      65.584  71.237 276.712  1.00  0.00     0.695 A 
ATOM     14  H6  UNL     1      67.484  71.963 277.258  1.00  0.00     0.208 HD
HETATM   15  N8  UNL     1      64.575  70.814 277.491  1.00  0.00    -0.152 N 
HETATM   16  C8  UNL     1      64.932  70.905 278.794  1.00  0.00     0.302 A 
ATOM     17  H8  UNL     1      63.675  70.474 277.152  1.00  0.00     0.187 HD
BRANCH  13  18
HETATM   18  N7  UNL     1      65.627  71.303 275.417  1.00  0.00    -0.233 N 
ATOM     19  H72 UNL     1      65.165  71.971 274.800  1.00  0.00     0.174 HD
ATOM     20  H71 UNL     1      66.151  70.672 274.810  1.00  0.00     0.174 HD
ENDBRANCH  13  18
BRANCH  16  21
HETATM   21  N9  UNL     1      64.165  70.563 279.940  1.00  0.00    -0.075 N 
HETATM   22  O2  UNL     1      64.521  69.606 280.637  1.00  0.00    -0.529 OA
HETATM   23  O3  UNL     1      63.052  71.324 280.216  1.00  0.00    -0.529 OA
ENDBRANCH  16  21
ENDBRANCH   9  11
ENDBRANCH   4   9
BRANCH   1  24
HETATM   24  C4  UNL     1      70.199  68.113 280.465  1.00  0.00     0.211 C 
BRANCH  24  25
HETATM   25  C3  UNL     1      70.145  67.692 279.026  1.00  0.00     0.134 C 
BRANCH  25  26
HETATM   26  C2  UNL     1      68.801  67.039 278.761  1.00  0.00     0.025 C 
HETATM   27  C1  UNL     1      68.850  66.256 277.443  1.00  0.00     0.007 C 
ENDBRANCH  25  26
BRANCH  25  28
HETATM   28  N1  UNL     1      71.246  66.918 278.592  1.00  0.00    -0.335 N 
ATOM     29  H1  UNL     1      71.305  66.584 277.630  1.00  0.00     0.180 HD
BRANCH  28  30
HETATM   30  N2  UNL     1      72.213  66.633 279.480  1.00  0.00    -0.349 N 
ATOM     31  H22 UNL     1      71.977  66.171 280.359  1.00  0.00     0.176 HD
ATOM     32  H21 UNL     1      73.172  66.890 279.249  1.00  0.00     0.176 HD
ENDBRANCH  28  30
ENDBRANCH  25  28
ENDBRANCH  24  25
BRANCH  24  33
HETATM   33  O1  UNL     1      71.428  68.561 280.870  1.00  0.00    -0.386 OA
ATOM     34  H1  UNL     1      71.621  68.390 281.785  1.00  0.00     0.210 HD
ENDBRANCH  24  33
ENDBRANCH   1  24
TORSDOF 10
ENDMDL
MODEL 3
REMARK VINA RESULT: -6.774864341      2.258      6.533
REMARK  10 active torsions:
REMARK  status: ('A' for Active; 'I' for Inactive)
REMARK    1  A    between atoms: C2_2  and  C3_3 
REMARK    2  A    between atoms: C3_3  and  N1_4 
REMARK    3  A    between atoms: C3_3  and  C4_9 
REMARK    4  A    between atoms: N1_4  and  N2_6 
REMARK    5  A    between atoms: C4_9  and  O1_10 
REMARK    6  A    between atoms: C4_9  and  C5_12 
REMARK    7  A    between atoms: C6_15  and  N4_16 
REMARK    8  A    between atoms: N4_16  and  N5_18 
REMARK    9  A    between atoms: C7_21  and  N7_22 
REMARK   10  A    between atoms: C8_27  and  N9_28 
ROOT
HETATM    1  C5  UNL     1      67.371  70.134 279.591  1.00  0.00     0.143 A 
HETATM    2  N3  UNL     1      67.286  68.852 279.186  1.00  0.00    -0.174 N 
ATOM      3  H3  UNL     1      66.531  68.462 278.621  1.00  0.00     0.185 HD
HETATM    4  C6  UNL     1      68.349  68.166 279.643  1.00  0.00     0.714 A 
HETATM    5  N10 UNL     1      69.112  69.022 280.342  1.00  0.00    -0.129 N 
ATOM      6  H10 UNL     1      69.989  68.804 280.815  1.00  0.00     0.205 HD
HETATM    7  N11 UNL     1      68.516  70.197 280.304  1.00  0.00    -0.272 N 
ATOM      8  H11 UNL     1      68.872  71.041 280.752  1.00  0.00     0.189 HD
ENDROOT
BRANCH   4   9
HETATM    9  N4  UNL     1      68.549  66.906 279.417  1.00  0.00    -0.106 N 
ATOM     10  H4  UNL     1      68.461  66.240 280.185  1.00  0.00     0.208 HD
BRANCH   9  11
HETATM   11  N5  UNL     1      68.882  66.444 278.142  1.00  0.00    -0.127 N 
HETATM   12  N6  UNL     1      68.057  66.005 277.195  1.00  0.00    -0.107 N 
HETATM   13  C7  UNL     1      68.771  65.652 276.113  1.00  0.00     0.695 A 
ATOM     14  H6  UNL     1      67.041  65.946 277.278  1.00  0.00     0.208 HD
HETATM   15  N8  UNL     1      70.057  65.885 276.421  1.00  0.00    -0.152 N 
HETATM   16  C8  UNL     1      70.146  66.379 277.679  1.00  0.00     0.302 A 
ATOM     17  H8  UNL     1      70.848  65.716 275.801  1.00  0.00     0.187 HD
BRANCH  13  18
HETATM   18  N7  UNL     1      68.280  65.181 275.009  1.00  0.00    -0.233 N 
ATOM     19  H72 UNL     1      67.501  65.541 274.457  1.00  0.00     0.174 HD
ATOM     20  H71 UNL     1      68.619  64.355 274.516  1.00  0.00     0.174 HD
ENDBRANCH  13  18
BRANCH  16  21
HETATM   21  N9  UNL     1      71.315  66.758 278.392  1.00  0.00    -0.075 N 
HETATM   22  O2  UNL     1      71.280  67.762 279.113  1.00  0.00    -0.529 OA
HETATM   23  O3  UNL     1      72.439  65.980 278.239  1.00  0.00    -0.529 OA
ENDBRANCH  16  21
ENDBRANCH   9  11
ENDBRANCH   4   9
BRANCH   1  24
HETATM   24  C4  UNL     1      66.431  71.263 279.330  1.00  0.00     0.211 C 
BRANCH  24  25
HETATM   25  C3  UNL     1      65.088  70.709 278.953  1.00  0.00     0.134 C 
BRANCH  25  26
HETATM   26  C2  UNL     1      64.693  71.274 277.600  1.00  0.00     0.025 C 
HETATM   27  C1  UNL     1      65.921  71.345 276.684  1.00  0.00     0.007 C 
ENDBRANCH  25  26
BRANCH  25  28
HETATM   28  N1  UNL     1      64.087  70.853 279.941  1.00  0.00    -0.335 N 
ATOM     29  H1  UNL     1      63.283  71.462 279.787  1.00  0.00     0.180 HD
BRANCH  28  30
HETATM   30  N2  UNL     1      64.222  70.166 281.088  1.00  0.00    -0.349 N 
ATOM     31  H22 UNL     1      63.867  69.212 281.154  1.00  0.00     0.176 HD
ATOM     32  H21 UNL     1      64.683  70.624 281.873  1.00  0.00     0.176 HD
ENDBRANCH  28  30
ENDBRANCH  25  28
ENDBRANCH  24  25
BRANCH  24  33
HETATM   33  O1  UNL     1      66.395  72.156 280.367  1.00  0.00    -0.386 OA
ATOM     34  H1  UNL     1      67.250  72.463 280.644  1.00  0.00     0.210 HD
ENDBRANCH  24  33
ENDBRANCH   1  24
TORSDOF 10
ENDMDL
MODEL 4
REMARK VINA RESULT: -6.547979169      1.858      6.449
REMARK  10 active torsions:
REMARK  status: ('A' for Active; 'I' for Inactive)
REMARK    1  A    between atoms: C2_2  and  C3_3 
REMARK    2  A    between atoms: C3_3  and  N1_4 
REMARK    3  A    between atoms: C3_3  and  C4_9 
REMARK    4  A    between atoms: N1_4  and  N2_6 
REMARK    5  A    between atoms: C4_9  and  O1_10 
REMARK    6  A    between atoms: C4_9  and  C5_12 
REMARK    7  A    between atoms: C6_15  and  N4_16 
REMARK    8  A    between atoms: N4_16  and  N5_18 
REMARK    9  A    between atoms: C7_21  and  N7_22 
REMARK   10  A    between atoms: C8_27  and  N9_28 
ROOT
HETATM    1  C5  UNL     1      67.430  70.317 280.405  1.00  0.00     0.143 A 
HETATM    2  N3  UNL     1      68.148  69.355 279.793  1.00  0.00    -0.174 N 
ATOM      3  H3  UNL     1      68.128  69.150 278.794  1.00  0.00     0.185 HD
HETATM    4  C6  UNL     1      68.895  68.706 280.705  1.00  0.00     0.714 A 
HETATM    5  N10 UNL     1      68.646  69.263 281.902  1.00  0.00    -0.129 N 
ATOM      6  H10 UNL     1      69.060  68.991 282.794  1.00  0.00     0.205 HD
HETATM    7  N11 UNL     1      67.768  70.226 281.709  1.00  0.00    -0.272 N 
ATOM      8  H11 UNL     1      67.393  70.823 282.446  1.00  0.00     0.189 HD
ENDROOT
BRANCH   4   9
HETATM    9  N4  UNL     1      69.694  67.727 280.421  1.00  0.00    -0.106 N 
ATOM     10  H4  UNL     1      70.343  67.388 281.131  1.00  0.00     0.208 HD
BRANCH   9  11
HETATM   11  N5  UNL     1      69.682  67.126 279.159  1.00  0.00    -0.127 N 
HETATM   12  N6  UNL     1      68.630  66.906 278.375  1.00  0.00    -0.107 N 
HETATM   13  C7  UNL     1      69.039  66.306 277.244  1.00  0.00     0.695 A 
ATOM     14  H6  UNL     1      67.666  67.154 278.597  1.00  0.00     0.208 HD
HETATM   15  N8  UNL     1      70.370  66.162 277.357  1.00  0.00    -0.152 N 
HETATM   16  C8  UNL     1      70.788  66.667 278.541  1.00  0.00     0.302 A 
ATOM     17  H8  UNL     1      70.975  65.737 276.654  1.00  0.00     0.187 HD
BRANCH  13  18
HETATM   18  N7  UNL     1      68.271  65.949 276.262  1.00  0.00    -0.233 N 
ATOM     19  H72 UNL     1      67.792  66.543 275.584  1.00  0.00     0.174 HD
ATOM     20  H71 UNL     1      68.031  64.988 276.017  1.00  0.00     0.174 HD
ENDBRANCH  13  18
BRANCH  16  21
HETATM   21  N9  UNL     1      72.111  66.717 279.056  1.00  0.00    -0.075 N 
HETATM   22  O2  UNL     1      72.984  66.011 278.538  1.00  0.00    -0.529 OA
HETATM   23  O3  UNL     1      72.354  67.559 280.117  1.00  0.00    -0.529 OA
ENDBRANCH  16  21
ENDBRANCH   9  11
ENDBRANCH   4   9
BRANCH   1  24
HETATM   24  C4  UNL     1      66.466  71.287 279.809  1.00  0.00     0.211 C 
BRANCH  24  25
HETATM   25  C3  UNL     1      65.347  70.531 279.154  1.00  0.00     0.134 C 
BRANCH  25  26
HETATM   26  C2  UNL     1      64.453  71.520 278.427  1.00  0.00     0.025 C 
HETATM   27  C1  UNL     1      64.994  71.774 277.015  1.00  0.00     0.007 C 
ENDBRANCH  25  26
BRANCH  25  28
HETATM   28  N1  UNL     1      64.643  69.653 280.010  1.00  0.00    -0.335 N 
ATOM     29  H1  UNL     1      64.741  68.642 279.919  1.00  0.00     0.180 HD
BRANCH  28  30
HETATM   30  N2  UNL     1      63.840  70.186 280.946  1.00  0.00    -0.349 N 
ATOM     31  H22 UNL     1      63.128  69.610 281.394  1.00  0.00     0.176 HD
ATOM     32  H21 UNL     1      63.967  71.169 281.189  1.00  0.00     0.176 HD
ENDBRANCH  28  30
ENDBRANCH  25  28
ENDBRANCH  24  25
BRANCH  24  33
HETATM   33  O1  UNL     1      66.050  72.226 280.714  1.00  0.00    -0.386 OA
ATOM     34  H1  UNL     1      66.048  71.922 281.615  1.00  0.00     0.210 HD
ENDBRANCH  24  33
ENDBRANCH   1  24
TORSDOF 10
ENDMDL
MODEL 5
REMARK VINA RESULT: -6.449639945      2.135      3.227
REMARK  10 active torsions:
REMARK  status: ('A' for Active; 'I' for Inactive)
REMARK    1  A    between atoms: C2_2  and  C3_3 
REMARK    2  A    between atoms: C3_3  and  N1_4 
REMARK    3  A    between atoms: C3_3  and  C4_9 
REMARK    4  A    between atoms: N1_4  and  N2_6 
REMARK    5  A    between atoms: C4_9  and  O1_10 
REMARK    6  A    between atoms: C4_9  and  C5_12 
REMARK    7  A    between atoms: C6_15  and  N4_16 
REMARK    8  A    between atoms: N4_16  and  N5_18 
REMARK    9  A    between atoms: C7_21  and  N7_22 
REMARK   10  A    between atoms: C8_27  and  N9_28 
ROOT
HETATM    1  C5  UNL     1      68.864  68.698 280.441  1.00  0.00     0.143 A 
HETATM    2  N3  UNL     1      68.534  69.999 280.321  1.00  0.00    -0.174 N 
ATOM      3  H3  UNL     1      68.995  70.770 280.803  1.00  0.00     0.185 HD
HETATM    4  C6  UNL     1      67.503  70.122 279.466  1.00  0.00     0.714 A 
HETATM    5  N10 UNL     1      67.178  68.889 279.043  1.00  0.00    -0.129 N 
ATOM      6  H10 UNL     1      66.435  68.651 278.387  1.00  0.00     0.205 HD
HETATM    7  N11 UNL     1      68.000  68.045 279.634  1.00  0.00    -0.272 N 
ATOM      8  H11 UNL     1      67.986  67.034 279.500  1.00  0.00     0.189 HD
ENDROOT
BRANCH   4   9
HETATM    9  N4  UNL     1      66.961  71.254 279.145  1.00  0.00    -0.106 N 
ATOM     10  H4  UNL     1      67.185  72.089 279.686  1.00  0.00     0.208 HD
BRANCH   9  11
HETATM   11  N5  UNL     1      66.074  71.352 278.069  1.00  0.00    -0.127 N 
HETATM   12  N6  UNL     1      66.366  71.602 276.796  1.00  0.00    -0.107 N 
HETATM   13  C7  UNL     1      65.232  71.613 276.075  1.00  0.00     0.695 A 
ATOM     14  H6  UNL     1      67.303  71.761 276.425  1.00  0.00     0.208 HD
HETATM   15  N8  UNL     1      64.236  71.363 276.940  1.00  0.00    -0.152 N 
HETATM   16  C8  UNL     1      64.740  71.197 278.186  1.00  0.00     0.302 A 
ATOM     17  H8  UNL     1      63.248  71.306 276.696  1.00  0.00     0.187 HD
BRANCH  13  18
HETATM   18  N7  UNL     1      65.154  71.828 274.798  1.00  0.00    -0.233 N 
ATOM     19  H72 UNL     1      64.351  71.700 274.182  1.00  0.00     0.174 HD
ATOM     20  H71 UNL     1      65.913  72.170 274.208  1.00  0.00     0.174 HD
ENDBRANCH  13  18
BRANCH  16  21
HETATM   21  N9  UNL     1      64.036  70.917 279.388  1.00  0.00    -0.075 N 
HETATM   22  O2  UNL     1      63.169  71.710 279.774  1.00  0.00    -0.529 OA
HETATM   23  O3  UNL     1      64.360  69.766 280.067  1.00  0.00    -0.529 OA
ENDBRANCH  16  21
ENDBRANCH   9  11
ENDBRANCH   4   9
BRANCH   1  24
HETATM   24  C4  UNL     1      69.936  68.077 281.272  1.00  0.00     0.211 C 
BRANCH  24  25
HETATM   25  C3  UNL     1      71.204  68.012 280.471  1.00  0.00     0.134 C 
BRANCH  25  26
HETATM   26  C2  UNL     1      70.915  67.301 279.161  1.00  0.00     0.025 C 
HETATM   27  C1  UNL     1      72.100  66.409 278.776  1.00  0.00     0.007 C 
ENDBRANCH  25  26
BRANCH  25  28
HETATM   28  N1  UNL     1      72.319  67.487 281.165  1.00  0.00    -0.335 N 
ATOM     29  H1  UNL     1      73.264  67.594 280.797  1.00  0.00     0.180 HD
BRANCH  28  30
HETATM   30  N2  UNL     1      72.100  66.844 282.325  1.00  0.00    -0.349 N 
ATOM     31  H22 UNL     1      72.881  66.420 282.826  1.00  0.00     0.176 HD
ATOM     32  H21 UNL     1      71.145  66.795 282.678  1.00  0.00     0.176 HD
ENDBRANCH  28  30
ENDBRANCH  25  28
ENDBRANCH  24  25
BRANCH  24  33
HETATM   33  O1  UNL     1      70.074  68.695 282.486  1.00  0.00    -0.386 OA
ATOM     34  H1  UNL     1      69.781  68.172 283.222  1.00  0.00     0.210 HD
ENDBRANCH  24  33
ENDBRANCH   1  24
TORSDOF 10
ENDMDL
