MODEL 1
REMARK VINA RESULT: -5.387976534      0.000      0.000
REMARK  3 active torsions:
REMARK  status: ('A' for Active; 'I' for Inactive)
REMARK    1  A    between atoms: C2_2  and  N1_4 
REMARK    2  A    between atoms: N1_4  and  C4_6 
REMARK    3  A    between atoms: C4_6  and  N2_8 
ROOT
HETATM    1  N2  UNL     1     -38.881 -57.168  65.923  1.00  0.00    -0.334 N 
HETATM    2  C5  UNL     1     -38.106 -58.200  65.238  1.00  0.00     0.298 C 
HETATM    3  O1  UNL     1     -37.319 -57.725  64.220  1.00  0.00    -0.340 OA
HETATM    4  C6  UNL     1     -36.482 -56.717  64.709  1.00  0.00     0.292 C 
HETATM    5  O2  UNL     1     -35.465 -56.395  63.826  1.00  0.00    -0.356 OA
HETATM    6  C7  UNL     1     -35.538 -55.099  63.357  1.00  0.00     0.202 C 
HETATM    7  C8  UNL     1     -35.705 -54.070  64.436  1.00  0.00     0.142 C 
HETATM    8  C9  UNL     1     -34.433 -53.727  65.145  1.00  0.00     0.042 C 
HETATM    9  O3  UNL     1     -36.677 -54.406  65.366  1.00  0.00    -0.372 OA
HETATM   10  C10 UNL     1     -37.377 -55.545  65.015  1.00  0.00     0.195 C 
HETATM   11  C11 UNL     1     -38.207 -55.943  66.248  1.00  0.00     0.164 C 
ENDROOT
BRANCH   1  12
HETATM   12  C4  UNL     1     -40.235 -57.346  66.260  1.00  0.00     0.171 C 
HETATM   13  S1  UNL     1     -40.559 -57.480  67.875  1.00  0.00    -0.041 SA
BRANCH  12  14
HETATM   14  N1  UNL     1     -41.288 -57.413  65.319  1.00  0.00    -0.363 N 
ATOM     15  H1  UNL     1     -41.364 -58.233  64.715  1.00  0.00     0.162 HD
BRANCH  14  16
HETATM   16  C2  UNL     1     -42.271 -56.343  65.188  1.00  0.00     0.075 C 
HETATM   17  C1  UNL     1     -43.333 -56.413  66.234  1.00  0.00     0.032 C 
HETATM   18  C3  UNL     1     -42.923 -56.349  63.830  1.00  0.00     0.032 C 
ENDBRANCH  14  16
ENDBRANCH  12  14
ENDBRANCH   1  12
TORSDOF 3
ENDMDL
MODEL 2
REMARK VINA RESULT: -5.349827035      0.730      1.099
REMARK  3 active torsions:
REMARK  status: ('A' for Active; 'I' for Inactive)
REMARK    1  A    between atoms: C2_2  and  N1_4 
REMARK    2  A    between atoms: N1_4  and  C4_6 
REMARK    3  A    between atoms: C4_6  and  N2_8 
ROOT
HETATM    1  N2  UNL     1     -39.205 -56.858  66.229  1.00  0.00    -0.334 N 
HETATM    2  C5  UNL     1     -38.720 -58.117  65.672  1.00  0.00     0.298 C 
HETATM    3  O1  UNL     1     -37.883 -57.966  64.596  1.00  0.00    -0.340 OA
HETATM    4  C6  UNL     1     -36.815 -57.134  64.949  1.00  0.00     0.292 C 
HETATM    5  O2  UNL     1     -35.784 -57.170  64.025  1.00  0.00    -0.356 OA
HETATM    6  C7  UNL     1     -35.570 -55.958  63.399  1.00  0.00     0.202 C 
HETATM    7  C8  UNL     1     -35.451 -54.799  64.344  1.00  0.00     0.142 C 
HETATM    8  C9  UNL     1     -34.109 -54.684  64.994  1.00  0.00     0.042 C 
HETATM    9  O3  UNL     1     -36.439 -54.782  65.316  1.00  0.00    -0.372 OA
HETATM   10  C10 UNL     1     -37.399 -55.756  65.115  1.00  0.00     0.195 C 
HETATM   11  C11 UNL     1     -38.252 -55.797  66.395  1.00  0.00     0.164 C 
ENDROOT
BRANCH   1  12
HETATM   12  C4  UNL     1     -40.551 -56.668  66.597  1.00  0.00     0.171 C 
HETATM   13  S1  UNL     1     -40.989 -57.305  68.058  1.00  0.00    -0.041 SA
BRANCH  12  14
HETATM   14  N1  UNL     1     -41.504 -55.988  65.807  1.00  0.00    -0.363 N 
ATOM     15  H1  UNL     1     -41.384 -54.989  65.633  1.00  0.00     0.162 HD
BRANCH  14  16
HETATM   16  C2  UNL     1     -42.657 -56.674  65.233  1.00  0.00     0.075 C 
HETATM   17  C1  UNL     1     -42.873 -56.324  63.798  1.00  0.00     0.032 C 
HETATM   18  C3  UNL     1     -43.919 -56.380  66.001  1.00  0.00     0.032 C 
ENDBRANCH  14  16
ENDBRANCH  12  14
ENDBRANCH   1  12
TORSDOF 3
ENDMDL
MODEL 3
REMARK VINA RESULT: -5.266189394      3.800      5.594
REMARK  3 active torsions:
REMARK  status: ('A' for Active; 'I' for Inactive)
REMARK    1  A    between atoms: C2_2  and  N1_4 
REMARK    2  A    between atoms: N1_4  and  C4_6 
REMARK    3  A    between atoms: C4_6  and  N2_8 
ROOT
HETATM    1  N2  UNL     1     -40.006 -56.164  67.144  1.00  0.00    -0.334 N 
HETATM    2  C5  UNL     1     -39.258 -54.921  66.981  1.00  0.00     0.298 C 
HETATM    3  O1  UNL     1     -39.885 -53.819  67.505  1.00  0.00    -0.340 OA
HETATM    4  C6  UNL     1     -40.183 -54.048  68.852  1.00  0.00     0.292 C 
HETATM    5  O2  UNL     1     -40.545 -52.890  69.521  1.00  0.00    -0.356 OA
HETATM    6  C7  UNL     1     -41.845 -52.910  69.985  1.00  0.00     0.202 C 
HETATM    7  C8  UNL     1     -42.197 -54.149  70.755  1.00  0.00     0.142 C 
HETATM    8  C9  UNL     1     -41.708 -54.142  72.168  1.00  0.00     0.042 C 
HETATM    9  O3  UNL     1     -41.786 -55.317  70.129  1.00  0.00    -0.372 OA
HETATM   10  C10 UNL     1     -41.270 -55.090  68.867  1.00  0.00     0.195 C 
HETATM   11  C11 UNL     1     -40.613 -56.408  68.422  1.00  0.00     0.164 C 
ENDROOT
BRANCH   1  12
HETATM   12  C4  UNL     1     -40.140 -57.102  66.103  1.00  0.00     0.171 C 
HETATM   13  S1  UNL     1     -38.762 -57.916  65.693  1.00  0.00    -0.041 SA
BRANCH  12  14
HETATM   14  N1  UNL     1     -41.349 -57.367  65.420  1.00  0.00    -0.363 N 
ATOM     15  H1  UNL     1     -41.521 -58.307  65.062  1.00  0.00     0.162 HD
BRANCH  14  16
HETATM   16  C2  UNL     1     -42.357 -56.332  65.214  1.00  0.00     0.075 C 
HETATM   17  C1  UNL     1     -43.489 -56.439  66.181  1.00  0.00     0.032 C 
HETATM   18  C3  UNL     1     -42.908 -56.365  63.812  1.00  0.00     0.032 C 
ENDBRANCH  14  16
ENDBRANCH  12  14
ENDBRANCH   1  12
TORSDOF 3
ENDMDL
MODEL 4
REMARK VINA RESULT: -5.224855191      0.825      1.173
REMARK  3 active torsions:
REMARK  status: ('A' for Active; 'I' for Inactive)
REMARK    1  A    between atoms: C2_2  and  N1_4 
REMARK    2  A    between atoms: N1_4  and  C4_6 
REMARK    3  A    between atoms: C4_6  and  N2_8 
ROOT
HETATM    1  N2  UNL     1     -38.259 -56.700  65.765  1.00  0.00    -0.334 N 
HETATM    2  C5  UNL     1     -37.630 -57.781  65.012  1.00  0.00     0.298 C 
HETATM    3  O1  UNL     1     -36.930 -57.362  63.910  1.00  0.00    -0.340 OA
HETATM    4  C6  UNL     1     -35.983 -56.406  64.294  1.00  0.00     0.292 C 
HETATM    5  O2  UNL     1     -35.050 -56.154  63.303  1.00  0.00    -0.356 OA
HETATM    6  C7  UNL     1     -35.092 -54.858  62.829  1.00  0.00     0.202 C 
HETATM    7  C8  UNL     1     -35.076 -53.816  63.909  1.00  0.00     0.142 C 
HETATM    8  C9  UNL     1     -33.716 -53.551  64.473  1.00  0.00     0.042 C 
HETATM    9  O3  UNL     1     -35.961 -54.085  64.942  1.00  0.00    -0.372 OA
HETATM   10  C10 UNL     1     -36.764 -55.179  64.682  1.00  0.00     0.195 C 
HETATM   11  C11 UNL     1     -37.479 -55.518  66.001  1.00  0.00     0.164 C 
ENDROOT
BRANCH   1  12
HETATM   12  C4  UNL     1     -39.578 -56.790  66.248  1.00  0.00     0.171 C 
HETATM   13  S1  UNL     1     -39.791 -57.763  67.566  1.00  0.00    -0.041 SA
BRANCH  12  14
HETATM   14  N1  UNL     1     -40.682 -56.114  65.681  1.00  0.00    -0.363 N 
ATOM     15  H1  UNL     1     -40.567 -55.149  65.368  1.00  0.00     0.162 HD
BRANCH  14  16
HETATM   16  C2  UNL     1     -41.982 -56.758  65.532  1.00  0.00     0.075 C 
HETATM   17  C1  UNL     1     -42.593 -56.507  64.193  1.00  0.00     0.032 C 
HETATM   18  C3  UNL     1     -42.949 -56.314  66.599  1.00  0.00     0.032 C 
ENDBRANCH  14  16
ENDBRANCH  12  14
ENDBRANCH   1  12
TORSDOF 3
ENDMDL
MODEL 5
REMARK VINA RESULT: -5.211344857      1.760      2.218
REMARK  3 active torsions:
REMARK  status: ('A' for Active; 'I' for Inactive)
REMARK    1  A    between atoms: C2_2  and  N1_4 
REMARK    2  A    between atoms: N1_4  and  C4_6 
REMARK    3  A    between atoms: C4_6  and  N2_8 
ROOT
HETATM    1  N2  UNL     1     -40.322 -56.409  67.476  1.00  0.00    -0.334 N 
HETATM    2  C5  UNL     1     -39.872 -57.785  67.664  1.00  0.00     0.298 C 
HETATM    3  O1  UNL     1     -39.043 -58.243  66.672  1.00  0.00    -0.340 OA
HETATM    4  C6  UNL     1     -37.954 -57.377  66.537  1.00  0.00     0.292 C 
HETATM    5  O2  UNL     1     -36.935 -57.918  65.771  1.00  0.00    -0.356 OA
HETATM    6  C7  UNL     1     -36.700 -57.222  64.602  1.00  0.00     0.202 C 
HETATM    7  C8  UNL     1     -36.545 -55.742  64.797  1.00  0.00     0.142 C 
HETATM    8  C9  UNL     1     -35.193 -55.337  65.293  1.00  0.00     0.042 C 
HETATM    9  O3  UNL     1     -37.522 -55.193  65.613  1.00  0.00    -0.372 OA
HETATM   10  C10 UNL     1     -38.505 -56.103  65.952  1.00  0.00     0.195 C 
HETATM   11  C11 UNL     1     -39.344 -55.444  67.061  1.00  0.00     0.164 C 
ENDROOT
BRANCH   1  12
HETATM   12  C4  UNL     1     -41.659 -56.022  67.686  1.00  0.00     0.171 C 
HETATM   13  S1  UNL     1     -41.896 -54.878  68.856  1.00  0.00    -0.041 SA
BRANCH  12  14
HETATM   14  N1  UNL     1     -42.762 -56.544  66.973  1.00  0.00    -0.363 N 
ATOM     15  H1  UNL     1     -43.385 -57.206  67.437  1.00  0.00     0.162 HD
BRANCH  14  16
HETATM   16  C2  UNL     1     -43.034 -56.161  65.592  1.00  0.00     0.075 C 
HETATM   17  C1  UNL     1     -44.452 -56.410  65.200  1.00  0.00     0.032 C 
HETATM   18  C3  UNL     1     -42.128 -56.882  64.627  1.00  0.00     0.032 C 
ENDBRANCH  14  16
ENDBRANCH  12  14
ENDBRANCH   1  12
TORSDOF 3
ENDMDL
