MODEL 1
REMARK VINA RESULT: -4.825322295      0.000      0.000
REMARK  3 active torsions:
REMARK  status: ('A' for Active; 'I' for Inactive)
REMARK    1  A    between atoms: N2_5  and  C4_6 
REMARK    2  A    between atoms: C4_6  and  N3_8 
REMARK    3  A    between atoms: N3_8  and  N4_10 
ROOT
HETATM    1  C4  UNL     1     -38.523 -55.757  66.041  1.00  0.00     0.184 C 
HETATM    2  S1  UNL     1     -38.861 -54.252  66.636  1.00  0.00    -0.040 SA
ENDROOT
BRANCH   1   3
HETATM    3  N2  UNL     1     -37.185 -55.994  65.613  1.00  0.00    -0.354 N 
HETATM    4  C3  UNL     1     -36.119 -55.253  66.253  1.00  0.00     0.155 C 
HETATM    5  C2  UNL     1     -34.902 -55.426  65.336  1.00  0.00     0.291 C 
HETATM    6  N1  UNL     1     -35.386 -55.129  64.003  1.00  0.00     0.087 N 
HETATM    7  C1  UNL     1     -34.362 -54.643  63.125  1.00  0.00     0.310 C 
HETATM    8  C11 UNL     1     -36.029 -56.324  63.490  1.00  0.00     0.291 C 
HETATM    9  C10 UNL     1     -36.849 -56.936  64.576  1.00  0.00     0.155 C 
ENDBRANCH   1   3
BRANCH   1  10
HETATM   10  N3  UNL     1     -39.505 -56.765  65.953  1.00  0.00    -0.295 N 
ATOM     11  H3  UNL     1     -39.170 -57.715  65.793  1.00  0.00     0.183 HD
BRANCH  10  12
HETATM   12  N4  UNL     1     -40.864 -56.604  66.061  1.00  0.00    -0.227 NA
HETATM   13  C5  UNL     1     -41.524 -57.110  64.894  1.00  0.00     0.116 C 
HETATM   14  C6  UNL     1     -42.694 -56.232  64.479  1.00  0.00     0.042 C 
HETATM   15  C7  UNL     1     -43.769 -56.429  65.525  1.00  0.00     0.169 C 
HETATM   16  O1  UNL     1     -43.311 -55.867  66.712  1.00  0.00    -0.390 OA
HETATM   17  C8  UNL     1     -42.822 -56.899  67.504  1.00  0.00     0.183 C 
HETATM   18  C9  UNL     1     -41.330 -57.089  67.311  1.00  0.00     0.139 C 
ENDBRANCH  10  12
ENDBRANCH   1  10
TORSDOF 3
ENDMDL
MODEL 2
REMARK VINA RESULT: -4.685465526      3.918      6.042
REMARK  3 active torsions:
REMARK  status: ('A' for Active; 'I' for Inactive)
REMARK    1  A    between atoms: N2_5  and  C4_6 
REMARK    2  A    between atoms: C4_6  and  N3_8 
REMARK    3  A    between atoms: N3_8  and  N4_10 
ROOT
HETATM    1  C4  UNL     1     -40.912 -54.822  68.191  1.00  0.00     0.184 C 
HETATM    2  S1  UNL     1     -39.577 -53.973  67.712  1.00  0.00    -0.040 SA
ENDROOT
BRANCH   1   3
HETATM    3  N2  UNL     1     -41.377 -55.840  67.310  1.00  0.00    -0.354 N 
HETATM    4  C3  UNL     1     -40.489 -56.302  66.266  1.00  0.00     0.155 C 
HETATM    5  C2  UNL     1     -41.384 -57.068  65.284  1.00  0.00     0.291 C 
HETATM    6  N1  UNL     1     -42.511 -56.191  65.037  1.00  0.00     0.087 N 
HETATM    7  C1  UNL     1     -43.123 -56.405  63.758  1.00  0.00     0.310 C 
HETATM    8  C11 UNL     1     -43.449 -56.358  66.130  1.00  0.00     0.291 C 
HETATM    9  C10 UNL     1     -42.690 -56.424  67.412  1.00  0.00     0.155 C 
ENDBRANCH   1   3
BRANCH   1  10
HETATM   10  N3  UNL     1     -41.568 -54.559  69.412  1.00  0.00    -0.295 N 
ATOM     11  H3  UNL     1     -41.328 -55.164  70.198  1.00  0.00     0.183 HD
BRANCH  10  12
HETATM   12  N4  UNL     1     -42.495 -53.576  69.655  1.00  0.00    -0.227 NA
HETATM   13  C5  UNL     1     -43.301 -53.916  70.789  1.00  0.00     0.116 C 
HETATM   14  C6  UNL     1     -44.757 -53.523  70.589  1.00  0.00     0.042 C 
HETATM   15  C7  UNL     1     -44.803 -52.011  70.645  1.00  0.00     0.169 C 
HETATM   16  O1  UNL     1     -44.149 -51.526  69.517  1.00  0.00    -0.390 OA
HETATM   17  C8  UNL     1     -42.863 -51.167  69.900  1.00  0.00     0.183 C 
HETATM   18  C9  UNL     1     -41.878 -52.298  69.677  1.00  0.00     0.139 C 
ENDBRANCH  10  12
ENDBRANCH   1  10
TORSDOF 3
ENDMDL
MODEL 3
REMARK VINA RESULT: -4.640892669      0.931      1.520
REMARK  3 active torsions:
REMARK  status: ('A' for Active; 'I' for Inactive)
REMARK    1  A    between atoms: N2_5  and  C4_6 
REMARK    2  A    between atoms: C4_6  and  N3_8 
REMARK    3  A    between atoms: N3_8  and  N4_10 
ROOT
HETATM    1  C4  UNL     1     -38.347 -56.067  66.067  1.00  0.00     0.184 C 
HETATM    2  S1  UNL     1     -38.351 -54.828  67.162  1.00  0.00    -0.040 SA
ENDROOT
BRANCH   1   3
HETATM    3  N2  UNL     1     -37.230 -56.142  65.186  1.00  0.00    -0.354 N 
HETATM    4  C3  UNL     1     -36.939 -57.411  64.555  1.00  0.00     0.155 C 
HETATM    5  C2  UNL     1     -35.510 -57.274  64.014  1.00  0.00     0.291 C 
HETATM    6  N1  UNL     1     -34.737 -56.739  65.117  1.00  0.00     0.087 N 
HETATM    7  C1  UNL     1     -33.349 -57.092  65.056  1.00  0.00     0.310 C 
HETATM    8  C11 UNL     1     -34.940 -55.304  65.144  1.00  0.00     0.291 C 
HETATM    9  C10 UNL     1     -36.382 -55.014  64.898  1.00  0.00     0.155 C 
ENDBRANCH   1   3
BRANCH   1  10
HETATM   10  N3  UNL     1     -39.395 -57.008  65.999  1.00  0.00    -0.295 N 
ATOM     11  H3  UNL     1     -39.126 -57.978  65.831  1.00  0.00     0.183 HD
BRANCH  10  12
HETATM   12  N4  UNL     1     -40.738 -56.759  66.134  1.00  0.00    -0.227 NA
HETATM   13  C5  UNL     1     -41.450 -57.201  64.973  1.00  0.00     0.116 C 
HETATM   14  C6  UNL     1     -42.566 -56.240  64.592  1.00  0.00     0.042 C 
HETATM   15  C7  UNL     1     -43.634 -56.382  65.655  1.00  0.00     0.169 C 
HETATM   16  O1  UNL     1     -43.118 -55.870  66.842  1.00  0.00    -0.390 OA
HETATM   17  C8  UNL     1     -42.685 -56.944  67.609  1.00  0.00     0.183 C 
HETATM   18  C9  UNL     1     -41.213 -57.231  67.386  1.00  0.00     0.139 C 
ENDBRANCH  10  12
ENDBRANCH   1  10
TORSDOF 3
ENDMDL
MODEL 4
REMARK VINA RESULT: -4.605495332      1.333      2.090
REMARK  3 active torsions:
REMARK  status: ('A' for Active; 'I' for Inactive)
REMARK    1  A    between atoms: N2_5  and  C4_6 
REMARK    2  A    between atoms: C4_6  and  N3_8 
REMARK    3  A    between atoms: N3_8  and  N4_10 
ROOT
HETATM    1  C4  UNL     1     -38.440 -55.917  65.936  1.00  0.00     0.184 C 
HETATM    2  S1  UNL     1     -38.754 -54.338  66.312  1.00  0.00    -0.040 SA
ENDROOT
BRANCH   1   3
HETATM    3  N2  UNL     1     -37.080 -56.264  65.698  1.00  0.00    -0.354 N 
HETATM    4  C3  UNL     1     -36.747 -56.925  64.455  1.00  0.00     0.155 C 
HETATM    5  C2  UNL     1     -35.342 -57.501  64.668  1.00  0.00     0.291 C 
HETATM    6  N1  UNL     1     -35.404 -58.189  65.942  1.00  0.00     0.087 N 
HETATM    7  C1  UNL     1     -34.461 -59.264  66.049  1.00  0.00     0.310 C 
HETATM    8  C11 UNL     1     -35.232 -57.200  66.988  1.00  0.00     0.291 C 
HETATM    9  C10 UNL     1     -36.025 -55.985  66.639  1.00  0.00     0.155 C 
ENDBRANCH   1   3
BRANCH   1  10
HETATM   10  N3  UNL     1     -39.465 -56.883  65.849  1.00  0.00    -0.295 N 
ATOM     11  H3  UNL     1     -39.175 -57.836  65.630  1.00  0.00     0.183 HD
BRANCH  10  12
HETATM   12  N4  UNL     1     -40.810 -56.677  66.028  1.00  0.00    -0.227 NA
HETATM   13  C5  UNL     1     -41.546 -57.152  64.894  1.00  0.00     0.116 C 
HETATM   14  C6  UNL     1     -42.705 -56.231  64.545  1.00  0.00     0.042 C 
HETATM   15  C7  UNL     1     -43.731 -56.400  65.644  1.00  0.00     0.169 C 
HETATM   16  O1  UNL     1     -43.194 -55.863  66.809  1.00  0.00    -0.390 OA
HETATM   17  C8  UNL     1     -42.700 -56.916  67.568  1.00  0.00     0.183 C 
HETATM   18  C9  UNL     1     -41.227 -57.155  67.298  1.00  0.00     0.139 C 
ENDBRANCH  10  12
ENDBRANCH   1  10
TORSDOF 3
ENDMDL
MODEL 5
REMARK VINA RESULT: -4.598861487      4.258      6.032
REMARK  3 active torsions:
REMARK  status: ('A' for Active; 'I' for Inactive)
REMARK    1  A    between atoms: N2_5  and  C4_6 
REMARK    2  A    between atoms: C4_6  and  N3_8 
REMARK    3  A    between atoms: N3_8  and  N4_10 
ROOT
HETATM    1  C4  UNL     1     -40.980 -57.657  69.188  1.00  0.00     0.184 C 
HETATM    2  S1  UNL     1     -39.985 -58.960  69.403  1.00  0.00    -0.040 SA
ENDROOT
BRANCH   1   3
HETATM    3  N2  UNL     1     -40.641 -56.467  69.894  1.00  0.00    -0.354 N 
HETATM    4  C3  UNL     1     -39.524 -56.507  70.812  1.00  0.00     0.155 C 
HETATM    5  C2  UNL     1     -39.664 -55.246  71.673  1.00  0.00     0.291 C 
HETATM    6  N1  UNL     1     -41.047 -55.234  72.105  1.00  0.00     0.087 N 
HETATM    7  C1  UNL     1     -41.245 -54.544  73.346  1.00  0.00     0.310 C 
HETATM    8  C11 UNL     1     -41.841 -54.672  71.030  1.00  0.00     0.291 C 
HETATM    9  C10 UNL     1     -41.362 -55.230  69.732  1.00  0.00     0.155 C 
ENDBRANCH   1   3
BRANCH   1  10
HETATM   10  N3  UNL     1     -42.114 -57.712  68.351  1.00  0.00    -0.295 N 
ATOM     11  H3  UNL     1     -42.973 -58.068  68.771  1.00  0.00     0.183 HD
BRANCH  10  12
HETATM   12  N4  UNL     1     -42.185 -57.337  67.033  1.00  0.00    -0.227 NA
HETATM   13  C5  UNL     1     -43.167 -56.309  66.855  1.00  0.00     0.116 C 
HETATM   14  C6  UNL     1     -43.952 -56.493  65.565  1.00  0.00     0.042 C 
HETATM   15  C7  UNL     1     -42.997 -56.177  64.434  1.00  0.00     0.169 C 
HETATM   16  O1  UNL     1     -42.032 -57.178  64.405  1.00  0.00    -0.390 OA
HETATM   17  C8  UNL     1     -40.901 -56.691  65.048  1.00  0.00     0.183 C 
HETATM   18  C9  UNL     1     -40.889 -57.070  66.516  1.00  0.00     0.139 C 
ENDBRANCH  10  12
ENDBRANCH   1  10
TORSDOF 3
ENDMDL
