MODEL 1
REMARK VINA RESULT: -8.022446608      0.000      0.000
REMARK  12 active torsions:
REMARK  status: ('A' for Active; 'I' for Inactive)
REMARK       I    between atoms: C2_2  and  N1_4 
REMARK    1  A    between atoms: N1_4  and  C3_6 
REMARK    2  A    between atoms: C4_7  and  C5_8 
REMARK    3  A    between atoms: C5_8  and  C6_9 
REMARK    4  A    between atoms: C5_8  and  C7_15 
REMARK    5  A    between atoms: N2_10  and  N3_12 
REMARK    6  A    between atoms: C7_15  and  O3_17 
REMARK    7  A    between atoms: O3_17  and  C8_18 
REMARK    8  A    between atoms: C8_18  and  O4_19 
REMARK    9  A    between atoms: O4_19  and  C9_20 
REMARK   10  A    between atoms: C9_20  and  C10_22 
REMARK   11  A    between atoms: N4_24  and  O6_26 
REMARK   12  A    between atoms: C13_34  and  N7_35 
ROOT
HETATM    1  C5  UNL     1     -43.383   6.704 -19.573  1.00  0.00     0.177 C 
ENDROOT
BRANCH   1   2
HETATM    2  C4  UNL     1     -41.949   6.658 -19.868  1.00  0.00     0.063 A 
HETATM    3  C3  UNL     1     -41.249   5.614 -20.390  1.00  0.00     0.103 A 
HETATM    4  C13 UNL     1     -39.897   5.726 -20.637  1.00  0.00     0.132 A 
HETATM    5  N6  UNL     1     -39.221   6.861 -20.374  1.00  0.00    -0.293 N 
HETATM    6  C12 UNL     1     -39.908   7.892 -19.858  1.00  0.00     0.326 A 
ATOM      7  H6  UNL     1     -38.221   6.935 -20.560  1.00  0.00     0.172 HD
HETATM    8  N5  UNL     1     -41.206   7.780 -19.622  1.00  0.00    -0.309 N 
HETATM    9  O7  UNL     1     -39.303   8.996 -19.590  1.00  0.00    -0.247 OA
ATOM     10  H5  UNL     1     -41.688   8.589 -19.230  1.00  0.00     0.170 HD
BRANCH   3  11
HETATM   11  N1  UNL     1     -41.864   4.389 -20.675  1.00  0.00    -0.323 N 
HETATM   12  C2  UNL     1     -41.990   3.304 -19.768  1.00  0.00     0.218 C 
HETATM   13  C1  UNL     1     -42.665   2.028 -20.145  1.00  0.00     0.117 C 
HETATM   14  O1  UNL     1     -41.544   3.333 -18.576  1.00  0.00    -0.274 OA
ATOM     15  H1  UNL     1     -42.252   4.267 -21.610  1.00  0.00     0.169 HD
ENDBRANCH   3  11
BRANCH   4  16
HETATM   16  N7  UNL     1     -39.211   4.734 -21.143  1.00  0.00    -0.383 N 
ATOM     17  H72 UNL     1     -39.090   4.728 -22.156  1.00  0.00     0.157 HD
ATOM     18  H71 UNL     1     -38.818   4.001 -20.552  1.00  0.00     0.157 HD
ENDBRANCH   4  16
ENDBRANCH   1   2
BRANCH   1  19
HETATM   19  C6  UNL     1     -44.238   7.402 -20.539  1.00  0.00     0.100 C 
HETATM   20  N2  UNL     1     -45.089   6.756 -21.251  1.00  0.00    -0.321 N 
ATOM     21  H2  UNL     1     -45.663   7.278 -21.912  1.00  0.00     0.185 HD
BRANCH  20  22
HETATM   22  N3  UNL     1     -45.267   5.374 -21.166  1.00  0.00    -0.346 N 
ATOM     23  H32 UNL     1     -45.315   4.965 -20.233  1.00  0.00     0.176 HD
ATOM     24  H31 UNL     1     -45.350   4.769 -21.984  1.00  0.00     0.176 HD
ENDBRANCH  20  22
ENDBRANCH   1  19
BRANCH   1  25
HETATM   25  C7  UNL     1     -43.651   7.163 -18.169  1.00  0.00     0.276 C 
HETATM   26  O2  UNL     1     -44.747   7.712 -17.936  1.00  0.00    -0.264 OA
BRANCH  25  27
HETATM   27  O3  UNL     1     -42.764   7.017 -17.124  1.00  0.00    -0.294 OA
BRANCH  27  28
HETATM   28  C8  UNL     1     -42.463   8.094 -16.297  1.00  0.00     0.358 C 
BRANCH  28  29
HETATM   29  O4  UNL     1     -41.768   7.704 -15.118  1.00  0.00    -0.290 OA
BRANCH  29  30
HETATM   30  C9  UNL     1     -42.048   8.231 -13.877  1.00  0.00     0.309 C 
HETATM   31  O5  UNL     1     -43.058   7.780 -13.283  1.00  0.00    -0.258 OA
BRANCH  30  32
HETATM   32  C10 UNL     1     -41.260   9.257 -13.230  1.00  0.00     0.103 C 
HETATM   33  C11 UNL     1     -41.339  10.654 -13.699  1.00  0.00     0.077 C 
HETATM   34  N4  UNL     1     -40.498   8.938 -12.247  1.00  0.00    -0.268 N 
ATOM     35  H4  UNL     1     -39.950   9.673 -11.799  1.00  0.00     0.194 HD
BRANCH  34  36
HETATM   36  O6  UNL     1     -40.386   7.665 -11.773  1.00  0.00    -0.290 OA
ATOM     37  H6  UNL     1     -39.699   7.069 -12.043  1.00  0.00     0.244 HD
ENDBRANCH  34  36
ENDBRANCH  30  32
ENDBRANCH  29  30
ENDBRANCH  28  29
ENDBRANCH  27  28
ENDBRANCH  25  27
ENDBRANCH   1  25
TORSDOF 12
ENDMDL
MODEL 2
REMARK VINA RESULT: -7.817105469      1.407      1.559
REMARK  12 active torsions:
REMARK  status: ('A' for Active; 'I' for Inactive)
REMARK       I    between atoms: C2_2  and  N1_4 
REMARK    1  A    between atoms: N1_4  and  C3_6 
REMARK    2  A    between atoms: C4_7  and  C5_8 
REMARK    3  A    between atoms: C5_8  and  C6_9 
REMARK    4  A    between atoms: C5_8  and  C7_15 
REMARK    5  A    between atoms: N2_10  and  N3_12 
REMARK    6  A    between atoms: C7_15  and  O3_17 
REMARK    7  A    between atoms: O3_17  and  C8_18 
REMARK    8  A    between atoms: C8_18  and  O4_19 
REMARK    9  A    between atoms: O4_19  and  C9_20 
REMARK   10  A    between atoms: C9_20  and  C10_22 
REMARK   11  A    between atoms: N4_24  and  O6_26 
REMARK   12  A    between atoms: C13_34  and  N7_35 
ROOT
HETATM    1  C5  UNL     1     -42.722   6.763 -18.251  1.00  0.00     0.177 C 
ENDROOT
BRANCH   1   2
HETATM    2  C4  UNL     1     -41.516   6.883 -19.074  1.00  0.00     0.063 A 
HETATM    3  C3  UNL     1     -41.115   6.048 -20.071  1.00  0.00     0.103 A 
HETATM    4  C13 UNL     1     -39.961   6.303 -20.781  1.00  0.00     0.132 A 
HETATM    5  N6  UNL     1     -39.191   7.377 -20.519  1.00  0.00    -0.293 N 
HETATM    6  C12 UNL     1     -39.584   8.202 -19.536  1.00  0.00     0.326 A 
ATOM      7  H6  UNL     1     -38.339   7.558 -21.050  1.00  0.00     0.172 HD
HETATM    8  N5  UNL     1     -40.693   7.954 -18.857  1.00  0.00    -0.309 N 
HETATM    9  O7  UNL     1     -38.879   9.240 -19.251  1.00  0.00    -0.247 OA
ATOM     10  H5  UNL     1     -40.953   8.607 -18.119  1.00  0.00     0.170 HD
BRANCH   3  11
HETATM   11  N1  UNL     1     -41.840   4.897 -20.399  1.00  0.00    -0.323 N 
HETATM   12  C2  UNL     1     -41.831   3.684 -19.661  1.00  0.00     0.218 C 
HETATM   13  C1  UNL     1     -42.637   2.498 -20.072  1.00  0.00     0.117 C 
HETATM   14  O1  UNL     1     -41.144   3.514 -18.602  1.00  0.00    -0.274 OA
ATOM     15  H1  UNL     1     -42.422   4.932 -21.236  1.00  0.00     0.169 HD
ENDBRANCH   3  11
BRANCH   4  16
HETATM   16  N7  UNL     1     -39.564   5.513 -21.746  1.00  0.00    -0.383 N 
ATOM     17  H72 UNL     1     -40.106   5.532 -22.609  1.00  0.00     0.157 HD
ATOM     18  H71 UNL     1     -38.751   4.906 -21.637  1.00  0.00     0.157 HD
ENDBRANCH   4  16
ENDBRANCH   1   2
BRANCH   1  19
HETATM   19  C6  UNL     1     -43.992   7.157 -18.869  1.00  0.00     0.100 C 
HETATM   20  N2  UNL     1     -45.049   6.446 -18.711  1.00  0.00    -0.321 N 
ATOM     21  H2  UNL     1     -45.911   6.753 -19.160  1.00  0.00     0.185 HD
BRANCH  20  22
HETATM   22  N3  UNL     1     -45.077   5.272 -17.955  1.00  0.00    -0.346 N 
ATOM     23  H32 UNL     1     -45.207   5.368 -16.948  1.00  0.00     0.176 HD
ATOM     24  H31 UNL     1     -44.974   4.342 -18.361  1.00  0.00     0.176 HD
ENDBRANCH  20  22
ENDBRANCH   1  19
BRANCH   1  25
HETATM   25  C7  UNL     1     -42.544   7.405 -16.905  1.00  0.00     0.276 C 
HETATM   26  O2  UNL     1     -43.187   6.930 -15.946  1.00  0.00    -0.264 OA
BRANCH  25  27
HETATM   27  O3  UNL     1     -41.719   8.481 -16.663  1.00  0.00    -0.294 OA
BRANCH  27  28
HETATM   28  C8  UNL     1     -42.107   9.486 -15.783  1.00  0.00     0.358 C 
BRANCH  28  29
HETATM   29  O4  UNL     1     -41.288   9.546 -14.621  1.00  0.00    -0.290 OA
BRANCH  29  30
HETATM   30  C9  UNL     1     -41.690   9.055 -13.399  1.00  0.00     0.309 C 
HETATM   31  O5  UNL     1     -41.539   7.823 -13.205  1.00  0.00    -0.258 OA
BRANCH  30  32
HETATM   32  C10 UNL     1     -42.266   9.860 -12.344  1.00  0.00     0.103 C 
HETATM   33  C11 UNL     1     -43.556  10.546 -12.559  1.00  0.00     0.077 C 
HETATM   34  N4  UNL     1     -41.645   9.969 -11.225  1.00  0.00    -0.268 N 
ATOM     35  H4  UNL     1     -42.064  10.539 -10.491  1.00  0.00     0.194 HD
BRANCH  34  36
HETATM   36  O6  UNL     1     -40.453   9.359 -10.973  1.00  0.00    -0.290 OA
ATOM     37  H6  UNL     1     -39.658   9.554 -11.454  1.00  0.00     0.244 HD
ENDBRANCH  34  36
ENDBRANCH  30  32
ENDBRANCH  29  30
ENDBRANCH  28  29
ENDBRANCH  27  28
ENDBRANCH  25  27
ENDBRANCH   1  25
TORSDOF 12
ENDMDL
MODEL 3
REMARK VINA RESULT: -7.790335185      3.287      5.178
REMARK  12 active torsions:
REMARK  status: ('A' for Active; 'I' for Inactive)
REMARK       I    between atoms: C2_2  and  N1_4 
REMARK    1  A    between atoms: N1_4  and  C3_6 
REMARK    2  A    between atoms: C4_7  and  C5_8 
REMARK    3  A    between atoms: C5_8  and  C6_9 
REMARK    4  A    between atoms: C5_8  and  C7_15 
REMARK    5  A    between atoms: N2_10  and  N3_12 
REMARK    6  A    between atoms: C7_15  and  O3_17 
REMARK    7  A    between atoms: O3_17  and  C8_18 
REMARK    8  A    between atoms: C8_18  and  O4_19 
REMARK    9  A    between atoms: O4_19  and  C9_20 
REMARK   10  A    between atoms: C9_20  and  C10_22 
REMARK   11  A    between atoms: N4_24  and  O6_26 
REMARK   12  A    between atoms: C13_34  and  N7_35 
ROOT
HETATM    1  C5  UNL     1     -41.473   5.655 -20.777  1.00  0.00     0.177 C 
ENDROOT
BRANCH   1   2
HETATM    2  C4  UNL     1     -42.924   5.680 -20.577  1.00  0.00     0.063 A 
HETATM    3  C3  UNL     1     -43.796   4.647 -20.742  1.00  0.00     0.103 A 
HETATM    4  C13 UNL     1     -45.141   4.814 -20.492  1.00  0.00     0.132 A 
HETATM    5  N6  UNL     1     -45.642   5.995 -20.079  1.00  0.00    -0.293 N 
HETATM    6  C12 UNL     1     -44.786   7.015 -19.917  1.00  0.00     0.326 A 
ATOM      7  H6  UNL     1     -46.639   6.109 -19.896  1.00  0.00     0.172 HD
HETATM    8  N5  UNL     1     -43.495   6.850 -20.158  1.00  0.00    -0.309 N 
HETATM    9  O7  UNL     1     -45.222   8.161 -19.524  1.00  0.00    -0.247 OA
ATOM     10  H5  UNL     1     -42.881   7.653 -20.021  1.00  0.00     0.170 HD
BRANCH   3  11
HETATM   11  N1  UNL     1     -43.367   3.392 -21.188  1.00  0.00    -0.323 N 
HETATM   12  C2  UNL     1     -42.862   2.356 -20.358  1.00  0.00     0.218 C 
HETATM   13  C1  UNL     1     -42.428   1.038 -20.908  1.00  0.00     0.117 C 
HETATM   14  O1  UNL     1     -42.741   2.467 -19.096  1.00  0.00    -0.274 OA
ATOM     15  H1  UNL     1     -43.423   3.206 -22.189  1.00  0.00     0.169 HD
ENDBRANCH   3  11
BRANCH   4  16
HETATM   16  N7  UNL     1     -45.991   3.831 -20.640  1.00  0.00    -0.383 N 
ATOM     17  H72 UNL     1     -46.597   3.868 -21.459  1.00  0.00     0.157 HD
ATOM     18  H71 UNL     1     -46.045   3.067 -19.967  1.00  0.00     0.157 HD
ENDBRANCH   4  16
ENDBRANCH   1   2
BRANCH   1  19
HETATM   19  C6  UNL     1     -40.643   5.417 -19.592  1.00  0.00     0.100 C 
HETATM   20  N2  UNL     1     -39.565   4.725 -19.673  1.00  0.00    -0.321 N 
ATOM     21  H2  UNL     1     -39.017   4.581 -18.825  1.00  0.00     0.185 HD
BRANCH  20  22
HETATM   22  N3  UNL     1     -39.105   4.158 -20.862  1.00  0.00    -0.346 N 
ATOM     23  H32 UNL     1     -39.463   3.235 -21.110  1.00  0.00     0.176 HD
ATOM     24  H31 UNL     1     -38.439   4.620 -21.482  1.00  0.00     0.176 HD
ENDBRANCH  20  22
ENDBRANCH   1  19
BRANCH   1  25
HETATM   25  C7  UNL     1     -40.996   6.849 -21.553  1.00  0.00     0.276 C 
HETATM   26  O2  UNL     1     -39.787   7.149 -21.470  1.00  0.00    -0.264 OA
BRANCH  25  27
HETATM   27  O3  UNL     1     -41.806   7.631 -22.347  1.00  0.00    -0.294 OA
BRANCH  27  28
HETATM   28  C8  UNL     1     -41.774   9.017 -22.240  1.00  0.00     0.358 C 
BRANCH  28  29
HETATM   29  O4  UNL     1     -42.399   9.491 -21.052  1.00  0.00    -0.290 OA
BRANCH  29  30
HETATM   30  C9  UNL     1     -41.695  10.058 -20.014  1.00  0.00     0.309 C 
HETATM   31  O5  UNL     1     -41.345  11.257 -20.153  1.00  0.00    -0.258 OA
BRANCH  30  32
HETATM   32  C10 UNL     1     -41.340   9.367 -18.794  1.00  0.00     0.103 C 
HETATM   33  C11 UNL     1     -42.342   9.194 -17.725  1.00  0.00     0.077 C 
HETATM   34  N4  UNL     1     -40.148   8.908 -18.655  1.00  0.00    -0.268 N 
ATOM     35  H4  UNL     1     -39.913   8.422 -17.790  1.00  0.00     0.194 HD
BRANCH  34  36
HETATM   36  O6  UNL     1     -39.183   9.039 -19.609  1.00  0.00    -0.290 OA
ATOM     37  H6  UNL     1     -38.256   8.950 -19.425  1.00  0.00     0.244 HD
ENDBRANCH  34  36
ENDBRANCH  30  32
ENDBRANCH  29  30
ENDBRANCH  28  29
ENDBRANCH  27  28
ENDBRANCH  25  27
ENDBRANCH   1  25
TORSDOF 12
ENDMDL
MODEL 4
REMARK VINA RESULT: -7.716658766      1.429      1.575
REMARK  12 active torsions:
REMARK  status: ('A' for Active; 'I' for Inactive)
REMARK       I    between atoms: C2_2  and  N1_4 
REMARK    1  A    between atoms: N1_4  and  C3_6 
REMARK    2  A    between atoms: C4_7  and  C5_8 
REMARK    3  A    between atoms: C5_8  and  C6_9 
REMARK    4  A    between atoms: C5_8  and  C7_15 
REMARK    5  A    between atoms: N2_10  and  N3_12 
REMARK    6  A    between atoms: C7_15  and  O3_17 
REMARK    7  A    between atoms: O3_17  and  C8_18 
REMARK    8  A    between atoms: C8_18  and  O4_19 
REMARK    9  A    between atoms: O4_19  and  C9_20 
REMARK   10  A    between atoms: C9_20  and  C10_22 
REMARK   11  A    between atoms: N4_24  and  O6_26 
REMARK   12  A    between atoms: C13_34  and  N7_35 
ROOT
HETATM    1  C5  UNL     1     -43.026   6.906 -18.487  1.00  0.00     0.177 C 
ENDROOT
BRANCH   1   2
HETATM    2  C4  UNL     1     -41.708   6.953 -19.125  1.00  0.00     0.063 A 
HETATM    3  C3  UNL     1     -41.169   6.033 -19.971  1.00  0.00     0.103 A 
HETATM    4  C13 UNL     1     -39.918   6.225 -20.517  1.00  0.00     0.132 A 
HETATM    5  N6  UNL     1     -39.184   7.319 -20.237  1.00  0.00    -0.293 N 
HETATM    6  C12 UNL     1     -39.712   8.228 -19.402  1.00  0.00     0.326 A 
ATOM      7  H6  UNL     1     -38.260   7.453 -20.645  1.00  0.00     0.172 HD
HETATM    8  N5  UNL     1     -40.914   8.040 -18.880  1.00  0.00    -0.309 N 
HETATM    9  O7  UNL     1     -39.045   9.289 -19.106  1.00  0.00    -0.247 OA
ATOM     10  H5  UNL     1     -41.275   8.757 -18.251  1.00  0.00     0.170 HD
BRANCH   3  11
HETATM   11  N1  UNL     1     -41.851   4.856 -20.302  1.00  0.00    -0.323 N 
HETATM   12  C2  UNL     1     -41.833   3.657 -19.542  1.00  0.00     0.218 C 
HETATM   13  C1  UNL     1     -42.592   2.441 -19.959  1.00  0.00     0.117 C 
HETATM   14  O1  UNL     1     -41.178   3.525 -18.458  1.00  0.00    -0.274 OA
ATOM     15  H1  UNL     1     -42.405   4.861 -21.159  1.00  0.00     0.169 HD
ENDBRANCH   3  11
BRANCH   4  16
HETATM   16  N7  UNL     1     -39.389   5.353 -21.336  1.00  0.00    -0.383 N 
ATOM     17  H72 UNL     1     -38.419   5.089 -21.162  1.00  0.00     0.157 HD
ATOM     18  H71 UNL     1     -39.921   4.959 -22.112  1.00  0.00     0.157 HD
ENDBRANCH   4  16
ENDBRANCH   1   2
BRANCH   1  19
HETATM   19  C6  UNL     1     -44.022   7.879 -18.947  1.00  0.00     0.100 C 
HETATM   20  N2  UNL     1     -45.254   7.544 -19.083  1.00  0.00    -0.321 N 
ATOM     21  H2  UNL     1     -45.915   8.249 -19.407  1.00  0.00     0.185 HD
BRANCH  20  22
HETATM   22  N3  UNL     1     -45.734   6.263 -18.809  1.00  0.00    -0.346 N 
ATOM     23  H32 UNL     1     -45.482   5.519 -19.460  1.00  0.00     0.176 HD
ATOM     24  H31 UNL     1     -46.316   6.044 -17.999  1.00  0.00     0.176 HD
ENDBRANCH  20  22
ENDBRANCH   1  19
BRANCH   1  25
HETATM   25  C7  UNL     1     -42.921   6.894 -16.989  1.00  0.00     0.276 C 
HETATM   26  O2  UNL     1     -43.797   6.274 -16.351  1.00  0.00    -0.264 OA
BRANCH  25  27
HETATM   27  O3  UNL     1     -41.922   7.521 -16.277  1.00  0.00    -0.294 OA
BRANCH  27  28
HETATM   28  C8  UNL     1     -42.211   8.185 -15.090  1.00  0.00     0.358 C 
BRANCH  28  29
HETATM   29  O4  UNL     1     -41.402   9.341 -14.896  1.00  0.00    -0.290 OA
BRANCH  29  30
HETATM   30  C9  UNL     1     -41.640  10.259 -13.898  1.00  0.00     0.309 C 
HETATM   31  O5  UNL     1     -41.458  11.468 -14.184  1.00  0.00    -0.258 OA
BRANCH  30  32
HETATM   32  C10 UNL     1     -42.080   9.917 -12.563  1.00  0.00     0.103 C 
HETATM   33  C11 UNL     1     -43.454  10.242 -12.133  1.00  0.00     0.077 C 
HETATM   34  N4  UNL     1     -41.264   9.331 -11.763  1.00  0.00    -0.268 N 
ATOM     35  H4  UNL     1     -41.589   9.096 -10.825  1.00  0.00     0.194 HD
BRANCH  34  36
HETATM   36  O6  UNL     1     -39.986   9.008 -12.106  1.00  0.00    -0.290 OA
ATOM     37  H6  UNL     1     -39.580   8.180 -11.879  1.00  0.00     0.244 HD
ENDBRANCH  34  36
ENDBRANCH  30  32
ENDBRANCH  29  30
ENDBRANCH  28  29
ENDBRANCH  27  28
ENDBRANCH  25  27
ENDBRANCH   1  25
TORSDOF 12
ENDMDL
MODEL 5
REMARK VINA RESULT: -7.637327445      1.473      1.774
REMARK  12 active torsions:
REMARK  status: ('A' for Active; 'I' for Inactive)
REMARK       I    between atoms: C2_2  and  N1_4 
REMARK    1  A    between atoms: N1_4  and  C3_6 
REMARK    2  A    between atoms: C4_7  and  C5_8 
REMARK    3  A    between atoms: C5_8  and  C6_9 
REMARK    4  A    between atoms: C5_8  and  C7_15 
REMARK    5  A    between atoms: N2_10  and  N3_12 
REMARK    6  A    between atoms: C7_15  and  O3_17 
REMARK    7  A    between atoms: O3_17  and  C8_18 
REMARK    8  A    between atoms: C8_18  and  O4_19 
REMARK    9  A    between atoms: O4_19  and  C9_20 
REMARK   10  A    between atoms: C9_20  and  C10_22 
REMARK   11  A    between atoms: N4_24  and  O6_26 
REMARK   12  A    between atoms: C13_34  and  N7_35 
ROOT
HETATM    1  C5  UNL     1     -42.717   6.793 -18.226  1.00  0.00     0.177 C 
ENDROOT
BRANCH   1   2
HETATM    2  C4  UNL     1     -41.517   6.895 -19.060  1.00  0.00     0.063 A 
HETATM    3  C3  UNL     1     -41.137   6.056 -20.062  1.00  0.00     0.103 A 
HETATM    4  C13 UNL     1     -39.985   6.294 -20.781  1.00  0.00     0.132 A 
HETATM    5  N6  UNL     1     -39.195   7.354 -20.522  1.00  0.00    -0.293 N 
HETATM    6  C12 UNL     1     -39.566   8.182 -19.533  1.00  0.00     0.326 A 
ATOM      7  H6  UNL     1     -38.345   7.523 -21.059  1.00  0.00     0.172 HD
HETATM    8  N5  UNL     1     -40.673   7.951 -18.846  1.00  0.00    -0.309 N 
HETATM    9  O7  UNL     1     -38.841   9.208 -19.251  1.00  0.00    -0.247 OA
ATOM     10  H5  UNL     1     -40.916   8.607 -18.104  1.00  0.00     0.170 HD
BRANCH   3  11
HETATM   11  N1  UNL     1     -41.884   4.918 -20.387  1.00  0.00    -0.323 N 
HETATM   12  C2  UNL     1     -41.869   3.694 -19.668  1.00  0.00     0.218 C 
HETATM   13  C1  UNL     1     -42.699   2.523 -20.074  1.00  0.00     0.117 C 
HETATM   14  O1  UNL     1     -41.154   3.500 -18.632  1.00  0.00    -0.274 OA
ATOM     15  H1  UNL     1     -42.489   4.973 -21.207  1.00  0.00     0.169 HD
ENDBRANCH   3  11
BRANCH   4  16
HETATM   16  N7  UNL     1     -39.609   5.501 -21.750  1.00  0.00    -0.383 N 
ATOM     17  H72 UNL     1     -40.347   5.032 -22.275  1.00  0.00     0.157 HD
ATOM     18  H71 UNL     1     -38.623   5.356 -21.969  1.00  0.00     0.157 HD
ENDBRANCH   4  16
ENDBRANCH   1   2
BRANCH   1  19
HETATM   19  C6  UNL     1     -44.009   6.788 -18.919  1.00  0.00     0.100 C 
HETATM   20  N2  UNL     1     -44.887   5.887 -18.666  1.00  0.00    -0.321 N 
ATOM     21  H2  UNL     1     -45.772   5.917 -19.171  1.00  0.00     0.185 HD
BRANCH  20  22
HETATM   22  N3  UNL     1     -44.692   4.866 -17.734  1.00  0.00    -0.346 N 
ATOM     23  H32 UNL     1     -45.472   4.642 -17.116  1.00  0.00     0.176 HD
ATOM     24  H31 UNL     1     -43.818   4.347 -17.647  1.00  0.00     0.176 HD
ENDBRANCH  20  22
ENDBRANCH   1  19
BRANCH   1  25
HETATM   25  C7  UNL     1     -42.701   7.786 -17.101  1.00  0.00     0.276 C 
HETATM   26  O2  UNL     1     -42.824   8.994 -17.390  1.00  0.00    -0.264 OA
BRANCH  25  27
HETATM   27  O3  UNL     1     -42.559   7.449 -15.772  1.00  0.00    -0.294 OA
BRANCH  27  28
HETATM   28  C8  UNL     1     -43.645   7.521 -14.905  1.00  0.00     0.358 C 
BRANCH  28  29
HETATM   29  O4  UNL     1     -43.252   7.629 -13.541  1.00  0.00    -0.290 OA
BRANCH  29  30
HETATM   30  C9  UNL     1     -42.195   8.409 -13.129  1.00  0.00     0.309 C 
HETATM   31  O5  UNL     1     -41.129   7.813 -12.836  1.00  0.00    -0.258 OA
BRANCH  30  32
HETATM   32  C10 UNL     1     -42.241   9.850 -13.015  1.00  0.00     0.103 C 
HETATM   33  C11 UNL     1     -42.870  10.478 -11.836  1.00  0.00     0.077 C 
HETATM   34  N4  UNL     1     -41.729  10.571 -13.946  1.00  0.00    -0.268 N 
ATOM     35  H4  UNL     1     -41.767  11.586 -13.851  1.00  0.00     0.194 HD
BRANCH  34  36
HETATM   36  O6  UNL     1     -41.136  10.046 -15.055  1.00  0.00    -0.290 OA
ATOM     37  H6  UNL     1     -41.343  10.329 -15.938  1.00  0.00     0.244 HD
ENDBRANCH  34  36
ENDBRANCH  30  32
ENDBRANCH  29  30
ENDBRANCH  28  29
ENDBRANCH  27  28
ENDBRANCH  25  27
ENDBRANCH   1  25
TORSDOF 12
ENDMDL
