MODEL 1
REMARK VINA RESULT: -8.700561861      0.000      0.000
REMARK  16 active torsions:
REMARK  status: ('A' for Active; 'I' for Inactive)
REMARK    1  A    between atoms: N1_1  and  N2_4 
REMARK    2  A    between atoms: C1_5  and  C2_6 
REMARK    3  A    between atoms: C2_6  and  S1_7 
REMARK    4  A    between atoms: S1_7  and  C3_8 
REMARK    5  A    between atoms: C4_9  and  N3_10 
REMARK    6  A    between atoms: N3_10  and  O1_12 
REMARK    7  A    between atoms: N5_20  and  C8_22 
REMARK    8  A    between atoms: C8_22  and  O4_23 
REMARK    9  A    between atoms: C8_22  and  C13_33 
REMARK   10  A    between atoms: O4_23  and  N6_24 
REMARK   11  A    between atoms: N6_24  and  C9_25 
REMARK   12  A    between atoms: C9_25  and  C10_26 
REMARK   13  A    between atoms: C9_25  and  C12_30 
REMARK   14  A    between atoms: C10_26  and  C11_27 
REMARK   15  A    between atoms: C18_39  and  O10_40 
REMARK   16  A    between atoms: C19_42  and  O11_43 
ROOT
HETATM    1  C3  UNL     1      37.079 -17.672  30.483  1.00  0.00     0.022 C 
HETATM    2  C4  UNL     1      36.332 -17.490  31.530  1.00  0.00     0.136 C 
HETATM    3  C5  UNL     1      35.624 -18.547  32.271  1.00  0.00     0.281 C 
HETATM    4  O2  UNL     1      34.603 -18.188  32.910  1.00  0.00    -0.265 OA
HETATM    5  N4  UNL     1      35.937 -19.944  32.370  1.00  0.00    -0.258 N 
HETATM    6  C6  UNL     1      35.321 -21.226  32.434  1.00  0.00     0.277 A 
HETATM    7  O3  UNL     1      34.120 -21.596  32.365  1.00  0.00    -0.266 OA
HETATM    8  C7  UNL     1      36.644 -21.814  32.599  1.00  0.00     0.110 A 
HETATM    9  N5  UNL     1      36.985 -23.037  32.799  1.00  0.00    -0.358 N 
ATOM     10  H5  UNL     1      36.274 -23.766  32.862  1.00  0.00     0.162 HD
HETATM   11  C20 UNL     1      37.293 -20.491  32.444  1.00  0.00     0.214 A 
HETATM   12  S2  UNL     1      38.112 -20.207  30.886  1.00  0.00    -0.132 SA
HETATM   13  C21 UNL     1      37.319 -19.015  29.835  1.00  0.00     0.124 C 
ENDROOT
BRANCH   9  14
HETATM   14  C8  UNL     1      38.394 -23.374  32.935  1.00  0.00     0.250 C 
BRANCH  14  15
HETATM   15  O4  UNL     1      39.076 -23.125  31.745  1.00  0.00    -0.259 OA
BRANCH  15  16
HETATM   16  N6  UNL     1      40.045 -23.953  31.439  1.00  0.00    -0.082 NA
BRANCH  16  17
HETATM   17  C9  UNL     1      40.728 -23.568  30.237  1.00  0.00     0.217 C 
BRANCH  17  18
HETATM   18  C10 UNL     1      39.741 -23.308  29.098  1.00  0.00     0.147 C 
BRANCH  18  19
HETATM   19  C11 UNL     1      39.558 -24.583  28.331  1.00  0.00     0.174 C 
HETATM   20  O5  UNL     1      40.297 -25.574  28.485  1.00  0.00    -0.648 OA
HETATM   21  O6  UNL     1      38.523 -24.681  27.402  1.00  0.00    -0.648 OA
ENDBRANCH  18  19
ENDBRANCH  17  18
BRANCH  17  22
HETATM   22  C12 UNL     1      41.607 -22.412  30.395  1.00  0.00     0.195 C 
HETATM   23  O7  UNL     1      42.589 -22.317  31.173  1.00  0.00    -0.647 OA
HETATM   24  O8  UNL     1      41.328 -21.287  29.598  1.00  0.00    -0.647 OA
ENDBRANCH  17  22
ENDBRANCH  16  17
ENDBRANCH  15  16
ENDBRANCH  14  15
BRANCH  14  25
HETATM   25  C13 UNL     1      38.925 -22.579  34.079  1.00  0.00     0.042 C 
HETATM   26  C14 UNL     1      40.302 -21.982  33.936  1.00  0.00     0.050 C 
HETATM   27  C15 UNL     1      40.617 -22.464  35.341  1.00  0.00     0.090 C 
HETATM   28  C16 UNL     1      39.455 -23.434  35.231  1.00  0.00     0.050 C 
HETATM   29  O9  UNL     1      41.864 -23.025  35.426  1.00  0.00    -0.375 OA
HETATM   30  C19 UNL     1      40.445 -21.476  36.443  1.00  0.00     0.183 C 
HETATM   31  C17 UNL     1      42.464 -22.674  36.608  1.00  0.00     0.203 C 
HETATM   32  C18 UNL     1      41.753 -21.492  37.178  1.00  0.00     0.173 C 
BRANCH  32  33
HETATM   33  O10 UNL     1      41.586 -21.727  38.550  1.00  0.00    -0.391 OA
ATOM     34  H10 UNL     1      40.926 -21.121  38.863  1.00  0.00     0.210 HD
ENDBRANCH  32  33
BRANCH  30  35
HETATM   35  O11 UNL     1      39.466 -21.933  37.353  1.00  0.00    -0.390 OA
ATOM     36  H11 UNL     1      39.846 -22.027  38.218  1.00  0.00     0.210 HD
ENDBRANCH  30  35
ENDBRANCH  14  25
ENDBRANCH   9  14
BRANCH   2  37
HETATM   37  N3  UNL     1      36.108 -16.214  32.096  1.00  0.00    -0.263 N 
ATOM     38  H3  UNL     1      35.540 -15.504  31.635  1.00  0.00     0.194 HD
BRANCH  37  39
HETATM   39  O1  UNL     1      36.708 -16.001  33.308  1.00  0.00    -0.289 OA
ATOM     40  H1  UNL     1      36.294 -15.342  33.854  1.00  0.00     0.244 HD
ENDBRANCH  37  39
ENDBRANCH   2  37
BRANCH   1  41
HETATM   41  S1  UNL     1      37.877 -16.357  29.678  1.00  0.00    -0.123 SA
BRANCH  41  42
HETATM   42  C2  UNL     1      39.572 -16.020  29.970  1.00  0.00     0.159 C 
BRANCH  42  43
HETATM   43  C1  UNL     1      39.905 -16.244  31.436  1.00  0.00     0.130 A 
HETATM   44  N2  UNL     1      40.505 -17.322  31.964  1.00  0.00    -0.221 N 
HETATM   45  C22 UNL     1      40.613 -17.134  33.295  1.00  0.00     0.213 A 
HETATM   46  N8  UNL     1      40.071 -15.927  33.583  1.00  0.00    -0.273 N 
HETATM   47  S3  UNL     1      41.261 -18.125  34.406  1.00  0.00    -0.037 SA
HETATM   48  N7  UNL     1      39.642 -15.402  32.417  1.00  0.00    -0.284 N 
ATOM     49  H8  UNL     1      40.001 -15.498  34.505  1.00  0.00     0.189 HD
ATOM     50  H7  UNL     1      39.187 -14.496  32.310  1.00  0.00     0.188 HD
BRANCH  44  51
HETATM   51  N1  UNL     1      40.933 -18.429  31.226  1.00  0.00    -0.335 N 
ATOM     52  H12 UNL     1      40.413 -19.286  31.037  1.00  0.00     0.177 HD
ATOM     53  H11 UNL     1      41.847 -18.507  30.779  1.00  0.00     0.177 HD
ENDBRANCH  44  51
ENDBRANCH  42  43
ENDBRANCH  41  42
ENDBRANCH   1  41
TORSDOF 16
ENDMDL
MODEL 2
REMARK VINA RESULT: -8.681357096      2.926      6.775
REMARK  16 active torsions:
REMARK  status: ('A' for Active; 'I' for Inactive)
REMARK    1  A    between atoms: N1_1  and  N2_4 
REMARK    2  A    between atoms: C1_5  and  C2_6 
REMARK    3  A    between atoms: C2_6  and  S1_7 
REMARK    4  A    between atoms: S1_7  and  C3_8 
REMARK    5  A    between atoms: C4_9  and  N3_10 
REMARK    6  A    between atoms: N3_10  and  O1_12 
REMARK    7  A    between atoms: N5_20  and  C8_22 
REMARK    8  A    between atoms: C8_22  and  O4_23 
REMARK    9  A    between atoms: C8_22  and  C13_33 
REMARK   10  A    between atoms: O4_23  and  N6_24 
REMARK   11  A    between atoms: N6_24  and  C9_25 
REMARK   12  A    between atoms: C9_25  and  C10_26 
REMARK   13  A    between atoms: C9_25  and  C12_30 
REMARK   14  A    between atoms: C10_26  and  C11_27 
REMARK   15  A    between atoms: C18_39  and  O10_40 
REMARK   16  A    between atoms: C19_42  and  O11_43 
ROOT
HETATM    1  C3  UNL     1      41.422 -22.063  32.696  1.00  0.00     0.022 C 
HETATM    2  C4  UNL     1      41.636 -21.502  31.544  1.00  0.00     0.136 C 
HETATM    3  C5  UNL     1      40.649 -21.365  30.461  1.00  0.00     0.281 C 
HETATM    4  O2  UNL     1      41.114 -21.264  29.297  1.00  0.00    -0.265 OA
HETATM    5  N4  UNL     1      39.217 -21.328  30.543  1.00  0.00    -0.258 N 
HETATM    6  C6  UNL     1      38.047 -21.761  29.859  1.00  0.00     0.277 A 
HETATM    7  O3  UNL     1      37.875 -22.462  28.828  1.00  0.00    -0.266 OA
HETATM    8  C7  UNL     1      37.249 -21.056  30.853  1.00  0.00     0.110 A 
HETATM    9  N5  UNL     1      35.975 -20.894  30.927  1.00  0.00    -0.358 N 
ATOM     10  H5  UNL     1      35.363 -21.294  30.215  1.00  0.00     0.162 HD
HETATM   11  C20 UNL     1      38.461 -20.680  31.616  1.00  0.00     0.214 A 
HETATM   12  S2  UNL     1      38.733 -21.577  33.133  1.00  0.00    -0.132 SA
HETATM   13  C21 UNL     1      40.111 -22.696  33.099  1.00  0.00     0.124 C 
ENDROOT
BRANCH   9  14
HETATM   14  C8  UNL     1      35.412 -20.136  32.034  1.00  0.00     0.250 C 
BRANCH  14  15
HETATM   15  O4  UNL     1      34.609 -19.099  31.562  1.00  0.00    -0.259 OA
BRANCH  15  16
HETATM   16  N6  UNL     1      34.379 -18.110  32.390  1.00  0.00    -0.082 NA
BRANCH  16  17
HETATM   17  C9  UNL     1      34.791 -16.846  31.853  1.00  0.00     0.217 C 
BRANCH  17  18
HETATM   18  C10 UNL     1      34.657 -16.821  30.330  1.00  0.00     0.147 C 
BRANCH  18  19
HETATM   19  C11 UNL     1      36.033 -16.807  29.734  1.00  0.00     0.174 C 
HETATM   20  O5  UNL     1      36.714 -15.768  29.638  1.00  0.00    -0.648 OA
HETATM   21  O6  UNL     1      36.588 -17.995  29.263  1.00  0.00    -0.648 OA
ENDBRANCH  18  19
ENDBRANCH  17  18
BRANCH  17  22
HETATM   22  C12 UNL     1      34.088 -15.698  32.423  1.00  0.00     0.195 C 
HETATM   23  O7  UNL     1      33.081 -15.121  31.941  1.00  0.00    -0.647 OA
HETATM   24  O8  UNL     1      34.589 -15.181  33.632  1.00  0.00    -0.647 OA
ENDBRANCH  17  22
ENDBRANCH  16  17
ENDBRANCH  15  16
ENDBRANCH  14  15
BRANCH  14  25
HETATM   25  C13 UNL     1      34.663 -21.102  32.888  1.00  0.00     0.042 C 
HETATM   26  C14 UNL     1      35.232 -21.419  34.249  1.00  0.00     0.050 C 
HETATM   27  C15 UNL     1      34.962 -22.888  33.977  1.00  0.00     0.090 C 
HETATM   28  C16 UNL     1      34.877 -22.564  32.498  1.00  0.00     0.050 C 
HETATM   29  O9  UNL     1      36.009 -23.684  34.362  1.00  0.00    -0.375 OA
HETATM   30  C19 UNL     1      33.691 -23.447  34.522  1.00  0.00     0.183 C 
HETATM   31  C17 UNL     1      35.543 -24.845  34.924  1.00  0.00     0.203 C 
HETATM   32  C18 UNL     1      34.111 -24.657  35.305  1.00  0.00     0.173 C 
BRANCH  32  33
HETATM   33  O10 UNL     1      33.419 -25.810  34.910  1.00  0.00    -0.391 OA
ATOM     34  H10 UNL     1      33.175 -25.695  33.999  1.00  0.00     0.210 HD
ENDBRANCH  32  33
BRANCH  30  35
HETATM   35  O11 UNL     1      32.878 -23.913  33.466  1.00  0.00    -0.390 OA
ATOM     36  H11 UNL     1      32.795 -23.241  32.800  1.00  0.00     0.210 HD
ENDBRANCH  30  35
ENDBRANCH  14  25
ENDBRANCH   9  14
BRANCH   2  37
HETATM   37  N3  UNL     1      42.885 -20.940  31.190  1.00  0.00    -0.263 N 
ATOM     38  H3  UNL     1      43.729 -21.503  31.093  1.00  0.00     0.194 HD
BRANCH  37  39
HETATM   39  O1  UNL     1      42.878 -19.587  30.987  1.00  0.00    -0.289 OA
ATOM     40  H1  UNL     1      43.505 -19.271  30.346  1.00  0.00     0.244 HD
ENDBRANCH  37  39
ENDBRANCH   2  37
BRANCH   1  41
HETATM   41  S1  UNL     1      42.653 -22.174  33.914  1.00  0.00    -0.123 SA
BRANCH  41  42
HETATM   42  C2  UNL     1      42.712 -21.028  35.240  1.00  0.00     0.159 C 
BRANCH  42  43
HETATM   43  C1  UNL     1      42.234 -19.664  34.774  1.00  0.00     0.130 A 
HETATM   44  N2  UNL     1      41.242 -18.937  35.311  1.00  0.00    -0.221 N 
HETATM   45  C22 UNL     1      41.128 -17.793  34.606  1.00  0.00     0.213 A 
HETATM   46  N8  UNL     1      42.062 -17.821  33.626  1.00  0.00    -0.273 N 
HETATM   47  S3  UNL     1      40.090 -16.566  34.834  1.00  0.00    -0.037 SA
HETATM   48  N7  UNL     1      42.728 -18.987  33.755  1.00  0.00    -0.284 N 
ATOM     49  H8  UNL     1      42.229 -17.100  32.926  1.00  0.00     0.189 HD
ATOM     50  H7  UNL     1      43.494 -19.297  33.157  1.00  0.00     0.188 HD
BRANCH  44  51
HETATM   51  N1  UNL     1      40.480 -19.334  36.414  1.00  0.00    -0.335 N 
ATOM     52  H12 UNL     1      40.809 -19.804  37.257  1.00  0.00     0.177 HD
ATOM     53  H11 UNL     1      39.474 -19.192  36.501  1.00  0.00     0.177 HD
ENDBRANCH  44  51
ENDBRANCH  42  43
ENDBRANCH  41  42
ENDBRANCH   1  41
TORSDOF 16
ENDMDL
MODEL 3
REMARK VINA RESULT: -8.494516894      2.936      6.904
REMARK  16 active torsions:
REMARK  status: ('A' for Active; 'I' for Inactive)
REMARK    1  A    between atoms: N1_1  and  N2_4 
REMARK    2  A    between atoms: C1_5  and  C2_6 
REMARK    3  A    between atoms: C2_6  and  S1_7 
REMARK    4  A    between atoms: S1_7  and  C3_8 
REMARK    5  A    between atoms: C4_9  and  N3_10 
REMARK    6  A    between atoms: N3_10  and  O1_12 
REMARK    7  A    between atoms: N5_20  and  C8_22 
REMARK    8  A    between atoms: C8_22  and  O4_23 
REMARK    9  A    between atoms: C8_22  and  C13_33 
REMARK   10  A    between atoms: O4_23  and  N6_24 
REMARK   11  A    between atoms: N6_24  and  C9_25 
REMARK   12  A    between atoms: C9_25  and  C10_26 
REMARK   13  A    between atoms: C9_25  and  C12_30 
REMARK   14  A    between atoms: C10_26  and  C11_27 
REMARK   15  A    between atoms: C18_39  and  O10_40 
REMARK   16  A    between atoms: C19_42  and  O11_43 
ROOT
HETATM    1  C3  UNL     1      41.471 -22.186  32.525  1.00  0.00     0.022 C 
HETATM    2  C4  UNL     1      41.597 -21.608  31.369  1.00  0.00     0.136 C 
HETATM    3  C5  UNL     1      40.563 -21.548  30.323  1.00  0.00     0.281 C 
HETATM    4  O2  UNL     1      40.975 -21.408  29.144  1.00  0.00    -0.265 OA
HETATM    5  N4  UNL     1      39.136 -21.626  30.459  1.00  0.00    -0.258 N 
HETATM    6  C6  UNL     1      37.980 -22.150  29.816  1.00  0.00     0.277 A 
HETATM    7  O3  UNL     1      37.826 -22.861  28.789  1.00  0.00    -0.266 OA
HETATM    8  C7  UNL     1      37.165 -21.512  30.842  1.00  0.00     0.110 A 
HETATM    9  N5  UNL     1      35.886 -21.453  30.963  1.00  0.00    -0.358 N 
ATOM     10  H5  UNL     1      35.283 -21.899  30.272  1.00  0.00     0.162 HD
HETATM   11  C20 UNL     1      38.372 -21.042  31.562  1.00  0.00     0.214 A 
HETATM   12  S2  UNL     1      38.770 -21.917  33.064  1.00  0.00    -0.132 SA
HETATM   13  C21 UNL     1      40.230 -22.922  32.974  1.00  0.00     0.124 C 
ENDROOT
BRANCH   9  14
HETATM   14  C8  UNL     1      35.306 -20.743  32.094  1.00  0.00     0.250 C 
BRANCH  14  15
HETATM   15  O4  UNL     1      34.526 -19.675  31.656  1.00  0.00    -0.259 OA
BRANCH  15  16
HETATM   16  N6  UNL     1      34.367 -18.681  32.495  1.00  0.00    -0.082 NA
BRANCH  16  17
HETATM   17  C9  UNL     1      34.587 -17.407  31.874  1.00  0.00     0.217 C 
BRANCH  17  18
HETATM   18  C10 UNL     1      34.801 -16.310  32.919  1.00  0.00     0.147 C 
BRANCH  18  19
HETATM   19  C11 UNL     1      33.938 -15.139  32.559  1.00  0.00     0.174 C 
HETATM   20  O5  UNL     1      32.983 -15.225  31.764  1.00  0.00    -0.648 OA
HETATM   21  O6  UNL     1      34.201 -13.894  33.128  1.00  0.00    -0.648 OA
ENDBRANCH  18  19
ENDBRANCH  17  18
BRANCH  17  22
HETATM   22  C12 UNL     1      35.692 -17.392  30.919  1.00  0.00     0.195 C 
HETATM   23  O7  UNL     1      36.915 -17.499  31.185  1.00  0.00    -0.647 OA
HETATM   24  O8  UNL     1      35.357 -17.239  29.560  1.00  0.00    -0.647 OA
ENDBRANCH  17  22
ENDBRANCH  16  17
ENDBRANCH  15  16
ENDBRANCH  14  15
BRANCH  14  25
HETATM   25  C13 UNL     1      34.527 -21.741  32.882  1.00  0.00     0.042 C 
HETATM   26  C14 UNL     1      34.705 -21.744  34.379  1.00  0.00     0.050 C 
HETATM   27  C15 UNL     1      34.807 -23.257  34.327  1.00  0.00     0.090 C 
HETATM   28  C16 UNL     1      35.117 -23.151  32.846  1.00  0.00     0.050 C 
HETATM   29  O9  UNL     1      35.817 -23.733  35.122  1.00  0.00    -0.375 OA
HETATM   30  C19 UNL     1      33.559 -24.023  34.606  1.00  0.00     0.183 C 
HETATM   31  C17 UNL     1      35.427 -24.890  35.746  1.00  0.00     0.203 C 
HETATM   32  C18 UNL     1      33.939 -24.993  35.686  1.00  0.00     0.173 C 
BRANCH  32  33
HETATM   33  O10 UNL     1      33.625 -26.316  35.344  1.00  0.00    -0.391 OA
ATOM     34  H10 UNL     1      33.878 -26.441  34.437  1.00  0.00     0.210 HD
ENDBRANCH  32  33
BRANCH  30  35
HETATM   35  O11 UNL     1      33.205 -24.795  33.478  1.00  0.00    -0.390 OA
ATOM     36  H11 UNL     1      33.976 -24.975  32.952  1.00  0.00     0.210 HD
ENDBRANCH  30  35
ENDBRANCH  14  25
ENDBRANCH   9  14
BRANCH   2  37
HETATM   37  N3  UNL     1      42.783 -20.948  30.971  1.00  0.00    -0.263 N 
ATOM     38  H3  UNL     1      43.647 -21.450  30.769  1.00  0.00     0.194 HD
BRANCH  37  39
HETATM   39  O1  UNL     1      42.687 -19.585  30.877  1.00  0.00    -0.289 OA
ATOM     40  H1  UNL     1      43.418 -19.158  30.444  1.00  0.00     0.244 HD
ENDBRANCH  37  39
ENDBRANCH   2  37
BRANCH   1  41
HETATM   41  S1  UNL     1      42.751 -22.200  33.697  1.00  0.00    -0.123 SA
BRANCH  41  42
HETATM   42  C2  UNL     1      42.669 -21.196  35.132  1.00  0.00     0.159 C 
BRANCH  42  43
HETATM   43  C1  UNL     1      42.249 -19.784  34.758  1.00  0.00     0.130 A 
HETATM   44  N2  UNL     1      41.385 -19.004  35.426  1.00  0.00    -0.221 N 
HETATM   45  C22 UNL     1      41.281 -17.831  34.768  1.00  0.00     0.213 A 
HETATM   46  N8  UNL     1      42.091 -17.897  33.685  1.00  0.00    -0.273 N 
HETATM   47  S3  UNL     1      40.375 -16.538  35.146  1.00  0.00    -0.037 SA
HETATM   48  N7  UNL     1      42.674 -19.113  33.706  1.00  0.00    -0.284 N 
ATOM     49  H8  UNL     1      42.232 -17.166  32.988  1.00  0.00     0.189 HD
ATOM     50  H7  UNL     1      43.339 -19.459  33.015  1.00  0.00     0.188 HD
BRANCH  44  51
HETATM   51  N1  UNL     1      40.726 -19.379  36.601  1.00  0.00    -0.335 N 
ATOM     52  H12 UNL     1      40.953 -20.162  37.215  1.00  0.00     0.177 HD
ATOM     53  H11 UNL     1      39.916 -18.895  36.988  1.00  0.00     0.177 HD
ENDBRANCH  44  51
ENDBRANCH  42  43
ENDBRANCH  41  42
ENDBRANCH   1  41
TORSDOF 16
ENDMDL
MODEL 4
REMARK VINA RESULT: -8.380579442      3.772      7.471
REMARK  16 active torsions:
REMARK  status: ('A' for Active; 'I' for Inactive)
REMARK    1  A    between atoms: N1_1  and  N2_4 
REMARK    2  A    between atoms: C1_5  and  C2_6 
REMARK    3  A    between atoms: C2_6  and  S1_7 
REMARK    4  A    between atoms: S1_7  and  C3_8 
REMARK    5  A    between atoms: C4_9  and  N3_10 
REMARK    6  A    between atoms: N3_10  and  O1_12 
REMARK    7  A    between atoms: N5_20  and  C8_22 
REMARK    8  A    between atoms: C8_22  and  O4_23 
REMARK    9  A    between atoms: C8_22  and  C13_33 
REMARK   10  A    between atoms: O4_23  and  N6_24 
REMARK   11  A    between atoms: N6_24  and  C9_25 
REMARK   12  A    between atoms: C9_25  and  C10_26 
REMARK   13  A    between atoms: C9_25  and  C12_30 
REMARK   14  A    between atoms: C10_26  and  C11_27 
REMARK   15  A    between atoms: C18_39  and  O10_40 
REMARK   16  A    between atoms: C19_42  and  O11_43 
ROOT
HETATM    1  C3  UNL     1      40.992 -20.116  34.569  1.00  0.00     0.022 C 
HETATM    2  C4  UNL     1      41.208 -19.208  33.665  1.00  0.00     0.136 C 
HETATM    3  C5  UNL     1      40.534 -19.123  32.359  1.00  0.00     0.281 C 
HETATM    4  O2  UNL     1      41.166 -18.532  31.447  1.00  0.00    -0.265 OA
HETATM    5  N4  UNL     1      39.244 -19.621  31.974  1.00  0.00    -0.258 N 
HETATM    6  C6  UNL     1      38.559 -20.223  30.881  1.00  0.00     0.277 A 
HETATM    7  O3  UNL     1      38.943 -20.610  29.747  1.00  0.00    -0.266 OA
HETATM    8  C7  UNL     1      37.333 -20.165  31.665  1.00  0.00     0.110 A 
HETATM    9  N5  UNL     1      36.131 -20.494  31.345  1.00  0.00    -0.358 N 
ATOM     10  H5  UNL     1      35.929 -20.860  30.415  1.00  0.00     0.162 HD
HETATM   11  C20 UNL     1      38.061 -19.622  32.835  1.00  0.00     0.214 A 
HETATM   12  S2  UNL     1      38.330 -20.762  34.180  1.00  0.00    -0.132 SA
HETATM   13  C21 UNL     1      40.019 -21.259  34.407  1.00  0.00     0.124 C 
ENDROOT
BRANCH   9  14
HETATM   14  C8  UNL     1      35.062 -20.338  32.321  1.00  0.00     0.250 C 
BRANCH  14  15
HETATM   15  O4  UNL     1      34.163 -19.355  31.911  1.00  0.00    -0.259 OA
BRANCH  15  16
HETATM   16  N6  UNL     1      34.064 -18.295  32.675  1.00  0.00    -0.082 NA
BRANCH  16  17
HETATM   17  C9  UNL     1      34.708 -17.150  32.100  1.00  0.00     0.217 C 
BRANCH  17  18
HETATM   18  C10 UNL     1      34.429 -17.052  30.599  1.00  0.00     0.147 C 
BRANCH  18  19
HETATM   19  C11 UNL     1      35.739 -16.913  29.883  1.00  0.00     0.174 C 
HETATM   20  O5  UNL     1      36.314 -17.876  29.340  1.00  0.00    -0.648 OA
HETATM   21  O6  UNL     1      36.352 -15.664  29.811  1.00  0.00    -0.648 OA
ENDBRANCH  18  19
ENDBRANCH  17  18
BRANCH  17  22
HETATM   22  C12 UNL     1      34.361 -15.885  32.743  1.00  0.00     0.195 C 
HETATM   23  O7  UNL     1      33.420 -15.115  32.426  1.00  0.00    -0.647 OA
HETATM   24  O8  UNL     1      35.162 -15.481  33.827  1.00  0.00    -0.647 OA
ENDBRANCH  17  22
ENDBRANCH  16  17
ENDBRANCH  15  16
ENDBRANCH  14  15
BRANCH  14  25
HETATM   25  C13 UNL     1      34.421 -21.675  32.482  1.00  0.00     0.042 C 
HETATM   26  C14 UNL     1      34.325 -22.240  33.876  1.00  0.00     0.050 C 
HETATM   27  C15 UNL     1      34.799 -23.574  33.328  1.00  0.00     0.090 C 
HETATM   28  C16 UNL     1      35.332 -22.844  32.109  1.00  0.00     0.050 C 
HETATM   29  O9  UNL     1      35.736 -24.161  34.137  1.00  0.00    -0.375 OA
HETATM   30  C19 UNL     1      33.745 -24.573  32.990  1.00  0.00     0.183 C 
HETATM   31  C17 UNL     1      35.534 -25.516  34.196  1.00  0.00     0.203 C 
HETATM   32  C18 UNL     1      34.150 -25.818  33.723  1.00  0.00     0.173 C 
BRANCH  32  33
HETATM   33  O10 UNL     1      34.233 -26.929  32.872  1.00  0.00    -0.391 OA
ATOM     34  H10 UNL     1      33.624 -26.785  32.158  1.00  0.00     0.210 HD
ENDBRANCH  32  33
BRANCH  30  35
HETATM   35  O11 UNL     1      33.795 -24.881  31.614  1.00  0.00    -0.390 OA
ATOM     36  H11 UNL     1      33.266 -25.649  31.433  1.00  0.00     0.210 HD
ENDBRANCH  30  35
ENDBRANCH  14  25
ENDBRANCH   9  14
BRANCH   2  37
HETATM   37  N3  UNL     1      42.145 -18.164  33.840  1.00  0.00    -0.263 N 
ATOM     38  H3  UNL     1      43.139 -18.340  33.986  1.00  0.00     0.194 HD
BRANCH  37  39
HETATM   39  O1  UNL     1      41.623 -16.899  33.800  1.00  0.00    -0.289 OA
ATOM     40  H1  UNL     1      42.222 -16.206  34.052  1.00  0.00     0.244 HD
ENDBRANCH  37  39
ENDBRANCH   2  37
BRANCH   1  41
HETATM   41  S1  UNL     1      41.838 -20.130  36.085  1.00  0.00    -0.123 SA
BRANCH  41  42
HETATM   42  C2  UNL     1      43.142 -21.264  36.377  1.00  0.00     0.159 C 
BRANCH  42  43
HETATM   43  C1  UNL     1      43.173 -21.659  37.844  1.00  0.00     0.130 A 
HETATM   44  N2  UNL     1      43.043 -22.899  38.342  1.00  0.00    -0.221 N 
HETATM   45  C22 UNL     1      43.122 -22.823  39.686  1.00  0.00     0.213 A 
HETATM   46  N8  UNL     1      43.300 -21.522  40.013  1.00  0.00    -0.273 N 
HETATM   47  S3  UNL     1      43.029 -24.027  40.772  1.00  0.00    -0.037 SA
HETATM   48  N7  UNL     1      43.328 -20.828  38.857  1.00  0.00    -0.284 N 
ATOM     49  H8  UNL     1      43.396 -21.140  40.953  1.00  0.00     0.189 HD
ATOM     50  H7  UNL     1      43.449 -19.819  38.778  1.00  0.00     0.188 HD
BRANCH  44  51
HETATM   51  N1  UNL     1      42.861 -24.047  37.565  1.00  0.00    -0.335 N 
ATOM     52  H12 UNL     1      42.141 -24.761  37.673  1.00  0.00     0.177 HD
ATOM     53  H11 UNL     1      43.452 -24.308  36.775  1.00  0.00     0.177 HD
ENDBRANCH  44  51
ENDBRANCH  42  43
ENDBRANCH  41  42
ENDBRANCH   1  41
TORSDOF 16
ENDMDL
MODEL 5
REMARK VINA RESULT: -8.282060758      2.892      6.777
REMARK  16 active torsions:
REMARK  status: ('A' for Active; 'I' for Inactive)
REMARK    1  A    between atoms: N1_1  and  N2_4 
REMARK    2  A    between atoms: C1_5  and  C2_6 
REMARK    3  A    between atoms: C2_6  and  S1_7 
REMARK    4  A    between atoms: S1_7  and  C3_8 
REMARK    5  A    between atoms: C4_9  and  N3_10 
REMARK    6  A    between atoms: N3_10  and  O1_12 
REMARK    7  A    between atoms: N5_20  and  C8_22 
REMARK    8  A    between atoms: C8_22  and  O4_23 
REMARK    9  A    between atoms: C8_22  and  C13_33 
REMARK   10  A    between atoms: O4_23  and  N6_24 
REMARK   11  A    between atoms: N6_24  and  C9_25 
REMARK   12  A    between atoms: C9_25  and  C10_26 
REMARK   13  A    between atoms: C9_25  and  C12_30 
REMARK   14  A    between atoms: C10_26  and  C11_27 
REMARK   15  A    between atoms: C18_39  and  O10_40 
REMARK   16  A    between atoms: C19_42  and  O11_43 
ROOT
HETATM    1  C3  UNL     1      42.451 -22.782  32.633  1.00  0.00     0.022 C 
HETATM    2  C4  UNL     1      42.957 -22.542  31.460  1.00  0.00     0.136 C 
HETATM    3  C5  UNL     1      42.191 -22.387  30.212  1.00  0.00     0.281 C 
HETATM    4  O2  UNL     1      42.807 -22.647  29.148  1.00  0.00    -0.265 OA
HETATM    5  N4  UNL     1      40.828 -21.974  30.035  1.00  0.00    -0.258 N 
HETATM    6  C6  UNL     1      39.678 -22.229  29.236  1.00  0.00     0.277 A 
HETATM    7  O3  UNL     1      39.447 -23.061  28.320  1.00  0.00    -0.266 OA
HETATM    8  C7  UNL     1      38.992 -21.157  29.945  1.00  0.00     0.110 A 
HETATM    9  N5  UNL     1      37.816 -20.668  29.766  1.00  0.00    -0.358 N 
ATOM     10  H5  UNL     1      37.211 -21.039  29.033  1.00  0.00     0.162 HD
HETATM   11  C20 UNL     1      40.156 -20.951  30.838  1.00  0.00     0.214 A 
HETATM   12  S2  UNL     1      39.974 -21.556  32.505  1.00  0.00    -0.132 SA
HETATM   13  C21 UNL     1      40.976 -22.968  32.897  1.00  0.00     0.124 C 
ENDROOT
BRANCH   9  14
HETATM   14  C8  UNL     1      37.355 -19.582  30.618  1.00  0.00     0.250 C 
BRANCH  14  15
HETATM   15  O4  UNL     1      36.912 -18.508  29.848  1.00  0.00    -0.259 OA
BRANCH  15  16
HETATM   16  N6  UNL     1      37.332 -17.318  30.203  1.00  0.00    -0.082 NA
BRANCH  16  17
HETATM   17  C9  UNL     1      38.691 -17.336  30.661  1.00  0.00     0.217 C 
BRANCH  17  18
HETATM   18  C10 UNL     1      39.648 -16.838  29.577  1.00  0.00     0.147 C 
BRANCH  18  19
HETATM   19  C11 UNL     1      38.923 -15.836  28.730  1.00  0.00     0.174 C 
HETATM   20  O5  UNL     1      38.750 -14.654  29.084  1.00  0.00    -0.648 OA
HETATM   21  O6  UNL     1      38.414 -16.226  27.492  1.00  0.00    -0.648 OA
ENDBRANCH  18  19
ENDBRANCH  17  18
BRANCH  17  22
HETATM   22  C12 UNL     1      38.916 -16.584  31.893  1.00  0.00     0.195 C 
HETATM   23  O7  UNL     1      39.889 -15.829  32.144  1.00  0.00    -0.647 OA
HETATM   24  O8  UNL     1      37.949 -16.718  32.906  1.00  0.00    -0.647 OA
ENDBRANCH  17  22
ENDBRANCH  16  17
ENDBRANCH  15  16
ENDBRANCH  14  15
BRANCH  14  25
HETATM   25  C13 UNL     1      36.286 -20.140  31.496  1.00  0.00     0.042 C 
HETATM   26  C14 UNL     1      36.579 -20.246  32.972  1.00  0.00     0.050 C 
HETATM   27  C15 UNL     1      35.991 -21.645  32.950  1.00  0.00     0.090 C 
HETATM   28  C16 UNL     1      36.180 -21.664  31.445  1.00  0.00     0.050 C 
HETATM   29  O9  UNL     1      36.749 -22.535  33.665  1.00  0.00    -0.375 OA
HETATM   30  C19 UNL     1      34.562 -21.777  33.357  1.00  0.00     0.183 C 
HETATM   31  C17 UNL     1      35.942 -23.406  34.350  1.00  0.00     0.203 C 
HETATM   32  C18 UNL     1      34.565 -22.832  34.424  1.00  0.00     0.173 C 
BRANCH  32  33
HETATM   33  O10 UNL     1      33.665 -23.870  34.144  1.00  0.00    -0.391 OA
ATOM     34  H10 UNL     1      32.832 -23.471  33.925  1.00  0.00     0.210 HD
ENDBRANCH  32  33
BRANCH  30  35
HETATM   35  O11 UNL     1      33.801 -22.291  32.284  1.00  0.00    -0.390 OA
ATOM     36  H11 UNL     1      32.979 -21.820  32.215  1.00  0.00     0.210 HD
ENDBRANCH  30  35
ENDBRANCH  14  25
ENDBRANCH   9  14
BRANCH   2  37
HETATM   37  N3  UNL     1      44.346 -22.398  31.243  1.00  0.00    -0.263 N 
ATOM     38  H3  UNL     1      44.985 -23.192  31.247  1.00  0.00     0.194 HD
BRANCH  37  39
HETATM   39  O1  UNL     1      44.772 -21.115  31.028  1.00  0.00    -0.289 OA
ATOM     40  H1  UNL     1      44.217 -20.437  31.396  1.00  0.00     0.244 HD
ENDBRANCH  37  39
ENDBRANCH   2  37
BRANCH   1  41
HETATM   41  S1  UNL     1      43.440 -22.946  34.050  1.00  0.00    -0.123 SA
BRANCH  41  42
HETATM   42  C2  UNL     1      44.102 -21.536  34.853  1.00  0.00     0.159 C 
BRANCH  42  43
HETATM   43  C1  UNL     1      43.265 -20.310  34.531  1.00  0.00     0.130 A 
HETATM   44  N2  UNL     1      42.351 -19.733  35.327  1.00  0.00    -0.221 N 
HETATM   45  C22 UNL     1      41.829 -18.675  34.672  1.00  0.00     0.213 A 
HETATM   46  N8  UNL     1      42.432 -18.606  33.462  1.00  0.00    -0.273 N 
HETATM   47  S3  UNL     1      40.690 -17.636  35.179  1.00  0.00    -0.037 SA
HETATM   48  N7  UNL     1      43.312 -19.627  33.403  1.00  0.00    -0.284 N 
ATOM     49  H8  UNL     1      42.254 -17.914  32.734  1.00  0.00     0.189 HD
ATOM     50  H7  UNL     1      43.918 -19.837  32.611  1.00  0.00     0.188 HD
BRANCH  44  51
HETATM   51  N1  UNL     1      42.025 -20.182  36.610  1.00  0.00    -0.335 N 
ATOM     52  H12 UNL     1      41.818 -19.614  37.432  1.00  0.00     0.177 HD
ATOM     53  H11 UNL     1      41.956 -21.164  36.877  1.00  0.00     0.177 HD
ENDBRANCH  44  51
ENDBRANCH  42  43
ENDBRANCH  41  42
ENDBRANCH   1  41
TORSDOF 16
ENDMDL
