MODEL 1
REMARK VINA RESULT: -9.045642125      0.000      0.000
REMARK  19 active torsions:
REMARK  status: ('A' for Active; 'I' for Inactive)
REMARK    1  A    between atoms: O1_2  and  C2_3 
REMARK    2  A    between atoms: C4_5  and  C5_6 
REMARK    3  A    between atoms: C12_17  and  N2_18 
REMARK    4  A    between atoms: C13_22  and  N3_23 
REMARK    5  A    between atoms: C14_28  and  C15_29 
REMARK    6  A    between atoms: C15_29  and  S1_30 
REMARK    7  A    between atoms: S1_30  and  C16_33 
REMARK    8  A    between atoms: C16_33  and  C17_34 
REMARK    9  A    between atoms: C16_33  and  C18_39 
REMARK   10  A    between atoms: C17_34  and  O5_35 
REMARK   11  A    between atoms: C17_34  and  O6_37 
REMARK   12  A    between atoms: C18_39  and  O7_40 
REMARK   13  A    between atoms: C18_39  and  O8_42 
REMARK   14  A    between atoms: C19_44  and  C20_45 
REMARK       I    between atoms: C20_45  and  N6_47 
REMARK   15  A    between atoms: N6_47  and  N7_49 
REMARK   16  A    between atoms: C22_53  and  O10_54 
REMARK   17  A    between atoms: O10_54  and  C23_55 
REMARK   18  A    between atoms: C23_55  and  C24_57 
REMARK   19  A    between atoms: C27_60  and  O12_61 
ROOT
HETATM    1  C5  UNL     1      38.898 -23.358  33.444  1.00  0.00    -0.023 A 
HETATM    2  C6  UNL     1      38.552 -22.924  32.183  1.00  0.00     0.013 A 
HETATM    3  C7  UNL     1      39.420 -22.137  31.417  1.00  0.00     0.017 A 
HETATM    4  C8  UNL     1      40.668 -21.775  31.929  1.00  0.00     0.025 A 
HETATM    5  C9  UNL     1      41.002 -22.208  33.190  1.00  0.00     0.090 A 
HETATM    6  C10 UNL     1      40.130 -22.994  33.943  1.00  0.00     0.050 A 
HETATM    7  O2  UNL     1      42.240 -21.823  33.693  1.00  0.00    -0.295 OA
HETATM    8  C11 UNL     1      43.106 -21.028  32.962  1.00  0.00     0.154 C 
HETATM    9  N1  UNL     1      43.980 -20.256  33.549  1.00  0.00    -0.381 N 
ATOM     10  H11 UNL     1      44.618 -19.671  33.011  1.00  0.00     0.158 HD
ATOM     11  H12 UNL     1      44.035 -20.232  34.567  1.00  0.00     0.158 HD
HETATM   12  C12 UNL     1      43.026 -21.064  31.489  1.00  0.00     0.309 C 
HETATM   13  C13 UNL     1      41.585 -21.051  31.060  1.00  0.00     0.087 C 
ENDROOT
BRANCH  13  14
HETATM   14  N3  UNL     1      41.190 -19.750  30.591  1.00  0.00    -0.235 N 
HETATM   15  N4  UNL     1      41.247 -19.433  29.256  1.00  0.00    -0.235 N 
HETATM   16  N5  UNL     1      40.812 -18.239  29.084  1.00  0.00    -0.287 N 
ATOM     17  H4  UNL     1      41.582 -20.051  28.517  1.00  0.00     0.209 HD
HETATM   18  C14 UNL     1      40.447 -17.683  30.245  1.00  0.00     0.075 A 
ATOM     19  H5  UNL     1      40.751 -17.773  28.178  1.00  0.00     0.188 HD
HETATM   20  C19 UNL     1      40.704 -18.685  31.208  1.00  0.00     0.152 A 
BRANCH  18  21
HETATM   21  C15 UNL     1      39.904 -16.328  30.469  1.00  0.00     0.202 C 
BRANCH  21  22
HETATM   22  S1  UNL     1      38.322 -16.135  29.693  1.00  0.00     0.163 S 
HETATM   23  O3  UNL     1      38.455 -16.672  28.276  1.00  0.00    -0.227 OA
HETATM   24  O4  UNL     1      38.043 -14.664  29.560  1.00  0.00    -0.227 OA
BRANCH  22  25
HETATM   25  C16 UNL     1      37.021 -17.007  30.460  1.00  0.00     0.218 C 
BRANCH  25  26
HETATM   26  C17 UNL     1      37.128 -18.467  30.045  1.00  0.00     0.277 C 
BRANCH  26  27
HETATM   27  O5  UNL     1      36.158 -19.191  30.764  1.00  0.00    -0.370 OA
ATOM     28  H5  UNL     1      36.454 -20.092  30.824  1.00  0.00     0.212 HD
ENDBRANCH  26  27
BRANCH  26  29
HETATM   29  O6  UNL     1      36.806 -18.635  28.702  1.00  0.00    -0.370 OA
ATOM     30  H6  UNL     1      36.449 -19.500  28.539  1.00  0.00     0.212 HD
ENDBRANCH  26  29
ENDBRANCH  25  26
BRANCH  25  31
HETATM   31  C18 UNL     1      35.645 -16.459  30.152  1.00  0.00     0.277 C 
BRANCH  31  32
HETATM   32  O7  UNL     1      35.406 -15.291  30.881  1.00  0.00    -0.370 OA
ATOM     33  H7  UNL     1      35.762 -14.536  30.428  1.00  0.00     0.212 HD
ENDBRANCH  31  32
BRANCH  31  34
HETATM   34  O8  UNL     1      35.557 -16.113  28.806  1.00  0.00    -0.370 OA
ATOM     35  H8  UNL     1      35.729 -15.186  28.694  1.00  0.00     0.212 HD
ENDBRANCH  31  34
ENDBRANCH  25  31
ENDBRANCH  22  25
ENDBRANCH  21  22
ENDBRANCH  18  21
BRANCH  20  36
HETATM   36  C20 UNL     1      40.523 -18.423  32.610  1.00  0.00     0.290 C 
HETATM   37  O9  UNL     1      39.459 -18.694  33.234  1.00  0.00    -0.264 OA
HETATM   38  N6  UNL     1      41.556 -17.826  33.379  1.00  0.00    -0.271 N 
ATOM     39  H6  UNL     1      42.429 -17.585  32.912  1.00  0.00     0.189 HD
BRANCH  38  40
HETATM   40  N7  UNL     1      41.435 -17.554  34.749  1.00  0.00    -0.342 N 
ATOM     41  H72 UNL     1      41.155 -16.610  35.015  1.00  0.00     0.176 HD
ATOM     42  H71 UNL     1      41.611 -18.247  35.475  1.00  0.00     0.176 HD
ENDBRANCH  38  40
ENDBRANCH  20  36
ENDBRANCH  13  14
BRANCH  12  43
HETATM   43  N2  UNL     1      43.724 -19.953  30.856  1.00  0.00    -0.062 N 
ATOM     44  H23 UNL     1      43.106 -19.148  30.747  1.00  0.00     0.275 HD
ATOM     45  H22 UNL     1      44.413 -19.547  31.490  1.00  0.00     0.275 HD
ATOM     46  H21 UNL     1      44.151 -20.207  29.966  1.00  0.00     0.275 HD
ENDBRANCH  12  43
BRANCH   1  47
HETATM   47  C4  UNL     1      37.952 -24.170  34.209  1.00  0.00    -0.020 A 
HETATM   48  C3  UNL     1      38.331 -25.381  34.742  1.00  0.00     0.052 A 
HETATM   49  C2  UNL     1      37.472 -26.165  35.476  1.00  0.00     0.104 A 
HETATM   50  C27 UNL     1      36.176 -25.700  35.677  1.00  0.00     0.133 A 
HETATM   51  C22 UNL     1      35.752 -24.496  35.164  1.00  0.00     0.116 A 
HETATM   52  C21 UNL     1      36.655 -23.751  34.437  1.00  0.00     0.052 A 
BRANCH  49  53
HETATM   53  O1  UNL     1      37.909 -27.371  35.984  1.00  0.00    -0.353 OA
HETATM   54  C1  UNL     1      39.289 -27.561  36.204  1.00  0.00     0.210 C 
ENDBRANCH  49  53
BRANCH  50  55
HETATM   55  O12 UNL     1      35.315 -26.471  36.406  1.00  0.00    -0.356 OA
ATOM     56  H12 UNL     1      35.490 -27.403  36.473  1.00  0.00     0.218 HD
ENDBRANCH  50  55
BRANCH  51  57
HETATM   57  O10 UNL     1      34.452 -24.078  35.395  1.00  0.00    -0.276 OA
BRANCH  57  58
HETATM   58  C23 UNL     1      33.714 -23.484  34.363  1.00  0.00     0.267 C 
HETATM   59  O11 UNL     1      33.556 -22.232  34.452  1.00  0.00    -0.264 OA
BRANCH  58  60
HETATM   60  C24 UNL     1      33.148 -24.247  33.241  1.00  0.00     0.078 C 
HETATM   61  C25 UNL     1      32.878 -25.683  33.545  1.00  0.00     0.020 C 
HETATM   62  C26 UNL     1      33.991 -24.144  31.990  1.00  0.00     0.020 C 
ENDBRANCH  58  60
ENDBRANCH  57  58
ENDBRANCH  51  57
ENDBRANCH   1  47
TORSDOF 19
ENDMDL
MODEL 2
REMARK VINA RESULT: -8.570093875      1.500      2.031
REMARK  19 active torsions:
REMARK  status: ('A' for Active; 'I' for Inactive)
REMARK    1  A    between atoms: O1_2  and  C2_3 
REMARK    2  A    between atoms: C4_5  and  C5_6 
REMARK    3  A    between atoms: C12_17  and  N2_18 
REMARK    4  A    between atoms: C13_22  and  N3_23 
REMARK    5  A    between atoms: C14_28  and  C15_29 
REMARK    6  A    between atoms: C15_29  and  S1_30 
REMARK    7  A    between atoms: S1_30  and  C16_33 
REMARK    8  A    between atoms: C16_33  and  C17_34 
REMARK    9  A    between atoms: C16_33  and  C18_39 
REMARK   10  A    between atoms: C17_34  and  O5_35 
REMARK   11  A    between atoms: C17_34  and  O6_37 
REMARK   12  A    between atoms: C18_39  and  O7_40 
REMARK   13  A    between atoms: C18_39  and  O8_42 
REMARK   14  A    between atoms: C19_44  and  C20_45 
REMARK       I    between atoms: C20_45  and  N6_47 
REMARK   15  A    between atoms: N6_47  and  N7_49 
REMARK   16  A    between atoms: C22_53  and  O10_54 
REMARK   17  A    between atoms: O10_54  and  C23_55 
REMARK   18  A    between atoms: C23_55  and  C24_57 
REMARK   19  A    between atoms: C27_60  and  O12_61 
ROOT
HETATM    1  C5  UNL     1      39.015 -23.708  34.501  1.00  0.00    -0.023 A 
HETATM    2  C6  UNL     1      39.470 -23.579  33.208  1.00  0.00     0.013 A 
HETATM    3  C7  UNL     1      40.281 -22.506  32.821  1.00  0.00     0.017 A 
HETATM    4  C8  UNL     1      40.646 -21.535  33.757  1.00  0.00     0.025 A 
HETATM    5  C9  UNL     1      40.183 -21.669  35.044  1.00  0.00     0.090 A 
HETATM    6  C10 UNL     1      39.377 -22.745  35.418  1.00  0.00     0.050 A 
HETATM    7  O2  UNL     1      40.538 -20.684  35.959  1.00  0.00    -0.295 OA
HETATM    8  C11 UNL     1      41.322 -19.603  35.595  1.00  0.00     0.154 C 
HETATM    9  N1  UNL     1      41.246 -18.464  36.228  1.00  0.00    -0.381 N 
ATOM     10  H11 UNL     1      41.823 -17.667  35.960  1.00  0.00     0.158 HD
ATOM     11  H12 UNL     1      40.600 -18.358  37.010  1.00  0.00     0.158 HD
HETATM   12  C12 UNL     1      42.257 -19.756  34.463  1.00  0.00     0.309 C 
HETATM   13  C13 UNL     1      41.579 -20.497  33.344  1.00  0.00     0.087 C 
ENDROOT
BRANCH  13  14
HETATM   14  N3  UNL     1      41.176 -19.602  32.293  1.00  0.00    -0.235 N 
HETATM   15  N4  UNL     1      41.740 -19.681  31.043  1.00  0.00    -0.235 N 
HETATM   16  N5  UNL     1      41.194 -18.810  30.275  1.00  0.00    -0.287 N 
ATOM     17  H4  UNL     1      42.476 -20.331  30.768  1.00  0.00     0.209 HD
HETATM   18  C14 UNL     1      40.262 -18.105  30.925  1.00  0.00     0.075 A 
ATOM     19  H5  UNL     1      41.440 -18.673  29.294  1.00  0.00     0.188 HD
HETATM   20  C19 UNL     1      40.271 -18.639  32.235  1.00  0.00     0.152 A 
BRANCH  18  21
HETATM   21  C15 UNL     1      39.419 -17.014  30.397  1.00  0.00     0.202 C 
BRANCH  21  22
HETATM   22  S1  UNL     1      37.827 -17.617  29.900  1.00  0.00     0.163 S 
HETATM   23  O3  UNL     1      37.916 -19.135  29.878  1.00  0.00    -0.227 OA
HETATM   24  O4  UNL     1      37.588 -17.189  28.479  1.00  0.00    -0.227 OA
BRANCH  22  25
HETATM   25  C16 UNL     1      36.517 -17.188  30.969  1.00  0.00     0.218 C 
BRANCH  25  26
HETATM   26  C17 UNL     1      35.845 -18.474  31.423  1.00  0.00     0.277 C 
BRANCH  26  27
HETATM   27  O5  UNL     1      36.046 -18.598  32.812  1.00  0.00    -0.370 OA
ATOM     28  H5  UNL     1      35.735 -19.457  33.075  1.00  0.00     0.212 HD
ENDBRANCH  26  27
BRANCH  26  29
HETATM   29  O6  UNL     1      34.467 -18.414  31.245  1.00  0.00    -0.370 OA
ATOM     30  H6  UNL     1      34.182 -19.003  30.556  1.00  0.00     0.212 HD
ENDBRANCH  26  29
ENDBRANCH  25  26
BRANCH  25  31
HETATM   31  C18 UNL     1      35.510 -16.238  30.360  1.00  0.00     0.277 C 
BRANCH  31  32
HETATM   32  O7  UNL     1      36.115 -15.023  30.032  1.00  0.00    -0.370 OA
ATOM     33  H7  UNL     1      36.480 -15.057  29.156  1.00  0.00     0.212 HD
ENDBRANCH  31  32
BRANCH  31  34
HETATM   34  O8  UNL     1      35.009 -16.767  29.173  1.00  0.00    -0.370 OA
ATOM     35  H8  UNL     1      35.359 -16.291  28.429  1.00  0.00     0.212 HD
ENDBRANCH  31  34
ENDBRANCH  25  31
ENDBRANCH  22  25
ENDBRANCH  21  22
ENDBRANCH  18  21
BRANCH  20  36
HETATM   36  C20 UNL     1      39.455 -18.064  33.269  1.00  0.00     0.290 C 
HETATM   37  O9  UNL     1      38.533 -18.698  33.856  1.00  0.00    -0.264 OA
HETATM   38  N6  UNL     1      39.647 -16.722  33.688  1.00  0.00    -0.271 N 
ATOM     39  H6  UNL     1      40.376 -16.173  33.235  1.00  0.00     0.189 HD
BRANCH  38  40
HETATM   40  N7  UNL     1      38.884 -16.114  34.695  1.00  0.00    -0.342 N 
ATOM     41  H72 UNL     1      37.977 -16.529  34.911  1.00  0.00     0.176 HD
ATOM     42  H71 UNL     1      39.193 -15.291  35.212  1.00  0.00     0.176 HD
ENDBRANCH  38  40
ENDBRANCH  20  36
ENDBRANCH  13  14
BRANCH  12  43
HETATM   43  N2  UNL     1      42.754 -18.481  33.962  1.00  0.00    -0.062 N 
ATOM     44  H23 UNL     1      43.035 -17.872  34.731  1.00  0.00     0.275 HD
ATOM     45  H22 UNL     1      43.657 -18.597  33.504  1.00  0.00     0.275 HD
ATOM     46  H21 UNL     1      42.090 -18.011  33.347  1.00  0.00     0.275 HD
ENDBRANCH  12  43
BRANCH   1  47
HETATM   47  C4  UNL     1      38.162 -24.843  34.853  1.00  0.00    -0.020 A 
HETATM   48  C3  UNL     1      38.688 -25.960  35.461  1.00  0.00     0.052 A 
HETATM   49  C2  UNL     1      37.915 -27.040  35.816  1.00  0.00     0.104 A 
HETATM   50  C27 UNL     1      36.551 -26.982  35.544  1.00  0.00     0.133 A 
HETATM   51  C22 UNL     1      35.980 -25.886  34.938  1.00  0.00     0.116 A 
HETATM   52  C21 UNL     1      36.803 -24.833  34.604  1.00  0.00     0.052 A 
BRANCH  49  53
HETATM   53  O1  UNL     1      38.499 -28.133  36.421  1.00  0.00    -0.353 OA
HETATM   54  C1  UNL     1      39.902 -28.270  36.380  1.00  0.00     0.210 C 
ENDBRANCH  49  53
BRANCH  50  55
HETATM   55  O12 UNL     1      35.773 -28.050  35.894  1.00  0.00    -0.356 OA
ATOM     56  H12 UNL     1      36.114 -28.924  35.744  1.00  0.00     0.218 HD
ENDBRANCH  50  55
BRANCH  51  57
HETATM   57  O10 UNL     1      34.617 -25.879  34.691  1.00  0.00    -0.276 OA
BRANCH  57  58
HETATM   58  C23 UNL     1      33.866 -24.725  34.950  1.00  0.00     0.267 C 
HETATM   59  O11 UNL     1      33.537 -24.543  36.158  1.00  0.00    -0.264 OA
BRANCH  58  60
HETATM   60  C24 UNL     1      33.471 -23.774  33.900  1.00  0.00     0.078 C 
HETATM   61  C25 UNL     1      33.661 -24.279  32.507  1.00  0.00     0.020 C 
HETATM   62  C26 UNL     1      34.152 -22.434  34.050  1.00  0.00     0.020 C 
ENDBRANCH  58  60
ENDBRANCH  57  58
ENDBRANCH  51  57
ENDBRANCH   1  47
TORSDOF 19
ENDMDL
MODEL 3
REMARK VINA RESULT: -8.519946359      1.472      2.253
REMARK  19 active torsions:
REMARK  status: ('A' for Active; 'I' for Inactive)
REMARK    1  A    between atoms: O1_2  and  C2_3 
REMARK    2  A    between atoms: C4_5  and  C5_6 
REMARK    3  A    between atoms: C12_17  and  N2_18 
REMARK    4  A    between atoms: C13_22  and  N3_23 
REMARK    5  A    between atoms: C14_28  and  C15_29 
REMARK    6  A    between atoms: C15_29  and  S1_30 
REMARK    7  A    between atoms: S1_30  and  C16_33 
REMARK    8  A    between atoms: C16_33  and  C17_34 
REMARK    9  A    between atoms: C16_33  and  C18_39 
REMARK   10  A    between atoms: C17_34  and  O5_35 
REMARK   11  A    between atoms: C17_34  and  O6_37 
REMARK   12  A    between atoms: C18_39  and  O7_40 
REMARK   13  A    between atoms: C18_39  and  O8_42 
REMARK   14  A    between atoms: C19_44  and  C20_45 
REMARK       I    between atoms: C20_45  and  N6_47 
REMARK   15  A    between atoms: N6_47  and  N7_49 
REMARK   16  A    between atoms: C22_53  and  O10_54 
REMARK   17  A    between atoms: O10_54  and  C23_55 
REMARK   18  A    between atoms: C23_55  and  C24_57 
REMARK   19  A    between atoms: C27_60  and  O12_61 
ROOT
HETATM    1  C5  UNL     1      38.595 -23.329  34.498  1.00  0.00    -0.023 A 
HETATM    2  C6  UNL     1      38.852 -23.103  33.164  1.00  0.00     0.013 A 
HETATM    3  C7  UNL     1      39.738 -22.103  32.748  1.00  0.00     0.017 A 
HETATM    4  C8  UNL     1      40.386 -21.307  33.697  1.00  0.00     0.025 A 
HETATM    5  C9  UNL     1      40.120 -21.537  35.026  1.00  0.00     0.090 A 
HETATM    6  C10 UNL     1      39.236 -22.538  35.428  1.00  0.00     0.050 A 
HETATM    7  O2  UNL     1      40.757 -20.724  35.956  1.00  0.00    -0.295 OA
HETATM    8  C11 UNL     1      41.622 -19.715  35.569  1.00  0.00     0.154 C 
HETATM    9  N1  UNL     1      41.816 -18.661  36.314  1.00  0.00    -0.381 N 
ATOM     10  H11 UNL     1      42.453 -17.918  36.028  1.00  0.00     0.158 HD
ATOM     11  H12 UNL     1      41.326 -18.569  37.204  1.00  0.00     0.158 HD
HETATM   12  C12 UNL     1      42.332 -19.848  34.281  1.00  0.00     0.309 C 
HETATM   13  C13 UNL     1      41.383 -20.355  33.231  1.00  0.00     0.087 C 
ENDROOT
BRANCH  13  14
HETATM   14  N3  UNL     1      40.953 -19.295  32.359  1.00  0.00    -0.235 N 
HETATM   15  N4  UNL     1      40.665 -18.046  32.854  1.00  0.00    -0.235 N 
HETATM   16  N5  UNL     1      40.343 -17.269  31.886  1.00  0.00    -0.287 N 
ATOM     17  H4  UNL     1      40.702 -17.779  33.838  1.00  0.00     0.209 HD
HETATM   18  C14 UNL     1      40.386 -17.911  30.713  1.00  0.00     0.075 A 
ATOM     19  H5  UNL     1      40.088 -16.287  31.996  1.00  0.00     0.188 HD
HETATM   20  C19 UNL     1      40.783 -19.226  31.049  1.00  0.00     0.152 A 
BRANCH  18  21
HETATM   21  C15 UNL     1      40.080 -17.371  29.373  1.00  0.00     0.202 C 
BRANCH  21  22
HETATM   22  S1  UNL     1      38.634 -16.346  29.411  1.00  0.00     0.163 S 
HETATM   23  O3  UNL     1      38.133 -16.234  27.980  1.00  0.00    -0.227 OA
HETATM   24  O4  UNL     1      39.053 -14.961  29.819  1.00  0.00    -0.227 OA
BRANCH  22  25
HETATM   25  C16 UNL     1      37.321 -16.970  30.375  1.00  0.00     0.218 C 
BRANCH  25  26
HETATM   26  C17 UNL     1      37.189 -18.456  30.079  1.00  0.00     0.277 C 
BRANCH  26  27
HETATM   27  O5  UNL     1      36.000 -18.911  30.682  1.00  0.00    -0.370 OA
ATOM     28  H5  UNL     1      35.428 -19.229  29.993  1.00  0.00     0.212 HD
ENDBRANCH  26  27
BRANCH  26  29
HETATM   29  O6  UNL     1      37.034 -18.687  28.716  1.00  0.00    -0.370 OA
ATOM     30  H6  UNL     1      37.151 -19.606  28.507  1.00  0.00     0.212 HD
ENDBRANCH  26  29
ENDBRANCH  25  26
BRANCH  25  31
HETATM   31  C18 UNL     1      36.004 -16.258  30.159  1.00  0.00     0.277 C 
BRANCH  31  32
HETATM   32  O7  UNL     1      36.197 -14.875  30.092  1.00  0.00    -0.370 OA
ATOM     33  H7  UNL     1      36.445 -14.615  29.212  1.00  0.00     0.212 HD
ENDBRANCH  31  32
BRANCH  31  34
HETATM   34  O8  UNL     1      35.445 -16.641  28.942  1.00  0.00    -0.370 OA
ATOM     35  H8  UNL     1      35.194 -15.874  28.441  1.00  0.00     0.212 HD
ENDBRANCH  31  34
ENDBRANCH  25  31
ENDBRANCH  22  25
ENDBRANCH  21  22
ENDBRANCH  18  21
BRANCH  20  36
HETATM   36  C20 UNL     1      40.850 -20.254  30.046  1.00  0.00     0.290 C 
HETATM   37  O9  UNL     1      41.913 -20.554  29.432  1.00  0.00    -0.264 OA
HETATM   38  N6  UNL     1      39.696 -20.995  29.684  1.00  0.00    -0.271 N 
ATOM     39  H6  UNL     1      38.816 -20.779  30.151  1.00  0.00     0.189 HD
BRANCH  38  40
HETATM   40  N7  UNL     1      39.706 -22.011  28.718  1.00  0.00    -0.342 N 
ATOM     41  H72 UNL     1      39.635 -21.728  27.741  1.00  0.00     0.176 HD
ATOM     42  H71 UNL     1      39.781 -23.002  28.948  1.00  0.00     0.176 HD
ENDBRANCH  38  40
ENDBRANCH  20  36
ENDBRANCH  13  14
BRANCH  12  43
HETATM   43  N2  UNL     1      42.924 -18.596  33.829  1.00  0.00    -0.062 N 
ATOM     44  H23 UNL     1      42.809 -18.481  32.821  1.00  0.00     0.275 HD
ATOM     45  H22 UNL     1      42.377 -17.797  34.150  1.00  0.00     0.275 HD
ATOM     46  H21 UNL     1      43.903 -18.500  34.097  1.00  0.00     0.275 HD
ENDBRANCH  12  43
BRANCH   1  47
HETATM   47  C4  UNL     1      37.652 -24.380  34.881  1.00  0.00    -0.020 A 
HETATM   48  C3  UNL     1      38.100 -25.602  35.327  1.00  0.00     0.052 A 
HETATM   49  C2  UNL     1      37.243 -26.609  35.706  1.00  0.00     0.104 A 
HETATM   50  C27 UNL     1      35.875 -26.362  35.630  1.00  0.00     0.133 A 
HETATM   51  C22 UNL     1      35.381 -25.156  35.191  1.00  0.00     0.116 A 
HETATM   52  C21 UNL     1      36.285 -24.184  34.824  1.00  0.00     0.052 A 
BRANCH  49  53
HETATM   53  O1  UNL     1      37.751 -27.814  36.143  1.00  0.00    -0.353 OA
HETATM   54  C1  UNL     1      39.118 -27.898  36.481  1.00  0.00     0.210 C 
ENDBRANCH  49  53
BRANCH  50  55
HETATM   55  O12 UNL     1      35.015 -27.356  36.005  1.00  0.00    -0.356 OA
ATOM     56  H12 UNL     1      35.071 -28.193  35.560  1.00  0.00     0.218 HD
ENDBRANCH  50  55
BRANCH  51  57
HETATM   57  O10 UNL     1      34.011 -24.962  35.137  1.00  0.00    -0.276 OA
BRANCH  57  58
HETATM   58  C23 UNL     1      33.461 -24.126  34.156  1.00  0.00     0.267 C 
HETATM   59  O11 UNL     1      33.244 -22.931  34.512  1.00  0.00    -0.264 OA
BRANCH  58  60
HETATM   60  C24 UNL     1      33.146 -24.585  32.796  1.00  0.00     0.078 C 
HETATM   61  C25 UNL     1      32.879 -26.050  32.686  1.00  0.00     0.020 C 
HETATM   62  C26 UNL     1      34.203 -24.186  31.793  1.00  0.00     0.020 C 
ENDBRANCH  58  60
ENDBRANCH  57  58
ENDBRANCH  51  57
ENDBRANCH   1  47
TORSDOF 19
ENDMDL
MODEL 4
REMARK VINA RESULT: -8.427329665      4.259      8.643
REMARK  19 active torsions:
REMARK  status: ('A' for Active; 'I' for Inactive)
REMARK    1  A    between atoms: O1_2  and  C2_3 
REMARK    2  A    between atoms: C4_5  and  C5_6 
REMARK    3  A    between atoms: C12_17  and  N2_18 
REMARK    4  A    between atoms: C13_22  and  N3_23 
REMARK    5  A    between atoms: C14_28  and  C15_29 
REMARK    6  A    between atoms: C15_29  and  S1_30 
REMARK    7  A    between atoms: S1_30  and  C16_33 
REMARK    8  A    between atoms: C16_33  and  C17_34 
REMARK    9  A    between atoms: C16_33  and  C18_39 
REMARK   10  A    between atoms: C17_34  and  O5_35 
REMARK   11  A    between atoms: C17_34  and  O6_37 
REMARK   12  A    between atoms: C18_39  and  O7_40 
REMARK   13  A    between atoms: C18_39  and  O8_42 
REMARK   14  A    between atoms: C19_44  and  C20_45 
REMARK       I    between atoms: C20_45  and  N6_47 
REMARK   15  A    between atoms: N6_47  and  N7_49 
REMARK   16  A    between atoms: C22_53  and  O10_54 
REMARK   17  A    between atoms: O10_54  and  C23_55 
REMARK   18  A    between atoms: C23_55  and  C24_57 
REMARK   19  A    between atoms: C27_60  and  O12_61 
ROOT
HETATM    1  C5  UNL     1      45.393 -21.338  32.484  1.00  0.00    -0.023 A 
HETATM    2  C6  UNL     1      44.802 -20.181  32.940  1.00  0.00     0.013 A 
HETATM    3  C7  UNL     1      43.464 -19.881  32.657  1.00  0.00     0.017 A 
HETATM    4  C8  UNL     1      42.699 -20.767  31.894  1.00  0.00     0.025 A 
HETATM    5  C9  UNL     1      43.299 -21.917  31.439  1.00  0.00     0.090 A 
HETATM    6  C10 UNL     1      44.632 -22.205  31.730  1.00  0.00     0.050 A 
HETATM    7  O2  UNL     1      42.529 -22.779  30.665  1.00  0.00    -0.295 OA
HETATM    8  C11 UNL     1      41.211 -22.494  30.354  1.00  0.00     0.154 C 
HETATM    9  N1  UNL     1      40.650 -22.966  29.273  1.00  0.00    -0.381 N 
ATOM     10  H11 UNL     1      39.679 -22.756  29.044  1.00  0.00     0.158 HD
ATOM     11  H12 UNL     1      41.185 -23.559  28.639  1.00  0.00     0.158 HD
HETATM   12  C12 UNL     1      40.437 -21.636  31.272  1.00  0.00     0.309 C 
HETATM   13  C13 UNL     1      41.284 -20.475  31.714  1.00  0.00     0.087 C 
ENDROOT
BRANCH  13  14
HETATM   14  N3  UNL     1      40.923 -19.269  31.019  1.00  0.00    -0.235 N 
HETATM   15  N4  UNL     1      40.982 -19.199  29.648  1.00  0.00    -0.235 N 
HETATM   16  N5  UNL     1      40.579 -18.044  29.264  1.00  0.00    -0.287 N 
ATOM     17  H4  UNL     1      41.297 -19.949  29.033  1.00  0.00     0.209 HD
HETATM   18  C14 UNL     1      40.235 -17.278  30.306  1.00  0.00     0.075 A 
ATOM     19  H5  UNL     1      40.528 -17.747  28.289  1.00  0.00     0.188 HD
HETATM   20  C19 UNL     1      40.469 -18.098  31.434  1.00  0.00     0.152 A 
BRANCH  18  21
HETATM   21  C15 UNL     1      39.731 -15.891  30.282  1.00  0.00     0.202 C 
BRANCH  21  22
HETATM   22  S1  UNL     1      38.084 -15.819  29.629  1.00  0.00     0.163 S 
HETATM   23  O3  UNL     1      38.170 -16.225  28.166  1.00  0.00    -0.227 OA
HETATM   24  O4  UNL     1      37.638 -14.383  29.641  1.00  0.00    -0.227 OA
BRANCH  22  25
HETATM   25  C16 UNL     1      36.944 -16.890  30.400  1.00  0.00     0.218 C 
BRANCH  25  26
HETATM   26  C17 UNL     1      37.192 -18.295  29.871  1.00  0.00     0.277 C 
BRANCH  26  27
HETATM   27  O5  UNL     1      36.460 -19.192  30.673  1.00  0.00    -0.370 OA
ATOM     28  H5  UNL     1      35.582 -19.253  30.314  1.00  0.00     0.212 HD
ENDBRANCH  26  27
BRANCH  26  29
HETATM   29  O6  UNL     1      36.690 -18.444  28.583  1.00  0.00    -0.370 OA
ATOM     30  H6  UNL     1      35.789 -18.746  28.597  1.00  0.00     0.212 HD
ENDBRANCH  26  29
ENDBRANCH  25  26
BRANCH  25  31
HETATM   31  C18 UNL     1      35.497 -16.491  30.213  1.00  0.00     0.277 C 
BRANCH  31  32
HETATM   32  O7  UNL     1      35.180 -15.397  31.023  1.00  0.00    -0.370 OA
ATOM     33  H7  UNL     1      35.602 -15.475  31.870  1.00  0.00     0.212 HD
ENDBRANCH  31  32
BRANCH  31  34
HETATM   34  O8  UNL     1      35.277 -16.090  28.898  1.00  0.00    -0.370 OA
ATOM     35  H8  UNL     1      34.727 -15.316  28.880  1.00  0.00     0.212 HD
ENDBRANCH  31  34
ENDBRANCH  25  31
ENDBRANCH  22  25
ENDBRANCH  21  22
ENDBRANCH  18  21
BRANCH  20  36
HETATM   36  C20 UNL     1      40.302 -17.582  32.765  1.00  0.00     0.290 C 
HETATM   37  O9  UNL     1      39.275 -17.800  33.468  1.00  0.00    -0.264 OA
HETATM   38  N6  UNL     1      41.306 -16.780  33.368  1.00  0.00    -0.271 N 
ATOM     39  H6  UNL     1      42.148 -16.575  32.831  1.00  0.00     0.189 HD
BRANCH  38  40
HETATM   40  N7  UNL     1      41.197 -16.257  34.664  1.00  0.00    -0.342 N 
ATOM     41  H72 UNL     1      40.540 -15.490  34.806  1.00  0.00     0.176 HD
ATOM     42  H71 UNL     1      41.737 -16.607  35.455  1.00  0.00     0.176 HD
ENDBRANCH  38  40
ENDBRANCH  20  36
ENDBRANCH  13  14
BRANCH  12  43
HETATM   43  N2  UNL     1      39.208 -21.131  30.674  1.00  0.00    -0.062 N 
ATOM     44  H23 UNL     1      38.616 -20.686  31.376  1.00  0.00     0.275 HD
ATOM     45  H22 UNL     1      39.395 -20.324  30.080  1.00  0.00     0.275 HD
ATOM     46  H21 UNL     1      38.691 -21.848  30.164  1.00  0.00     0.275 HD
ENDBRANCH  12  43
BRANCH   1  47
HETATM   47  C4  UNL     1      46.798 -21.601  32.800  1.00  0.00    -0.020 A 
HETATM   48  C3  UNL     1      47.509 -22.555  32.111  1.00  0.00     0.052 A 
HETATM   49  C2  UNL     1      48.833 -22.821  32.372  1.00  0.00     0.104 A 
HETATM   50  C27 UNL     1      49.459 -22.085  33.375  1.00  0.00     0.133 A 
HETATM   51  C22 UNL     1      48.788 -21.120  34.090  1.00  0.00     0.116 A 
HETATM   52  C21 UNL     1      47.463 -20.896  33.785  1.00  0.00     0.052 A 
BRANCH  49  53
HETATM   53  O1  UNL     1      49.495 -23.791  31.650  1.00  0.00    -0.353 OA
HETATM   54  C1  UNL     1      49.387 -25.139  32.054  1.00  0.00     0.210 C 
ENDBRANCH  49  53
BRANCH  50  55
HETATM   55  O12 UNL     1      50.774 -22.340  33.643  1.00  0.00    -0.356 OA
ATOM     56  H12 UNL     1      51.028 -22.504  34.544  1.00  0.00     0.218 HD
ENDBRANCH  50  55
BRANCH  51  57
HETATM   57  O10 UNL     1      49.458 -20.415  35.076  1.00  0.00    -0.276 OA
BRANCH  57  58
HETATM   58  C23 UNL     1      49.788 -19.069  34.872  1.00  0.00     0.267 C 
HETATM   59  O11 UNL     1      48.970 -18.226  35.343  1.00  0.00    -0.264 OA
BRANCH  58  60
HETATM   60  C24 UNL     1      51.000 -18.641  34.160  1.00  0.00     0.078 C 
HETATM   61  C25 UNL     1      51.842 -17.660  34.908  1.00  0.00     0.020 C 
HETATM   62  C26 UNL     1      50.699 -18.101  32.781  1.00  0.00     0.020 C 
ENDBRANCH  58  60
ENDBRANCH  57  58
ENDBRANCH  51  57
ENDBRANCH   1  47
TORSDOF 19
ENDMDL
MODEL 5
REMARK VINA RESULT: -8.341879395      3.596      7.926
REMARK  19 active torsions:
REMARK  status: ('A' for Active; 'I' for Inactive)
REMARK    1  A    between atoms: O1_2  and  C2_3 
REMARK    2  A    between atoms: C4_5  and  C5_6 
REMARK    3  A    between atoms: C12_17  and  N2_18 
REMARK    4  A    between atoms: C13_22  and  N3_23 
REMARK    5  A    between atoms: C14_28  and  C15_29 
REMARK    6  A    between atoms: C15_29  and  S1_30 
REMARK    7  A    between atoms: S1_30  and  C16_33 
REMARK    8  A    between atoms: C16_33  and  C17_34 
REMARK    9  A    between atoms: C16_33  and  C18_39 
REMARK   10  A    between atoms: C17_34  and  O5_35 
REMARK   11  A    between atoms: C17_34  and  O6_37 
REMARK   12  A    between atoms: C18_39  and  O7_40 
REMARK   13  A    between atoms: C18_39  and  O8_42 
REMARK   14  A    between atoms: C19_44  and  C20_45 
REMARK       I    between atoms: C20_45  and  N6_47 
REMARK   15  A    between atoms: N6_47  and  N7_49 
REMARK   16  A    between atoms: C22_53  and  O10_54 
REMARK   17  A    between atoms: O10_54  and  C23_55 
REMARK   18  A    between atoms: C23_55  and  C24_57 
REMARK   19  A    between atoms: C27_60  and  O12_61 
ROOT
HETATM    1  C5  UNL     1      37.454 -19.909  32.410  1.00  0.00    -0.023 A 
HETATM    2  C6  UNL     1      37.936 -20.950  31.649  1.00  0.00     0.013 A 
HETATM    3  C7  UNL     1      38.707 -21.973  32.212  1.00  0.00     0.017 A 
HETATM    4  C8  UNL     1      39.004 -21.951  33.578  1.00  0.00     0.025 A 
HETATM    5  C9  UNL     1      38.523 -20.905  34.329  1.00  0.00     0.090 A 
HETATM    6  C10 UNL     1      37.753 -19.892  33.756  1.00  0.00     0.050 A 
HETATM    7  O2  UNL     1      38.843 -20.887  35.682  1.00  0.00    -0.295 OA
HETATM    8  C11 UNL     1      39.621 -21.876  36.258  1.00  0.00     0.154 C 
HETATM    9  N1  UNL     1      40.341 -21.642  37.321  1.00  0.00    -0.381 N 
ATOM     10  H11 UNL     1      40.914 -22.371  37.746  1.00  0.00     0.158 HD
ATOM     11  H12 UNL     1      40.335 -20.715  37.747  1.00  0.00     0.158 HD
HETATM   12  C12 UNL     1      39.629 -23.218  35.642  1.00  0.00     0.309 C 
HETATM   13  C13 UNL     1      39.713 -23.087  34.146  1.00  0.00     0.087 C 
ENDROOT
BRANCH  13  14
HETATM   14  N3  UNL     1      41.041 -23.365  33.671  1.00  0.00    -0.235 N 
HETATM   15  N4  UNL     1      41.365 -24.598  33.158  1.00  0.00    -0.235 N 
HETATM   16  N5  UNL     1      42.587 -24.589  32.769  1.00  0.00    -0.287 N 
ATOM     17  H4  UNL     1      40.732 -25.395  33.096  1.00  0.00     0.209 HD
HETATM   18  C14 UNL     1      43.157 -23.397  32.985  1.00  0.00     0.075 A 
ATOM     19  H5  UNL     1      43.063 -25.387  32.349  1.00  0.00     0.188 HD
HETATM   20  C19 UNL     1      42.131 -22.621  33.573  1.00  0.00     0.152 A 
BRANCH  18  21
HETATM   21  C15 UNL     1      44.543 -22.989  32.683  1.00  0.00     0.202 C 
BRANCH  21  22
HETATM   22  S1  UNL     1      44.800 -22.837  30.935  1.00  0.00     0.163 S 
HETATM   23  O3  UNL     1      44.420 -24.172  30.315  1.00  0.00    -0.227 OA
HETATM   24  O4  UNL     1      46.274 -22.666  30.692  1.00  0.00    -0.227 OA
BRANCH  22  25
HETATM   25  C16 UNL     1      43.836 -21.608  30.159  1.00  0.00     0.218 C 
BRANCH  25  26
HETATM   26  C17 UNL     1      42.388 -22.075  30.168  1.00  0.00     0.277 C 
BRANCH  26  27
HETATM   27  O5  UNL     1      41.568 -20.932  30.107  1.00  0.00    -0.370 OA
ATOM     28  H5  UNL     1      40.678 -21.222  29.942  1.00  0.00     0.212 HD
ENDBRANCH  26  27
BRANCH  26  29
HETATM   29  O6  UNL     1      42.090 -22.817  29.030  1.00  0.00    -0.370 OA
ATOM     30  H6  UNL     1      41.329 -23.369  29.169  1.00  0.00     0.212 HD
ENDBRANCH  26  29
ENDBRANCH  25  26
BRANCH  25  31
HETATM   31  C18 UNL     1      44.284 -21.269  28.754  1.00  0.00     0.277 C 
BRANCH  31  32
HETATM   32  O7  UNL     1      43.523 -20.218  28.236  1.00  0.00    -0.370 OA
ATOM     33  H7  UNL     1      43.954 -19.834  27.481  1.00  0.00     0.212 HD
ENDBRANCH  31  32
BRANCH  31  34
HETATM   34  O8  UNL     1      45.607 -20.835  28.764  1.00  0.00    -0.370 OA
ATOM     35  H8  UNL     1      45.976 -20.888  27.891  1.00  0.00     0.212 HD
ENDBRANCH  31  34
ENDBRANCH  25  31
ENDBRANCH  22  25
ENDBRANCH  21  22
ENDBRANCH  18  21
BRANCH  20  36
HETATM   36  C20 UNL     1      42.394 -21.288  34.040  1.00  0.00     0.290 C 
HETATM   37  O9  UNL     1      42.787 -21.030  35.213  1.00  0.00    -0.264 OA
HETATM   38  N6  UNL     1      42.215 -20.168  33.188  1.00  0.00    -0.271 N 
ATOM     39  H6  UNL     1      41.892 -20.331  32.235  1.00  0.00     0.189 HD
BRANCH  38  40
HETATM   40  N7  UNL     1      42.462 -18.848  33.590  1.00  0.00    -0.342 N 
ATOM     41  H72 UNL     1      42.671 -18.167  32.860  1.00  0.00     0.176 HD
ATOM     42  H71 UNL     1      42.440 -18.546  34.564  1.00  0.00     0.176 HD
ENDBRANCH  38  40
ENDBRANCH  20  36
ENDBRANCH  13  14
BRANCH  12  43
HETATM   43  N2  UNL     1      40.728 -24.050  36.113  1.00  0.00    -0.062 N 
ATOM     44  H23 UNL     1      41.563 -23.489  36.287  1.00  0.00     0.275 HD
ATOM     45  H22 UNL     1      40.553 -24.384  37.060  1.00  0.00     0.275 HD
ATOM     46  H21 UNL     1      40.935 -24.826  35.484  1.00  0.00     0.275 HD
ENDBRANCH  12  43
BRANCH   1  47
HETATM   47  C4  UNL     1      36.660 -18.858  31.772  1.00  0.00    -0.020 A 
HETATM   48  C3  UNL     1      35.479 -18.428  32.331  1.00  0.00     0.052 A 
HETATM   49  C2  UNL     1      34.713 -17.436  31.765  1.00  0.00     0.104 A 
HETATM   50  C27 UNL     1      35.167 -16.857  30.583  1.00  0.00     0.133 A 
HETATM   51  C22 UNL     1      36.342 -17.255  29.988  1.00  0.00     0.116 A 
HETATM   52  C21 UNL     1      37.069 -18.253  30.599  1.00  0.00     0.052 A 
BRANCH  49  53
HETATM   53  O1  UNL     1      33.537 -17.047  32.371  1.00  0.00    -0.353 OA
HETATM   54  C1  UNL     1      33.510 -15.841  33.103  1.00  0.00     0.210 C 
ENDBRANCH  49  53
BRANCH  50  55
HETATM   55  O12 UNL     1      34.414 -15.869  30.013  1.00  0.00    -0.356 OA
ATOM     56  H12 UNL     1      33.496 -15.809  30.249  1.00  0.00     0.218 HD
ENDBRANCH  50  55
BRANCH  51  57
HETATM   57  O10 UNL     1      36.749 -16.644  28.813  1.00  0.00    -0.276 OA
BRANCH  57  58
HETATM   58  C23 UNL     1      38.108 -16.386  28.594  1.00  0.00     0.267 C 
HETATM   59  O11 UNL     1      38.455 -16.260  27.383  1.00  0.00    -0.264 OA
BRANCH  58  60
HETATM   60  C24 UNL     1      39.087 -16.264  29.684  1.00  0.00     0.078 C 
HETATM   61  C25 UNL     1      39.462 -14.860  30.023  1.00  0.00     0.020 C 
HETATM   62  C26 UNL     1      40.337 -17.075  29.431  1.00  0.00     0.020 C 
ENDBRANCH  58  60
ENDBRANCH  57  58
ENDBRANCH  51  57
ENDBRANCH   1  47
TORSDOF 19
ENDMDL
