MODEL 1
REMARK VINA RESULT: -6.003330987      0.000      0.000
REMARK  15 active torsions:
REMARK  status: ('A' for Active; 'I' for Inactive)
REMARK    1  A    between atoms: C2_2  and  C3_3 
REMARK    2  A    between atoms: C3_3  and  C4_4 
REMARK    3  A    between atoms: C4_4  and  N1_5 
REMARK    4  A    between atoms: N1_5  and  C5_7 
REMARK    5  A    between atoms: C6_10  and  N3_11 
REMARK    6  A    between atoms: N3_11  and  C7_13 
REMARK    7  A    between atoms: C7_13  and  C8_14 
REMARK    8  A    between atoms: C8_14  and  C9_15 
REMARK    9  A    between atoms: C9_15  and  N4_16 
REMARK   10  A    between atoms: C10_22  and  N6_23 
REMARK   11  A    between atoms: N6_23  and  C11_25 
REMARK   12  A    between atoms: C11_25  and  C12_26 
REMARK   13  A    between atoms: C11_25  and  C13_29 
REMARK   14  A    between atoms: C12_26  and  O1_27 
REMARK   15  A    between atoms: C13_29  and  O2_30 
ROOT
HETATM    1  C5  UNL     1      21.423 -16.435  23.101  1.00  0.00     0.707 A 
HETATM    2  N2  UNL     1      21.878 -15.255  23.548  1.00  0.00    -0.022 N 
ATOM      3  H2  UNL     1      22.427 -14.656  22.932  1.00  0.00     0.203 HD
HETATM    4  C6  UNL     1      21.613 -14.859  24.800  1.00  0.00     0.707 A 
HETATM    5  N5  UNL     1      20.892 -15.640  25.613  1.00  0.00    -0.022 N 
ATOM      6  H5  UNL     1      20.698 -15.325  26.563  1.00  0.00     0.203 HD
HETATM    7  C10 UNL     1      20.415 -16.837  25.203  1.00  0.00     0.707 A 
HETATM    8  N7  UNL     1      20.693 -17.211  23.943  1.00  0.00    -0.022 N 
ATOM      9  H7  UNL     1      20.345 -18.110  23.608  1.00  0.00     0.203 HD
ENDROOT
BRANCH   4  10
HETATM   10  N3  UNL     1      22.054 -13.735  25.203  1.00  0.00    -0.225 N 
ATOM     11  H3  UNL     1      22.652 -13.693  26.029  1.00  0.00     0.177 HD
BRANCH  10  12
HETATM   12  C7  UNL     1      21.718 -12.532  24.509  1.00  0.00     0.139 C 
BRANCH  12  13
HETATM   13  C8  UNL     1      20.451 -11.968  25.128  1.00  0.00     0.047 C 
BRANCH  13  14
HETATM   14  C9  UNL     1      20.251 -10.583  24.529  1.00  0.00     0.231 C 
BRANCH  14  15
HETATM   15  N4  UNL     1      18.889 -10.479  23.991  1.00  0.00    -0.079 N 
ATOM     16  H43 UNL     1      18.871 -10.045  23.068  1.00  0.00     0.274 HD
ATOM     17  H42 UNL     1      18.507 -11.388  23.730  1.00  0.00     0.274 HD
ATOM     18  H41 UNL     1      18.297  -9.989  24.662  1.00  0.00     0.274 HD
ENDBRANCH  14  15
ENDBRANCH  13  14
ENDBRANCH  12  13
ENDBRANCH  10  12
ENDBRANCH   4  10
BRANCH   1  19
HETATM   19  N1  UNL     1      21.670 -16.827  21.902  1.00  0.00    -0.225 N 
ATOM     20  H1  UNL     1      21.172 -17.650  21.560  1.00  0.00     0.177 HD
BRANCH  19  21
HETATM   21  C4  UNL     1      22.591 -16.193  21.017  1.00  0.00     0.138 C 
BRANCH  21  22
HETATM   22  C3  UNL     1      23.747 -17.092  20.639  1.00  0.00     0.020 C 
BRANCH  22  23
HETATM   23  C2  UNL     1      24.816 -16.304  19.919  1.00  0.00    -0.003 C 
HETATM   24  C1  UNL     1      24.291 -14.949  19.553  1.00  0.00     0.005 C 
ENDBRANCH  22  23
ENDBRANCH  21  22
ENDBRANCH  19  21
ENDBRANCH   1  19
BRANCH   7  25
HETATM   25  N6  UNL     1      19.715 -17.579  26.015  1.00  0.00    -0.216 N 
ATOM     26  H6  UNL     1      20.014 -17.631  26.988  1.00  0.00     0.178 HD
BRANCH  25  27
HETATM   27  C11 UNL     1      18.558 -18.327  25.634  1.00  0.00     0.146 C 
BRANCH  27  28
HETATM   28  C12 UNL     1      17.412 -18.058  26.590  1.00  0.00     0.192 C 
BRANCH  28  29
HETATM   29  O1  UNL     1      16.274 -17.618  25.966  1.00  0.00    -0.399 OA
ATOM     30  H1  UNL     1      15.593 -17.346  26.571  1.00  0.00     0.209 HD
ENDBRANCH  28  29
ENDBRANCH  27  28
BRANCH  27  31
HETATM   31  C13 UNL     1      18.878 -19.803  25.561  1.00  0.00     0.192 C 
BRANCH  31  32
HETATM   32  O2  UNL     1      19.260 -20.092  24.238  1.00  0.00    -0.399 OA
ATOM     33  H2  UNL     1      19.933 -20.761  24.272  1.00  0.00     0.209 HD
ENDBRANCH  31  32
ENDBRANCH  27  31
ENDBRANCH  25  27
ENDBRANCH   7  25
TORSDOF 15
ENDMDL
MODEL 2
REMARK VINA RESULT: -5.982843708      1.188      1.508
REMARK  15 active torsions:
REMARK  status: ('A' for Active; 'I' for Inactive)
REMARK    1  A    between atoms: C2_2  and  C3_3 
REMARK    2  A    between atoms: C3_3  and  C4_4 
REMARK    3  A    between atoms: C4_4  and  N1_5 
REMARK    4  A    between atoms: N1_5  and  C5_7 
REMARK    5  A    between atoms: C6_10  and  N3_11 
REMARK    6  A    between atoms: N3_11  and  C7_13 
REMARK    7  A    between atoms: C7_13  and  C8_14 
REMARK    8  A    between atoms: C8_14  and  C9_15 
REMARK    9  A    between atoms: C9_15  and  N4_16 
REMARK   10  A    between atoms: C10_22  and  N6_23 
REMARK   11  A    between atoms: N6_23  and  C11_25 
REMARK   12  A    between atoms: C11_25  and  C12_26 
REMARK   13  A    between atoms: C11_25  and  C13_29 
REMARK   14  A    between atoms: C12_26  and  O1_27 
REMARK   15  A    between atoms: C13_29  and  O2_30 
ROOT
HETATM    1  C5  UNL     1      21.944 -16.086  22.593  1.00  0.00     0.707 A 
HETATM    2  N2  UNL     1      22.556 -15.004  23.095  1.00  0.00    -0.022 N 
ATOM      3  H2  UNL     1      23.168 -14.445  22.501  1.00  0.00     0.203 HD
HETATM    4  C6  UNL     1      22.366 -14.653  24.374  1.00  0.00     0.707 A 
HETATM    5  N5  UNL     1      21.563 -15.383  25.158  1.00  0.00    -0.022 N 
ATOM      6  H5  UNL     1      21.428 -15.104  26.130  1.00  0.00     0.203 HD
HETATM    7  C10 UNL     1      20.928 -16.481  24.691  1.00  0.00     0.707 A 
HETATM    8  N7  UNL     1      21.134 -16.812  23.406  1.00  0.00    -0.022 N 
ATOM      9  H7  UNL     1      20.666 -17.636  23.029  1.00  0.00     0.203 HD
ENDROOT
BRANCH   4  10
HETATM   10  N3  UNL     1      22.957 -13.622  24.831  1.00  0.00    -0.225 N 
ATOM     11  H3  UNL     1      23.972 -13.550  24.766  1.00  0.00     0.177 HD
BRANCH  10  12
HETATM   12  C7  UNL     1      22.208 -12.566  25.435  1.00  0.00     0.139 C 
BRANCH  12  13
HETATM   13  C8  UNL     1      21.689 -11.662  24.331  1.00  0.00     0.047 C 
BRANCH  13  14
HETATM   14  C9  UNL     1      20.267 -11.276  24.712  1.00  0.00     0.231 C 
BRANCH  14  15
HETATM   15  N4  UNL     1      19.832 -10.147  23.881  1.00  0.00    -0.079 N 
ATOM     16  H43 UNL     1      20.521  -9.902  23.171  1.00  0.00     0.274 HD
ATOM     17  H42 UNL     1      19.066 -10.400  23.257  1.00  0.00     0.274 HD
ATOM     18  H41 UNL     1      19.596  -9.357  24.482  1.00  0.00     0.274 HD
ENDBRANCH  14  15
ENDBRANCH  13  14
ENDBRANCH  12  13
ENDBRANCH  10  12
ENDBRANCH   4  10
BRANCH   1  19
HETATM   19  N1  UNL     1      22.117 -16.434  21.368  1.00  0.00    -0.225 N 
ATOM     20  H1  UNL     1      21.288 -16.560  20.788  1.00  0.00     0.177 HD
BRANCH  19  21
HETATM   21  C4  UNL     1      23.390 -16.658  20.763  1.00  0.00     0.138 C 
BRANCH  21  22
HETATM   22  C3  UNL     1      23.659 -15.717  19.609  1.00  0.00     0.020 C 
BRANCH  22  23
HETATM   23  C2  UNL     1      24.577 -14.598  20.043  1.00  0.00    -0.003 C 
HETATM   24  C1  UNL     1      25.991 -14.927  19.674  1.00  0.00     0.005 C 
ENDBRANCH  22  23
ENDBRANCH  21  22
ENDBRANCH  19  21
ENDBRANCH   1  19
BRANCH   7  25
HETATM   25  N6  UNL     1      20.151 -17.175  25.476  1.00  0.00    -0.216 N 
ATOM     26  H6  UNL     1      20.592 -17.748  26.195  1.00  0.00     0.178 HD
BRANCH  25  27
HETATM   27  C11 UNL     1      18.724 -17.188  25.398  1.00  0.00     0.146 C 
BRANCH  27  28
HETATM   28  C12 UNL     1      18.151 -15.876  25.897  1.00  0.00     0.192 C 
BRANCH  28  29
HETATM   29  O1  UNL     1      17.013 -15.493  25.237  1.00  0.00    -0.399 OA
ATOM     30  H1  UNL     1      17.135 -15.394  24.300  1.00  0.00     0.209 HD
ENDBRANCH  28  29
ENDBRANCH  27  28
BRANCH  27  31
HETATM   31  C13 UNL     1      18.160 -18.362  26.167  1.00  0.00     0.192 C 
BRANCH  31  32
HETATM   32  O2  UNL     1      16.757 -18.258  26.135  1.00  0.00    -0.399 OA
ATOM     33  H2  UNL     1      16.433 -18.909  25.525  1.00  0.00     0.209 HD
ENDBRANCH  31  32
ENDBRANCH  27  31
ENDBRANCH  25  27
ENDBRANCH   7  25
TORSDOF 15
ENDMDL
MODEL 3
REMARK VINA RESULT: -5.905383680      1.649      5.432
REMARK  15 active torsions:
REMARK  status: ('A' for Active; 'I' for Inactive)
REMARK    1  A    between atoms: C2_2  and  C3_3 
REMARK    2  A    between atoms: C3_3  and  C4_4 
REMARK    3  A    between atoms: C4_4  and  N1_5 
REMARK    4  A    between atoms: N1_5  and  C5_7 
REMARK    5  A    between atoms: C6_10  and  N3_11 
REMARK    6  A    between atoms: N3_11  and  C7_13 
REMARK    7  A    between atoms: C7_13  and  C8_14 
REMARK    8  A    between atoms: C8_14  and  C9_15 
REMARK    9  A    between atoms: C9_15  and  N4_16 
REMARK   10  A    between atoms: C10_22  and  N6_23 
REMARK   11  A    between atoms: N6_23  and  C11_25 
REMARK   12  A    between atoms: C11_25  and  C12_26 
REMARK   13  A    between atoms: C11_25  and  C13_29 
REMARK   14  A    between atoms: C12_26  and  O1_27 
REMARK   15  A    between atoms: C13_29  and  O2_30 
ROOT
HETATM    1  C5  UNL     1      22.393 -14.534  24.052  1.00  0.00     0.707 A 
HETATM    2  N2  UNL     1      22.531 -14.979  22.794  1.00  0.00    -0.022 N 
ATOM      3  H2  UNL     1      23.089 -14.449  22.126  1.00  0.00     0.203 HD
HETATM    4  C6  UNL     1      21.937 -16.117  22.412  1.00  0.00     0.707 A 
HETATM    5  N5  UNL     1      21.203 -16.818  23.285  1.00  0.00    -0.022 N 
ATOM      6  H5  UNL     1      20.758 -17.683  22.980  1.00  0.00     0.203 HD
HETATM    7  C10 UNL     1      21.039 -16.405  24.562  1.00  0.00     0.707 A 
HETATM    8  N7  UNL     1      21.643 -15.260  24.921  1.00  0.00    -0.022 N 
ATOM      9  H7  UNL     1      21.536 -14.926  25.878  1.00  0.00     0.203 HD
ENDROOT
BRANCH   4  10
HETATM   10  N3  UNL     1      22.081 -16.522  21.213  1.00  0.00    -0.225 N 
ATOM     11  H3  UNL     1      21.286 -16.923  20.716  1.00  0.00     0.177 HD
BRANCH  10  12
HETATM   12  C7  UNL     1      23.348 -16.420  20.561  1.00  0.00     0.139 C 
BRANCH  12  13
HETATM   13  C8  UNL     1      23.996 -17.793  20.568  1.00  0.00     0.047 C 
BRANCH  13  14
HETATM   14  C9  UNL     1      25.355 -17.639  19.899  1.00  0.00     0.231 C 
BRANCH  14  15
HETATM   15  N4  UNL     1      25.811 -18.949  19.420  1.00  0.00    -0.079 N 
ATOM     16  H43 UNL     1      25.398 -19.197  18.521  1.00  0.00     0.274 HD
ATOM     17  H42 UNL     1      26.789 -18.936  19.131  1.00  0.00     0.274 HD
ATOM     18  H41 UNL     1      25.629 -19.652  20.137  1.00  0.00     0.274 HD
ENDBRANCH  14  15
ENDBRANCH  13  14
ENDBRANCH  12  13
ENDBRANCH  10  12
ENDBRANCH   4  10
BRANCH   1  19
HETATM   19  N1  UNL     1      22.956 -13.443  24.432  1.00  0.00    -0.225 N 
ATOM     20  H1  UNL     1      23.781 -13.516  25.027  1.00  0.00     0.177 HD
BRANCH  19  21
HETATM   21  C4  UNL     1      22.506 -12.135  24.080  1.00  0.00     0.138 C 
BRANCH  21  22
HETATM   22  C3  UNL     1      21.756 -11.456  25.206  1.00  0.00     0.020 C 
BRANCH  22  23
HETATM   23  C2  UNL     1      20.267 -11.645  25.037  1.00  0.00    -0.003 C 
HETATM   24  C1  UNL     1      19.689 -10.489  24.279  1.00  0.00     0.005 C 
ENDBRANCH  22  23
ENDBRANCH  21  22
ENDBRANCH  19  21
ENDBRANCH   1  19
BRANCH   7  25
HETATM   25  N6  UNL     1      20.318 -17.105  25.392  1.00  0.00    -0.216 N 
ATOM     26  H6  UNL     1      20.801 -17.601  26.140  1.00  0.00     0.178 HD
BRANCH  25  27
HETATM   27  C11 UNL     1      18.895 -17.226  25.325  1.00  0.00     0.146 C 
BRANCH  27  28
HETATM   28  C12 UNL     1      18.227 -16.023  25.962  1.00  0.00     0.192 C 
BRANCH  28  29
HETATM   29  O1  UNL     1      17.114 -15.597  25.287  1.00  0.00    -0.399 OA
ATOM     30  H1  UNL     1      16.508 -15.105  25.829  1.00  0.00     0.209 HD
ENDBRANCH  28  29
ENDBRANCH  27  28
BRANCH  27  31
HETATM   31  C13 UNL     1      18.440 -18.515  25.973  1.00  0.00     0.192 C 
BRANCH  31  32
HETATM   32  O2  UNL     1      17.033 -18.492  26.025  1.00  0.00    -0.399 OA
ATOM     33  H2  UNL     1      16.779 -17.854  26.681  1.00  0.00     0.209 HD
ENDBRANCH  31  32
ENDBRANCH  27  31
ENDBRANCH  25  27
ENDBRANCH   7  25
TORSDOF 15
ENDMDL
MODEL 4
REMARK VINA RESULT: -5.817442488      5.389      8.691
REMARK  15 active torsions:
REMARK  status: ('A' for Active; 'I' for Inactive)
REMARK    1  A    between atoms: C2_2  and  C3_3 
REMARK    2  A    between atoms: C3_3  and  C4_4 
REMARK    3  A    between atoms: C4_4  and  N1_5 
REMARK    4  A    between atoms: N1_5  and  C5_7 
REMARK    5  A    between atoms: C6_10  and  N3_11 
REMARK    6  A    between atoms: N3_11  and  C7_13 
REMARK    7  A    between atoms: C7_13  and  C8_14 
REMARK    8  A    between atoms: C8_14  and  C9_15 
REMARK    9  A    between atoms: C9_15  and  N4_16 
REMARK   10  A    between atoms: C10_22  and  N6_23 
REMARK   11  A    between atoms: N6_23  and  C11_25 
REMARK   12  A    between atoms: C11_25  and  C12_26 
REMARK   13  A    between atoms: C11_25  and  C13_29 
REMARK   14  A    between atoms: C12_26  and  O1_27 
REMARK   15  A    between atoms: C13_29  and  O2_30 
ROOT
HETATM    1  C5  UNL     1      27.566 -15.995  20.315  1.00  0.00     0.707 A 
HETATM    2  N2  UNL     1      28.101 -17.200  20.564  1.00  0.00    -0.022 N 
ATOM      3  H2  UNL     1      29.113 -17.301  20.633  1.00  0.00     0.203 HD
HETATM    4  C6  UNL     1      27.311 -18.270  20.722  1.00  0.00     0.707 A 
HETATM    5  N5  UNL     1      25.981 -18.142  20.632  1.00  0.00    -0.022 N 
ATOM      6  H5  UNL     1      25.392 -18.965  20.756  1.00  0.00     0.203 HD
HETATM    7  C10 UNL     1      25.402 -16.946  20.383  1.00  0.00     0.707 A 
HETATM    8  N7  UNL     1      26.215 -15.889  20.228  1.00  0.00    -0.022 N 
ATOM      9  H7  UNL     1      25.803 -14.975  20.039  1.00  0.00     0.203 HD
ENDROOT
BRANCH   4  10
HETATM   10  N3  UNL     1      27.839 -19.404  20.958  1.00  0.00    -0.225 N 
ATOM     11  H3  UNL     1      27.438 -20.245  20.543  1.00  0.00     0.177 HD
BRANCH  10  12
HETATM   12  C7  UNL     1      28.989 -19.507  21.799  1.00  0.00     0.139 C 
BRANCH  12  13
HETATM   13  C8  UNL     1      29.481 -20.943  21.753  1.00  0.00     0.047 C 
BRANCH  13  14
HETATM   14  C9  UNL     1      30.806 -20.927  21.004  1.00  0.00     0.231 C 
BRANCH  14  15
HETATM   15  N4  UNL     1      30.578 -21.317  19.607  1.00  0.00    -0.079 N 
ATOM     16  H43 UNL     1      29.641 -21.688  19.458  1.00  0.00     0.274 HD
ATOM     17  H42 UNL     1      30.513 -20.510  18.987  1.00  0.00     0.274 HD
ATOM     18  H41 UNL     1      31.305 -21.971  19.316  1.00  0.00     0.274 HD
ENDBRANCH  14  15
ENDBRANCH  13  14
ENDBRANCH  12  13
ENDBRANCH  10  12
ENDBRANCH   4  10
BRANCH   1  19
HETATM   19  N1  UNL     1      28.312 -14.960  20.160  1.00  0.00    -0.225 N 
ATOM     20  H1  UNL     1      29.097 -15.032  19.513  1.00  0.00     0.177 HD
BRANCH  19  21
HETATM   21  C4  UNL     1      28.118 -13.717  20.833  1.00  0.00     0.138 C 
BRANCH  21  22
HETATM   22  C3  UNL     1      28.363 -13.818  22.323  1.00  0.00     0.020 C 
BRANCH  22  23
HETATM   23  C2  UNL     1      27.702 -12.668  23.045  1.00  0.00    -0.003 C 
HETATM   24  C1  UNL     1      27.352 -11.586  22.070  1.00  0.00     0.005 C 
ENDBRANCH  22  23
ENDBRANCH  21  22
ENDBRANCH  19  21
ENDBRANCH   1  19
BRANCH   7  25
HETATM   25  N6  UNL     1      24.104 -16.849  20.300  1.00  0.00    -0.216 N 
ATOM     26  H6  UNL     1      23.671 -17.032  19.395  1.00  0.00     0.178 HD
BRANCH  25  27
HETATM   27  C11 UNL     1      23.247 -16.503  21.390  1.00  0.00     0.146 C 
BRANCH  27  28
HETATM   28  C12 UNL     1      21.922 -17.231  21.278  1.00  0.00     0.192 C 
BRANCH  28  29
HETATM   29  O1  UNL     1      20.848 -16.470  21.660  1.00  0.00    -0.399 OA
ATOM     30  H1  UNL     1      20.016 -16.812  21.355  1.00  0.00     0.209 HD
ENDBRANCH  28  29
ENDBRANCH  27  28
BRANCH  27  31
HETATM   31  C13 UNL     1      23.047 -15.005  21.455  1.00  0.00     0.192 C 
BRANCH  31  32
HETATM   32  O2  UNL     1      22.724 -14.562  20.159  1.00  0.00    -0.399 OA
ATOM     33  H2  UNL     1      21.874 -14.140  20.202  1.00  0.00     0.209 HD
ENDBRANCH  31  32
ENDBRANCH  27  31
ENDBRANCH  25  27
ENDBRANCH   7  25
TORSDOF 15
ENDMDL
MODEL 5
REMARK VINA RESULT: -5.809331719      7.190     10.575
REMARK  15 active torsions:
REMARK  status: ('A' for Active; 'I' for Inactive)
REMARK    1  A    between atoms: C2_2  and  C3_3 
REMARK    2  A    between atoms: C3_3  and  C4_4 
REMARK    3  A    between atoms: C4_4  and  N1_5 
REMARK    4  A    between atoms: N1_5  and  C5_7 
REMARK    5  A    between atoms: C6_10  and  N3_11 
REMARK    6  A    between atoms: N3_11  and  C7_13 
REMARK    7  A    between atoms: C7_13  and  C8_14 
REMARK    8  A    between atoms: C8_14  and  C9_15 
REMARK    9  A    between atoms: C9_15  and  N4_16 
REMARK   10  A    between atoms: C10_22  and  N6_23 
REMARK   11  A    between atoms: N6_23  and  C11_25 
REMARK   12  A    between atoms: C11_25  and  C12_26 
REMARK   13  A    between atoms: C11_25  and  C13_29 
REMARK   14  A    between atoms: C12_26  and  O1_27 
REMARK   15  A    between atoms: C13_29  and  O2_30 
ROOT
HETATM    1  C5  UNL     1      20.477 -15.487  31.909  1.00  0.00     0.707 A 
HETATM    2  N2  UNL     1      20.815 -16.713  31.484  1.00  0.00    -0.022 N 
ATOM      3  H2  UNL     1      20.527 -17.532  32.017  1.00  0.00     0.203 HD
HETATM    4  C6  UNL     1      21.529 -16.865  30.361  1.00  0.00     0.707 A 
HETATM    5  N5  UNL     1      21.910 -15.792  29.656  1.00  0.00    -0.022 N 
ATOM      6  H5  UNL     1      22.452 -15.923  28.803  1.00  0.00     0.203 HD
HETATM    7  C10 UNL     1      21.590 -14.538  30.050  1.00  0.00     0.707 A 
HETATM    8  N7  UNL     1      20.874 -14.412  31.179  1.00  0.00    -0.022 N 
ATOM      9  H7  UNL     1      20.619 -13.477  31.498  1.00  0.00     0.203 HD
ENDROOT
BRANCH   4  10
HETATM   10  N3  UNL     1      21.840 -18.037  29.974  1.00  0.00    -0.225 N 
ATOM     11  H3  UNL     1      21.205 -18.554  29.365  1.00  0.00     0.177 HD
BRANCH  10  12
HETATM   12  C7  UNL     1      23.069 -18.636  30.389  1.00  0.00     0.139 C 
BRANCH  12  13
HETATM   13  C8  UNL     1      23.757 -19.203  29.159  1.00  0.00     0.047 C 
BRANCH  13  14
HETATM   14  C9  UNL     1      25.147 -18.583  29.110  1.00  0.00     0.231 C 
BRANCH  14  15
HETATM   15  N4  UNL     1      25.874 -18.925  30.338  1.00  0.00    -0.079 N 
ATOM     16  H43 UNL     1      26.677 -18.317  30.494  1.00  0.00     0.274 HD
ATOM     17  H42 UNL     1      25.347 -18.687  31.179  1.00  0.00     0.274 HD
ATOM     18  H41 UNL     1      26.134 -19.911  30.312  1.00  0.00     0.274 HD
ENDBRANCH  14  15
ENDBRANCH  13  14
ENDBRANCH  12  13
ENDBRANCH  10  12
ENDBRANCH   4  10
BRANCH   1  19
HETATM   19  N1  UNL     1      19.792 -15.326  32.985  1.00  0.00    -0.225 N 
ATOM     20  H1  UNL     1      19.101 -16.039  33.220  1.00  0.00     0.177 HD
BRANCH  19  21
HETATM   21  C4  UNL     1      19.932 -14.218  33.874  1.00  0.00     0.138 C 
BRANCH  21  22
HETATM   22  C3  UNL     1      18.621 -13.819  34.515  1.00  0.00     0.020 C 
BRANCH  22  23
HETATM   23  C2  UNL     1      18.773 -13.730  36.015  1.00  0.00    -0.003 C 
HETATM   24  C1  UNL     1      17.465 -13.349  36.639  1.00  0.00     0.005 C 
ENDBRANCH  22  23
ENDBRANCH  21  22
ENDBRANCH  19  21
ENDBRANCH   1  19
BRANCH   7  25
HETATM   25  N6  UNL     1      21.973 -13.510  29.346  1.00  0.00    -0.216 N 
ATOM     26  H6  UNL     1      22.093 -13.639  28.342  1.00  0.00     0.178 HD
BRANCH  25  27
HETATM   27  C11 UNL     1      22.238 -12.213  29.886  1.00  0.00     0.146 C 
BRANCH  27  28
HETATM   28  C12 UNL     1      21.851 -11.134  28.895  1.00  0.00     0.192 C 
BRANCH  28  29
HETATM   29  O1  UNL     1      21.553  -9.933  29.485  1.00  0.00    -0.399 OA
ATOM     30  H1  UNL     1      21.969  -9.191  29.062  1.00  0.00     0.209 HD
ENDBRANCH  28  29
ENDBRANCH  27  28
BRANCH  27  31
HETATM   31  C13 UNL     1      23.690 -12.092  30.290  1.00  0.00     0.192 C 
BRANCH  31  32
HETATM   32  O2  UNL     1      23.840 -10.878  30.986  1.00  0.00    -0.399 OA
ATOM     33  H2  UNL     1      24.522 -10.379  30.552  1.00  0.00     0.209 HD
ENDBRANCH  31  32
ENDBRANCH  27  31
ENDBRANCH  25  27
ENDBRANCH   7  25
TORSDOF 15
ENDMDL
