MODEL 1
REMARK VINA RESULT: -4.769731139      0.000      0.000
REMARK  1 active torsions:
REMARK  status: ('A' for Active; 'I' for Inactive)
REMARK    1  A    between atoms: O1_2  and  N1_3 
ROOT
HETATM    1  N1  UNL     1       7.570   8.247  14.592  1.00  0.00    -0.088 N 
HETATM    2  N2  UNL     1       6.788   7.115  14.405  1.00  0.00     0.026 NA
HETATM    3  N3  UNL     1       6.388   6.567  15.639  1.00  0.00    -0.114 N 
ATOM      4  H3  UNL     1       5.462   6.143  15.697  1.00  0.00     0.203 HD
HETATM    5  C2  UNL     1       7.185   6.568  16.794  1.00  0.00     0.693 C 
HETATM    6  N4  UNL     1       7.001   5.788  17.796  1.00  0.00    -0.233 N 
ATOM      7  H41 UNL     1       7.581   5.788  18.636  1.00  0.00     0.174 HD
ATOM      8  H42 UNL     1       6.227   5.124  17.767  1.00  0.00     0.174 HD
HETATM    9  N5  UNL     1       8.268   7.497  16.835  1.00  0.00    -0.138 N 
ATOM     10  H5  UNL     1       8.889   7.555  17.642  1.00  0.00     0.189 HD
HETATM   11  C3  UNL     1       8.444   8.340  15.705  1.00  0.00     0.379 C 
HETATM   12  O2  UNL     1       9.373   9.200  15.642  1.00  0.00    -0.242 OA
ENDROOT
BRANCH   1  13
HETATM   13  O1  UNL     1       7.483   9.279  13.683  1.00  0.00    -0.261 OA
HETATM   14  C1  UNL     1       6.133   9.680  13.727  1.00  0.00     0.240 C 
ENDBRANCH   1  13
TORSDOF 1
ENDMDL
MODEL 2
REMARK VINA RESULT: -4.765274713      8.102      9.049
REMARK  1 active torsions:
REMARK  status: ('A' for Active; 'I' for Inactive)
REMARK    1  A    between atoms: O1_2  and  N1_3 
ROOT
HETATM    1  N1  UNL     1       2.953  14.429  18.391  1.00  0.00    -0.088 N 
HETATM    2  N2  UNL     1       3.875  15.246  19.032  1.00  0.00     0.026 NA
HETATM    3  N3  UNL     1       4.618  15.998  18.103  1.00  0.00    -0.114 N 
ATOM      4  H3  UNL     1       4.892  16.946  18.363  1.00  0.00     0.203 HD
HETATM    5  C2  UNL     1       5.006  15.524  16.840  1.00  0.00     0.693 C 
HETATM    6  N4  UNL     1       5.954  16.032  16.140  1.00  0.00    -0.233 N 
ATOM      7  H41 UNL     1       6.236  15.688  15.222  1.00  0.00     0.174 HD
ATOM      8  H42 UNL     1       6.463  16.835  16.511  1.00  0.00     0.174 HD
HETATM    9  N5  UNL     1       4.294  14.401  16.321  1.00  0.00    -0.138 N 
ATOM     10  H5  UNL     1       4.521  14.002  15.410  1.00  0.00     0.189 HD
HETATM   11  C3  UNL     1       3.256  13.861  17.127  1.00  0.00     0.379 C 
HETATM   12  O2  UNL     1       2.562  12.866  16.759  1.00  0.00    -0.242 OA
ENDROOT
BRANCH   1  13
HETATM   13  O1  UNL     1       1.742  14.181  18.998  1.00  0.00    -0.261 OA
HETATM   14  C1  UNL     1       1.825  14.836  20.242  1.00  0.00     0.240 C 
ENDBRANCH   1  13
TORSDOF 1
ENDMDL
MODEL 3
REMARK VINA RESULT: -4.728262445      2.425      3.365
REMARK  1 active torsions:
REMARK  status: ('A' for Active; 'I' for Inactive)
REMARK    1  A    between atoms: O1_2  and  N1_3 
ROOT
HETATM    1  N1  UNL     1       7.560   7.090  15.728  1.00  0.00    -0.088 N 
HETATM    2  N2  UNL     1       7.723   7.734  14.508  1.00  0.00     0.026 NA
HETATM    3  N3  UNL     1       8.911   8.489  14.490  1.00  0.00    -0.114 N 
ATOM      4  H3  UNL     1       9.428   8.548  13.612  1.00  0.00     0.203 HD
HETATM    5  C2  UNL     1       9.429   9.166  15.605  1.00  0.00     0.693 C 
HETATM    6  N4  UNL     1      10.283  10.121  15.535  1.00  0.00    -0.233 N 
ATOM      7  H41 UNL     1      10.658  10.614  16.346  1.00  0.00     0.174 HD
ATOM      8  H42 UNL     1      10.619  10.414  14.617  1.00  0.00     0.174 HD
HETATM    9  N5  UNL     1       8.958   8.756  16.889  1.00  0.00    -0.138 N 
ATOM     10  H5  UNL     1       9.289   9.203  17.744  1.00  0.00     0.189 HD
HETATM   11  C3  UNL     1       8.008   7.700  16.927  1.00  0.00     0.379 C 
HETATM   12  O2  UNL     1       7.529   7.261  18.014  1.00  0.00    -0.242 OA
ENDROOT
BRANCH   1  13
HETATM   13  O1  UNL     1       6.958   5.851  15.756  1.00  0.00    -0.261 OA
HETATM   14  C1  UNL     1       5.577   6.124  15.697  1.00  0.00     0.240 C 
ENDBRANCH   1  13
TORSDOF 1
ENDMDL
MODEL 4
REMARK VINA RESULT: -4.690113862      7.697      8.393
REMARK  1 active torsions:
REMARK  status: ('A' for Active; 'I' for Inactive)
REMARK    1  A    between atoms: O1_2  and  N1_3 
ROOT
HETATM    1  N1  UNL     1       4.776  14.919  16.613  1.00  0.00    -0.088 N 
HETATM    2  N2  UNL     1       4.784  16.034  17.441  1.00  0.00     0.026 NA
HETATM    3  N3  UNL     1       4.180  15.748  18.680  1.00  0.00    -0.114 N 
ATOM      4  H3  UNL     1       4.561  16.197  19.513  1.00  0.00     0.203 HD
HETATM    5  C2  UNL     1       3.086  14.884  18.840  1.00  0.00     0.693 C 
HETATM    6  N4  UNL     1       2.315  14.881  19.865  1.00  0.00    -0.233 N 
ATOM      7  H41 UNL     1       1.520  14.253  19.982  1.00  0.00     0.174 HD
ATOM      8  H42 UNL     1       2.500  15.540  20.622  1.00  0.00     0.174 HD
HETATM    9  N5  UNL     1       2.828  13.961  17.782  1.00  0.00    -0.138 N 
ATOM     10  H5  UNL     1       2.050  13.302  17.829  1.00  0.00     0.189 HD
HETATM   11  C3  UNL     1       3.699  13.998  16.660  1.00  0.00     0.379 C 
HETATM   12  O2  UNL     1       3.558  13.221  15.669  1.00  0.00    -0.242 OA
ENDROOT
BRANCH   1  13
HETATM   13  O1  UNL     1       5.830  14.720  15.747  1.00  0.00    -0.261 OA
HETATM   14  C1  UNL     1       6.415  15.993  15.600  1.00  0.00     0.240 C 
ENDBRANCH   1  13
TORSDOF 1
ENDMDL
MODEL 5
REMARK VINA RESULT: -4.661493995      2.129      3.805
REMARK  1 active torsions:
REMARK  status: ('A' for Active; 'I' for Inactive)
REMARK    1  A    between atoms: O1_2  and  N1_3 
ROOT
HETATM    1  N1  UNL     1       6.659   7.519  14.875  1.00  0.00    -0.088 N 
HETATM    2  N2  UNL     1       5.438   8.133  15.123  1.00  0.00     0.026 NA
HETATM    3  N3  UNL     1       5.153   9.107  14.147  1.00  0.00    -0.114 N 
ATOM      4  H3  UNL     1       4.182   9.231  13.864  1.00  0.00     0.203 HD
HETATM    5  C2  UNL     1       6.125   9.917  13.539  1.00  0.00     0.693 C 
HETATM    6  N4  UNL     1       5.868  11.018  12.933  1.00  0.00    -0.233 N 
ATOM      7  H41 UNL     1       6.575  11.607  12.492  1.00  0.00     0.174 HD
ATOM      8  H42 UNL     1       4.900  11.335  12.878  1.00  0.00     0.174 HD
HETATM    9  N5  UNL     1       7.480   9.474  13.616  1.00  0.00    -0.138 N 
ATOM     10  H5  UNL     1       8.240  10.011  13.198  1.00  0.00     0.189 HD
HETATM   11  C3  UNL     1       7.728   8.253  14.300  1.00  0.00     0.379 C 
HETATM   12  O2  UNL     1       8.893   7.772  14.423  1.00  0.00    -0.242 OA
ENDROOT
BRANCH   1  13
HETATM   13  O1  UNL     1       6.816   6.187  15.193  1.00  0.00    -0.261 OA
HETATM   14  C1  UNL     1       6.708   6.141  16.597  1.00  0.00     0.240 C 
ENDBRANCH   1  13
TORSDOF 1
ENDMDL
