MODEL 1
REMARK VINA RESULT: -6.798734016      0.000      0.000
REMARK  7 active torsions:
REMARK  status: ('A' for Active; 'I' for Inactive)
REMARK    1  A    between atoms: C5_5  and  O1_6 
REMARK    2  A    between atoms: C10_12  and  C11_13 
REMARK    3  A    between atoms: C17_22  and  C18_23 
REMARK    4  A    between atoms: C17_22  and  C19_26 
REMARK    5  A    between atoms: C18_23  and  O4_24 
REMARK    6  A    between atoms: C19_26  and  O5_27 
REMARK    7  A    between atoms: C20_29  and  O6_30 
ROOT
HETATM    1  C1  UNL     1      25.782  19.011 -11.160  1.00  0.00     0.023 C 
HETATM    2  C2  UNL     1      26.350  17.682 -11.693  1.00  0.00     0.007 C 
HETATM    3  C3  UNL     1      27.807  17.750 -11.393  1.00  0.00    -0.016 C 
HETATM    4  C4  UNL     1      28.717  17.102 -12.065  1.00  0.00     0.003 C 
HETATM    5  C5  UNL     1      28.332  16.248 -13.189  1.00  0.00     0.162 C 
HETATM    6  C6  UNL     1      26.897  16.235 -13.543  1.00  0.00     0.073 C 
HETATM    7  C7  UNL     1      26.790  15.948 -15.024  1.00  0.00     0.027 C 
HETATM    8  C8  UNL     1      27.100  17.083 -15.921  1.00  0.00     0.008 C 
HETATM    9  C9  UNL     1      27.083  18.374 -15.207  1.00  0.00     0.005 C 
HETATM   10  C10 UNL     1      26.880  19.598 -16.069  1.00  0.00     0.052 C 
HETATM   11  C12 UNL     1      25.782  20.339 -15.401  1.00  0.00     0.013 C 
HETATM   12  C13 UNL     1      25.934  19.856 -13.940  1.00  0.00     0.011 C 
HETATM   13  C14 UNL     1      25.954  18.389 -14.156  1.00  0.00    -0.033 C 
HETATM   14  C15 UNL     1      24.671  18.138 -14.984  1.00  0.00     0.016 C 
HETATM   15  C16 UNL     1      26.049  17.413 -13.109  1.00  0.00     0.032 C 
HETATM   16  S1  UNL     1      26.209  14.800 -12.739  1.00  0.00     0.043 S 
HETATM   17  O3  UNL     1      25.027  14.123 -13.731  1.00  0.00    -0.256 OA
HETATM   18  C17 UNL     1      25.646  15.246 -11.171  1.00  0.00     0.107 C 
HETATM   19  C20 UNL     1      25.676  16.658 -10.764  1.00  0.00     0.155 C 
ENDROOT
BRANCH  18  20
HETATM   20  C18 UNL     1      24.260  14.646 -10.988  1.00  0.00     0.192 C 
BRANCH  20  21
HETATM   21  O4  UNL     1      23.493  15.247 -10.035  1.00  0.00    -0.399 OA
ATOM     22  H4  UNL     1      23.632  14.929  -9.151  1.00  0.00     0.209 HD
ENDBRANCH  20  21
ENDBRANCH  18  20
BRANCH  18  23
HETATM   23  C19 UNL     1      26.519  14.491 -10.157  1.00  0.00     0.192 C 
BRANCH  23  24
HETATM   24  O5  UNL     1      25.723  13.758  -9.285  1.00  0.00    -0.399 OA
ATOM     25  H5  UNL     1      25.409  12.968  -9.709  1.00  0.00     0.209 HD
ENDBRANCH  23  24
ENDBRANCH  18  23
BRANCH  19  26
HETATM   26  O6  UNL     1      26.206  16.852  -9.478  1.00  0.00    -0.393 OA
ATOM     27  H6  UNL     1      26.883  16.197  -9.351  1.00  0.00     0.210 HD
ENDBRANCH  19  26
BRANCH   5  28
HETATM   28  O1  UNL     1      28.786  14.948 -12.824  1.00  0.00    -0.390 OA
ATOM     29  H1  UNL     1      28.009  14.502 -12.508  1.00  0.00     0.210 HD
ENDBRANCH   5  28
BRANCH  10  30
HETATM   30  C11 UNL     1      26.693  19.303 -17.503  1.00  0.00     0.236 C 
HETATM   31  O2  UNL     1      26.960  20.116 -18.340  1.00  0.00    -0.306 OA
ENDBRANCH  10  30
TORSDOF 7
ENDMDL
MODEL 2
REMARK VINA RESULT: -6.600077766      2.528      5.771
REMARK  7 active torsions:
REMARK  status: ('A' for Active; 'I' for Inactive)
REMARK    1  A    between atoms: C5_5  and  O1_6 
REMARK    2  A    between atoms: C10_12  and  C11_13 
REMARK    3  A    between atoms: C17_22  and  C18_23 
REMARK    4  A    between atoms: C17_22  and  C19_26 
REMARK    5  A    between atoms: C18_23  and  O4_24 
REMARK    6  A    between atoms: C19_26  and  O5_27 
REMARK    7  A    between atoms: C20_29  and  O6_30 
ROOT
HETATM    1  C1  UNL     1      27.159  17.372 -15.921  1.00  0.00     0.023 C 
HETATM    2  C2  UNL     1      26.104  18.111 -15.076  1.00  0.00     0.007 C 
HETATM    3  C3  UNL     1      26.532  19.537 -15.107  1.00  0.00    -0.016 C 
HETATM    4  C4  UNL     1      26.238  20.403 -14.178  1.00  0.00     0.003 C 
HETATM    5  C5  UNL     1      25.444  19.996 -13.018  1.00  0.00     0.162 C 
HETATM    6  C6  UNL     1      25.081  18.565 -12.940  1.00  0.00     0.073 C 
HETATM    7  C7  UNL     1      24.945  18.202 -11.478  1.00  0.00     0.027 C 
HETATM    8  C8  UNL     1      26.216  18.018 -10.743  1.00  0.00     0.008 C 
HETATM    9  C9  UNL     1      27.364  17.848 -11.654  1.00  0.00     0.005 C 
HETATM   10  C10 UNL     1      28.576  17.167 -11.064  1.00  0.00     0.052 C 
HETATM   11  C12 UNL     1      28.908  16.100 -12.039  1.00  0.00     0.013 C 
HETATM   12  C13 UNL     1      28.323  16.687 -13.344  1.00  0.00     0.011 C 
HETATM   13  C14 UNL     1      26.951  17.014 -12.885  1.00  0.00    -0.033 C 
HETATM   14  C15 UNL     1      26.455  15.679 -12.280  1.00  0.00     0.016 C 
HETATM   15  C16 UNL     1      25.926  17.576 -13.716  1.00  0.00     0.032 C 
HETATM   16  S1  UNL     1      23.431  18.445 -13.605  1.00  0.00     0.043 S 
HETATM   17  O3  UNL     1      22.574  17.271 -12.751  1.00  0.00    -0.256 OA
HETATM   18  C17 UNL     1      23.526  18.156 -15.303  1.00  0.00     0.107 C 
HETATM   19  C20 UNL     1      24.836  17.932 -15.929  1.00  0.00     0.155 C 
ENDROOT
BRANCH  18  20
HETATM   20  C18 UNL     1      22.554  17.034 -15.637  1.00  0.00     0.192 C 
BRANCH  20  21
HETATM   21  O4  UNL     1      21.241  17.323 -15.413  1.00  0.00    -0.399 OA
ATOM     22  H4  UNL     1      20.743  17.550 -16.189  1.00  0.00     0.209 HD
ENDBRANCH  20  21
ENDBRANCH  18  20
BRANCH  18  23
HETATM   23  C19 UNL     1      22.928  19.390 -15.995  1.00  0.00     0.192 C 
BRANCH  23  24
HETATM   24  O5  UNL     1      22.364  20.245 -15.055  1.00  0.00    -0.399 OA
ATOM     25  H5  UNL     1      21.941  20.978 -15.487  1.00  0.00     0.209 HD
ENDBRANCH  23  24
ENDBRANCH  18  23
BRANCH  19  26
HETATM   26  O6  UNL     1      25.020  18.673 -17.107  1.00  0.00    -0.393 OA
ATOM     27  H6  UNL     1      25.679  18.223 -17.623  1.00  0.00     0.210 HD
ENDBRANCH  19  26
BRANCH   5  28
HETATM   28  O1  UNL     1      24.285  20.822 -13.067  1.00  0.00    -0.390 OA
ATOM     29  H1  UNL     1      23.991  20.877 -12.166  1.00  0.00     0.210 HD
ENDBRANCH   5  28
BRANCH  10  30
HETATM   30  C11 UNL     1      28.405  16.741  -9.661  1.00  0.00     0.236 C 
HETATM   31  O2  UNL     1      28.406  15.581  -9.364  1.00  0.00    -0.306 OA
ENDBRANCH  10  30
TORSDOF 7
ENDMDL
MODEL 3
REMARK VINA RESULT: -6.559148945      2.453      4.514
REMARK  7 active torsions:
REMARK  status: ('A' for Active; 'I' for Inactive)
REMARK    1  A    between atoms: C5_5  and  O1_6 
REMARK    2  A    between atoms: C10_12  and  C11_13 
REMARK    3  A    between atoms: C17_22  and  C18_23 
REMARK    4  A    between atoms: C17_22  and  C19_26 
REMARK    5  A    between atoms: C18_23  and  O4_24 
REMARK    6  A    between atoms: C19_26  and  O5_27 
REMARK    7  A    between atoms: C20_29  and  O6_30 
ROOT
HETATM    1  C1  UNL     1      29.103  15.895 -11.801  1.00  0.00     0.023 C 
HETATM    2  C2  UNL     1      27.590  16.082 -12.020  1.00  0.00     0.007 C 
HETATM    3  C3  UNL     1      26.953  15.112 -11.088  1.00  0.00    -0.016 C 
HETATM    4  C4  UNL     1      25.769  14.599 -11.272  1.00  0.00     0.003 C 
HETATM    5  C5  UNL     1      24.983  14.967 -12.450  1.00  0.00     0.162 C 
HETATM    6  C6  UNL     1      25.638  15.869 -13.421  1.00  0.00     0.073 C 
HETATM    7  C7  UNL     1      25.066  15.570 -14.788  1.00  0.00     0.027 C 
HETATM    8  C8  UNL     1      25.573  14.343 -15.441  1.00  0.00     0.008 C 
HETATM    9  C9  UNL     1      26.812  13.851 -14.810  1.00  0.00     0.005 C 
HETATM   10  C10 UNL     1      27.672  12.951 -15.665  1.00  0.00     0.052 C 
HETATM   11  C12 UNL     1      29.029  13.541 -15.570  1.00  0.00     0.013 C 
HETATM   12  C13 UNL     1      28.954  14.259 -14.202  1.00  0.00     0.011 C 
HETATM   13  C14 UNL     1      27.706  15.037 -14.389  1.00  0.00    -0.033 C 
HETATM   14  C15 UNL     1      27.961  15.797 -15.713  1.00  0.00     0.016 C 
HETATM   15  C16 UNL     1      27.152  15.935 -13.418  1.00  0.00     0.032 C 
HETATM   16  S1  UNL     1      25.065  17.510 -13.024  1.00  0.00     0.043 S 
HETATM   17  O3  UNL     1      24.880  18.392 -14.449  1.00  0.00    -0.256 OA
HETATM   18  C17 UNL     1      26.144  18.226 -11.884  1.00  0.00     0.107 C 
HETATM   19  C20 UNL     1      27.373  17.516 -11.504  1.00  0.00     0.155 C 
ENDROOT
BRANCH  18  20
HETATM   20  C18 UNL     1      26.446  19.640 -12.357  1.00  0.00     0.192 C 
BRANCH  20  21
HETATM   21  O4  UNL     1      25.358  20.452 -12.475  1.00  0.00    -0.399 OA
ATOM     22  H4  UNL     1      24.781  20.461 -11.721  1.00  0.00     0.209 HD
ENDBRANCH  20  21
ENDBRANCH  18  20
BRANCH  18  23
HETATM   23  C19 UNL     1      25.347  18.425 -10.586  1.00  0.00     0.192 C 
BRANCH  23  24
HETATM   24  O5  UNL     1      23.993  18.206 -10.812  1.00  0.00    -0.399 OA
ATOM     25  H5  UNL     1      23.844  17.308 -11.084  1.00  0.00     0.209 HD
ENDBRANCH  23  24
ENDBRANCH  18  23
BRANCH  19  26
HETATM   26  O6  UNL     1      27.594  17.496 -10.118  1.00  0.00    -0.393 OA
ATOM     27  H6  UNL     1      26.816  17.852  -9.704  1.00  0.00     0.210 HD
ENDBRANCH  19  26
BRANCH   5  28
HETATM   28  O1  UNL     1      23.795  15.549 -11.923  1.00  0.00    -0.390 OA
ATOM     29  H1  UNL     1      23.117  14.906 -12.093  1.00  0.00     0.210 HD
ENDBRANCH   5  28
BRANCH  10  30
HETATM   30  C11 UNL     1      27.148  12.731 -17.027  1.00  0.00     0.236 C 
HETATM   31  O2  UNL     1      27.799  13.014 -17.991  1.00  0.00    -0.306 OA
ENDBRANCH  10  30
TORSDOF 7
ENDMDL
MODEL 4
REMARK VINA RESULT: -6.470862284      2.453      5.395
REMARK  7 active torsions:
REMARK  status: ('A' for Active; 'I' for Inactive)
REMARK    1  A    between atoms: C5_5  and  O1_6 
REMARK    2  A    between atoms: C10_12  and  C11_13 
REMARK    3  A    between atoms: C17_22  and  C18_23 
REMARK    4  A    between atoms: C17_22  and  C19_26 
REMARK    5  A    between atoms: C18_23  and  O4_24 
REMARK    6  A    between atoms: C19_26  and  O5_27 
REMARK    7  A    between atoms: C20_29  and  O6_30 
ROOT
HETATM    1  C1  UNL     1      26.695  16.805 -15.788  1.00  0.00     0.023 C 
HETATM    2  C2  UNL     1      26.026  17.622 -14.667  1.00  0.00     0.007 C 
HETATM    3  C3  UNL     1      26.488  19.019 -14.895  1.00  0.00    -0.016 C 
HETATM    4  C4  UNL     1      26.568  19.920 -13.956  1.00  0.00     0.003 C 
HETATM    5  C5  UNL     1      26.194  19.584 -12.582  1.00  0.00     0.162 C 
HETATM    6  C6  UNL     1      25.809  18.179 -12.331  1.00  0.00     0.073 C 
HETATM    7  C7  UNL     1      26.158  17.854 -10.895  1.00  0.00     0.027 C 
HETATM    8  C8  UNL     1      27.592  17.610 -10.624  1.00  0.00     0.008 C 
HETATM    9  C9  UNL     1      28.354  17.354 -11.861  1.00  0.00     0.005 C 
HETATM   10  C10 UNL     1      29.659  16.614 -11.686  1.00  0.00     0.052 C 
HETATM   11  C12 UNL     1      29.589  15.510 -12.674  1.00  0.00     0.013 C 
HETATM   12  C13 UNL     1      28.627  16.104 -13.728  1.00  0.00     0.011 C 
HETATM   13  C14 UNL     1      27.509  16.521 -12.848  1.00  0.00    -0.033 C 
HETATM   14  C15 UNL     1      27.182  15.230 -12.059  1.00  0.00     0.016 C 
HETATM   15  C16 UNL     1      26.292  17.126 -13.306  1.00  0.00     0.032 C 
HETATM   16  S1  UNL     1      24.027  18.144 -12.396  1.00  0.00     0.043 S 
HETATM   17  O3  UNL     1      23.453  17.040 -11.259  1.00  0.00    -0.256 OA
HETATM   18  C17 UNL     1      23.528  17.815 -14.015  1.00  0.00     0.107 C 
HETATM   19  C20 UNL     1      24.537  17.501 -15.036  1.00  0.00     0.155 C 
ENDROOT
BRANCH  18  20
HETATM   20  C18 UNL     1      22.447  16.746 -13.958  1.00  0.00     0.192 C 
BRANCH  20  21
HETATM   21  O4  UNL     1      21.320  17.102 -13.279  1.00  0.00    -0.399 OA
ATOM     22  H4  UNL     1      21.472  17.481 -12.422  1.00  0.00     0.209 HD
ENDBRANCH  20  21
ENDBRANCH  18  20
BRANCH  18  23
HETATM   23  C19 UNL     1      22.793  19.069 -14.513  1.00  0.00     0.192 C 
BRANCH  23  24
HETATM   24  O5  UNL     1      22.538  19.933 -13.454  1.00  0.00    -0.399 OA
ATOM     25  H5  UNL     1      22.995  19.643 -12.673  1.00  0.00     0.209 HD
ENDBRANCH  23  24
ENDBRANCH  18  23
BRANCH  19  26
HETATM   26  O6  UNL     1      24.348  18.206 -16.235  1.00  0.00    -0.393 OA
ATOM     27  H6  UNL     1      24.864  19.002 -16.179  1.00  0.00     0.210 HD
ENDBRANCH  19  26
BRANCH   5  28
HETATM   28  O1  UNL     1      25.129  20.476 -12.271  1.00  0.00    -0.390 OA
ATOM     29  H1  UNL     1      25.438  20.966 -11.517  1.00  0.00     0.210 HD
ENDBRANCH   5  28
BRANCH  10  30
HETATM   30  C11 UNL     1      29.952  16.227 -10.292  1.00  0.00     0.236 C 
HETATM   31  O2  UNL     1      31.077  16.201  -9.883  1.00  0.00    -0.306 OA
ENDBRANCH  10  30
TORSDOF 7
ENDMDL
MODEL 5
REMARK VINA RESULT: -6.374122705      2.077      6.102
REMARK  7 active torsions:
REMARK  status: ('A' for Active; 'I' for Inactive)
REMARK    1  A    between atoms: C5_5  and  O1_6 
REMARK    2  A    between atoms: C10_12  and  C11_13 
REMARK    3  A    between atoms: C17_22  and  C18_23 
REMARK    4  A    between atoms: C17_22  and  C19_26 
REMARK    5  A    between atoms: C18_23  and  O4_24 
REMARK    6  A    between atoms: C19_26  and  O5_27 
REMARK    7  A    between atoms: C20_29  and  O6_30 
ROOT
HETATM    1  C1  UNL     1      23.584  15.521 -14.927  1.00  0.00     0.023 C 
HETATM    2  C2  UNL     1      25.034  15.803 -14.489  1.00  0.00     0.007 C 
HETATM    3  C3  UNL     1      25.826  14.687 -15.076  1.00  0.00    -0.016 C 
HETATM    4  C4  UNL     1      26.957  14.264 -14.585  1.00  0.00     0.003 C 
HETATM    5  C5  UNL     1      27.520  14.891 -13.388  1.00  0.00     0.162 C 
HETATM    6  C6  UNL     1      26.702  15.948 -12.755  1.00  0.00     0.073 C 
HETATM    7  C7  UNL     1      27.020  15.953 -11.276  1.00  0.00     0.027 C 
HETATM    8  C8  UNL     1      26.403  14.866 -10.484  1.00  0.00     0.008 C 
HETATM    9  C9  UNL     1      25.296  14.213 -11.208  1.00  0.00     0.005 C 
HETATM   10  C10 UNL     1      24.296  13.474 -10.351  1.00  0.00     0.052 C 
HETATM   11  C12 UNL     1      22.978  13.984 -10.801  1.00  0.00     0.013 C 
HETATM   12  C13 UNL     1      23.298  14.412 -12.253  1.00  0.00     0.011 C 
HETATM   13  C14 UNL     1      24.493  15.256 -12.013  1.00  0.00    -0.033 C 
HETATM   14  C15 UNL     1      24.006  16.259 -10.941  1.00  0.00     0.016 C 
HETATM   15  C16 UNL     1      25.214  15.958 -13.036  1.00  0.00     0.032 C 
HETATM   16  S1  UNL     1      27.340  17.494 -13.373  1.00  0.00     0.043 S 
HETATM   17  O3  UNL     1      27.267  18.652 -12.151  1.00  0.00    -0.256 OA
HETATM   18  C17 UNL     1      26.483  17.924 -14.807  1.00  0.00     0.107 C 
HETATM   19  C20 UNL     1      25.341  17.109 -15.243  1.00  0.00     0.155 C 
ENDROOT
BRANCH  18  20
HETATM   20  C18 UNL     1      26.103  19.394 -14.696  1.00  0.00     0.192 C 
BRANCH  20  21
HETATM   21  O4  UNL     1      27.149  20.265 -14.762  1.00  0.00    -0.399 OA
ATOM     22  H4  UNL     1      27.093  21.004 -14.167  1.00  0.00     0.209 HD
ENDBRANCH  20  21
ENDBRANCH  18  20
BRANCH  18  23
HETATM   23  C19 UNL     1      27.500  17.884 -15.958  1.00  0.00     0.192 C 
BRANCH  23  24
HETATM   24  O5  UNL     1      28.788  17.733 -15.460  1.00  0.00    -0.399 OA
ATOM     25  H5  UNL     1      28.950  16.825 -15.231  1.00  0.00     0.209 HD
ENDBRANCH  23  24
ENDBRANCH  18  23
BRANCH  19  26
HETATM   26  O6  UNL     1      25.372  16.801 -16.612  1.00  0.00    -0.393 OA
ATOM     27  H6  UNL     1      24.480  16.862 -16.935  1.00  0.00     0.210 HD
ENDBRANCH  19  26
BRANCH   5  28
HETATM   28  O1  UNL     1      28.783  15.397 -13.807  1.00  0.00    -0.390 OA
ATOM     29  H1  UNL     1      29.419  14.897 -13.308  1.00  0.00     0.210 HD
ENDBRANCH   5  28
BRANCH  10  30
HETATM   30  C11 UNL     1      24.568  13.554  -8.902  1.00  0.00     0.236 C 
HETATM   31  O2  UNL     1      23.805  14.103  -8.161  1.00  0.00    -0.306 OA
ENDBRANCH  10  30
TORSDOF 7
ENDMDL
