MODEL 1
REMARK VINA RESULT: -7.749137979      0.000      0.000
REMARK  8 active torsions:
REMARK  status: ('A' for Active; 'I' for Inactive)
REMARK    1  A    between atoms: C1_2  and  C2_3 
REMARK       I    between atoms: C1_2  and  N1_16 
REMARK    2  A    between atoms: C2_3  and  C3_4 
REMARK    3  A    between atoms: C4_6  and  C5_7 
REMARK    4  A    between atoms: N1_16  and  C13_18 
REMARK    5  A    between atoms: C14_19  and  O4_20 
REMARK    6  A    between atoms: C15_22  and  O5_23 
REMARK    7  A    between atoms: C16_25  and  C17_26 
REMARK    8  A    between atoms: C17_26  and  O6_27 
ROOT
HETATM    1  O1  UNL     1     -29.286 -12.490  -2.890  1.00  0.00    -0.273 OA
HETATM    2  C1  UNL     1     -28.144 -12.839  -3.245  1.00  0.00     0.221 C 
HETATM    3  N1  UNL     1     -27.905 -14.196  -3.533  1.00  0.00    -0.339 N 
ATOM      4  H1  UNL     1     -26.965 -14.470  -3.820  1.00  0.00     0.164 HD
ENDROOT
BRANCH   3   5
HETATM    5  C13 UNL     1     -28.921 -15.228  -3.442  1.00  0.00     0.267 C 
HETATM    6  C14 UNL     1     -28.985 -15.736  -2.007  1.00  0.00     0.189 C 
HETATM    7  C15 UNL     1     -29.138 -17.220  -1.927  1.00  0.00     0.182 C 
HETATM    8  C16 UNL     1     -30.013 -17.749  -3.040  1.00  0.00     0.197 C 
HETATM    9  O7  UNL     1     -29.239 -17.960  -4.179  1.00  0.00    -0.264 OA
HETATM   10  S1  UNL     1     -28.387 -16.564  -4.498  1.00  0.00     0.290 S 
HETATM   11  O8  UNL     1     -28.670 -16.180  -5.935  1.00  0.00    -0.196 OA
HETATM   12  O9  UNL     1     -26.904 -16.793  -4.380  1.00  0.00    -0.196 OA
BRANCH   6  13
HETATM   13  O4  UNL     1     -30.071 -15.101  -1.398  1.00  0.00    -0.390 OA
ATOM     14  H4  UNL     1     -30.689 -15.781  -1.158  1.00  0.00     0.210 HD
ENDBRANCH   6  13
BRANCH   7  15
HETATM   15  O5  UNL     1     -27.936 -17.909  -1.921  1.00  0.00    -0.390 OA
ATOM     16  H5  UNL     1     -27.360 -17.685  -2.642  1.00  0.00     0.210 HD
ENDBRANCH   7  15
BRANCH   8  17
HETATM   17  C17 UNL     1     -30.616 -19.096  -2.667  1.00  0.00     0.200 C 
BRANCH  17  18
HETATM   18  O6  UNL     1     -31.223 -19.686  -3.756  1.00  0.00    -0.398 OA
ATOM     19  H6  UNL     1     -32.159 -19.521  -3.758  1.00  0.00     0.209 HD
ENDBRANCH  17  18
ENDBRANCH   8  17
ENDBRANCH   3   5
BRANCH   2  20
HETATM   20  C2  UNL     1     -27.074 -11.851  -3.357  1.00  0.00     0.142 C 
BRANCH  20  21
HETATM   21  C3  UNL     1     -25.883 -12.144  -2.493  1.00  0.00     0.200 C 
HETATM   22  O2  UNL     1     -26.152 -12.950  -1.414  1.00  0.00    -0.368 OA
HETATM   23  C4  UNL     1     -24.855 -13.172  -0.911  1.00  0.00     0.162 C 
HETATM   24  C11 UNL     1     -24.054 -13.606  -2.146  1.00  0.00     0.118 C 
HETATM   25  C12 UNL     1     -24.805 -12.857  -3.202  1.00  0.00     0.158 C 
HETATM   26  O3  UNL     1     -24.502 -12.900  -4.380  1.00  0.00    -0.295 OA
BRANCH  23  27
HETATM   27  C5  UNL     1     -24.841 -14.218   0.138  1.00  0.00    -0.029 A 
HETATM   28  C6  UNL     1     -25.616 -15.338  -0.053  1.00  0.00     0.010 A 
HETATM   29  C7  UNL     1     -25.618 -16.329   0.920  1.00  0.00     0.001 A 
HETATM   30  C8  UNL     1     -24.856 -16.215   2.081  1.00  0.00     0.000 A 
HETATM   31  C9  UNL     1     -24.094 -15.095   2.251  1.00  0.00     0.001 A 
HETATM   32  C10 UNL     1     -24.082 -14.092   1.282  1.00  0.00     0.010 A 
ENDBRANCH  23  27
ENDBRANCH  20  21
ENDBRANCH   2  20
TORSDOF 8
ENDMDL
MODEL 2
REMARK VINA RESULT: -7.649802218      3.917      8.513
REMARK  8 active torsions:
REMARK  status: ('A' for Active; 'I' for Inactive)
REMARK    1  A    between atoms: C1_2  and  C2_3 
REMARK       I    between atoms: C1_2  and  N1_16 
REMARK    2  A    between atoms: C2_3  and  C3_4 
REMARK    3  A    between atoms: C4_6  and  C5_7 
REMARK    4  A    between atoms: N1_16  and  C13_18 
REMARK    5  A    between atoms: C14_19  and  O4_20 
REMARK    6  A    between atoms: C15_22  and  O5_23 
REMARK    7  A    between atoms: C16_25  and  C17_26 
REMARK    8  A    between atoms: C17_26  and  O6_27 
ROOT
HETATM    1  O1  UNL     1     -23.973 -13.662  -5.991  1.00  0.00    -0.273 OA
HETATM    2  C1  UNL     1     -23.848 -13.579  -4.753  1.00  0.00     0.221 C 
HETATM    3  N1  UNL     1     -23.337 -12.391  -4.197  1.00  0.00    -0.339 N 
ATOM      4  H1  UNL     1     -23.239 -12.337  -3.184  1.00  0.00     0.164 HD
ENDROOT
BRANCH   3   5
HETATM    5  C13 UNL     1     -22.942 -11.240  -4.987  1.00  0.00     0.267 C 
HETATM    6  C14 UNL     1     -21.506 -11.430  -5.456  1.00  0.00     0.189 C 
HETATM    7  C15 UNL     1     -20.699 -10.175  -5.368  1.00  0.00     0.182 C 
HETATM    8  C16 UNL     1     -21.531  -8.957  -5.696  1.00  0.00     0.197 C 
HETATM    9  O7  UNL     1     -22.197  -8.526  -4.551  1.00  0.00    -0.264 OA
HETATM   10  S1  UNL     1     -23.005  -9.828  -3.897  1.00  0.00     0.290 S 
HETATM   11  O8  UNL     1     -24.453  -9.421  -3.724  1.00  0.00    -0.196 OA
HETATM   12  O9  UNL     1     -22.472 -10.169  -2.531  1.00  0.00    -0.196 OA
BRANCH   6  13
HETATM   13  O4  UNL     1     -21.565 -11.878  -6.778  1.00  0.00    -0.390 OA
ATOM     14  H4  UNL     1     -22.320 -11.462  -7.178  1.00  0.00     0.210 HD
ENDBRANCH   6  13
BRANCH   7  15
HETATM   15  O5  UNL     1     -20.079  -9.991  -4.143  1.00  0.00    -0.390 OA
ATOM     16  H5  UNL     1     -20.679  -9.958  -3.408  1.00  0.00     0.210 HD
ENDBRANCH   7  15
BRANCH   8  17
HETATM   17  C17 UNL     1     -20.650  -7.800  -6.149  1.00  0.00     0.200 C 
BRANCH  17  18
HETATM   18  O6  UNL     1     -21.340  -6.949  -6.987  1.00  0.00    -0.398 OA
ATOM     19  H6  UNL     1     -20.908  -6.105  -7.049  1.00  0.00     0.209 HD
ENDBRANCH  17  18
ENDBRANCH   8  17
ENDBRANCH   3   5
BRANCH   2  20
HETATM   20  C2  UNL     1     -24.227 -14.702  -3.899  1.00  0.00     0.142 C 
BRANCH  20  21
HETATM   21  C3  UNL     1     -25.663 -14.675  -3.463  1.00  0.00     0.200 C 
HETATM   22  O2  UNL     1     -26.433 -15.680  -3.993  1.00  0.00    -0.368 OA
HETATM   23  C4  UNL     1     -27.641 -15.494  -3.292  1.00  0.00     0.162 C 
HETATM   24  C11 UNL     1     -27.203 -15.412  -1.824  1.00  0.00     0.118 C 
HETATM   25  C12 UNL     1     -25.836 -14.831  -2.007  1.00  0.00     0.158 C 
HETATM   26  O3  UNL     1     -25.098 -14.578  -1.073  1.00  0.00    -0.295 OA
BRANCH  23  27
HETATM   27  C5  UNL     1     -28.586 -16.614  -3.512  1.00  0.00    -0.029 A 
HETATM   28  C6  UNL     1     -28.843 -17.462  -2.460  1.00  0.00     0.010 A 
HETATM   29  C7  UNL     1     -29.724 -18.519  -2.648  1.00  0.00     0.001 A 
HETATM   30  C8  UNL     1     -30.351 -18.740  -3.872  1.00  0.00     0.000 A 
HETATM   31  C9  UNL     1     -30.082 -17.886  -4.904  1.00  0.00     0.001 A 
HETATM   32  C10 UNL     1     -29.199 -16.821  -4.730  1.00  0.00     0.010 A 
ENDBRANCH  23  27
ENDBRANCH  20  21
ENDBRANCH   2  20
TORSDOF 8
ENDMDL
MODEL 3
REMARK VINA RESULT: -7.561886300      2.271      3.341
REMARK  8 active torsions:
REMARK  status: ('A' for Active; 'I' for Inactive)
REMARK    1  A    between atoms: C1_2  and  C2_3 
REMARK       I    between atoms: C1_2  and  N1_16 
REMARK    2  A    between atoms: C2_3  and  C3_4 
REMARK    3  A    between atoms: C4_6  and  C5_7 
REMARK    4  A    between atoms: N1_16  and  C13_18 
REMARK    5  A    between atoms: C14_19  and  O4_20 
REMARK    6  A    between atoms: C15_22  and  O5_23 
REMARK    7  A    between atoms: C16_25  and  C17_26 
REMARK    8  A    between atoms: C17_26  and  O6_27 
ROOT
HETATM    1  O1  UNL     1     -29.449 -12.527  -2.811  1.00  0.00    -0.273 OA
HETATM    2  C1  UNL     1     -28.318 -12.813  -3.251  1.00  0.00     0.221 C 
HETATM    3  N1  UNL     1     -28.038 -14.150  -3.591  1.00  0.00    -0.339 N 
ATOM      4  H1  UNL     1     -27.109 -14.371  -3.949  1.00  0.00     0.164 HD
ENDROOT
BRANCH   3   5
HETATM    5  C13 UNL     1     -28.997 -15.231  -3.461  1.00  0.00     0.267 C 
HETATM    6  C14 UNL     1     -29.013 -15.707  -2.014  1.00  0.00     0.189 C 
HETATM    7  C15 UNL     1     -29.087 -17.195  -1.898  1.00  0.00     0.182 C 
HETATM    8  C16 UNL     1     -29.949 -17.794  -2.984  1.00  0.00     0.197 C 
HETATM    9  O7  UNL     1     -29.182 -17.992  -4.130  1.00  0.00    -0.264 OA
HETATM   10  S1  UNL     1     -28.409 -16.562  -4.494  1.00  0.00     0.290 S 
HETATM   11  O8  UNL     1     -28.732 -16.228  -5.935  1.00  0.00    -0.196 OA
HETATM   12  O9  UNL     1     -26.914 -16.710  -4.395  1.00  0.00    -0.196 OA
BRANCH   6  13
HETATM   13  O4  UNL     1     -30.122 -15.115  -1.403  1.00  0.00    -0.390 OA
ATOM     14  H4  UNL     1     -30.732 -15.815  -1.200  1.00  0.00     0.210 HD
ENDBRANCH   6  13
BRANCH   7  15
HETATM   15  O5  UNL     1     -27.851 -17.820  -1.895  1.00  0.00    -0.390 OA
ATOM     16  H5  UNL     1     -27.774 -18.519  -1.256  1.00  0.00     0.210 HD
ENDBRANCH   7  15
BRANCH   8  17
HETATM   17  C17 UNL     1     -30.476 -19.162  -2.571  1.00  0.00     0.200 C 
BRANCH  17  18
HETATM   18  O6  UNL     1     -31.175 -19.756  -3.601  1.00  0.00    -0.398 OA
ATOM     19  H6  UNL     1     -31.168 -19.210  -4.378  1.00  0.00     0.209 HD
ENDBRANCH  17  18
ENDBRANCH   8  17
ENDBRANCH   3   5
BRANCH   2  20
HETATM   20  C2  UNL     1     -27.305 -11.773  -3.408  1.00  0.00     0.142 C 
BRANCH  20  21
HETATM   21  C3  UNL     1     -25.981 -12.117  -2.790  1.00  0.00     0.200 C 
HETATM   22  O2  UNL     1     -25.160 -12.868  -3.594  1.00  0.00    -0.368 OA
HETATM   23  C4  UNL     1     -23.976 -12.884  -2.832  1.00  0.00     0.162 C 
HETATM   24  C11 UNL     1     -23.744 -11.408  -2.486  1.00  0.00     0.118 C 
HETATM   25  C12 UNL     1     -25.164 -10.935  -2.462  1.00  0.00     0.158 C 
HETATM   26  O3  UNL     1     -25.469  -9.784  -2.210  1.00  0.00    -0.295 OA
BRANCH  23  27
HETATM   27  C5  UNL     1     -22.836 -13.447  -3.595  1.00  0.00    -0.029 A 
HETATM   28  C6  UNL     1     -21.563 -13.091  -3.213  1.00  0.00     0.010 A 
HETATM   29  C7  UNL     1     -20.482 -13.605  -3.917  1.00  0.00     0.001 A 
HETATM   30  C8  UNL     1     -20.656 -14.469  -4.996  1.00  0.00     0.000 A 
HETATM   31  C9  UNL     1     -21.928 -14.809  -5.359  1.00  0.00     0.001 A 
HETATM   32  C10 UNL     1     -23.023 -14.300  -4.661  1.00  0.00     0.010 A 
ENDBRANCH  23  27
ENDBRANCH  20  21
ENDBRANCH   2  20
TORSDOF 8
ENDMDL
MODEL 4
REMARK VINA RESULT: -7.453258245      3.060      7.647
REMARK  8 active torsions:
REMARK  status: ('A' for Active; 'I' for Inactive)
REMARK    1  A    between atoms: C1_2  and  C2_3 
REMARK       I    between atoms: C1_2  and  N1_16 
REMARK    2  A    between atoms: C2_3  and  C3_4 
REMARK    3  A    between atoms: C4_6  and  C5_7 
REMARK    4  A    between atoms: N1_16  and  C13_18 
REMARK    5  A    between atoms: C14_19  and  O4_20 
REMARK    6  A    between atoms: C15_22  and  O5_23 
REMARK    7  A    between atoms: C16_25  and  C17_26 
REMARK    8  A    between atoms: C17_26  and  O6_27 
ROOT
HETATM    1  O1  UNL     1     -23.363 -13.353  -0.958  1.00  0.00    -0.273 OA
HETATM    2  C1  UNL     1     -24.239 -13.655  -1.791  1.00  0.00     0.221 C 
HETATM    3  N1  UNL     1     -23.953 -13.515  -3.162  1.00  0.00    -0.339 N 
ATOM      4  H1  UNL     1     -24.679 -13.764  -3.834  1.00  0.00     0.164 HD
ENDROOT
BRANCH   3   5
HETATM    5  C13 UNL     1     -22.683 -13.034  -3.673  1.00  0.00     0.267 C 
HETATM    6  C14 UNL     1     -22.696 -11.511  -3.679  1.00  0.00     0.189 C 
HETATM    7  C15 UNL     1     -22.076 -10.934  -4.910  1.00  0.00     0.182 C 
HETATM    8  C16 UNL     1     -20.903 -11.761  -5.380  1.00  0.00     0.197 C 
HETATM    9  O7  UNL     1     -21.361 -12.802  -6.184  1.00  0.00    -0.264 OA
HETATM   10  S1  UNL     1     -22.560 -13.610  -5.358  1.00  0.00     0.290 S 
HETATM   11  O8  UNL     1     -22.185 -15.077  -5.336  1.00  0.00    -0.196 OA
HETATM   12  O9  UNL     1     -23.882 -13.499  -6.070  1.00  0.00    -0.196 OA
BRANCH   6  13
HETATM   13  O4  UNL     1     -21.999 -11.094  -2.542  1.00  0.00    -0.390 OA
ATOM     14  H4  UNL     1     -21.666 -10.223  -2.725  1.00  0.00     0.210 HD
ENDBRANCH   6  13
BRANCH   7  15
HETATM   15  O5  UNL     1     -22.965 -10.759  -5.957  1.00  0.00    -0.390 OA
ATOM     16  H5  UNL     1     -23.323  -9.882  -6.017  1.00  0.00     0.210 HD
ENDBRANCH   7  15
BRANCH   8  17
HETATM   17  C17 UNL     1     -19.958 -10.930  -6.239  1.00  0.00     0.200 C 
BRANCH  17  18
HETATM   18  O6  UNL     1     -20.428  -9.641  -6.388  1.00  0.00    -0.398 OA
ATOM     19  H6  UNL     1     -19.968  -9.041  -5.813  1.00  0.00     0.209 HD
ENDBRANCH  17  18
ENDBRANCH   8  17
ENDBRANCH   3   5
BRANCH   2  20
HETATM   20  C2  UNL     1     -25.540 -14.146  -1.345  1.00  0.00     0.142 C 
BRANCH  20  21
HETATM   21  C3  UNL     1     -26.527 -14.348  -2.457  1.00  0.00     0.200 C 
HETATM   22  O2  UNL     1     -27.060 -15.612  -2.518  1.00  0.00    -0.368 OA
HETATM   23  C4  UNL     1     -28.037 -15.446  -3.519  1.00  0.00     0.162 C 
HETATM   24  C11 UNL     1     -28.807 -14.196  -3.074  1.00  0.00     0.118 C 
HETATM   25  C12 UNL     1     -27.710 -13.474  -2.356  1.00  0.00     0.158 C 
HETATM   26  O3  UNL     1     -27.871 -12.388  -1.830  1.00  0.00    -0.295 OA
BRANCH  23  27
HETATM   27  C5  UNL     1     -28.931 -16.625  -3.619  1.00  0.00    -0.029 A 
HETATM   28  C6  UNL     1     -29.231 -17.309  -2.465  1.00  0.00     0.010 A 
HETATM   29  C7  UNL     1     -30.065 -18.417  -2.538  1.00  0.00     0.001 A 
HETATM   30  C8  UNL     1     -30.602 -18.850  -3.749  1.00  0.00     0.000 A 
HETATM   31  C9  UNL     1     -30.290 -18.156  -4.883  1.00  0.00     0.001 A 
HETATM   32  C10 UNL     1     -29.454 -17.041  -4.824  1.00  0.00     0.010 A 
ENDBRANCH  23  27
ENDBRANCH  20  21
ENDBRANCH   2  20
TORSDOF 8
ENDMDL
MODEL 5
REMARK VINA RESULT: -7.408357446      2.196      4.083
REMARK  8 active torsions:
REMARK  status: ('A' for Active; 'I' for Inactive)
REMARK    1  A    between atoms: C1_2  and  C2_3 
REMARK       I    between atoms: C1_2  and  N1_16 
REMARK    2  A    between atoms: C2_3  and  C3_4 
REMARK    3  A    between atoms: C4_6  and  C5_7 
REMARK    4  A    between atoms: N1_16  and  C13_18 
REMARK    5  A    between atoms: C14_19  and  O4_20 
REMARK    6  A    between atoms: C15_22  and  O5_23 
REMARK    7  A    between atoms: C16_25  and  C17_26 
REMARK    8  A    between atoms: C17_26  and  O6_27 
ROOT
HETATM    1  O1  UNL     1     -28.942 -12.627  -2.804  1.00  0.00    -0.273 OA
HETATM    2  C1  UNL     1     -27.839 -13.086  -3.157  1.00  0.00     0.221 C 
HETATM    3  N1  UNL     1     -27.741 -14.453  -3.479  1.00  0.00    -0.339 N 
ATOM      4  H1  UNL     1     -26.832 -14.817  -3.765  1.00  0.00     0.164 HD
ENDROOT
BRANCH   3   5
HETATM    5  C13 UNL     1     -28.861 -15.373  -3.425  1.00  0.00     0.267 C 
HETATM    6  C14 UNL     1     -28.966 -15.945  -2.017  1.00  0.00     0.189 C 
HETATM    7  C15 UNL     1     -29.277 -17.407  -2.010  1.00  0.00     0.182 C 
HETATM    8  C16 UNL     1     -30.214 -17.780  -3.135  1.00  0.00     0.197 C 
HETATM    9  O7  UNL     1     -29.478 -18.014  -4.295  1.00  0.00    -0.264 OA
HETATM   10  S1  UNL     1     -28.484 -16.703  -4.555  1.00  0.00     0.290 S 
HETATM   11  O8  UNL     1     -28.737 -16.217  -5.967  1.00  0.00    -0.196 OA
HETATM   12  O9  UNL     1     -27.033 -17.094  -4.471  1.00  0.00    -0.196 OA
BRANCH   6  13
HETATM   13  O4  UNL     1     -29.972 -15.231  -1.361  1.00  0.00    -0.390 OA
ATOM     14  H4  UNL     1     -30.780 -15.713  -1.486  1.00  0.00     0.210 HD
ENDBRANCH   6  13
BRANCH   7  15
HETATM   15  O5  UNL     1     -28.157 -18.220  -2.057  1.00  0.00    -0.390 OA
ATOM     16  H5  UNL     1     -27.528 -17.972  -2.725  1.00  0.00     0.210 HD
ENDBRANCH   7  15
BRANCH   8  17
HETATM   17  C17 UNL     1     -30.956 -19.072  -2.821  1.00  0.00     0.200 C 
BRANCH  17  18
HETATM   18  O6  UNL     1     -31.331 -19.722  -3.979  1.00  0.00    -0.398 OA
ATOM     19  H6  UNL     1     -32.222 -20.048  -3.915  1.00  0.00     0.209 HD
ENDBRANCH  17  18
ENDBRANCH   8  17
ENDBRANCH   3   5
BRANCH   2  20
HETATM   20  C2  UNL     1     -26.669 -12.215  -3.233  1.00  0.00     0.142 C 
BRANCH  20  21
HETATM   21  C3  UNL     1     -25.364 -12.953  -3.285  1.00  0.00     0.200 C 
HETATM   22  O2  UNL     1     -24.535 -12.565  -4.307  1.00  0.00    -0.368 OA
HETATM   23  C4  UNL     1     -23.368 -13.291  -4.000  1.00  0.00     0.162 C 
HETATM   24  C11 UNL     1     -23.125 -12.984  -2.517  1.00  0.00     0.118 C 
HETATM   25  C12 UNL     1     -24.540 -12.770  -2.076  1.00  0.00     0.158 C 
HETATM   26  O3  UNL     1     -24.837 -12.501  -0.927  1.00  0.00    -0.295 OA
BRANCH  23  27
HETATM   27  C5  UNL     1     -22.218 -12.868  -4.835  1.00  0.00    -0.029 A 
HETATM   28  C6  UNL     1     -22.439 -11.928  -5.814  1.00  0.00     0.010 A 
HETATM   29  C7  UNL     1     -21.375 -11.521  -6.608  1.00  0.00     0.001 A 
HETATM   30  C8  UNL     1     -20.094 -12.040  -6.436  1.00  0.00     0.000 A 
HETATM   31  C9  UNL     1     -19.896 -12.973  -5.458  1.00  0.00     0.001 A 
HETATM   32  C10 UNL     1     -20.955 -13.392  -4.654  1.00  0.00     0.010 A 
ENDBRANCH  23  27
ENDBRANCH  20  21
ENDBRANCH   2  20
TORSDOF 8
ENDMDL
