MODEL 1
REMARK VINA RESULT: -5.733167586      0.000      0.000
REMARK  2 active torsions:
REMARK  status: ('A' for Active; 'I' for Inactive)
REMARK       I    between atoms: N2_3  and  C2_4 
REMARK    1  A    between atoms: C2_4  and  O2_6 
REMARK    2  A    between atoms: O2_6  and  C3_7 
ROOT
HETATM    1  C1  UNL     1     -15.376  -5.662  25.533  1.00  0.00     0.140 C 
HETATM    2  N1  UNL     1     -14.195  -4.941  25.094  1.00  0.00    -0.196 NA
HETATM    3  N2  UNL     1     -13.070  -5.881  24.950  1.00  0.00    -0.227 N 
HETATM    4  C2  UNL     1     -12.725  -7.007  24.159  1.00  0.00     0.380 C 
HETATM    5  O1  UNL     1     -11.609  -7.602  24.318  1.00  0.00    -0.237 OA
HETATM    6  C7  UNL     1     -13.040  -4.866  25.872  1.00  0.00     0.131 A 
HETATM    7  C8  UNL     1     -12.197  -3.600  25.676  1.00  0.00     0.052 C 
HETATM    8  C9  UNL     1     -11.226  -3.755  26.855  1.00  0.00     0.010 C 
HETATM    9  C10 UNL     1     -12.216  -4.005  27.986  1.00  0.00     0.004 C 
HETATM   10  C11 UNL     1     -13.172  -4.987  27.342  1.00  0.00     0.052 C 
HETATM   11  C12 UNL     1     -12.386  -6.098  28.010  1.00  0.00     0.072 C 
HETATM   12  S1  UNL     1     -13.549  -7.062  29.055  1.00  0.00    -0.086 SA
HETATM   13  C13 UNL     1     -13.630  -5.838  30.351  1.00  0.00     0.187 C 
HETATM   14  O3  UNL     1     -14.541  -5.718  31.129  1.00  0.00    -0.285 OA
HETATM   15  C14 UNL     1     -12.413  -5.072  30.246  1.00  0.00     0.101 C 
HETATM   16  C15 UNL     1     -11.802  -5.113  28.930  1.00  0.00    -0.019 C 
HETATM   17  C16 UNL     1     -10.274  -5.228  29.014  1.00  0.00     0.017 C 
ENDROOT
BRANCH   4  18
HETATM   18  O2  UNL     1     -13.527  -7.560  23.170  1.00  0.00    -0.293 OA
BRANCH  18  19
HETATM   19  C3  UNL     1     -13.645  -7.084  21.859  1.00  0.00     0.061 C 
HETATM   20  C4  UNL     1     -14.055  -8.292  21.010  1.00  0.00     0.046 C 
HETATM   21  C5  UNL     1     -12.386  -6.494  21.305  1.00  0.00     0.046 C 
HETATM   22  C6  UNL     1     -14.778  -6.083  21.682  1.00  0.00     0.046 C 
ENDBRANCH  18  19
ENDBRANCH   4  18
TORSDOF 2
ENDMDL
MODEL 2
REMARK VINA RESULT: -5.199346204      1.439      1.796
REMARK  2 active torsions:
REMARK  status: ('A' for Active; 'I' for Inactive)
REMARK       I    between atoms: N2_3  and  C2_4 
REMARK    1  A    between atoms: C2_4  and  O2_6 
REMARK    2  A    between atoms: O2_6  and  C3_7 
ROOT
HETATM    1  C1  UNL     1     -15.251  -6.518  26.711  1.00  0.00     0.140 C 
HETATM    2  N1  UNL     1     -15.079  -5.316  25.915  1.00  0.00    -0.196 NA
HETATM    3  N2  UNL     1     -13.878  -5.451  25.073  1.00  0.00    -0.227 N 
HETATM    4  C2  UNL     1     -13.417  -6.268  24.009  1.00  0.00     0.380 C 
HETATM    5  O1  UNL     1     -12.263  -6.089  23.498  1.00  0.00    -0.237 OA
HETATM    6  C7  UNL     1     -13.962  -4.491  26.049  1.00  0.00     0.131 A 
HETATM    7  C8  UNL     1     -14.199  -3.010  25.729  1.00  0.00     0.052 C 
HETATM    8  C9  UNL     1     -12.878  -2.424  26.249  1.00  0.00     0.010 C 
HETATM    9  C10 UNL     1     -12.839  -3.043  27.640  1.00  0.00     0.004 C 
HETATM   10  C11 UNL     1     -13.253  -4.470  27.348  1.00  0.00     0.052 C 
HETATM   11  C12 UNL     1     -11.781  -4.831  27.330  1.00  0.00     0.072 C 
HETATM   12  S1  UNL     1     -11.504  -6.139  28.589  1.00  0.00    -0.086 SA
HETATM   13  C13 UNL     1     -11.593  -5.025  29.980  1.00  0.00     0.187 C 
HETATM   14  O3  UNL     1     -11.881  -5.347  31.103  1.00  0.00    -0.285 OA
HETATM   15  C14 UNL     1     -11.256  -3.721  29.462  1.00  0.00     0.101 C 
HETATM   16  C15 UNL     1     -11.480  -3.578  28.036  1.00  0.00    -0.019 C 
HETATM   17  C16 UNL     1     -10.354  -2.784  27.358  1.00  0.00     0.017 C 
ENDROOT
BRANCH   4  18
HETATM   18  O2  UNL     1     -14.138  -7.306  23.433  1.00  0.00    -0.293 OA
BRANCH  18  19
HETATM   19  C3  UNL     1     -14.746  -7.271  22.173  1.00  0.00     0.061 C 
HETATM   20  C4  UNL     1     -16.191  -7.731  22.391  1.00  0.00     0.046 C 
HETATM   21  C5  UNL     1     -14.094  -8.150  21.153  1.00  0.00     0.046 C 
HETATM   22  C6  UNL     1     -14.869  -5.864  21.604  1.00  0.00     0.046 C 
ENDBRANCH  18  19
ENDBRANCH   4  18
TORSDOF 2
ENDMDL
MODEL 3
REMARK VINA RESULT: -5.046666563      3.315      7.325
REMARK  2 active torsions:
REMARK  status: ('A' for Active; 'I' for Inactive)
REMARK       I    between atoms: N2_3  and  C2_4 
REMARK    1  A    between atoms: C2_4  and  O2_6 
REMARK    2  A    between atoms: O2_6  and  C3_7 
ROOT
HETATM    1  C1  UNL     1     -10.530  -6.058  29.184  1.00  0.00     0.140 C 
HETATM    2  N1  UNL     1     -10.372  -4.653  28.860  1.00  0.00    -0.196 NA
HETATM    3  N2  UNL     1     -11.246  -3.846  29.728  1.00  0.00    -0.227 N 
HETATM    4  C2  UNL     1     -11.387  -3.551  31.108  1.00  0.00     0.380 C 
HETATM    5  O1  UNL     1     -12.306  -2.769  31.521  1.00  0.00    -0.237 OA
HETATM    6  C7  UNL     1     -11.427  -3.881  28.369  1.00  0.00     0.131 A 
HETATM    7  C8  UNL     1     -11.020  -2.721  27.453  1.00  0.00     0.052 C 
HETATM    8  C9  UNL     1     -12.403  -2.321  26.920  1.00  0.00     0.010 C 
HETATM    9  C10 UNL     1     -12.919  -3.680  26.466  1.00  0.00     0.004 C 
HETATM   10  C11 UNL     1     -12.512  -4.563  27.627  1.00  0.00     0.052 C 
HETATM   11  C12 UNL     1     -13.918  -4.398  28.168  1.00  0.00     0.072 C 
HETATM   12  S1  UNL     1     -14.654  -6.072  28.347  1.00  0.00    -0.086 SA
HETATM   13  C13 UNL     1     -14.954  -6.287  26.602  1.00  0.00     0.187 C 
HETATM   14  O3  UNL     1     -15.058  -7.350  26.046  1.00  0.00    -0.285 OA
HETATM   15  C14 UNL     1     -15.036  -4.957  26.049  1.00  0.00     0.101 C 
HETATM   16  C15 UNL     1     -14.361  -3.947  26.842  1.00  0.00    -0.019 C 
HETATM   17  C16 UNL     1     -15.166  -2.642  26.909  1.00  0.00     0.017 C 
ENDROOT
BRANCH   4  18
HETATM   18  O2  UNL     1     -10.578  -4.057  32.116  1.00  0.00    -0.293 OA
BRANCH  18  19
HETATM   19  C3  UNL     1      -9.834  -3.293  33.022  1.00  0.00     0.061 C 
HETATM   20  C4  UNL     1      -8.522  -4.055  33.237  1.00  0.00     0.046 C 
HETATM   21  C5  UNL     1     -10.506  -3.081  34.343  1.00  0.00     0.046 C 
HETATM   22  C6  UNL     1      -9.411  -1.941  32.464  1.00  0.00     0.046 C 
ENDBRANCH  18  19
ENDBRANCH   4  18
TORSDOF 2
ENDMDL
MODEL 4
REMARK VINA RESULT: -5.004476401      2.734      6.488
REMARK  2 active torsions:
REMARK  status: ('A' for Active; 'I' for Inactive)
REMARK       I    between atoms: N2_3  and  C2_4 
REMARK    1  A    between atoms: C2_4  and  O2_6 
REMARK    2  A    between atoms: O2_6  and  C3_7 
ROOT
HETATM    1  C1  UNL     1     -14.371  -6.804  27.110  1.00  0.00     0.140 C 
HETATM    2  N1  UNL     1     -13.302  -6.545  26.164  1.00  0.00    -0.196 NA
HETATM    3  N2  UNL     1     -13.480  -5.207  25.575  1.00  0.00    -0.227 N 
HETATM    4  C2  UNL     1     -13.483  -3.854  26.002  1.00  0.00     0.380 C 
HETATM    5  O1  UNL     1     -13.680  -2.906  25.173  1.00  0.00    -0.237 OA
HETATM    6  C7  UNL     1     -13.546  -6.340  24.806  1.00  0.00     0.131 A 
HETATM    7  C8  UNL     1     -12.414  -6.764  23.864  1.00  0.00     0.052 C 
HETATM    8  C9  UNL     1     -13.146  -6.654  22.519  1.00  0.00     0.010 C 
HETATM    9  C10 UNL     1     -14.400  -7.461  22.830  1.00  0.00     0.004 C 
HETATM   10  C11 UNL     1     -14.758  -6.947  24.209  1.00  0.00     0.052 C 
HETATM   11  C12 UNL     1     -15.736  -6.003  23.537  1.00  0.00     0.072 C 
HETATM   12  S1  UNL     1     -17.404  -6.331  24.232  1.00  0.00    -0.086 SA
HETATM   13  C13 UNL     1     -17.653  -7.838  23.309  1.00  0.00     0.187 C 
HETATM   14  O3  UNL     1     -18.397  -8.728  23.630  1.00  0.00    -0.285 OA
HETATM   15  C14 UNL     1     -16.798  -7.736  22.152  1.00  0.00     0.101 C 
HETATM   16  C15 UNL     1     -15.679  -6.829  22.324  1.00  0.00    -0.019 C 
HETATM   17  C16 UNL     1     -15.422  -5.994  21.062  1.00  0.00     0.017 C 
ENDROOT
BRANCH   4  18
HETATM   18  O2  UNL     1     -13.281  -3.432  27.309  1.00  0.00    -0.293 OA
BRANCH  18  19
HETATM   19  C3  UNL     1     -12.039  -3.145  27.888  1.00  0.00     0.061 C 
HETATM   20  C4  UNL     1     -12.332  -2.765  29.343  1.00  0.00     0.046 C 
HETATM   21  C5  UNL     1     -11.296  -2.028  27.224  1.00  0.00     0.046 C 
HETATM   22  C6  UNL     1     -11.124  -4.358  27.981  1.00  0.00     0.046 C 
ENDBRANCH  18  19
ENDBRANCH   4  18
TORSDOF 2
ENDMDL
MODEL 5
REMARK VINA RESULT: -4.911593497      2.577      3.104
REMARK  2 active torsions:
REMARK  status: ('A' for Active; 'I' for Inactive)
REMARK       I    between atoms: N2_3  and  C2_4 
REMARK    1  A    between atoms: C2_4  and  O2_6 
REMARK    2  A    between atoms: O2_6  and  C3_7 
ROOT
HETATM    1  C1  UNL     1     -15.311  -2.624  26.620  1.00  0.00     0.140 C 
HETATM    2  N1  UNL     1     -14.044  -2.873  25.959  1.00  0.00    -0.196 NA
HETATM    3  N2  UNL     1     -13.738  -4.313  26.007  1.00  0.00    -0.227 N 
HETATM    4  C2  UNL     1     -14.279  -5.527  25.512  1.00  0.00     0.380 C 
HETATM    5  O1  UNL     1     -13.720  -6.645  25.764  1.00  0.00    -0.237 OA
HETATM    6  C7  UNL     1     -12.942  -3.393  26.639  1.00  0.00     0.131 A 
HETATM    7  C8  UNL     1     -11.573  -2.972  26.091  1.00  0.00     0.052 C 
HETATM    8  C9  UNL     1     -10.675  -3.487  27.225  1.00  0.00     0.010 C 
HETATM    9  C10 UNL     1     -11.384  -2.874  28.426  1.00  0.00     0.004 C 
HETATM   10  C11 UNL     1     -12.836  -3.152  28.097  1.00  0.00     0.052 C 
HETATM   11  C12 UNL     1     -12.742  -4.375  28.987  1.00  0.00     0.072 C 
HETATM   12  S1  UNL     1     -14.023  -4.220  30.295  1.00  0.00    -0.086 SA
HETATM   13  C13 UNL     1     -13.121  -3.006  31.240  1.00  0.00     0.187 C 
HETATM   14  O3  UNL     1     -13.617  -2.219  32.004  1.00  0.00    -0.285 OA
HETATM   15  C14 UNL     1     -11.733  -3.185  30.889  1.00  0.00     0.101 C 
HETATM   16  C15 UNL     1     -11.529  -3.819  29.600  1.00  0.00    -0.019 C 
HETATM   17  C16 UNL     1     -10.378  -4.834  29.640  1.00  0.00     0.017 C 
ENDROOT
BRANCH   4  18
HETATM   18  O2  UNL     1     -15.424  -5.629  24.733  1.00  0.00    -0.293 OA
BRANCH  18  19
HETATM   19  C3  UNL     1     -16.628  -6.219  25.132  1.00  0.00     0.061 C 
HETATM   20  C4  UNL     1     -17.449  -6.405  23.850  1.00  0.00     0.046 C 
HETATM   21  C5  UNL     1     -17.416  -5.407  26.111  1.00  0.00     0.046 C 
HETATM   22  C6  UNL     1     -16.453  -7.626  25.688  1.00  0.00     0.046 C 
ENDBRANCH  18  19
ENDBRANCH   4  18
TORSDOF 2
ENDMDL
