MODEL 1
REMARK VINA RESULT: -7.890665364      0.000      0.000
REMARK  13 active torsions:
REMARK  status: ('A' for Active; 'I' for Inactive)
REMARK    1  A    between atoms: C2_2  and  N1_3 
REMARK       I    between atoms: N1_3  and  C3_5 
REMARK    2  A    between atoms: C3_5  and  C4_7 
REMARK    3  A    between atoms: C4_7  and  C5_8 
REMARK    4  A    between atoms: C10_13  and  O2_14 
REMARK    5  A    between atoms: O2_14  and  C11_15 
REMARK    6  A    between atoms: C12_17  and  C13_18 
REMARK    7  A    between atoms: C13_18  and  O4_19 
REMARK    8  A    between atoms: O4_19  and  C14_20 
REMARK    9  A    between atoms: C15_22  and  N2_23 
REMARK   10  A    between atoms: C17_28  and  N3_29 
REMARK   11  A    between atoms: C18_33  and  O6_34 
REMARK   12  A    between atoms: C20_37  and  O7_38 
REMARK   13  A    between atoms: C21_40  and  O8_41 
ROOT
HETATM    1  C11 UNL     1       3.467  23.794  11.239  1.00  0.00     0.291 C 
HETATM    2  O3  UNL     1       3.754  22.953  10.202  1.00  0.00    -0.351 OA
HETATM    3  C12 UNL     1       3.856  21.631  10.516  1.00  0.00     0.151 C 
HETATM    4  C19 UNL     1       4.144  21.291  11.933  1.00  0.00     0.068 C 
HETATM    5  C20 UNL     1       5.022  22.331  12.546  1.00  0.00     0.154 C 
HETATM    6  C21 UNL     1       4.565  23.722  12.239  1.00  0.00     0.202 C 
ENDROOT
BRANCH   3   7
HETATM    7  C13 UNL     1       4.868  20.899   9.634  1.00  0.00     0.203 C 
BRANCH   7   8
HETATM    8  O4  UNL     1       5.767  21.795   9.123  1.00  0.00    -0.356 OA
BRANCH   8   9
HETATM    9  C14 UNL     1       5.850  21.828   7.760  1.00  0.00     0.293 C 
HETATM   10  O5  UNL     1       4.636  22.083   7.130  1.00  0.00    -0.326 OA
HETATM   11  C15 UNL     1       4.787  21.922   5.777  1.00  0.00     0.323 C 
HETATM   12  C16 UNL     1       5.752  22.906   5.159  1.00  0.00     0.096 C 
HETATM   13  C17 UNL     1       7.029  23.031   5.934  1.00  0.00     0.221 C 
HETATM   14  C18 UNL     1       6.769  23.004   7.402  1.00  0.00     0.203 C 
BRANCH  11  15
HETATM   15  N2  UNL     1       5.144  20.554   5.407  1.00  0.00    -0.053 N 
ATOM     16  H23 UNL     1       6.101  20.507   5.058  1.00  0.00     0.277 HD
ATOM     17  H22 UNL     1       5.241  19.965   6.234  1.00  0.00     0.277 HD
ATOM     18  H21 UNL     1       4.491  20.143   4.740  1.00  0.00     0.277 HD
ENDBRANCH  11  15
BRANCH  13  19
HETATM   19  N3  UNL     1       8.039  22.071   5.537  1.00  0.00    -0.072 N 
ATOM     20  H33 UNL     1       7.955  21.212   6.080  1.00  0.00     0.274 HD
ATOM     21  H32 UNL     1       7.842  21.703   4.607  1.00  0.00     0.274 HD
ATOM     22  H31 UNL     1       8.989  22.439   5.588  1.00  0.00     0.274 HD
ENDBRANCH  13  19
BRANCH  14  23
HETATM   23  O6  UNL     1       7.942  22.962   8.144  1.00  0.00    -0.389 OA
ATOM     24  H6  UNL     1       8.631  23.461   7.720  1.00  0.00     0.210 HD
ENDBRANCH  14  23
ENDBRANCH   8   9
ENDBRANCH   7   8
ENDBRANCH   3   7
BRANCH   1  25
HETATM   25  O2  UNL     1       2.200  23.603  11.753  1.00  0.00    -0.353 OA
BRANCH  25  26
HETATM   26  C10 UNL     1       1.500  24.773  11.915  1.00  0.00     0.129 C 
HETATM   27  C5  UNL     1       1.584  25.231  13.369  1.00  0.00     0.023 C 
HETATM   28  C6  UNL     1       1.120  26.637  13.429  1.00  0.00     0.007 C 
HETATM   29  C7  UNL     1      -0.211  26.885  12.767  1.00  0.00     0.001 C 
HETATM   30  C8  UNL     1      -0.432  26.164  11.492  1.00  0.00     0.002 C 
HETATM   31  C9  UNL     1       0.065  24.713  11.546  1.00  0.00     0.032 C 
BRANCH  27  32
HETATM   32  C4  UNL     1       0.949  24.275  14.309  1.00  0.00     0.110 C 
BRANCH  32  33
HETATM   33  C3  UNL     1       1.843  23.967  15.440  1.00  0.00     0.217 C 
HETATM   34  N1  UNL     1       1.410  24.043  16.796  1.00  0.00    -0.361 N 
ATOM     35  H1  UNL     1       0.448  24.321  16.988  1.00  0.00     0.162 HD
HETATM   36  O1  UNL     1       3.026  23.623  15.256  1.00  0.00    -0.274 OA
BRANCH  34  37
HETATM   37  C2  UNL     1       2.282  23.742  17.910  1.00  0.00     0.118 C 
HETATM   38  C1  UNL     1       1.492  23.618  19.194  1.00  0.00     0.026 C 
ENDBRANCH  34  37
ENDBRANCH  32  33
ENDBRANCH  27  32
ENDBRANCH  25  26
ENDBRANCH   1  25
BRANCH   5  39
HETATM   39  O7  UNL     1       5.195  22.129  13.929  1.00  0.00    -0.393 OA
ATOM     40  H7  UNL     1       6.014  22.494  14.243  1.00  0.00     0.210 HD
ENDBRANCH   5  39
BRANCH   6  41
HETATM   41  O8  UNL     1       5.650  24.463  11.710  1.00  0.00    -0.388 OA
ATOM     42  H8  UNL     1       6.309  23.833  11.443  1.00  0.00     0.210 HD
ENDBRANCH   6  41
TORSDOF 13
ENDMDL
MODEL 2
REMARK VINA RESULT: -7.670728689      3.277      6.336
REMARK  13 active torsions:
REMARK  status: ('A' for Active; 'I' for Inactive)
REMARK    1  A    between atoms: C2_2  and  N1_3 
REMARK       I    between atoms: N1_3  and  C3_5 
REMARK    2  A    between atoms: C3_5  and  C4_7 
REMARK    3  A    between atoms: C4_7  and  C5_8 
REMARK    4  A    between atoms: C10_13  and  O2_14 
REMARK    5  A    between atoms: O2_14  and  C11_15 
REMARK    6  A    between atoms: C12_17  and  C13_18 
REMARK    7  A    between atoms: C13_18  and  O4_19 
REMARK    8  A    between atoms: O4_19  and  C14_20 
REMARK    9  A    between atoms: C15_22  and  N2_23 
REMARK   10  A    between atoms: C17_28  and  N3_29 
REMARK   11  A    between atoms: C18_33  and  O6_34 
REMARK   12  A    between atoms: C20_37  and  O7_38 
REMARK   13  A    between atoms: C21_40  and  O8_41 
ROOT
HETATM    1  C11 UNL     1       5.514  21.693   6.900  1.00  0.00     0.291 C 
HETATM    2  O3  UNL     1       6.750  22.121   6.509  1.00  0.00    -0.351 OA
HETATM    3  C12 UNL     1       6.788  23.311   5.844  1.00  0.00     0.151 C 
HETATM    4  C19 UNL     1       5.534  23.758   5.185  1.00  0.00     0.068 C 
HETATM    5  C20 UNL     1       4.765  22.582   4.682  1.00  0.00     0.154 C 
HETATM    6  C21 UNL     1       4.670  21.483   5.693  1.00  0.00     0.202 C 
ENDROOT
BRANCH   3   7
HETATM    7  C13 UNL     1       7.915  23.366   4.813  1.00  0.00     0.203 C 
BRANCH   7   8
HETATM    8  O4  UNL     1       7.759  24.469   4.018  1.00  0.00    -0.356 OA
BRANCH   8   9
HETATM    9  C14 UNL     1       8.740  25.413   4.127  1.00  0.00     0.293 C 
HETATM   10  O5  UNL     1       9.420  25.379   5.341  1.00  0.00    -0.326 OA
HETATM   11  C15 UNL     1      10.253  26.464   5.422  1.00  0.00     0.323 C 
HETATM   12  C16 UNL     1      11.342  26.465   4.375  1.00  0.00     0.096 C 
HETATM   13  C17 UNL     1      10.827  26.157   3.002  1.00  0.00     0.221 C 
HETATM   14  C18 UNL     1       9.784  25.092   3.048  1.00  0.00     0.203 C 
BRANCH  11  15
HETATM   15  N2  UNL     1       9.530  27.735   5.409  1.00  0.00    -0.053 N 
ATOM     16  H23 UNL     1       8.547  27.594   5.178  1.00  0.00     0.277 HD
ATOM     17  H22 UNL     1       9.427  28.105   6.353  1.00  0.00     0.277 HD
ATOM     18  H21 UNL     1       9.956  28.424   4.789  1.00  0.00     0.277 HD
ENDBRANCH  11  15
BRANCH  13  19
HETATM   19  N3  UNL     1      10.383  27.330   2.277  1.00  0.00    -0.072 N 
ATOM     20  H33 UNL     1       9.895  27.975   2.897  1.00  0.00     0.274 HD
ATOM     21  H32 UNL     1      11.177  27.915   2.015  1.00  0.00     0.274 HD
ATOM     22  H31 UNL     1       9.811  27.109   1.462  1.00  0.00     0.274 HD
ENDBRANCH  13  19
BRANCH  14  23
HETATM   23  O6  UNL     1       9.179  24.894   1.814  1.00  0.00    -0.389 OA
ATOM     24  H6  UNL     1       9.685  24.294   1.279  1.00  0.00     0.210 HD
ENDBRANCH  14  23
ENDBRANCH   8   9
ENDBRANCH   7   8
ENDBRANCH   3   7
BRANCH   1  25
HETATM   25  O2  UNL     1       4.948  22.494   7.871  1.00  0.00    -0.353 OA
BRANCH  25  26
HETATM   26  C10 UNL     1       4.782  21.851   9.073  1.00  0.00     0.129 C 
HETATM   27  C5  UNL     1       3.478  22.304   9.727  1.00  0.00     0.023 C 
HETATM   28  C6  UNL     1       3.171  21.358  10.826  1.00  0.00     0.007 C 
HETATM   29  C7  UNL     1       4.309  21.123  11.787  1.00  0.00     0.001 C 
HETATM   30  C8  UNL     1       5.651  21.013  11.168  1.00  0.00     0.002 C 
HETATM   31  C9  UNL     1       5.871  22.050  10.059  1.00  0.00     0.032 C 
BRANCH  27  32
HETATM   32  C4  UNL     1       3.478  23.747  10.066  1.00  0.00     0.110 C 
BRANCH  32  33
HETATM   33  C3  UNL     1       2.403  24.070  11.022  1.00  0.00     0.217 C 
HETATM   34  N1  UNL     1       2.660  24.331  12.399  1.00  0.00    -0.361 N 
ATOM     35  H1  UNL     1       3.623  24.292  12.733  1.00  0.00     0.162 HD
HETATM   36  O1  UNL     1       1.212  24.128  10.662  1.00  0.00    -0.274 OA
BRANCH  34  37
HETATM   37  C2  UNL     1       1.610  24.647  13.342  1.00  0.00     0.118 C 
HETATM   38  C1  UNL     1       1.847  23.954  14.665  1.00  0.00     0.026 C 
ENDBRANCH  34  37
ENDBRANCH  32  33
ENDBRANCH  27  32
ENDBRANCH  25  26
ENDBRANCH   1  25
BRANCH   5  39
HETATM   39  O7  UNL     1       3.499  22.949   4.188  1.00  0.00    -0.393 OA
ATOM     40  H7  UNL     1       3.035  22.211   3.812  1.00  0.00     0.210 HD
ENDBRANCH   5  39
BRANCH   6  41
HETATM   41  O8  UNL     1       5.097  20.268   5.102  1.00  0.00    -0.388 OA
ATOM     42  H8  UNL     1       4.651  20.198   4.266  1.00  0.00     0.210 HD
ENDBRANCH   6  41
TORSDOF 13
ENDMDL
MODEL 3
REMARK VINA RESULT: -7.612002822      1.511      2.184
REMARK  13 active torsions:
REMARK  status: ('A' for Active; 'I' for Inactive)
REMARK    1  A    between atoms: C2_2  and  N1_3 
REMARK       I    between atoms: N1_3  and  C3_5 
REMARK    2  A    between atoms: C3_5  and  C4_7 
REMARK    3  A    between atoms: C4_7  and  C5_8 
REMARK    4  A    between atoms: C10_13  and  O2_14 
REMARK    5  A    between atoms: O2_14  and  C11_15 
REMARK    6  A    between atoms: C12_17  and  C13_18 
REMARK    7  A    between atoms: C13_18  and  O4_19 
REMARK    8  A    between atoms: O4_19  and  C14_20 
REMARK    9  A    between atoms: C15_22  and  N2_23 
REMARK   10  A    between atoms: C17_28  and  N3_29 
REMARK   11  A    between atoms: C18_33  and  O6_34 
REMARK   12  A    between atoms: C20_37  and  O7_38 
REMARK   13  A    between atoms: C21_40  and  O8_41 
ROOT
HETATM    1  C11 UNL     1       3.140  24.736  12.094  1.00  0.00     0.291 C 
HETATM    2  O3  UNL     1       2.965  24.012  10.950  1.00  0.00    -0.351 OA
HETATM    3  C12 UNL     1       3.006  22.656  11.089  1.00  0.00     0.151 C 
HETATM    4  C19 UNL     1       3.703  22.118  12.285  1.00  0.00     0.068 C 
HETATM    5  C20 UNL     1       4.852  22.997  12.653  1.00  0.00     0.154 C 
HETATM    6  C21 UNL     1       4.490  24.449  12.648  1.00  0.00     0.202 C 
ENDROOT
BRANCH   3   7
HETATM    7  C13 UNL     1       3.573  21.960   9.852  1.00  0.00     0.203 C 
BRANCH   7   8
HETATM    8  O4  UNL     1       3.443  22.778   8.762  1.00  0.00    -0.356 OA
BRANCH   8   9
HETATM    9  C14 UNL     1       4.370  22.589   7.776  1.00  0.00     0.293 C 
HETATM   10  O5  UNL     1       5.450  21.801   8.163  1.00  0.00    -0.326 OA
HETATM   11  C15 UNL     1       6.397  21.818   7.172  1.00  0.00     0.323 C 
HETATM   12  C16 UNL     1       5.923  21.206   5.876  1.00  0.00     0.096 C 
HETATM   13  C17 UNL     1       4.565  21.691   5.468  1.00  0.00     0.221 C 
HETATM   14  C18 UNL     1       3.665  21.821   6.650  1.00  0.00     0.203 C 
BRANCH  11  15
HETATM   15  N2  UNL     1       6.946  23.152   6.938  1.00  0.00    -0.053 N 
ATOM     16  H23 UNL     1       6.570  23.825   7.606  1.00  0.00     0.277 HD
ATOM     17  H22 UNL     1       7.931  23.193   7.199  1.00  0.00     0.277 HD
ATOM     18  H21 UNL     1       6.808  23.473   5.979  1.00  0.00     0.277 HD
ENDBRANCH  11  15
BRANCH  13  19
HETATM   19  N3  UNL     1       4.602  22.901   4.671  1.00  0.00    -0.072 N 
ATOM     20  H33 UNL     1       5.492  23.385   4.788  1.00  0.00     0.274 HD
ATOM     21  H32 UNL     1       4.660  22.677   3.677  1.00  0.00     0.274 HD
ATOM     22  H31 UNL     1       3.821  23.531   4.855  1.00  0.00     0.274 HD
ENDBRANCH  13  19
BRANCH  14  23
HETATM   23  O6  UNL     1       2.452  22.414   6.326  1.00  0.00    -0.389 OA
ATOM     24  H6  UNL     1       1.986  21.902   5.676  1.00  0.00     0.210 HD
ENDBRANCH  14  23
ENDBRANCH   8   9
ENDBRANCH   7   8
ENDBRANCH   3   7
BRANCH   1  25
HETATM   25  O2  UNL     1       2.101  24.587  12.990  1.00  0.00    -0.353 OA
BRANCH  25  26
HETATM   26  C10 UNL     1       1.325  25.713  13.111  1.00  0.00     0.129 C 
HETATM   27  C5  UNL     1       1.115  26.043  14.587  1.00  0.00     0.023 C 
HETATM   28  C6  UNL     1       0.577  27.421  14.671  1.00  0.00     0.007 C 
HETATM   29  C7  UNL     1      -0.620  27.681  13.792  1.00  0.00     0.001 C 
HETATM   30  C8  UNL     1      -0.563  27.068  12.444  1.00  0.00     0.002 C 
HETATM   31  C9  UNL     1      -0.012  25.636  12.474  1.00  0.00     0.032 C 
BRANCH  27  32
HETATM   32  C4  UNL     1       0.366  24.987  15.310  1.00  0.00     0.110 C 
BRANCH  32  33
HETATM   33  C3  UNL     1       1.253  24.225  16.208  1.00  0.00     0.217 C 
HETATM   34  N1  UNL     1       2.625  23.988  15.903  1.00  0.00    -0.361 N 
ATOM     35  H1  UNL     1       3.004  24.358  15.031  1.00  0.00     0.162 HD
HETATM   36  O1  UNL     1       0.837  23.753  17.283  1.00  0.00    -0.274 OA
BRANCH  34  37
HETATM   37  C2  UNL     1       3.501  23.242  16.780  1.00  0.00     0.118 C 
HETATM   38  C1  UNL     1       4.290  24.175  17.672  1.00  0.00     0.026 C 
ENDBRANCH  34  37
ENDBRANCH  32  33
ENDBRANCH  27  32
ENDBRANCH  25  26
ENDBRANCH   1  25
BRANCH   5  39
HETATM   39  O7  UNL     1       5.447  22.609  13.868  1.00  0.00    -0.393 OA
ATOM     40  H7  UNL     1       5.730  23.357  14.382  1.00  0.00     0.210 HD
ENDBRANCH   5  39
BRANCH   6  41
HETATM   41  O8  UNL     1       5.420  25.158  11.849  1.00  0.00    -0.388 OA
ATOM     42  H8  UNL     1       6.243  25.161  12.322  1.00  0.00     0.210 HD
ENDBRANCH   6  41
TORSDOF 13
ENDMDL
MODEL 4
REMARK VINA RESULT: -7.564451296      1.320      1.910
REMARK  13 active torsions:
REMARK  status: ('A' for Active; 'I' for Inactive)
REMARK    1  A    between atoms: C2_2  and  N1_3 
REMARK       I    between atoms: N1_3  and  C3_5 
REMARK    2  A    between atoms: C3_5  and  C4_7 
REMARK    3  A    between atoms: C4_7  and  C5_8 
REMARK    4  A    between atoms: C10_13  and  O2_14 
REMARK    5  A    between atoms: O2_14  and  C11_15 
REMARK    6  A    between atoms: C12_17  and  C13_18 
REMARK    7  A    between atoms: C13_18  and  O4_19 
REMARK    8  A    between atoms: O4_19  and  C14_20 
REMARK    9  A    between atoms: C15_22  and  N2_23 
REMARK   10  A    between atoms: C17_28  and  N3_29 
REMARK   11  A    between atoms: C18_33  and  O6_34 
REMARK   12  A    between atoms: C20_37  and  O7_38 
REMARK   13  A    between atoms: C21_40  and  O8_41 
ROOT
HETATM    1  C11 UNL     1       3.392  23.586  11.178  1.00  0.00     0.291 C 
HETATM    2  O3  UNL     1       3.828  22.796  10.152  1.00  0.00    -0.351 OA
HETATM    3  C12 UNL     1       4.048  21.486  10.459  1.00  0.00     0.151 C 
HETATM    4  C19 UNL     1       4.283  21.155  11.888  1.00  0.00     0.068 C 
HETATM    5  C20 UNL     1       5.009  22.270  12.565  1.00  0.00     0.154 C 
HETATM    6  C21 UNL     1       4.429  23.612  12.244  1.00  0.00     0.202 C 
ENDROOT
BRANCH   3   7
HETATM    7  C13 UNL     1       5.182  20.877   9.635  1.00  0.00     0.203 C 
BRANCH   7   8
HETATM    8  O4  UNL     1       5.937  21.875   9.080  1.00  0.00    -0.356 OA
BRANCH   8   9
HETATM    9  C14 UNL     1       5.974  21.889   7.715  1.00  0.00     0.293 C 
HETATM   10  O5  UNL     1       4.740  22.133   7.120  1.00  0.00    -0.326 OA
HETATM   11  C15 UNL     1       4.848  21.953   5.766  1.00  0.00     0.323 C 
HETATM   12  C16 UNL     1       5.791  22.929   5.103  1.00  0.00     0.096 C 
HETATM   13  C17 UNL     1       7.092  23.067   5.834  1.00  0.00     0.221 C 
HETATM   14  C18 UNL     1       6.879  23.061   7.310  1.00  0.00     0.203 C 
BRANCH  11  15
HETATM   15  N2  UNL     1       5.195  20.580   5.404  1.00  0.00    -0.053 N 
ATOM     16  H23 UNL     1       4.386  19.965   5.488  1.00  0.00     0.277 HD
ATOM     17  H22 UNL     1       5.362  20.498   4.402  1.00  0.00     0.277 HD
ATOM     18  H21 UNL     1       5.986  20.220   5.938  1.00  0.00     0.277 HD
ENDBRANCH  11  15
BRANCH  13  19
HETATM   19  N3  UNL     1       8.090  22.103   5.418  1.00  0.00    -0.072 N 
ATOM     20  H33 UNL     1       8.610  21.751   6.222  1.00  0.00     0.274 HD
ATOM     21  H32 UNL     1       7.649  21.236   5.110  1.00  0.00     0.274 HD
ATOM     22  H31 UNL     1       8.726  22.460   4.705  1.00  0.00     0.274 HD
ENDBRANCH  13  19
BRANCH  14  23
HETATM   23  O6  UNL     1       8.076  23.031   8.014  1.00  0.00    -0.389 OA
ATOM     24  H6  UNL     1       8.695  22.434   7.609  1.00  0.00     0.210 HD
ENDBRANCH  14  23
ENDBRANCH   8   9
ENDBRANCH   7   8
ENDBRANCH   3   7
BRANCH   1  25
HETATM   25  O2  UNL     1       2.124  23.257  11.610  1.00  0.00    -0.353 OA
BRANCH  25  26
HETATM   26  C10 UNL     1       1.138  23.641  10.734  1.00  0.00     0.129 C 
HETATM   27  C5  UNL     1       0.186  24.617  11.421  1.00  0.00     0.023 C 
HETATM   28  C6  UNL     1      -0.640  25.259  10.371  1.00  0.00     0.007 C 
HETATM   29  C7  UNL     1      -1.305  24.294   9.422  1.00  0.00     0.001 C 
HETATM   30  C8  UNL     1      -0.476  23.139   9.005  1.00  0.00     0.002 C 
HETATM   31  C9  UNL     1       0.321  22.539  10.171  1.00  0.00     0.032 C 
BRANCH  27  32
HETATM   32  C4  UNL     1      -0.537  24.007  12.562  1.00  0.00     0.110 C 
BRANCH  32  33
HETATM   33  C3  UNL     1      -0.009  24.495  13.849  1.00  0.00     0.217 C 
HETATM   34  N1  UNL     1       1.200  23.995  14.416  1.00  0.00    -0.361 N 
ATOM     35  H1  UNL     1       1.716  23.274  13.911  1.00  0.00     0.162 HD
HETATM   36  O1  UNL     1      -0.602  25.373  14.503  1.00  0.00    -0.274 OA
BRANCH  34  37
HETATM   37  C2  UNL     1       1.724  24.469  15.678  1.00  0.00     0.118 C 
HETATM   38  C1  UNL     1       2.942  23.672  16.089  1.00  0.00     0.026 C 
ENDBRANCH  34  37
ENDBRANCH  32  33
ENDBRANCH  27  32
ENDBRANCH  25  26
ENDBRANCH   1  25
BRANCH   5  39
HETATM   39  O7  UNL     1       5.117  22.065  13.954  1.00  0.00    -0.393 OA
ATOM     40  H7  UNL     1       5.775  22.625  14.347  1.00  0.00     0.210 HD
ENDBRANCH   5  39
BRANCH   6  41
HETATM   41  O8  UNL     1       5.462  24.469  11.791  1.00  0.00    -0.388 OA
ATOM     42  H8  UNL     1       6.111  24.507  12.483  1.00  0.00     0.210 HD
ENDBRANCH   6  41
TORSDOF 13
ENDMDL
MODEL 5
REMARK VINA RESULT: -7.533648609      1.884      2.617
REMARK  13 active torsions:
REMARK  status: ('A' for Active; 'I' for Inactive)
REMARK    1  A    between atoms: C2_2  and  N1_3 
REMARK       I    between atoms: N1_3  and  C3_5 
REMARK    2  A    between atoms: C3_5  and  C4_7 
REMARK    3  A    between atoms: C4_7  and  C5_8 
REMARK    4  A    between atoms: C10_13  and  O2_14 
REMARK    5  A    between atoms: O2_14  and  C11_15 
REMARK    6  A    between atoms: C12_17  and  C13_18 
REMARK    7  A    between atoms: C13_18  and  O4_19 
REMARK    8  A    between atoms: O4_19  and  C14_20 
REMARK    9  A    between atoms: C15_22  and  N2_23 
REMARK   10  A    between atoms: C17_28  and  N3_29 
REMARK   11  A    between atoms: C18_33  and  O6_34 
REMARK   12  A    between atoms: C20_37  and  O7_38 
REMARK   13  A    between atoms: C21_40  and  O8_41 
ROOT
HETATM    1  C11 UNL     1       4.123  22.911   9.695  1.00  0.00     0.291 C 
HETATM    2  O3  UNL     1       4.249  22.955   8.336  1.00  0.00    -0.351 OA
HETATM    3  C12 UNL     1       3.981  21.794   7.673  1.00  0.00     0.151 C 
HETATM    4  C19 UNL     1       4.076  20.532   8.452  1.00  0.00     0.068 C 
HETATM    5  C20 UNL     1       5.151  20.638   9.481  1.00  0.00     0.154 C 
HETATM    6  C21 UNL     1       5.095  21.926  10.240  1.00  0.00     0.202 C 
ENDROOT
BRANCH   3   7
HETATM    7  C13 UNL     1       4.823  21.638   6.407  1.00  0.00     0.203 C 
BRANCH   7   8
HETATM    8  O4  UNL     1       6.151  21.745   6.720  1.00  0.00    -0.356 OA
BRANCH   8   9
HETATM    9  C14 UNL     1       6.853  22.657   5.984  1.00  0.00     0.293 C 
HETATM   10  O5  UNL     1       6.073  23.373   5.082  1.00  0.00    -0.326 OA
HETATM   11  C15 UNL     1       6.888  24.126   4.279  1.00  0.00     0.323 C 
HETATM   12  C16 UNL     1       7.667  25.180   5.031  1.00  0.00     0.096 C 
HETATM   13  C17 UNL     1       8.311  24.648   6.274  1.00  0.00     0.221 C 
HETATM   14  C18 UNL     1       7.411  23.688   6.975  1.00  0.00     0.203 C 
BRANCH  11  15
HETATM   15  N2  UNL     1       7.786  23.311   3.463  1.00  0.00    -0.053 N 
ATOM     16  H23 UNL     1       8.544  22.926   4.026  1.00  0.00     0.277 HD
ATOM     17  H22 UNL     1       7.334  22.443   3.178  1.00  0.00     0.277 HD
ATOM     18  H21 UNL     1       8.152  23.816   2.655  1.00  0.00     0.277 HD
ENDBRANCH  11  15
BRANCH  13  19
HETATM   19  N3  UNL     1       9.632  24.096   6.047  1.00  0.00    -0.072 N 
ATOM     20  H33 UNL     1       9.696  23.148   6.416  1.00  0.00     0.274 HD
ATOM     21  H32 UNL     1       9.777  23.903   5.056  1.00  0.00     0.274 HD
ATOM     22  H31 UNL     1      10.383  24.679   6.416  1.00  0.00     0.274 HD
ENDBRANCH  13  19
BRANCH  14  23
HETATM   23  O6  UNL     1       8.038  23.062   8.044  1.00  0.00    -0.389 OA
ATOM     24  H6  UNL     1       7.401  22.707   8.653  1.00  0.00     0.210 HD
ENDBRANCH  14  23
ENDBRANCH   8   9
ENDBRANCH   7   8
ENDBRANCH   3   7
BRANCH   1  25
HETATM   25  O2  UNL     1       2.819  22.729  10.109  1.00  0.00    -0.353 OA
BRANCH  25  26
HETATM   26  C10 UNL     1       2.178  23.907  10.407  1.00  0.00     0.129 C 
HETATM   27  C5  UNL     1       2.695  24.458  11.734  1.00  0.00     0.023 C 
HETATM   28  C6  UNL     1       2.242  25.865  11.847  1.00  0.00     0.007 C 
HETATM   29  C7  UNL     1       0.767  26.068  11.614  1.00  0.00     0.001 C 
HETATM   30  C8  UNL     1       0.180  25.265  10.515  1.00  0.00     0.002 C 
HETATM   31  C9  UNL     1       0.701  23.822  10.503  1.00  0.00     0.032 C 
BRANCH  27  32
HETATM   32  C4  UNL     1       2.400  23.565  12.880  1.00  0.00     0.110 C 
BRANCH  32  33
HETATM   33  C3  UNL     1       3.537  23.509  13.817  1.00  0.00     0.217 C 
HETATM   34  N1  UNL     1       3.358  23.383  15.225  1.00  0.00    -0.361 N 
ATOM     35  H1  UNL     1       2.410  23.331  15.596  1.00  0.00     0.162 HD
HETATM   36  O1  UNL     1       4.714  23.569  13.413  1.00  0.00    -0.274 OA
BRANCH  34  37
HETATM   37  C2  UNL     1       4.469  23.327  16.150  1.00  0.00     0.118 C 
HETATM   38  C1  UNL     1       4.045  23.784  17.529  1.00  0.00     0.026 C 
ENDBRANCH  34  37
ENDBRANCH  32  33
ENDBRANCH  27  32
ENDBRANCH  25  26
ENDBRANCH   1  25
BRANCH   5  39
HETATM   39  O7  UNL     1       5.173  19.523  10.340  1.00  0.00    -0.393 OA
ATOM     40  H7  UNL     1       5.895  19.562  10.957  1.00  0.00     0.210 HD
ENDBRANCH   5  39
BRANCH   6  41
HETATM   41  O8  UNL     1       6.369  22.544  10.204  1.00  0.00    -0.388 OA
ATOM     42  H8  UNL     1       6.886  22.072   9.563  1.00  0.00     0.210 HD
ENDBRANCH   6  41
TORSDOF 13
ENDMDL
