MODEL 1
REMARK VINA RESULT: -6.039927965      0.000      0.000
REMARK  9 active torsions:
REMARK  status: ('A' for Active; 'I' for Inactive)
REMARK    1  A    between atoms: N1_2  and  C3_4 
REMARK    2  A    between atoms: C3_4  and  N2_6 
REMARK    3  A    between atoms: C6_11  and  N4_12 
REMARK    4  A    between atoms: C7_17  and  N6_18 
REMARK    5  A    between atoms: N6_18  and  C8_20 
REMARK    6  A    between atoms: C8_20  and  C9_21 
REMARK    7  A    between atoms: C9_21  and  C10_22 
REMARK    8  A    between atoms: C10_22  and  C11_23 
REMARK    9  A    between atoms: C11_23  and  N7_24 
ROOT
HETATM    1  N2  UNL     1      15.282 -15.950  10.364  1.00  0.00    -0.268 N 
HETATM    2  C4  UNL     1      14.713 -15.147  11.262  1.00  0.00     0.193 A 
HETATM    3  N3  UNL     1      13.996 -14.183  10.652  1.00  0.00    -0.346 N 
ATOM      4  H3  UNL     1      13.466 -13.446  11.118  1.00  0.00     0.167 HD
HETATM    5  C5  UNL     1      14.099 -14.359   9.332  1.00  0.00     0.123 A 
HETATM    6  C6  UNL     1      13.616 -13.730   8.204  1.00  0.00     0.145 A 
HETATM    7  N5  UNL     1      13.957 -14.229   7.004  1.00  0.00    -0.175 N 
ATOM      8  H5  UNL     1      13.599 -13.762   6.170  1.00  0.00     0.186 HD
HETATM    9  C7  UNL     1      14.742 -15.308   6.840  1.00  0.00     0.681 A 
HETATM   10  N8  UNL     1      15.222 -15.934   7.932  1.00  0.00    -0.174 N 
ATOM     11  H8  UNL     1      15.820 -16.755   7.832  1.00  0.00     0.186 HD
HETATM   12  C12 UNL     1      14.906 -15.469   9.153  1.00  0.00     0.161 A 
ENDROOT
BRANCH   9  13
HETATM   13  N6  UNL     1      15.056 -15.769   5.654  1.00  0.00    -0.226 N 
ATOM     14  H6  UNL     1      15.221 -15.149   4.861  1.00  0.00     0.177 HD
BRANCH  13  15
HETATM   15  C8  UNL     1      15.154 -17.232   5.530  1.00  0.00     0.138 C 
BRANCH  15  16
HETATM   16  C9  UNL     1      14.290 -17.598   4.347  1.00  0.00     0.022 C 
BRANCH  16  17
HETATM   17  C10 UNL     1      12.816 -17.619   4.679  1.00  0.00     0.029 C 
BRANCH  17  18
HETATM   18  C11 UNL     1      12.539 -18.475   5.896  1.00  0.00     0.229 C 
BRANCH  18  19
HETATM   19  N7  UNL     1      11.687 -19.581   5.451  1.00  0.00    -0.079 N 
ATOM     20  H73 UNL     1      11.569 -19.615   4.439  1.00  0.00     0.274 HD
ATOM     21  H72 UNL     1      12.125 -20.496   5.561  1.00  0.00     0.274 HD
ATOM     22  H71 UNL     1      10.804 -19.495   5.956  1.00  0.00     0.274 HD
ENDBRANCH  18  19
ENDBRANCH  17  18
ENDBRANCH  16  17
ENDBRANCH  15  16
ENDBRANCH  13  15
ENDBRANCH   9  13
BRANCH   6  23
HETATM   23  N4  UNL     1      12.859 -12.692   8.324  1.00  0.00    -0.383 N 
ATOM     24  H42 UNL     1      13.224 -11.743   8.241  1.00  0.00     0.157 HD
ATOM     25  H41 UNL     1      11.862 -12.810   8.506  1.00  0.00     0.157 HD
ENDBRANCH   6  23
BRANCH   1  26
HETATM   26  C3  UNL     1      16.127 -17.101  10.578  1.00  0.00     0.182 C 
HETATM   27  S1  UNL     1      17.746 -16.934  10.699  1.00  0.00    -0.040 SA
BRANCH  26  28
HETATM   28  N1  UNL     1      15.580 -18.395  10.687  1.00  0.00    -0.366 N 
HETATM   29  C1  UNL     1      15.415 -19.198   9.506  1.00  0.00     0.151 C 
HETATM   30  C2  UNL     1      15.187 -18.918  11.968  1.00  0.00     0.151 C 
ENDBRANCH  26  28
ENDBRANCH   1  26
TORSDOF 9
ENDMDL
MODEL 2
REMARK VINA RESULT: -5.899866303      4.078      5.524
REMARK  9 active torsions:
REMARK  status: ('A' for Active; 'I' for Inactive)
REMARK    1  A    between atoms: N1_2  and  C3_4 
REMARK    2  A    between atoms: C3_4  and  N2_6 
REMARK    3  A    between atoms: C6_11  and  N4_12 
REMARK    4  A    between atoms: C7_17  and  N6_18 
REMARK    5  A    between atoms: N6_18  and  C8_20 
REMARK    6  A    between atoms: C8_20  and  C9_21 
REMARK    7  A    between atoms: C9_21  and  C10_22 
REMARK    8  A    between atoms: C10_22  and  C11_23 
REMARK    9  A    between atoms: C11_23  and  N7_24 
ROOT
HETATM    1  N2  UNL     1      15.167 -11.948   4.803  1.00  0.00    -0.268 N 
HETATM    2  C4  UNL     1      14.772 -10.685   4.648  1.00  0.00     0.193 A 
HETATM    3  N3  UNL     1      13.565 -10.635   4.050  1.00  0.00    -0.346 N 
ATOM      4  H3  UNL     1      13.046  -9.787   3.820  1.00  0.00     0.167 HD
HETATM    5  C5  UNL     1      13.165 -11.887   3.810  1.00  0.00     0.123 A 
HETATM    6  C6  UNL     1      12.061 -12.487   3.242  1.00  0.00     0.145 A 
HETATM    7  N5  UNL     1      12.029 -13.829   3.183  1.00  0.00    -0.175 N 
ATOM      8  H5  UNL     1      11.213 -14.272   2.762  1.00  0.00     0.186 HD
HETATM    9  C7  UNL     1      13.013 -14.620   3.646  1.00  0.00     0.681 A 
HETATM   10  N8  UNL     1      14.098 -14.049   4.204  1.00  0.00    -0.174 N 
ATOM     11  H8  UNL     1      14.857 -14.630   4.562  1.00  0.00     0.186 HD
HETATM   12  C12 UNL     1      14.172 -12.710   4.285  1.00  0.00     0.161 A 
ENDROOT
BRANCH   9  13
HETATM   13  N6  UNL     1      12.950 -15.928   3.572  1.00  0.00    -0.226 N 
ATOM     14  H6  UNL     1      12.066 -16.417   3.430  1.00  0.00     0.177 HD
BRANCH  13  15
HETATM   15  C8  UNL     1      14.225 -16.649   3.707  1.00  0.00     0.138 C 
BRANCH  15  16
HETATM   16  C9  UNL     1      13.896 -17.914   4.465  1.00  0.00     0.022 C 
BRANCH  16  17
HETATM   17  C10 UNL     1      12.429 -18.032   4.804  1.00  0.00     0.029 C 
BRANCH  17  18
HETATM   18  C11 UNL     1      12.176 -19.173   5.765  1.00  0.00     0.229 C 
BRANCH  18  19
HETATM   19  N7  UNL     1      11.622 -20.276   4.974  1.00  0.00    -0.079 N 
ATOM     20  H73 UNL     1      11.785 -20.175   3.973  1.00  0.00     0.274 HD
ATOM     21  H72 UNL     1      12.127 -21.154   5.098  1.00  0.00     0.274 HD
ATOM     22  H71 UNL     1      10.633 -20.345   5.216  1.00  0.00     0.274 HD
ENDBRANCH  18  19
ENDBRANCH  17  18
ENDBRANCH  16  17
ENDBRANCH  15  16
ENDBRANCH  13  15
ENDBRANCH   9  13
BRANCH   6  23
HETATM   23  N4  UNL     1      11.099 -11.759   2.788  1.00  0.00    -0.383 N 
ATOM     24  H42 UNL     1      10.528 -11.174   3.399  1.00  0.00     0.157 HD
ATOM     25  H41 UNL     1      10.892 -11.758   1.790  1.00  0.00     0.157 HD
ENDBRANCH   6  23
BRANCH   1  26
HETATM   26  C3  UNL     1      16.384 -12.454   5.392  1.00  0.00     0.182 C 
HETATM   27  S1  UNL     1      17.556 -13.098   4.457  1.00  0.00    -0.040 SA
BRANCH  26  28
HETATM   28  N1  UNL     1      16.592 -12.408   6.785  1.00  0.00    -0.366 N 
HETATM   29  C1  UNL     1      15.738 -13.167   7.657  1.00  0.00     0.151 C 
HETATM   30  C2  UNL     1      17.652 -11.608   7.340  1.00  0.00     0.151 C 
ENDBRANCH  26  28
ENDBRANCH   1  26
TORSDOF 9
ENDMDL
MODEL 3
REMARK VINA RESULT: -5.893716981      3.435      5.012
REMARK  9 active torsions:
REMARK  status: ('A' for Active; 'I' for Inactive)
REMARK    1  A    between atoms: N1_2  and  C3_4 
REMARK    2  A    between atoms: C3_4  and  N2_6 
REMARK    3  A    between atoms: C6_11  and  N4_12 
REMARK    4  A    between atoms: C7_17  and  N6_18 
REMARK    5  A    between atoms: N6_18  and  C8_20 
REMARK    6  A    between atoms: C8_20  and  C9_21 
REMARK    7  A    between atoms: C9_21  and  C10_22 
REMARK    8  A    between atoms: C10_22  and  C11_23 
REMARK    9  A    between atoms: C11_23  and  N7_24 
ROOT
HETATM    1  N2  UNL     1      14.671 -12.261   5.666  1.00  0.00    -0.268 N 
HETATM    2  C4  UNL     1      14.798 -10.949   5.474  1.00  0.00     0.193 A 
HETATM    3  N3  UNL     1      14.001 -10.536   4.469  1.00  0.00    -0.346 N 
ATOM      4  H3  UNL     1      13.915  -9.578   4.128  1.00  0.00     0.167 HD
HETATM    5  C5  UNL     1      13.343 -11.597   3.995  1.00  0.00     0.123 A 
HETATM    6  C6  UNL     1      12.413 -11.830   3.004  1.00  0.00     0.145 A 
HETATM    7  N5  UNL     1      11.974 -13.088   2.828  1.00  0.00    -0.175 N 
ATOM      8  H5  UNL     1      11.286 -13.259   2.095  1.00  0.00     0.186 HD
HETATM    9  C7  UNL     1      12.390 -14.133   3.565  1.00  0.00     0.681 A 
HETATM   10  N8  UNL     1      13.298 -13.922   4.537  1.00  0.00    -0.174 N 
ATOM     11  H8  UNL     1      13.628 -14.700   5.109  1.00  0.00     0.186 HD
HETATM   12  C12 UNL     1      13.764 -12.680   4.748  1.00  0.00     0.161 A 
ENDROOT
BRANCH   9  13
HETATM   13  N6  UNL     1      11.941 -15.349   3.368  1.00  0.00    -0.226 N 
ATOM     14  H6  UNL     1      11.527 -15.633   2.480  1.00  0.00     0.177 HD
BRANCH  13  15
HETATM   15  C8  UNL     1      12.067 -16.280   4.500  1.00  0.00     0.138 C 
BRANCH  15  16
HETATM   16  C9  UNL     1      13.192 -17.218   4.129  1.00  0.00     0.022 C 
BRANCH  16  17
HETATM   17  C10 UNL     1      13.476 -18.247   5.198  1.00  0.00     0.029 C 
BRANCH  17  18
HETATM   18  C11 UNL     1      12.206 -18.679   5.898  1.00  0.00     0.229 C 
BRANCH  18  19
HETATM   19  N7  UNL     1      11.746 -19.897   5.226  1.00  0.00    -0.079 N 
ATOM     20  H73 UNL     1      10.740 -19.908   5.059  1.00  0.00     0.274 HD
ATOM     21  H72 UNL     1      12.038 -19.953   4.250  1.00  0.00     0.274 HD
ATOM     22  H71 UNL     1      12.068 -20.684   5.789  1.00  0.00     0.274 HD
ENDBRANCH  18  19
ENDBRANCH  17  18
ENDBRANCH  16  17
ENDBRANCH  15  16
ENDBRANCH  13  15
ENDBRANCH   9  13
BRANCH   6  23
HETATM   23  N4  UNL     1      11.991 -10.851   2.278  1.00  0.00    -0.383 N 
ATOM     24  H42 UNL     1      11.117 -10.364   2.481  1.00  0.00     0.157 HD
ATOM     25  H41 UNL     1      12.538 -10.543   1.475  1.00  0.00     0.157 HD
ENDBRANCH   6  23
BRANCH   1  26
HETATM   26  C3  UNL     1      15.333 -13.108   6.630  1.00  0.00     0.182 C 
HETATM   27  S1  UNL     1      16.952 -13.305   6.592  1.00  0.00    -0.040 SA
BRANCH  26  28
HETATM   28  N1  UNL     1      14.602 -13.785   7.626  1.00  0.00    -0.366 N 
HETATM   29  C1  UNL     1      14.663 -15.220   7.700  1.00  0.00     0.151 C 
HETATM   30  C2  UNL     1      13.797 -13.054   8.567  1.00  0.00     0.151 C 
ENDBRANCH  26  28
ENDBRANCH   1  26
TORSDOF 9
ENDMDL
MODEL 4
REMARK VINA RESULT: -5.817939731      4.864      5.985
REMARK  9 active torsions:
REMARK  status: ('A' for Active; 'I' for Inactive)
REMARK    1  A    between atoms: N1_2  and  C3_4 
REMARK    2  A    between atoms: C3_4  and  N2_6 
REMARK    3  A    between atoms: C6_11  and  N4_12 
REMARK    4  A    between atoms: C7_17  and  N6_18 
REMARK    5  A    between atoms: N6_18  and  C8_20 
REMARK    6  A    between atoms: C8_20  and  C9_21 
REMARK    7  A    between atoms: C9_21  and  C10_22 
REMARK    8  A    between atoms: C10_22  and  C11_23 
REMARK    9  A    between atoms: C11_23  and  N7_24 
ROOT
HETATM    1  N2  UNL     1      15.315 -11.890   4.383  1.00  0.00    -0.268 N 
HETATM    2  C4  UNL     1      14.926 -10.622   4.252  1.00  0.00     0.193 A 
HETATM    3  N3  UNL     1      13.665 -10.559   3.781  1.00  0.00    -0.346 N 
ATOM      4  H3  UNL     1      13.138  -9.705   3.594  1.00  0.00     0.167 HD
HETATM    5  C5  UNL     1      13.223 -11.806   3.600  1.00  0.00     0.123 A 
HETATM    6  C6  UNL     1      12.057 -12.394   3.156  1.00  0.00     0.145 A 
HETATM    7  N5  UNL     1      11.998 -13.736   3.118  1.00  0.00    -0.175 N 
ATOM      8  H5  UNL     1      11.136 -14.170   2.789  1.00  0.00     0.186 HD
HETATM    9  C7  UNL     1      13.012 -14.538   3.488  1.00  0.00     0.681 A 
HETATM   10  N8  UNL     1      14.157 -13.980   3.924  1.00  0.00    -0.174 N 
ATOM     11  H8  UNL     1      14.940 -14.568   4.210  1.00  0.00     0.186 HD
HETATM   12  C12 UNL     1      14.261 -12.641   3.979  1.00  0.00     0.161 A 
ENDROOT
BRANCH   9  13
HETATM   13  N6  UNL     1      12.921 -15.845   3.439  1.00  0.00    -0.226 N 
ATOM     14  H6  UNL     1      12.021 -16.321   3.373  1.00  0.00     0.177 HD
BRANCH  13  15
HETATM   15  C8  UNL     1      14.191 -16.588   3.485  1.00  0.00     0.138 C 
BRANCH  15  16
HETATM   16  C9  UNL     1      13.922 -17.797   4.350  1.00  0.00     0.022 C 
BRANCH  16  17
HETATM   17  C10 UNL     1      12.490 -17.871   4.828  1.00  0.00     0.029 C 
BRANCH  17  18
HETATM   18  C11 UNL     1      12.308 -18.973   5.848  1.00  0.00     0.229 C 
BRANCH  18  19
HETATM   19  N7  UNL     1      11.641 -20.082   5.159  1.00  0.00    -0.079 N 
ATOM     20  H73 UNL     1      11.729 -20.035   4.144  1.00  0.00     0.274 HD
ATOM     21  H72 UNL     1      12.113 -20.977   5.287  1.00  0.00     0.274 HD
ATOM     22  H71 UNL     1      10.672 -20.088   5.479  1.00  0.00     0.274 HD
ENDBRANCH  18  19
ENDBRANCH  17  18
ENDBRANCH  16  17
ENDBRANCH  15  16
ENDBRANCH  13  15
ENDBRANCH   9  13
BRANCH   6  23
HETATM   23  N4  UNL     1      11.065 -11.655   2.794  1.00  0.00    -0.383 N 
ATOM     24  H42 UNL     1      10.163 -12.052   2.528  1.00  0.00     0.157 HD
ATOM     25  H41 UNL     1      11.171 -10.641   2.768  1.00  0.00     0.157 HD
ENDBRANCH   6  23
BRANCH   1  26
HETATM   26  C3  UNL     1      16.578 -12.409   4.850  1.00  0.00     0.182 C 
HETATM   27  S1  UNL     1      17.013 -12.256   6.416  1.00  0.00    -0.040 SA
BRANCH  26  28
HETATM   28  N1  UNL     1      17.468 -13.060   3.972  1.00  0.00    -0.366 N 
HETATM   29  C1  UNL     1      18.082 -12.317   2.904  1.00  0.00     0.151 C 
HETATM   30  C2  UNL     1      17.765 -14.458   4.134  1.00  0.00     0.151 C 
ENDBRANCH  26  28
ENDBRANCH   1  26
TORSDOF 9
ENDMDL
MODEL 5
REMARK VINA RESULT: -5.770696065      2.731      4.497
REMARK  9 active torsions:
REMARK  status: ('A' for Active; 'I' for Inactive)
REMARK    1  A    between atoms: N1_2  and  C3_4 
REMARK    2  A    between atoms: C3_4  and  N2_6 
REMARK    3  A    between atoms: C6_11  and  N4_12 
REMARK    4  A    between atoms: C7_17  and  N6_18 
REMARK    5  A    between atoms: N6_18  and  C8_20 
REMARK    6  A    between atoms: C8_20  and  C9_21 
REMARK    7  A    between atoms: C9_21  and  C10_22 
REMARK    8  A    between atoms: C10_22  and  C11_23 
REMARK    9  A    between atoms: C11_23  and  N7_24 
ROOT
HETATM    1  N2  UNL     1      14.150 -13.023   6.881  1.00  0.00    -0.268 N 
HETATM    2  C4  UNL     1      14.450 -11.914   6.206  1.00  0.00     0.193 A 
HETATM    3  N3  UNL     1      13.894 -11.938   4.979  1.00  0.00    -0.346 N 
ATOM      4  H3  UNL     1      13.974 -11.208   4.271  1.00  0.00     0.167 HD
HETATM    5  C5  UNL     1      13.218 -13.083   4.849  1.00  0.00     0.123 A 
HETATM    6  C6  UNL     1      12.458 -13.683   3.868  1.00  0.00     0.145 A 
HETATM    7  N5  UNL     1      11.923 -14.888   4.129  1.00  0.00    -0.175 N 
ATOM      8  H5  UNL     1      11.361 -15.332   3.403  1.00  0.00     0.186 HD
HETATM    9  C7  UNL     1      12.086 -15.541   5.293  1.00  0.00     0.681 A 
HETATM   10  N8  UNL     1      12.824 -14.967   6.262  1.00  0.00    -0.174 N 
ATOM     11  H8  UNL     1      12.962 -15.444   7.154  1.00  0.00     0.186 HD
HETATM   12  C12 UNL     1      13.379 -13.762   6.045  1.00  0.00     0.161 A 
ENDROOT
BRANCH   9  13
HETATM   13  N6  UNL     1      11.548 -16.716   5.515  1.00  0.00    -0.226 N 
ATOM     14  H6  UNL     1      10.545 -16.876   5.423  1.00  0.00     0.177 HD
BRANCH  13  15
HETATM   15  C8  UNL     1      12.474 -17.791   5.906  1.00  0.00     0.138 C 
BRANCH  15  16
HETATM   16  C9  UNL     1      13.086 -18.287   4.618  1.00  0.00     0.022 C 
BRANCH  16  17
HETATM   17  C10 UNL     1      14.527 -17.863   4.450  1.00  0.00     0.029 C 
BRANCH  17  18
HETATM   18  C11 UNL     1      14.692 -16.931   3.270  1.00  0.00     0.229 C 
BRANCH  18  19
HETATM   19  N7  UNL     1      15.477 -15.786   3.741  1.00  0.00    -0.079 N 
ATOM     20  H73 UNL     1      14.921 -14.939   3.859  1.00  0.00     0.274 HD
ATOM     21  H72 UNL     1      15.779 -15.877   4.711  1.00  0.00     0.274 HD
ATOM     22  H71 UNL     1      16.252 -15.671   3.087  1.00  0.00     0.274 HD
ENDBRANCH  18  19
ENDBRANCH  17  18
ENDBRANCH  16  17
ENDBRANCH  15  16
ENDBRANCH  13  15
ENDBRANCH   9  13
BRANCH   6  23
HETATM   23  N4  UNL     1      12.280 -13.086   2.739  1.00  0.00    -0.383 N 
ATOM     24  H42 UNL     1      11.537 -13.356   2.095  1.00  0.00     0.157 HD
ATOM     25  H41 UNL     1      12.894 -12.317   2.471  1.00  0.00     0.157 HD
ENDBRANCH   6  23
BRANCH   1  26
HETATM   26  C3  UNL     1      14.534 -13.407   8.218  1.00  0.00     0.182 C 
HETATM   27  S1  UNL     1      13.633 -12.961   9.504  1.00  0.00    -0.040 SA
BRANCH  26  28
HETATM   28  N1  UNL     1      15.694 -14.173   8.450  1.00  0.00    -0.366 N 
HETATM   29  C1  UNL     1      15.578 -15.587   8.683  1.00  0.00     0.151 C 
HETATM   30  C2  UNL     1      16.992 -13.552   8.456  1.00  0.00     0.151 C 
ENDBRANCH  26  28
ENDBRANCH   1  26
TORSDOF 9
ENDMDL
