MODEL 1
REMARK VINA RESULT: -6.035448430      0.000      0.000
REMARK  9 active torsions:
REMARK  status: ('A' for Active; 'I' for Inactive)
REMARK    1  A    between atoms: C2_2  and  C3_3 
REMARK    2  A    between atoms: C2_2  and  C9_23 
REMARK    3  A    between atoms: C5_6  and  N1_7 
REMARK    4  A    between atoms: C5_6  and  N2_11 
REMARK    5  A    between atoms: C9_23  and  O6_24 
REMARK    6  A    between atoms: C9_23  and  C10_26 
REMARK    7  A    between atoms: C10_26  and  N5_27 
REMARK    8  A    between atoms: C10_26  and  O7_31 
REMARK    9  A    between atoms: C10_26  and  O8_33 
ROOT
HETATM    1  C3  UNL     1      -0.999 -27.617  14.239  1.00  0.00     0.159 C 
HETATM    2  C4  UNL     1      -2.177 -27.187  15.037  1.00  0.00     0.208 C 
HETATM    3  O1  UNL     1      -3.192 -28.149  14.795  1.00  0.00    -0.313 OA
HETATM    4  C5  UNL     1      -2.665 -28.989  13.826  1.00  0.00     0.439 C 
HETATM    5  O5  UNL     1      -1.299 -28.993  14.068  1.00  0.00    -0.307 OA
ENDROOT
BRANCH   4   6
HETATM    6  N1  UNL     1      -2.912 -28.472  12.481  1.00  0.00     0.000 N 
ATOM      7  H13 UNL     1      -2.824 -29.205  11.776  1.00  0.00     0.283 HD
ATOM      8  H12 UNL     1      -3.896 -28.241  12.343  1.00  0.00     0.283 HD
ATOM      9  H11 UNL     1      -2.308 -27.678  12.271  1.00  0.00     0.283 HD
ENDBRANCH   4   6
BRANCH   4  10
HETATM   10  N2  UNL     1      -3.280 -30.267  13.971  1.00  0.00    -0.167 N 
HETATM   11  C6  UNL     1      -4.473 -30.477  13.373  1.00  0.00     0.340 A 
HETATM   12  O2  UNL     1      -5.025 -29.567  12.706  1.00  0.00    -0.246 OA
HETATM   13  N3  UNL     1      -5.119 -31.655  13.461  1.00  0.00    -0.260 N 
HETATM   14  C7  UNL     1      -4.585 -32.666  14.157  1.00  0.00     0.332 A 
ATOM     15  H3  UNL     1      -6.018 -31.778  12.996  1.00  0.00     0.175 HD
HETATM   16  O3  UNL     1      -5.155 -33.789  14.268  1.00  0.00    -0.246 OA
HETATM   17  N4  UNL     1      -3.398 -32.487  14.764  1.00  0.00    -0.260 N 
HETATM   18  C8  UNL     1      -2.769 -31.301  14.662  1.00  0.00     0.340 A 
ATOM     19  H4  UNL     1      -2.976 -33.246  15.299  1.00  0.00     0.175 HD
HETATM   20  O4  UNL     1      -1.669 -31.122  15.220  1.00  0.00    -0.246 OA
ENDBRANCH   4  10
BRANCH   1  21
HETATM   21  C2  UNL     1       0.336 -27.523  14.876  1.00  0.00     0.049 C 
HETATM   22  C1  UNL     1       0.333 -26.116  15.552  1.00  0.00     0.015 C 
BRANCH  21  23
HETATM   23  C9  UNL     1       0.602 -28.416  16.043  1.00  0.00     0.217 C 
BRANCH  23  24
HETATM   24  O6  UNL     1      -0.558 -28.925  16.583  1.00  0.00    -0.388 OA
ATOM     25  H6  UNL     1      -0.640 -29.860  16.438  1.00  0.00     0.210 HD
ENDBRANCH  23  24
BRANCH  23  26
HETATM   26  C10 UNL     1       1.626 -29.467  15.920  1.00  0.00     0.358 C 
BRANCH  26  27
HETATM   27  N5  UNL     1       1.091 -30.814  16.168  1.00  0.00    -0.019 N 
ATOM     28  H53 UNL     1       0.468 -31.104  15.415  1.00  0.00     0.281 HD
ATOM     29  H52 UNL     1       1.818 -31.521  16.062  1.00  0.00     0.281 HD
ATOM     30  H51 UNL     1       0.632 -30.895  17.075  1.00  0.00     0.281 HD
ENDBRANCH  26  27
BRANCH  26  31
HETATM   31  O7  UNL     1       2.831 -29.239  16.536  1.00  0.00    -0.342 OA
ATOM     32  H7  UNL     1       3.394 -29.991  16.675  1.00  0.00     0.215 HD
ENDBRANCH  26  31
BRANCH  26  33
HETATM   33  O8  UNL     1       1.949 -29.523  14.532  1.00  0.00    -0.342 OA
ATOM     34  H8  UNL     1       1.736 -30.407  14.257  1.00  0.00     0.215 HD
ENDBRANCH  26  33
ENDBRANCH  23  26
ENDBRANCH  21  23
ENDBRANCH   1  21
TORSDOF 9
ENDMDL
MODEL 2
REMARK VINA RESULT: -6.027949292      4.465      7.427
REMARK  9 active torsions:
REMARK  status: ('A' for Active; 'I' for Inactive)
REMARK    1  A    between atoms: C2_2  and  C3_3 
REMARK    2  A    between atoms: C2_2  and  C9_23 
REMARK    3  A    between atoms: C5_6  and  N1_7 
REMARK    4  A    between atoms: C5_6  and  N2_11 
REMARK    5  A    between atoms: C9_23  and  O6_24 
REMARK    6  A    between atoms: C9_23  and  C10_26 
REMARK    7  A    between atoms: C10_26  and  N5_27 
REMARK    8  A    between atoms: C10_26  and  O7_31 
REMARK    9  A    between atoms: C10_26  and  O8_33 
ROOT
HETATM    1  C3  UNL     1       0.721 -31.343  17.263  1.00  0.00     0.159 C 
HETATM    2  C4  UNL     1      -0.544 -31.910  17.799  1.00  0.00     0.208 C 
HETATM    3  O1  UNL     1      -0.313 -32.159  19.176  1.00  0.00    -0.313 OA
HETATM    4  C5  UNL     1       1.029 -31.874  19.373  1.00  0.00     0.439 C 
HETATM    5  O5  UNL     1       1.312 -30.867  18.461  1.00  0.00    -0.307 OA
ENDROOT
BRANCH   4   6
HETATM    6  N1  UNL     1       1.869 -33.035  19.080  1.00  0.00     0.000 N 
ATOM      7  H13 UNL     1       2.378 -33.347  19.907  1.00  0.00     0.283 HD
ATOM      8  H12 UNL     1       1.307 -33.871  18.917  1.00  0.00     0.283 HD
ATOM      9  H11 UNL     1       2.500 -32.851  18.300  1.00  0.00     0.283 HD
ENDBRANCH   4   6
BRANCH   4  10
HETATM   10  N2  UNL     1       1.202 -31.486  20.732  1.00  0.00    -0.167 N 
HETATM   11  C6  UNL     1       2.460 -31.384  21.217  1.00  0.00     0.340 A 
HETATM   12  O2  UNL     1       3.450 -31.627  20.483  1.00  0.00    -0.246 OA
HETATM   13  N3  UNL     1       2.708 -31.024  22.489  1.00  0.00    -0.260 N 
HETATM   14  C7  UNL     1       1.698 -30.752  23.323  1.00  0.00     0.332 A 
ATOM     15  H3  UNL     1       3.671 -30.957  22.820  1.00  0.00     0.175 HD
HETATM   16  O3  UNL     1       1.882 -30.410  24.526  1.00  0.00    -0.246 OA
HETATM   17  N4  UNL     1       0.434 -30.845  22.871  1.00  0.00    -0.260 N 
HETATM   18  C8  UNL     1       0.208 -31.207  21.594  1.00  0.00     0.340 A 
ATOM     19  H4  UNL     1      -0.349 -30.642  23.492  1.00  0.00     0.175 HD
HETATM   20  O4  UNL     1      -0.958 -31.296  21.162  1.00  0.00    -0.246 OA
ENDBRANCH   4  10
BRANCH   1  21
HETATM   21  C2  UNL     1       0.621 -30.199  16.325  1.00  0.00     0.049 C 
HETATM   22  C1  UNL     1      -0.768 -29.566  16.650  1.00  0.00     0.015 C 
BRANCH  21  23
HETATM   23  C9  UNL     1       1.538 -29.044  16.553  1.00  0.00     0.217 C 
BRANCH  23  24
HETATM   24  O6  UNL     1       2.810 -29.449  16.891  1.00  0.00    -0.388 OA
ATOM     25  H6  UNL     1       3.464 -28.798  16.667  1.00  0.00     0.210 HD
ENDBRANCH  23  24
BRANCH  23  26
HETATM   26  C10 UNL     1       1.582 -27.959  15.558  1.00  0.00     0.358 C 
BRANCH  26  27
HETATM   27  N5  UNL     1       0.967 -26.715  16.045  1.00  0.00    -0.019 N 
ATOM     28  H53 UNL     1      -0.050 -26.767  15.994  1.00  0.00     0.281 HD
ATOM     29  H52 UNL     1       1.078 -26.624  17.054  1.00  0.00     0.281 HD
ATOM     30  H51 UNL     1       1.316 -25.887  15.562  1.00  0.00     0.281 HD
ENDBRANCH  26  27
BRANCH  26  31
HETATM   31  O7  UNL     1       1.222 -28.277  14.273  1.00  0.00    -0.342 OA
ATOM     32  H7  UNL     1       0.672 -27.654  13.812  1.00  0.00     0.215 HD
ENDBRANCH  26  31
BRANCH  26  33
HETATM   33  O8  UNL     1       2.957 -27.593  15.455  1.00  0.00    -0.342 OA
ATOM     34  H8  UNL     1       3.063 -27.252  14.575  1.00  0.00     0.215 HD
ENDBRANCH  26  33
ENDBRANCH  23  26
ENDBRANCH  21  23
ENDBRANCH   1  21
TORSDOF 9
ENDMDL
MODEL 3
REMARK VINA RESULT: -5.950793081      0.165      1.635
REMARK  9 active torsions:
REMARK  status: ('A' for Active; 'I' for Inactive)
REMARK    1  A    between atoms: C2_2  and  C3_3 
REMARK    2  A    between atoms: C2_2  and  C9_23 
REMARK    3  A    between atoms: C5_6  and  N1_7 
REMARK    4  A    between atoms: C5_6  and  N2_11 
REMARK    5  A    between atoms: C9_23  and  O6_24 
REMARK    6  A    between atoms: C9_23  and  C10_26 
REMARK    7  A    between atoms: C10_26  and  N5_27 
REMARK    8  A    between atoms: C10_26  and  O7_31 
REMARK    9  A    between atoms: C10_26  and  O8_33 
ROOT
HETATM    1  C3  UNL     1      -1.040 -27.652  14.229  1.00  0.00     0.159 C 
HETATM    2  C4  UNL     1      -2.181 -27.230  15.084  1.00  0.00     0.208 C 
HETATM    3  O1  UNL     1      -3.211 -28.180  14.867  1.00  0.00    -0.313 OA
HETATM    4  C5  UNL     1      -2.732 -29.006  13.862  1.00  0.00     0.439 C 
HETATM    5  O5  UNL     1      -1.356 -29.023  14.046  1.00  0.00    -0.307 OA
ENDROOT
BRANCH   4   6
HETATM    6  N1  UNL     1      -3.032 -28.462  12.538  1.00  0.00     0.000 N 
ATOM      7  H13 UNL     1      -2.203 -28.448  11.943  1.00  0.00     0.283 HD
ATOM      8  H12 UNL     1      -3.606 -29.104  11.991  1.00  0.00     0.283 HD
ATOM      9  H11 UNL     1      -3.461 -27.539  12.603  1.00  0.00     0.283 HD
ENDBRANCH   4   6
BRANCH   4  10
HETATM   10  N2  UNL     1      -3.349 -30.282  14.009  1.00  0.00    -0.167 N 
HETATM   11  C6  UNL     1      -2.700 -31.232  14.718  1.00  0.00     0.340 A 
HETATM   12  O2  UNL     1      -1.580 -30.993  15.233  1.00  0.00    -0.246 OA
HETATM   13  N3  UNL     1      -3.214 -32.461  14.902  1.00  0.00    -0.260 N 
HETATM   14  C7  UNL     1      -4.404 -32.781  14.379  1.00  0.00     0.332 A 
ATOM     15  H3  UNL     1      -2.696 -33.153  15.444  1.00  0.00     0.175 HD
HETATM   16  O3  UNL     1      -4.926 -33.923  14.526  1.00  0.00    -0.246 OA
HETATM   17  N4  UNL     1      -5.074 -31.857  13.668  1.00  0.00    -0.260 N 
HETATM   18  C8  UNL     1      -4.541 -30.632  13.495  1.00  0.00     0.340 A 
ATOM     19  H4  UNL     1      -5.982 -32.082  13.261  1.00  0.00     0.175 HD
HETATM   20  O4  UNL     1      -5.152 -29.767  12.839  1.00  0.00    -0.246 OA
ENDBRANCH   4  10
BRANCH   1  21
HETATM   21  C2  UNL     1       0.321 -27.578  14.811  1.00  0.00     0.049 C 
HETATM   22  C1  UNL     1       0.401 -26.135  15.401  1.00  0.00     0.015 C 
BRANCH  21  23
HETATM   23  C9  UNL     1       0.596 -28.411  16.019  1.00  0.00     0.217 C 
BRANCH  23  24
HETATM   24  O6  UNL     1      -0.560 -28.890  16.594  1.00  0.00    -0.388 OA
ATOM     25  H6  UNL     1      -1.188 -29.183  15.944  1.00  0.00     0.210 HD
ENDBRANCH  23  24
BRANCH  23  26
HETATM   26  C10 UNL     1       1.617 -29.470  15.940  1.00  0.00     0.358 C 
BRANCH  26  27
HETATM   27  N5  UNL     1       1.081 -30.802  16.258  1.00  0.00    -0.019 N 
ATOM     28  H53 UNL     1       1.648 -31.264  16.968  1.00  0.00     0.281 HD
ATOM     29  H52 UNL     1       0.202 -30.729  16.770  1.00  0.00     0.281 HD
ATOM     30  H51 UNL     1       0.976 -31.392  15.433  1.00  0.00     0.281 HD
ENDBRANCH  26  27
BRANCH  26  31
HETATM   31  O7  UNL     1       2.827 -29.215  16.534  1.00  0.00    -0.342 OA
ATOM     32  H7  UNL     1       3.228 -29.926  17.019  1.00  0.00     0.215 HD
ENDBRANCH  26  31
BRANCH  26  33
HETATM   33  O8  UNL     1       1.929 -29.595  14.553  1.00  0.00    -0.342 OA
ATOM     34  H8  UNL     1       1.110 -29.824  14.129  1.00  0.00     0.215 HD
ENDBRANCH  26  33
ENDBRANCH  23  26
ENDBRANCH  21  23
ENDBRANCH   1  21
TORSDOF 9
ENDMDL
MODEL 4
REMARK VINA RESULT: -5.755488114      2.680      3.587
REMARK  9 active torsions:
REMARK  status: ('A' for Active; 'I' for Inactive)
REMARK    1  A    between atoms: C2_2  and  C3_3 
REMARK    2  A    between atoms: C2_2  and  C9_23 
REMARK    3  A    between atoms: C5_6  and  N1_7 
REMARK    4  A    between atoms: C5_6  and  N2_11 
REMARK    5  A    between atoms: C9_23  and  O6_24 
REMARK    6  A    between atoms: C9_23  and  C10_26 
REMARK    7  A    between atoms: C10_26  and  N5_27 
REMARK    8  A    between atoms: C10_26  and  O7_31 
REMARK    9  A    between atoms: C10_26  and  O8_33 
ROOT
HETATM    1  C3  UNL     1      -1.679 -28.481  14.135  1.00  0.00     0.159 C 
HETATM    2  C4  UNL     1      -2.270 -28.002  12.858  1.00  0.00     0.208 C 
HETATM    3  O1  UNL     1      -3.674 -27.975  13.057  1.00  0.00    -0.313 OA
HETATM    4  C5  UNL     1      -3.869 -28.525  14.314  1.00  0.00     0.439 C 
HETATM    5  O5  UNL     1      -2.734 -28.174  15.032  1.00  0.00    -0.307 OA
ENDROOT
BRANCH   4   6
HETATM    6  N1  UNL     1      -3.963 -29.983  14.249  1.00  0.00     0.000 N 
ATOM      7  H13 UNL     1      -3.040 -30.418  14.243  1.00  0.00     0.283 HD
ATOM      8  H12 UNL     1      -4.314 -30.374  15.124  1.00  0.00     0.283 HD
ATOM      9  H11 UNL     1      -4.524 -30.285  13.452  1.00  0.00     0.283 HD
ENDBRANCH   4   6
BRANCH   4  10
HETATM   10  N2  UNL     1      -5.077 -27.989  14.847  1.00  0.00    -0.167 N 
HETATM   11  C6  UNL     1      -6.044 -28.847  15.239  1.00  0.00     0.340 A 
HETATM   12  O2  UNL     1      -5.878 -30.088  15.136  1.00  0.00    -0.246 OA
HETATM   13  N3  UNL     1      -7.212 -28.421  15.752  1.00  0.00    -0.260 N 
HETATM   14  C7  UNL     1      -7.452 -27.111  15.889  1.00  0.00     0.332 A 
ATOM     15  H3  UNL     1      -7.919 -29.099  16.039  1.00  0.00     0.175 HD
HETATM   16  O3  UNL     1      -8.534 -26.665  16.365  1.00  0.00    -0.246 OA
HETATM   17  N4  UNL     1      -6.509 -26.232  15.506  1.00  0.00    -0.260 N 
HETATM   18  C8  UNL     1      -5.346 -26.679  14.996  1.00  0.00     0.340 A 
ATOM     19  H4  UNL     1      -6.674 -25.230  15.603  1.00  0.00     0.175 HD
HETATM   20  O4  UNL     1      -4.465 -25.875  14.638  1.00  0.00    -0.246 OA
ENDBRANCH   4  10
BRANCH   1  21
HETATM   21  C2  UNL     1      -0.458 -27.801  14.627  1.00  0.00     0.049 C 
HETATM   22  C1  UNL     1      -0.989 -26.466  15.236  1.00  0.00     0.015 C 
BRANCH  21  23
HETATM   23  C9  UNL     1       0.240 -28.409  15.798  1.00  0.00     0.217 C 
BRANCH  23  24
HETATM   24  O6  UNL     1      -0.500 -29.415  16.378  1.00  0.00    -0.388 OA
ATOM     25  H6  UNL     1      -0.445 -29.399  17.326  1.00  0.00     0.210 HD
ENDBRANCH  23  24
BRANCH  23  26
HETATM   26  C10 UNL     1       1.650 -28.811  15.661  1.00  0.00     0.358 C 
BRANCH  26  27
HETATM   27  N5  UNL     1       1.915 -30.152  16.201  1.00  0.00    -0.019 N 
ATOM     28  H53 UNL     1       1.083 -30.739  16.146  1.00  0.00     0.281 HD
ATOM     29  H52 UNL     1       2.530 -30.680  15.583  1.00  0.00     0.281 HD
ATOM     30  H51 UNL     1       2.284 -30.129  17.152  1.00  0.00     0.281 HD
ENDBRANCH  26  27
BRANCH  26  31
HETATM   31  O7  UNL     1       2.599 -27.885  16.017  1.00  0.00    -0.342 OA
ATOM     32  H7  UNL     1       3.384 -27.845  15.484  1.00  0.00     0.215 HD
ENDBRANCH  26  31
BRANCH  26  33
HETATM   33  O8  UNL     1       1.857 -29.003  14.263  1.00  0.00    -0.342 OA
ATOM     34  H8  UNL     1       2.562 -28.412  14.027  1.00  0.00     0.215 HD
ENDBRANCH  26  33
ENDBRANCH  23  26
ENDBRANCH  21  23
ENDBRANCH   1  21
TORSDOF 9
ENDMDL
MODEL 5
REMARK VINA RESULT: -5.719614082      2.837      4.091
REMARK  9 active torsions:
REMARK  status: ('A' for Active; 'I' for Inactive)
REMARK    1  A    between atoms: C2_2  and  C3_3 
REMARK    2  A    between atoms: C2_2  and  C9_23 
REMARK    3  A    between atoms: C5_6  and  N1_7 
REMARK    4  A    between atoms: C5_6  and  N2_11 
REMARK    5  A    between atoms: C9_23  and  O6_24 
REMARK    6  A    between atoms: C9_23  and  C10_26 
REMARK    7  A    between atoms: C10_26  and  N5_27 
REMARK    8  A    between atoms: C10_26  and  O7_31 
REMARK    9  A    between atoms: C10_26  and  O8_33 
ROOT
HETATM    1  C3  UNL     1      -2.223 -28.816  14.428  1.00  0.00     0.159 C 
HETATM    2  C4  UNL     1      -2.657 -29.165  13.049  1.00  0.00     0.208 C 
HETATM    3  O1  UNL     1      -4.019 -28.782  12.954  1.00  0.00    -0.313 OA
HETATM    4  C5  UNL     1      -4.365 -28.367  14.231  1.00  0.00     0.439 C 
HETATM    5  O5  UNL     1      -3.195 -27.837  14.758  1.00  0.00    -0.307 OA
ENDROOT
BRANCH   4   6
HETATM    6  N1  UNL     1      -4.797 -29.492  15.059  1.00  0.00     0.000 N 
ATOM      7  H13 UNL     1      -4.586 -30.386  14.615  1.00  0.00     0.283 HD
ATOM      8  H12 UNL     1      -4.215 -29.589  15.891  1.00  0.00     0.283 HD
ATOM      9  H11 UNL     1      -5.786 -29.418  15.300  1.00  0.00     0.283 HD
ENDBRANCH   4   6
BRANCH   4  10
HETATM   10  N2  UNL     1      -5.424 -27.421  14.114  1.00  0.00    -0.167 N 
HETATM   11  C6  UNL     1      -6.568 -27.809  13.509  1.00  0.00     0.340 A 
HETATM   12  O2  UNL     1      -6.692 -28.975  13.062  1.00  0.00    -0.246 OA
HETATM   13  N3  UNL     1      -7.615 -26.976  13.360  1.00  0.00    -0.260 N 
HETATM   14  C7  UNL     1      -7.547 -25.718  13.814  1.00  0.00     0.332 A 
ATOM     15  H3  UNL     1      -8.463 -27.304  12.898  1.00  0.00     0.175 HD
HETATM   16  O3  UNL     1      -8.504 -24.901  13.695  1.00  0.00    -0.246 OA
HETATM   17  N4  UNL     1      -6.420 -25.303  14.420  1.00  0.00    -0.260 N 
HETATM   18  C8  UNL     1      -5.385 -26.152  14.560  1.00  0.00     0.340 A 
ATOM     19  H4  UNL     1      -6.350 -24.348  14.772  1.00  0.00     0.175 HD
HETATM   20  O4  UNL     1      -4.336 -25.779  15.120  1.00  0.00    -0.246 OA
ENDBRANCH   4  10
BRANCH   1  21
HETATM   21  C2  UNL     1      -0.886 -28.196  14.593  1.00  0.00     0.049 C 
HETATM   22  C1  UNL     1      -1.195 -26.791  15.199  1.00  0.00     0.015 C 
BRANCH  21  23
HETATM   23  C9  UNL     1       0.015 -28.779  15.630  1.00  0.00     0.217 C 
BRANCH  23  24
HETATM   24  O6  UNL     1      -0.313 -30.082  15.931  1.00  0.00    -0.388 OA
ATOM     25  H6  UNL     1       0.370 -30.519  16.425  1.00  0.00     0.210 HD
ENDBRANCH  23  24
BRANCH  23  26
HETATM   26  C10 UNL     1       1.473 -28.630  15.476  1.00  0.00     0.358 C 
BRANCH  26  27
HETATM   27  N5  UNL     1       2.218 -29.802  15.957  1.00  0.00    -0.019 N 
ATOM     28  H53 UNL     1       2.335 -29.770  16.970  1.00  0.00     0.281 HD
ATOM     29  H52 UNL     1       1.655 -30.649  15.883  1.00  0.00     0.281 HD
ATOM     30  H51 UNL     1       3.117 -29.918  15.489  1.00  0.00     0.281 HD
ENDBRANCH  26  27
BRANCH  26  31
HETATM   31  O7  UNL     1       2.022 -27.436  15.871  1.00  0.00    -0.342 OA
ATOM     32  H7  UNL     1       2.965 -27.348  15.792  1.00  0.00     0.215 HD
ENDBRANCH  26  31
BRANCH  26  33
HETATM   33  O8  UNL     1       1.713 -28.678  14.071  1.00  0.00    -0.342 OA
ATOM     34  H8  UNL     1       2.548 -29.120  13.971  1.00  0.00     0.215 HD
ENDBRANCH  26  33
ENDBRANCH  23  26
ENDBRANCH  21  23
ENDBRANCH   1  21
TORSDOF 9
ENDMDL
