MODEL 1
REMARK VINA RESULT: -7.028365021      0.000      0.000
REMARK  1 active torsions:
REMARK  status: ('A' for Active; 'I' for Inactive)
REMARK    1  A    between atoms: C15_15  and  C16_16 
ROOT
HETATM    1  C1  UNL     1       3.922  -8.890  -9.845  1.00  0.00     0.010 C 
HETATM    2  C2  UNL     1       2.646  -9.707  -9.885  1.00  0.00    -0.014 C 
HETATM    3  C3  UNL     1       2.831 -10.850 -10.820  1.00  0.00     0.005 C 
HETATM    4  C4  UNL     1       3.521 -12.040 -10.263  1.00  0.00     0.006 C 
HETATM    5  C5  UNL     1       3.153 -12.378  -8.843  1.00  0.00     0.002 C 
HETATM    6  C6  UNL     1       1.808 -13.001  -8.760  1.00  0.00     0.029 C 
HETATM    7  C7  UNL     1       0.652 -12.068  -8.894  1.00  0.00     0.009 C 
HETATM    8  C8  UNL     1       0.869 -10.662  -8.527  1.00  0.00     0.006 C 
HETATM    9  C9  UNL     1       2.254 -10.160  -8.472  1.00  0.00    -0.002 C 
HETATM   10  C10 UNL     1       3.307 -11.112  -8.029  1.00  0.00     0.053 C 
HETATM   11  C11 UNL     1       3.316 -11.373  -6.535  1.00  0.00     0.172 C 
HETATM   12  C12 UNL     1       4.560 -10.725  -5.984  1.00  0.00     0.072 C 
HETATM   13  C13 UNL     1       4.504 -10.366  -4.552  1.00  0.00     0.029 C 
HETATM   14  C14 UNL     1       4.589 -11.463  -3.541  1.00  0.00     0.026 C 
HETATM   15  C15 UNL     1       3.463 -10.783  -2.777  1.00  0.00     0.125 C 
HETATM   16  C17 UNL     1       3.117 -10.072  -4.091  1.00  0.00     0.110 C 
HETATM   17  C18 UNL     1       2.953  -8.588  -3.793  1.00  0.00     0.050 C 
HETATM   18  O3  UNL     1       2.104 -10.555  -4.793  1.00  0.00    -0.226 OA
HETATM   19  O4  UNL     1       2.163 -10.977  -5.948  1.00  0.00    -0.206 OA
HETATM   20  N1  UNL     1       3.439 -12.787  -6.395  1.00  0.00    -0.366 N 
ATOM     21  H1  UNL     1       4.355 -13.233  -6.341  1.00  0.00     0.161 HD
HETATM   22  C19 UNL     1       2.271 -13.536  -6.333  1.00  0.00     0.096 C 
HETATM   23  C20 UNL     1       1.645 -13.965  -7.601  1.00  0.00     0.212 C 
HETATM   24  F1  UNL     1       2.077 -15.242  -7.930  1.00  0.00    -0.243 F 
ENDROOT
BRANCH  15  25
HETATM   25  C16 UNL     1       2.425 -11.713  -2.305  1.00  0.00     0.180 C 
HETATM   26  O1  UNL     1       1.644 -11.433  -1.374  1.00  0.00    -0.648 OA
HETATM   27  O2  UNL     1       2.298 -12.962  -2.912  1.00  0.00    -0.648 OA
ENDBRANCH  15  25
TORSDOF 1
ENDMDL
MODEL 2
REMARK VINA RESULT: -6.970445380      2.618      6.516
REMARK  1 active torsions:
REMARK  status: ('A' for Active; 'I' for Inactive)
REMARK    1  A    between atoms: C15_15  and  C16_16 
ROOT
HETATM    1  C1  UNL     1       5.507 -13.967  -1.806  1.00  0.00     0.010 C 
HETATM    2  C2  UNL     1       4.270 -13.327  -1.207  1.00  0.00    -0.014 C 
HETATM    3  C3  UNL     1       4.688 -12.271  -0.246  1.00  0.00     0.005 C 
HETATM    4  C4  UNL     1       5.026 -10.952  -0.837  1.00  0.00     0.006 C 
HETATM    5  C5  UNL     1       4.139 -10.523  -1.976  1.00  0.00     0.002 C 
HETATM    6  C6  UNL     1       2.810 -10.070  -1.493  1.00  0.00     0.029 C 
HETATM    7  C7  UNL     1       1.864 -11.152  -1.095  1.00  0.00     0.009 C 
HETATM    8  C8  UNL     1       2.048 -12.475  -1.707  1.00  0.00     0.006 C 
HETATM    9  C9  UNL     1       3.354 -12.788  -2.315  1.00  0.00    -0.002 C 
HETATM   10  C10 UNL     1       4.092 -11.670  -2.961  1.00  0.00     0.053 C 
HETATM   11  C11 UNL     1       3.534 -11.260  -4.311  1.00  0.00     0.172 C 
HETATM   12  C12 UNL     1       4.541 -11.685  -5.348  1.00  0.00     0.072 C 
HETATM   13  C13 UNL     1       3.997 -11.901  -6.704  1.00  0.00     0.029 C 
HETATM   14  C14 UNL     1       3.618 -10.705  -7.517  1.00  0.00     0.026 C 
HETATM   15  C15 UNL     1       2.351 -11.443  -7.924  1.00  0.00     0.125 C 
HETATM   16  C17 UNL     1       2.567 -12.322  -6.686  1.00  0.00     0.110 C 
HETATM   17  C18 UNL     1       2.429 -13.777  -7.112  1.00  0.00     0.050 C 
HETATM   18  O3  UNL     1       1.843 -12.046  -5.612  1.00  0.00    -0.226 OA
HETATM   19  O4  UNL     1       2.283 -11.739  -4.505  1.00  0.00    -0.206 OA
HETATM   20  N1  UNL     1       3.480  -9.835  -4.286  1.00  0.00    -0.366 N 
ATOM     21  H1  UNL     1       4.273  -9.272  -4.594  1.00  0.00     0.161 HD
HETATM   22  C19 UNL     1       2.312  -9.238  -3.827  1.00  0.00     0.096 C 
HETATM   23  C20 UNL     1       2.158  -9.024  -2.374  1.00  0.00     0.212 C 
HETATM   24  F1  UNL     1       2.572  -7.741  -2.042  1.00  0.00    -0.243 F 
ENDROOT
BRANCH  15  25
HETATM   25  C16 UNL     1       1.139 -10.611  -7.867  1.00  0.00     0.180 C 
HETATM   26  O1  UNL     1       0.860  -9.896  -6.884  1.00  0.00    -0.648 OA
HETATM   27  O2  UNL     1       0.258 -10.612  -8.948  1.00  0.00    -0.648 OA
ENDBRANCH  15  25
TORSDOF 1
ENDMDL
MODEL 3
REMARK VINA RESULT: -6.467857978      2.853      6.774
REMARK  1 active torsions:
REMARK  status: ('A' for Active; 'I' for Inactive)
REMARK    1  A    between atoms: C15_15  and  C16_16 
ROOT
HETATM    1  C1  UNL     1       6.081 -13.445  -1.335  1.00  0.00     0.010 C 
HETATM    2  C2  UNL     1       4.903 -12.765  -0.666  1.00  0.00    -0.014 C 
HETATM    3  C3  UNL     1       5.405 -11.648   0.179  1.00  0.00     0.005 C 
HETATM    4  C4  UNL     1       5.681 -10.372  -0.526  1.00  0.00     0.006 C 
HETATM    5  C5  UNL     1       4.691 -10.017  -1.603  1.00  0.00     0.002 C 
HETATM    6  C6  UNL     1       3.410  -9.531  -1.030  1.00  0.00     0.029 C 
HETATM    7  C7  UNL     1       2.509 -10.582  -0.474  1.00  0.00     0.009 C 
HETATM    8  C8  UNL     1       2.641 -11.942  -1.012  1.00  0.00     0.006 C 
HETATM    9  C9  UNL     1       3.886 -12.297  -1.717  1.00  0.00    -0.002 C 
HETATM   10  C10 UNL     1       4.556 -11.226  -2.501  1.00  0.00     0.053 C 
HETATM   11  C11 UNL     1       3.874 -10.905  -3.817  1.00  0.00     0.172 C 
HETATM   12  C12 UNL     1       4.781 -11.401  -4.914  1.00  0.00     0.072 C 
HETATM   13  C13 UNL     1       4.114 -11.705  -6.196  1.00  0.00     0.029 C 
HETATM   14  C14 UNL     1       3.655 -10.565  -7.047  1.00  0.00     0.026 C 
HETATM   15  C15 UNL     1       2.359 -11.325  -7.285  1.00  0.00     0.125 C 
HETATM   16  C17 UNL     1       2.693 -12.120  -6.016  1.00  0.00     0.110 C 
HETATM   17  C18 UNL     1       2.522 -13.600  -6.331  1.00  0.00     0.050 C 
HETATM   18  O3  UNL     1       2.071 -11.772  -4.901  1.00  0.00    -0.226 OA
HETATM   19  O4  UNL     1       2.611 -11.393  -3.862  1.00  0.00    -0.206 OA
HETATM   20  N1  UNL     1       3.817  -9.482  -3.882  1.00  0.00    -0.366 N 
ATOM     21  H1  UNL     1       4.575  -8.943  -4.299  1.00  0.00     0.161 HD
HETATM   22  C19 UNL     1       2.693  -8.854  -3.357  1.00  0.00     0.096 C 
HETATM   23  C20 UNL     1       2.675  -8.543  -1.913  1.00  0.00     0.212 C 
HETATM   24  F1  UNL     1       3.114  -7.242  -1.706  1.00  0.00    -0.243 F 
ENDROOT
BRANCH  15  25
HETATM   25  C16 UNL     1       1.155 -10.488  -7.170  1.00  0.00     0.180 C 
HETATM   26  O1  UNL     1       0.169 -10.619  -7.922  1.00  0.00    -0.648 OA
HETATM   27  O2  UNL     1       1.099  -9.502  -6.184  1.00  0.00    -0.648 OA
ENDBRANCH  15  25
TORSDOF 1
ENDMDL
MODEL 4
REMARK VINA RESULT: -5.999959511      1.604      2.095
REMARK  1 active torsions:
REMARK  status: ('A' for Active; 'I' for Inactive)
REMARK    1  A    between atoms: C15_15  and  C16_16 
ROOT
HETATM    1  C1  UNL     1       3.670 -10.009  -8.819  1.00  0.00     0.010 C 
HETATM    2  C2  UNL     1       2.380 -10.724  -8.466  1.00  0.00    -0.014 C 
HETATM    3  C3  UNL     1       2.444 -12.119  -8.980  1.00  0.00     0.005 C 
HETATM    4  C4  UNL     1       3.165 -13.095  -8.125  1.00  0.00     0.006 C 
HETATM    5  C5  UNL     1       2.941 -12.926  -6.646  1.00  0.00     0.002 C 
HETATM    6  C6  UNL     1       1.601 -13.414  -6.236  1.00  0.00     0.029 C 
HETATM    7  C7  UNL     1       0.456 -12.517  -6.565  1.00  0.00     0.009 C 
HETATM    8  C8  UNL     1       0.738 -11.082  -6.709  1.00  0.00     0.006 C 
HETATM    9  C9  UNL     1       2.131 -10.665  -6.952  1.00  0.00    -0.002 C 
HETATM   10  C10 UNL     1       3.206 -11.473  -6.318  1.00  0.00     0.053 C 
HETATM   11  C11 UNL     1       3.367 -11.228  -4.830  1.00  0.00     0.172 C 
HETATM   12  C12 UNL     1       4.674 -10.502  -4.644  1.00  0.00     0.072 C 
HETATM   13  C13 UNL     1       4.776  -9.689  -3.414  1.00  0.00     0.029 C 
HETATM   14  C14 UNL     1       4.946 -10.396  -2.108  1.00  0.00     0.026 C 
HETATM   15  C15 UNL     1       3.920  -9.443  -1.513  1.00  0.00     0.125 C 
HETATM   16  C17 UNL     1       3.451  -9.186  -2.951  1.00  0.00     0.110 C 
HETATM   17  C18 UNL     1       3.349  -7.680  -3.151  1.00  0.00     0.050 C 
HETATM   18  O3  UNL     1       2.360  -9.818  -3.355  1.00  0.00    -0.226 OA
HETATM   19  O4  UNL     1       2.289 -10.599  -4.304  1.00  0.00    -0.206 OA
HETATM   20  N1  UNL     1       3.476 -12.521  -4.239  1.00  0.00    -0.366 N 
ATOM     21  H1  UNL     1       4.383 -12.973  -4.125  1.00  0.00     0.161 HD
HETATM   22  C19 UNL     1       2.306 -13.145  -3.824  1.00  0.00     0.096 C 
HETATM   23  C20 UNL     1       1.542 -13.933  -4.813  1.00  0.00     0.212 C 
HETATM   24  F1  UNL     1       1.912 -15.268  -4.736  1.00  0.00    -0.243 F 
ENDROOT
BRANCH  15  25
HETATM   25  C16 UNL     1       2.919 -10.108  -0.665  1.00  0.00     0.180 C 
HETATM   26  O1  UNL     1       2.096  -9.476   0.027  1.00  0.00    -0.648 OA
HETATM   27  O2  UNL     1       2.877 -11.501  -0.621  1.00  0.00    -0.648 OA
ENDBRANCH  15  25
TORSDOF 1
ENDMDL
MODEL 5
REMARK VINA RESULT: -5.845324353      3.165      7.110
REMARK  1 active torsions:
REMARK  status: ('A' for Active; 'I' for Inactive)
REMARK    1  A    between atoms: C15_15  and  C16_16 
ROOT
HETATM    1  C1  UNL     1       5.746 -13.056  -0.318  1.00  0.00     0.010 C 
HETATM    2  C2  UNL     1       4.662 -12.136   0.209  1.00  0.00    -0.014 C 
HETATM    3  C3  UNL     1       5.299 -10.987   0.908  1.00  0.00     0.005 C 
HETATM    4  C4  UNL     1       5.759  -9.873   0.042  1.00  0.00     0.006 C 
HETATM    5  C5  UNL     1       4.843  -9.546  -1.107  1.00  0.00     0.002 C 
HETATM    6  C6  UNL     1       3.632  -8.817  -0.651  1.00  0.00     0.029 C 
HETATM    7  C7  UNL     1       2.588  -9.648   0.014  1.00  0.00     0.009 C 
HETATM    8  C8  UNL     1       2.540 -11.077  -0.325  1.00  0.00     0.006 C 
HETATM    9  C9  UNL     1       3.735 -11.692  -0.931  1.00  0.00    -0.002 C 
HETATM   10  C10 UNL     1       4.556 -10.842  -1.833  1.00  0.00     0.053 C 
HETATM   11  C11 UNL     1       3.944 -10.624  -3.203  1.00  0.00     0.172 C 
HETATM   12  C12 UNL     1       4.792 -11.386  -4.189  1.00  0.00     0.072 C 
HETATM   13  C13 UNL     1       4.108 -11.778  -5.438  1.00  0.00     0.029 C 
HETATM   14  C14 UNL     1       3.823 -10.720  -6.455  1.00  0.00     0.026 C 
HETATM   15  C15 UNL     1       2.439 -11.326  -6.629  1.00  0.00     0.125 C 
HETATM   16  C17 UNL     1       2.642 -11.970  -5.251  1.00  0.00     0.110 C 
HETATM   17  C18 UNL     1       2.274 -13.444  -5.363  1.00  0.00     0.050 C 
HETATM   18  O3  UNL     1       2.056 -11.387  -4.217  1.00  0.00    -0.226 OA
HETATM   19  O4  UNL     1       2.628 -10.940  -3.223  1.00  0.00    -0.206 OA
HETATM   20  N1  UNL     1       4.084  -9.229  -3.467  1.00  0.00    -0.366 N 
ATOM     21  H1  UNL     1       4.915  -8.861  -3.929  1.00  0.00     0.161 HD
HETATM   22  C19 UNL     1       3.050  -8.388  -3.073  1.00  0.00     0.096 C 
HETATM   23  C20 UNL     1       3.052  -7.875  -1.687  1.00  0.00     0.212 C 
HETATM   24  F1  UNL     1       3.662  -6.629  -1.649  1.00  0.00    -0.243 F 
ENDROOT
BRANCH  15  25
HETATM   25  C16 UNL     1       1.359 -10.328  -6.672  1.00  0.00     0.180 C 
HETATM   26  O1  UNL     1       1.357  -9.306  -5.957  1.00  0.00    -0.648 OA
HETATM   27  O2  UNL     1       0.287 -10.518  -7.543  1.00  0.00    -0.648 OA
ENDBRANCH  15  25
TORSDOF 1
ENDMDL
