MODEL 1
REMARK VINA RESULT: -7.871755112      0.000      0.000
REMARK  4 active torsions:
REMARK  status: ('A' for Active; 'I' for Inactive)
REMARK    1  A    between atoms: C2_2  and  C3_4 
REMARK    2  A    between atoms: C11_12  and  O2_13 
REMARK    3  A    between atoms: O2_13  and  C12_14 
REMARK    4  A    between atoms: C19_24  and  O4_25 
ROOT
HETATM    1  C3  UNL     1       1.773 -11.931  -8.315  1.00  0.00     0.033 C 
HETATM    2  C4  UNL     1       0.802 -11.196  -7.379  1.00  0.00     0.018 C 
HETATM    3  C5  UNL     1       1.145 -11.423  -5.942  1.00  0.00     0.007 C 
HETATM    4  C6  UNL     1       2.561 -11.750  -5.635  1.00  0.00     0.002 C 
HETATM    5  C7  UNL     1       3.528 -11.158  -6.656  1.00  0.00     0.002 C 
HETATM    6  C8  UNL     1       4.890 -11.691  -6.307  1.00  0.00     0.006 C 
HETATM    7  C9  UNL     1       5.291 -11.141  -4.934  1.00  0.00     0.008 C 
HETATM    8  C10 UNL     1       4.264 -11.146  -3.898  1.00  0.00     0.027 A 
HETATM    9  C11 UNL     1       3.251  -9.950  -3.833  1.00  0.00     0.147 A 
HETATM   10  C13 UNL     1       2.867 -11.290  -4.235  1.00  0.00    -0.007 A 
HETATM   11  C14 UNL     1       2.016 -12.052  -3.203  1.00  0.00     0.019 C 
HETATM   12  C15 UNL     1       3.074 -11.232  -8.053  1.00  0.00     0.005 C 
HETATM   13  C16 UNL     1       2.813  -9.758  -8.455  1.00  0.00     0.020 C 
HETATM   14  C17 UNL     1       4.164 -11.636  -9.038  1.00  0.00     0.182 C 
HETATM   15  F1  UNL     1       4.849 -12.761  -8.713  1.00  0.00    -0.248 F 
HETATM   16  C18 UNL     1       3.740 -11.665 -10.443  1.00  0.00     0.069 C 
HETATM   17  C19 UNL     1       2.320 -11.484 -10.772  1.00  0.00     0.122 C 
HETATM   18  C20 UNL     1       1.296 -11.673  -9.734  1.00  0.00     0.050 C 
ENDROOT
BRANCH   9  19
HETATM   19  O2  UNL     1       2.962  -9.494  -2.520  1.00  0.00    -0.300 OA
BRANCH  19  20
HETATM   20  C12 UNL     1       3.558  -8.382  -1.976  1.00  0.00     0.373 C 
HETATM   21  N1  UNL     1       3.386  -7.061  -2.462  1.00  0.00    -0.032 NA
HETATM   22  O3  UNL     1       4.306  -8.612  -0.966  1.00  0.00    -0.242 OA
ENDBRANCH  19  20
ENDBRANCH   9  19
BRANCH   1  23
HETATM   23  C2  UNL     1       1.593 -13.335  -8.062  1.00  0.00     0.132 C 
HETATM   24  C1  UNL     1       2.472 -14.336  -7.407  1.00  0.00     0.091 C 
HETATM   25  O1  UNL     1       0.544 -13.856  -8.435  1.00  0.00    -0.298 OA
ENDBRANCH   1  23
BRANCH  17  26
HETATM   26  O4  UNL     1       2.011 -12.277 -11.915  1.00  0.00    -0.395 OA
ATOM     27  H4  UNL     1       2.572 -12.010 -12.633  1.00  0.00     0.210 HD
ENDBRANCH  17  26
TORSDOF 4
ENDMDL
MODEL 2
REMARK VINA RESULT: -7.416259209      1.972      2.372
REMARK  4 active torsions:
REMARK  status: ('A' for Active; 'I' for Inactive)
REMARK    1  A    between atoms: C2_2  and  C3_4 
REMARK    2  A    between atoms: C11_12  and  O2_13 
REMARK    3  A    between atoms: O2_13  and  C12_14 
REMARK    4  A    between atoms: C19_24  and  O4_25 
ROOT
HETATM    1  C3  UNL     1       1.722 -12.395  -7.184  1.00  0.00     0.033 C 
HETATM    2  C4  UNL     1       0.746 -12.771  -6.059  1.00  0.00     0.018 C 
HETATM    3  C5  UNL     1       1.469 -13.140  -4.804  1.00  0.00     0.007 C 
HETATM    4  C6  UNL     1       2.823 -12.561  -4.616  1.00  0.00     0.002 C 
HETATM    5  C7  UNL     1       2.985 -11.220  -5.325  1.00  0.00     0.002 C 
HETATM    6  C8  UNL     1       4.429 -10.834  -5.176  1.00  0.00     0.006 C 
HETATM    7  C9  UNL     1       4.718 -10.596  -3.690  1.00  0.00     0.008 C 
HETATM    8  C10 UNL     1       4.164 -11.562  -2.748  1.00  0.00     0.027 A 
HETATM    9  C11 UNL     1       2.684 -11.378  -2.261  1.00  0.00     0.147 A 
HETATM   10  C13 UNL     1       3.099 -12.455  -3.139  1.00  0.00    -0.007 A 
HETATM   11  C14 UNL     1       3.130 -13.846  -2.481  1.00  0.00     0.019 C 
HETATM   12  C15 UNL     1       2.366 -11.147  -6.657  1.00  0.00     0.005 C 
HETATM   13  C16 UNL     1       1.194 -10.147  -6.486  1.00  0.00     0.020 C 
HETATM   14  C17 UNL     1       3.224 -10.445  -7.702  1.00  0.00     0.182 C 
HETATM   15  F1  UNL     1       4.497 -10.904  -7.807  1.00  0.00    -0.248 F 
HETATM   16  C18 UNL     1       2.600 -10.319  -9.024  1.00  0.00     0.069 C 
HETATM   17  C19 UNL     1       1.325 -10.999  -9.288  1.00  0.00     0.122 C 
HETATM   18  C20 UNL     1       0.883 -12.095  -8.414  1.00  0.00     0.050 C 
ENDROOT
BRANCH   9  19
HETATM   19  O2  UNL     1       2.484 -11.629  -0.878  1.00  0.00    -0.300 OA
BRANCH  19  20
HETATM   20  C12 UNL     1       1.284 -11.393  -0.250  1.00  0.00     0.373 C 
HETATM   21  N1  UNL     1       0.708 -10.108  -0.081  1.00  0.00    -0.032 NA
HETATM   22  O3  UNL     1       0.693 -12.436   0.191  1.00  0.00    -0.242 OA
ENDBRANCH  19  20
ENDBRANCH   9  19
BRANCH   1  23
HETATM   23  C2  UNL     1       2.479 -13.583  -7.475  1.00  0.00     0.132 C 
HETATM   24  C1  UNL     1       3.914 -13.778  -7.806  1.00  0.00     0.091 C 
HETATM   25  O1  UNL     1       1.885 -14.659  -7.467  1.00  0.00    -0.298 OA
ENDBRANCH   1  23
BRANCH  17  26
HETATM   26  O4  UNL     1       1.303 -11.419 -10.649  1.00  0.00    -0.395 OA
ATOM     27  H4  UNL     1       1.354 -10.652 -11.207  1.00  0.00     0.210 HD
ENDBRANCH  17  26
TORSDOF 4
ENDMDL
MODEL 3
REMARK VINA RESULT: -7.336193009      2.786      3.782
REMARK  4 active torsions:
REMARK  status: ('A' for Active; 'I' for Inactive)
REMARK    1  A    between atoms: C2_2  and  C3_4 
REMARK    2  A    between atoms: C11_12  and  O2_13 
REMARK    3  A    between atoms: O2_13  and  C12_14 
REMARK    4  A    between atoms: C19_24  and  O4_25 
ROOT
HETATM    1  C3  UNL     1       2.851 -10.906  -7.061  1.00  0.00     0.033 C 
HETATM    2  C4  UNL     1       3.849 -10.549  -5.949  1.00  0.00     0.018 C 
HETATM    3  C5  UNL     1       3.339 -10.953  -4.603  1.00  0.00     0.007 C 
HETATM    4  C6  UNL     1       2.365 -12.072  -4.564  1.00  0.00     0.002 C 
HETATM    5  C7  UNL     1       2.546 -13.042  -5.728  1.00  0.00     0.002 C 
HETATM    6  C8  UNL     1       1.412 -14.023  -5.643  1.00  0.00     0.006 C 
HETATM    7  C9  UNL     1       1.567 -14.835  -4.353  1.00  0.00     0.008 C 
HETATM    8  C10 UNL     1       1.928 -14.095  -3.149  1.00  0.00     0.027 A 
HETATM    9  C11 UNL     1       3.442 -13.791  -2.875  1.00  0.00     0.147 A 
HETATM   10  C13 UNL     1       2.482 -12.764  -3.231  1.00  0.00    -0.007 A 
HETATM   11  C14 UNL     1       2.095 -11.817  -2.081  1.00  0.00     0.019 C 
HETATM   12  C15 UNL     1       2.838 -12.405  -7.022  1.00  0.00     0.005 C 
HETATM   13  C16 UNL     1       4.299 -12.817  -7.337  1.00  0.00     0.020 C 
HETATM   14  C17 UNL     1       2.083 -13.015  -8.196  1.00  0.00     0.182 C 
HETATM   15  F1  UNL     1       0.741 -13.126  -8.026  1.00  0.00    -0.248 F 
HETATM   16  C18 UNL     1       2.400 -12.424  -9.502  1.00  0.00     0.069 C 
HETATM   17  C19 UNL     1       3.250 -11.228  -9.566  1.00  0.00     0.122 C 
HETATM   18  C20 UNL     1       3.447 -10.403  -8.365  1.00  0.00     0.050 C 
ENDROOT
BRANCH   9  19
HETATM   19  O2  UNL     1       3.840 -13.950  -1.521  1.00  0.00    -0.300 OA
BRANCH  19  20
HETATM   20  C12 UNL     1       5.130 -13.735  -1.099  1.00  0.00     0.373 C 
HETATM   21  N1  UNL     1       5.930 -14.704  -0.443  1.00  0.00    -0.032 NA
HETATM   22  O3  UNL     1       5.588 -12.567  -1.341  1.00  0.00    -0.242 OA
ENDBRANCH  19  20
ENDBRANCH   9  19
BRANCH   1  23
HETATM   23  C2  UNL     1       1.671 -10.123  -6.811  1.00  0.00     0.132 C 
HETATM   24  C1  UNL     1       0.382 -10.030  -7.541  1.00  0.00     0.091 C 
HETATM   25  O1  UNL     1       1.674  -9.375  -5.836  1.00  0.00    -0.298 OA
ENDBRANCH   1  23
BRANCH  17  26
HETATM   26  O4  UNL     1       2.815 -10.415 -10.651  1.00  0.00    -0.395 OA
ATOM     27  H4  UNL     1       3.354  -9.633 -10.683  1.00  0.00     0.210 HD
ENDBRANCH  17  26
TORSDOF 4
ENDMDL
MODEL 4
REMARK VINA RESULT: -7.240335063      2.946      7.000
REMARK  4 active torsions:
REMARK  status: ('A' for Active; 'I' for Inactive)
REMARK    1  A    between atoms: C2_2  and  C3_4 
REMARK    2  A    between atoms: C11_12  and  O2_13 
REMARK    3  A    between atoms: O2_13  and  C12_14 
REMARK    4  A    between atoms: C19_24  and  O4_25 
ROOT
HETATM    1  C3  UNL     1       4.359 -10.566  -2.468  1.00  0.00     0.033 C 
HETATM    2  C4  UNL     1       4.335  -9.707  -3.740  1.00  0.00     0.018 C 
HETATM    3  C5  UNL     1       4.206 -10.548  -4.969  1.00  0.00     0.007 C 
HETATM    4  C6  UNL     1       3.556 -11.873  -4.808  1.00  0.00     0.002 C 
HETATM    5  C7  UNL     1       2.556 -11.894  -3.656  1.00  0.00     0.002 C 
HETATM    6  C8  UNL     1       2.097 -13.318  -3.519  1.00  0.00     0.006 C 
HETATM    7  C9  UNL     1       1.331 -13.707  -4.789  1.00  0.00     0.008 C 
HETATM    8  C10 UNL     1       1.911 -13.290  -6.061  1.00  0.00     0.027 A 
HETATM    9  C11 UNL     1       1.610 -11.845  -6.590  1.00  0.00     0.147 A 
HETATM   10  C13 UNL     1       2.917 -12.257  -6.117  1.00  0.00    -0.007 A 
HETATM   11  C14 UNL     1       3.977 -12.428  -7.221  1.00  0.00     0.019 C 
HETATM   12  C15 UNL     1       2.986 -11.168  -2.451  1.00  0.00     0.005 C 
HETATM   13  C16 UNL     1       2.028  -9.953  -2.367  1.00  0.00     0.020 C 
HETATM   14  C17 UNL     1       2.681 -11.896  -1.148  1.00  0.00     0.182 C 
HETATM   15  F1  UNL     1       3.107 -13.183  -1.092  1.00  0.00    -0.248 F 
HETATM   16  C18 UNL     1       3.058 -11.163   0.066  1.00  0.00     0.069 C 
HETATM   17  C19 UNL     1       3.826  -9.917  -0.053  1.00  0.00     0.122 C 
HETATM   18  C20 UNL     1       4.547  -9.615  -1.298  1.00  0.00     0.050 C 
ENDROOT
BRANCH   9  19
HETATM   19  O2  UNL     1       1.352 -11.770  -7.985  1.00  0.00    -0.300 OA
BRANCH  19  20
HETATM   20  C12 UNL     1       1.269 -10.575  -8.658  1.00  0.00     0.373 C 
HETATM   21  N1  UNL     1       2.311 -10.025  -9.446  1.00  0.00    -0.032 NA
HETATM   22  O3  UNL     1       0.155  -9.962  -8.531  1.00  0.00    -0.242 OA
ENDBRANCH  19  20
ENDBRANCH   9  19
BRANCH   1  23
HETATM   23  C2  UNL     1       5.548 -11.371  -2.546  1.00  0.00     0.132 C 
HETATM   24  C1  UNL     1       6.844 -11.145  -3.235  1.00  0.00     0.091 C 
HETATM   25  O1  UNL     1       5.549 -12.453  -1.962  1.00  0.00    -0.298 OA
ENDBRANCH   1  23
BRANCH  17  26
HETATM   26  O4  UNL     1       4.709  -9.815   1.061  1.00  0.00    -0.395 OA
ATOM     27  H4  UNL     1       5.250  -9.042   0.951  1.00  0.00     0.210 HD
ENDBRANCH  17  26
TORSDOF 4
ENDMDL
MODEL 5
REMARK VINA RESULT: -6.713267676      1.004      1.086
REMARK  4 active torsions:
REMARK  status: ('A' for Active; 'I' for Inactive)
REMARK    1  A    between atoms: C2_2  and  C3_4 
REMARK    2  A    between atoms: C11_12  and  O2_13 
REMARK    3  A    between atoms: O2_13  and  C12_14 
REMARK    4  A    between atoms: C19_24  and  O4_25 
ROOT
HETATM    1  C3  UNL     1       1.933 -12.192  -7.428  1.00  0.00     0.033 C 
HETATM    2  C4  UNL     1       0.990 -11.507  -6.428  1.00  0.00     0.018 C 
HETATM    3  C5  UNL     1       1.490 -11.634  -5.025  1.00  0.00     0.007 C 
HETATM    4  C6  UNL     1       2.953 -11.814  -4.850  1.00  0.00     0.002 C 
HETATM    5  C7  UNL     1       3.756 -11.183  -5.983  1.00  0.00     0.002 C 
HETATM    6  C8  UNL     1       5.190 -11.570  -5.753  1.00  0.00     0.006 C 
HETATM    7  C9  UNL     1       5.666 -10.922  -4.448  1.00  0.00     0.008 C 
HETATM    8  C10 UNL     1       4.748 -10.973  -3.315  1.00  0.00     0.027 A 
HETATM    9  C11 UNL     1       3.635  -9.875  -3.194  1.00  0.00     0.147 A 
HETATM   10  C13 UNL     1       3.347 -11.261  -3.505  1.00  0.00    -0.007 A 
HETATM   11  C14 UNL     1       2.676 -12.050  -2.365  1.00  0.00     0.019 C 
HETATM   12  C15 UNL     1       3.179 -11.365  -7.324  1.00  0.00     0.005 C 
HETATM   13  C16 UNL     1       2.740  -9.941  -7.753  1.00  0.00     0.020 C 
HETATM   14  C17 UNL     1       4.203 -11.711  -8.397  1.00  0.00     0.182 C 
HETATM   15  F1  UNL     1       5.023 -12.751  -8.100  1.00  0.00    -0.248 F 
HETATM   16  C18 UNL     1       3.652 -11.846  -9.751  1.00  0.00     0.069 C 
HETATM   17  C19 UNL     1       2.196 -11.813  -9.942  1.00  0.00     0.122 C 
HETATM   18  C20 UNL     1       1.299 -12.047  -8.801  1.00  0.00     0.050 C 
ENDROOT
BRANCH   9  19
HETATM   19  O2  UNL     1       3.431  -9.386  -1.877  1.00  0.00    -0.300 OA
BRANCH  19  20
HETATM   20  C12 UNL     1       2.707  -8.247  -1.615  1.00  0.00     0.373 C 
HETATM   21  N1  UNL     1       3.195  -6.928  -1.793  1.00  0.00    -0.032 NA
HETATM   22  O3  UNL     1       1.520  -8.451  -1.185  1.00  0.00    -0.242 OA
ENDBRANCH  19  20
ENDBRANCH   9  19
BRANCH   1  23
HETATM   23  C2  UNL     1       1.915 -13.594  -7.105  1.00  0.00     0.132 C 
HETATM   24  C1  UNL     1       1.621 -14.306  -5.836  1.00  0.00     0.091 C 
HETATM   25  O1  UNL     1       2.187 -14.392  -8.000  1.00  0.00    -0.298 OA
ENDBRANCH   1  23
BRANCH  17  26
HETATM   26  O4  UNL     1       1.856 -12.684 -11.018  1.00  0.00    -0.395 OA
ATOM     27  H4  UNL     1       1.025 -12.406 -11.384  1.00  0.00     0.210 HD
ENDBRANCH  17  26
TORSDOF 4
ENDMDL
