MODEL 1
REMARK VINA RESULT: -7.675767515      0.000      0.000
REMARK  6 active torsions:
REMARK  status: ('A' for Active; 'I' for Inactive)
REMARK    1  A    between atoms: C5_5  and  C6_6 
REMARK    2  A    between atoms: C7_7  and  C9_10 
REMARK    3  A    between atoms: C10_11  and  C11_12 
REMARK    4  A    between atoms: C11_12  and  O1_15 
REMARK    5  A    between atoms: C15_18  and  O2_19 
REMARK    6  A    between atoms: O2_19  and  C16_20 
ROOT
HETATM    1  C6  UNL     1       7.990  -0.784 -26.456  1.00  0.00     0.043 C 
HETATM    2  C7  UNL     1       8.300  -1.974 -26.890  1.00  0.00     0.098 C 
HETATM    3  C8  UNL     1       8.232  -2.309 -28.271  1.00  0.00     0.108 C 
HETATM    4  N1  UNL     1       8.197  -2.602 -29.414  1.00  0.00    -0.191 NA
ENDROOT
BRANCH   2   5
HETATM    5  C9  UNL     1       8.726  -3.035 -25.989  1.00  0.00    -0.053 C 
HETATM    6  C10 UNL     1       9.098  -3.919 -25.254  1.00  0.00    -0.063 C 
BRANCH   6   7
HETATM    7  C11 UNL     1       9.572  -5.003 -24.378  1.00  0.00     0.114 C 
HETATM    8  C12 UNL     1      11.098  -5.048 -24.386  1.00  0.00     0.060 C 
HETATM    9  C13 UNL     1       8.980  -6.294 -24.896  1.00  0.00     0.060 C 
BRANCH   7  10
HETATM   10  O1  UNL     1       9.090  -4.701 -23.100  1.00  0.00    -0.378 OA
ATOM     11  H1  UNL     1       9.824  -4.827 -22.509  1.00  0.00     0.211 HD
ENDBRANCH   7  10
ENDBRANCH   6   7
ENDBRANCH   2   5
BRANCH   1  12
HETATM   12  C5  UNL     1       7.547   0.320 -27.292  1.00  0.00    -0.032 A 
HETATM   13  C4  UNL     1       8.248   1.526 -27.363  1.00  0.00     0.012 A 
HETATM   14  C3  UNL     1       7.788   2.558 -28.143  1.00  0.00     0.010 A 
HETATM   15  C2  UNL     1       6.620   2.467 -28.895  1.00  0.00    -0.029 A 
HETATM   16  C1  UNL     1       6.171   3.642 -29.702  1.00  0.00     0.051 C 
HETATM   17  C15 UNL     1       5.909   1.294 -28.848  1.00  0.00     0.076 A 
HETATM   18  C14 UNL     1       6.410   0.236 -28.028  1.00  0.00     0.048 A 
BRANCH  17  19
HETATM   19  O2  UNL     1       4.787   1.064 -29.510  1.00  0.00    -0.346 OA
BRANCH  19  20
HETATM   20  C16 UNL     1       3.730   0.294 -29.647  1.00  0.00     0.120 C 
HETATM   21  C17 UNL     1       3.406   0.141 -31.148  1.00  0.00     0.040 C 
HETATM   22  C18 UNL     1       2.441   0.846 -29.022  1.00  0.00     0.040 C 
ENDBRANCH  19  20
ENDBRANCH  17  19
ENDBRANCH   1  12
TORSDOF 6
ENDMDL
MODEL 2
REMARK VINA RESULT: -7.332382277      4.200      5.614
REMARK  6 active torsions:
REMARK  status: ('A' for Active; 'I' for Inactive)
REMARK    1  A    between atoms: C5_5  and  C6_6 
REMARK    2  A    between atoms: C7_7  and  C9_10 
REMARK    3  A    between atoms: C10_11  and  C11_12 
REMARK    4  A    between atoms: C11_12  and  O1_15 
REMARK    5  A    between atoms: C15_18  and  O2_19 
REMARK    6  A    between atoms: O2_19  and  C16_20 
ROOT
HETATM    1  C6  UNL     1       4.330  -1.912 -28.741  1.00  0.00     0.043 C 
HETATM    2  C7  UNL     1       3.299  -2.303 -28.045  1.00  0.00     0.098 C 
HETATM    3  C8  UNL     1       2.318  -1.384 -27.577  1.00  0.00     0.108 C 
HETATM    4  N1  UNL     1       1.487  -0.640 -27.193  1.00  0.00    -0.191 NA
ENDROOT
BRANCH   2   5
HETATM    5  C9  UNL     1       3.091  -3.701 -27.695  1.00  0.00    -0.053 C 
HETATM    6  C10 UNL     1       2.927  -4.856 -27.383  1.00  0.00    -0.063 C 
BRANCH   6   7
HETATM    7  C11 UNL     1       2.742  -6.260 -26.979  1.00  0.00     0.114 C 
HETATM    8  C12 UNL     1       1.731  -6.345 -25.839  1.00  0.00     0.060 C 
HETATM    9  C13 UNL     1       4.094  -6.790 -26.557  1.00  0.00     0.060 C 
BRANCH   7  10
HETATM   10  O1  UNL     1       2.269  -6.926 -28.113  1.00  0.00    -0.378 OA
ATOM     11  H1  UNL     1       2.086  -7.816 -27.835  1.00  0.00     0.211 HD
ENDBRANCH   7  10
ENDBRANCH   6   7
ENDBRANCH   2   5
BRANCH   1  12
HETATM   12  C5  UNL     1       4.608  -0.536 -29.118  1.00  0.00    -0.032 A 
HETATM   13  C4  UNL     1       3.925   0.103 -30.155  1.00  0.00     0.012 A 
HETATM   14  C3  UNL     1       4.230   1.396 -30.502  1.00  0.00     0.010 A 
HETATM   15  C2  UNL     1       5.218   2.133 -29.855  1.00  0.00    -0.029 A 
HETATM   16  C1  UNL     1       5.509   3.528 -30.306  1.00  0.00     0.051 C 
HETATM   17  C15 UNL     1       5.907   1.534 -28.830  1.00  0.00     0.076 A 
HETATM   18  C14 UNL     1       5.570   0.187 -28.490  1.00  0.00     0.048 A 
BRANCH  17  19
HETATM   19  O2  UNL     1       6.867   2.111 -28.127  1.00  0.00    -0.346 OA
BRANCH  19  20
HETATM   20  C16 UNL     1       8.135   2.457 -28.074  1.00  0.00     0.120 C 
HETATM   21  C17 UNL     1       8.736   1.971 -26.738  1.00  0.00     0.040 C 
HETATM   22  C18 UNL     1       8.394   3.970 -28.093  1.00  0.00     0.040 C 
ENDBRANCH  19  20
ENDBRANCH  17  19
ENDBRANCH   1  12
TORSDOF 6
ENDMDL
MODEL 3
REMARK VINA RESULT: -7.170263429      1.559      1.891
REMARK  6 active torsions:
REMARK  status: ('A' for Active; 'I' for Inactive)
REMARK    1  A    between atoms: C5_5  and  C6_6 
REMARK    2  A    between atoms: C7_7  and  C9_10 
REMARK    3  A    between atoms: C10_11  and  C11_12 
REMARK    4  A    between atoms: C11_12  and  O1_15 
REMARK    5  A    between atoms: C15_18  and  O2_19 
REMARK    6  A    between atoms: O2_19  and  C16_20 
ROOT
HETATM    1  C6  UNL     1       7.578  -0.778 -27.251  1.00  0.00     0.043 C 
HETATM    2  C7  UNL     1       8.202  -0.855 -26.109  1.00  0.00     0.098 C 
HETATM    3  C8  UNL     1       8.582   0.308 -25.383  1.00  0.00     0.108 C 
HETATM    4  N1  UNL     1       8.892   1.261 -24.759  1.00  0.00    -0.191 NA
ENDROOT
BRANCH   2   5
HETATM    5  C9  UNL     1       8.557  -2.133 -25.509  1.00  0.00    -0.053 C 
HETATM    6  C10 UNL     1       8.861  -3.200 -25.032  1.00  0.00    -0.063 C 
BRANCH   6   7
HETATM    7  C11 UNL     1       9.240  -4.510 -24.476  1.00  0.00     0.114 C 
HETATM    8  C12 UNL     1      10.737  -4.742 -24.664  1.00  0.00     0.060 C 
HETATM    9  C13 UNL     1       8.424  -5.559 -25.197  1.00  0.00     0.060 C 
BRANCH   7  10
HETATM   10  O1  UNL     1       8.912  -4.459 -23.117  1.00  0.00    -0.378 OA
ATOM     11  H1  UNL     1       9.718  -4.639 -22.648  1.00  0.00     0.211 HD
ENDBRANCH   7  10
ENDBRANCH   6   7
ENDBRANCH   2   5
BRANCH   1  12
HETATM   12  C5  UNL     1       7.203   0.459 -27.915  1.00  0.00    -0.032 A 
HETATM   13  C4  UNL     1       7.956   1.629 -27.787  1.00  0.00     0.012 A 
HETATM   14  C3  UNL     1       7.560   2.788 -28.407  1.00  0.00     0.010 A 
HETATM   15  C2  UNL     1       6.408   2.866 -29.185  1.00  0.00    -0.029 A 
HETATM   16  C1  UNL     1       6.030   4.171 -29.808  1.00  0.00     0.051 C 
HETATM   17  C15 UNL     1       5.646   1.734 -29.332  1.00  0.00     0.076 A 
HETATM   18  C14 UNL     1       6.082   0.542 -28.675  1.00  0.00     0.048 A 
BRANCH  17  19
HETATM   19  O2  UNL     1       4.533   1.660 -30.041  1.00  0.00    -0.346 OA
BRANCH  19  20
HETATM   20  C16 UNL     1       3.410   1.010 -30.260  1.00  0.00     0.120 C 
HETATM   21  C17 UNL     1       2.790   0.603 -28.907  1.00  0.00     0.040 C 
HETATM   22  C18 UNL     1       3.565  -0.307 -31.033  1.00  0.00     0.040 C 
ENDBRANCH  19  20
ENDBRANCH  17  19
ENDBRANCH   1  12
TORSDOF 6
ENDMDL
MODEL 4
REMARK VINA RESULT: -7.115990391      4.556      7.660
REMARK  6 active torsions:
REMARK  status: ('A' for Active; 'I' for Inactive)
REMARK    1  A    between atoms: C5_5  and  C6_6 
REMARK    2  A    between atoms: C7_7  and  C9_10 
REMARK    3  A    between atoms: C10_11  and  C11_12 
REMARK    4  A    between atoms: C11_12  and  O1_15 
REMARK    5  A    between atoms: C15_18  and  O2_19 
REMARK    6  A    between atoms: O2_19  and  C16_20 
ROOT
HETATM    1  C6  UNL     1       1.714  -1.224 -28.060  1.00  0.00     0.043 C 
HETATM    2  C7  UNL     1       0.876  -0.995 -27.087  1.00  0.00     0.098 C 
HETATM    3  C8  UNL     1       0.941   0.192 -26.305  1.00  0.00     0.108 C 
HETATM    4  N1  UNL     1       0.970   1.178 -25.656  1.00  0.00    -0.191 NA
ENDROOT
BRANCH   2   5
HETATM    5  C9  UNL     1      -0.172  -1.942 -26.734  1.00  0.00    -0.053 C 
HETATM    6  C10 UNL     1      -1.036  -2.724 -26.419  1.00  0.00    -0.063 C 
BRANCH   6   7
HETATM    7  C11 UNL     1      -2.081  -3.678 -26.007  1.00  0.00     0.114 C 
HETATM    8  C12 UNL     1      -1.501  -5.088 -25.943  1.00  0.00     0.060 C 
HETATM    9  C13 UNL     1      -3.199  -3.586 -27.020  1.00  0.00     0.060 C 
BRANCH   7  10
HETATM   10  O1  UNL     1      -2.506  -3.257 -24.743  1.00  0.00    -0.378 OA
ATOM     11  H1  UNL     1      -3.141  -3.902 -24.455  1.00  0.00     0.211 HD
ENDBRANCH   7  10
ENDBRANCH   6   7
ENDBRANCH   2   5
BRANCH   1  12
HETATM   12  C5  UNL     1       2.790  -0.333 -28.461  1.00  0.00    -0.032 A 
HETATM   13  C4  UNL     1       2.572   0.767 -29.295  1.00  0.00     0.012 A 
HETATM   14  C3  UNL     1       3.615   1.574 -29.676  1.00  0.00     0.010 A 
HETATM   15  C2  UNL     1       4.925   1.351 -29.262  1.00  0.00    -0.029 A 
HETATM   16  C1  UNL     1       6.012   2.261 -29.739  1.00  0.00     0.051 C 
HETATM   17  C15 UNL     1       5.173   0.279 -28.441  1.00  0.00     0.076 A 
HETATM   18  C14 UNL     1       4.069  -0.545 -28.061  1.00  0.00     0.048 A 
BRANCH  17  19
HETATM   19  O2  UNL     1       6.363  -0.052 -27.970  1.00  0.00    -0.346 OA
BRANCH  19  20
HETATM   20  C16 UNL     1       7.161  -0.085 -26.924  1.00  0.00     0.120 C 
HETATM   21  C17 UNL     1       8.122   1.122 -26.983  1.00  0.00     0.040 C 
HETATM   22  C18 UNL     1       8.078  -1.314 -26.849  1.00  0.00     0.040 C 
ENDBRANCH  19  20
ENDBRANCH  17  19
ENDBRANCH   1  12
TORSDOF 6
ENDMDL
MODEL 5
REMARK VINA RESULT: -7.019411643      4.023      5.681
REMARK  6 active torsions:
REMARK  status: ('A' for Active; 'I' for Inactive)
REMARK    1  A    between atoms: C5_5  and  C6_6 
REMARK    2  A    between atoms: C7_7  and  C9_10 
REMARK    3  A    between atoms: C10_11  and  C11_12 
REMARK    4  A    between atoms: C11_12  and  O1_15 
REMARK    5  A    between atoms: C15_18  and  O2_19 
REMARK    6  A    between atoms: O2_19  and  C16_20 
ROOT
HETATM    1  C6  UNL     1       5.580  -1.920 -28.242  1.00  0.00     0.043 C 
HETATM    2  C7  UNL     1       4.337  -2.239 -28.012  1.00  0.00     0.098 C 
HETATM    3  C8  UNL     1       3.349  -1.254 -27.733  1.00  0.00     0.108 C 
HETATM    4  N1  UNL     1       2.513  -0.450 -27.514  1.00  0.00    -0.191 NA
ENDROOT
BRANCH   2   5
HETATM    5  C9  UNL     1       3.884  -3.623 -28.016  1.00  0.00    -0.053 C 
HETATM    6  C10 UNL     1       3.530  -4.777 -28.015  1.00  0.00    -0.063 C 
BRANCH   6   7
HETATM    7  C11 UNL     1       3.127  -6.194 -28.014  1.00  0.00     0.114 C 
HETATM    8  C12 UNL     1       2.198  -6.469 -26.834  1.00  0.00     0.060 C 
HETATM    9  C13 UNL     1       4.388  -7.023 -27.928  1.00  0.00     0.060 C 
BRANCH   7  10
HETATM   10  O1  UNL     1       2.464  -6.404 -29.227  1.00  0.00    -0.378 OA
ATOM     11  H1  UNL     1       1.964  -7.204 -29.115  1.00  0.00     0.211 HD
ENDBRANCH   7  10
ENDBRANCH   6   7
ENDBRANCH   2   5
BRANCH   1  12
HETATM   12  C5  UNL     1       6.107  -0.565 -28.243  1.00  0.00    -0.032 A 
HETATM   13  C4  UNL     1       5.666   0.403 -29.149  1.00  0.00     0.012 A 
HETATM   14  C3  UNL     1       6.202   1.667 -29.140  1.00  0.00     0.010 A 
HETATM   15  C2  UNL     1       7.197   2.053 -28.244  1.00  0.00    -0.029 A 
HETATM   16  C1  UNL     1       7.748   3.441 -28.311  1.00  0.00     0.051 C 
HETATM   17  C15 UNL     1       7.650   1.125 -27.340  1.00  0.00     0.076 A 
HETATM   18  C14 UNL     1       7.075  -0.183 -27.373  1.00  0.00     0.048 A 
BRANCH  17  19
HETATM   19  O2  UNL     1       8.585   1.351 -26.432  1.00  0.00    -0.346 OA
BRANCH  19  20
HETATM   20  C16 UNL     1       8.958   1.206 -25.179  1.00  0.00     0.120 C 
HETATM   21  C17 UNL     1      10.221   2.055 -24.926  1.00  0.00     0.040 C 
HETATM   22  C18 UNL     1       9.359  -0.222 -24.784  1.00  0.00     0.040 C 
ENDBRANCH  19  20
ENDBRANCH  17  19
ENDBRANCH   1  12
TORSDOF 6
ENDMDL
