MODEL 1
REMARK VINA RESULT: -7.010519688      0.000      0.000
REMARK  3 active torsions:
REMARK  status: ('A' for Active; 'I' for Inactive)
REMARK    1  A    between atoms: C2_2  and  N1_3 
REMARK    2  A    between atoms: N1_3  and  C3_4 
REMARK       I    between atoms: N1_3  and  C5_6 
REMARK       I    between atoms: C5_6  and  N2_8 
REMARK    3  A    between atoms: N2_8  and  C6_10 
ROOT
HETATM    1  C6  UNL     1       2.914  -1.331 -27.780  1.00  0.00     0.114 C 
HETATM    2  C7  UNL     1       3.190  -2.603 -28.438  1.00  0.00    -0.005 C 
HETATM    3  C8  UNL     1       2.343  -3.605 -28.335  1.00  0.00    -0.027 C 
HETATM    4  C9  UNL     1       1.121  -3.451 -27.560  1.00  0.00     0.042 C 
HETATM    5  C10 UNL     1       0.531  -2.084 -27.545  1.00  0.00     0.058 C 
HETATM    6  S1  UNL     1      -0.227  -1.682 -25.934  1.00  0.00    -0.154 SA
HETATM    7  C11 UNL     1      -0.062   0.132 -26.186  1.00  0.00     0.002 C 
HETATM    8  C12 UNL     1      -0.091   0.836 -24.871  1.00  0.00     0.026 C 
HETATM    9  C13 UNL     1      -1.214   0.546 -27.066  1.00  0.00     0.026 C 
HETATM   10  C14 UNL     1       1.256   0.176 -26.886  1.00  0.00     0.027 C 
HETATM   11  C15 UNL     1       1.432  -0.961 -27.791  1.00  0.00     0.027 C 
ENDROOT
BRANCH   1  12
HETATM   12  N2  UNL     1       3.639  -0.269 -28.455  1.00  0.00    -0.335 N 
HETATM   13  C5  UNL     1       4.972   0.079 -28.122  1.00  0.00     0.318 C 
HETATM   14  N1  UNL     1       5.625   1.121 -28.811  1.00  0.00    -0.335 N 
HETATM   15  O1  UNL     1       5.587  -0.546 -27.200  1.00  0.00    -0.247 OA
ATOM     16  H2  UNL     1       3.170   0.248 -29.200  1.00  0.00     0.165 HD
BRANCH  14  17
HETATM   17  C2  UNL     1       4.950   1.852 -29.840  1.00  0.00     0.123 C 
HETATM   18  C1  UNL     1       4.572   0.994 -31.032  1.00  0.00     0.026 C 
ENDBRANCH  14  17
BRANCH  14  19
HETATM   19  C3  UNL     1       7.001   1.443 -28.458  1.00  0.00     0.123 C 
HETATM   20  C4  UNL     1       7.302   2.905 -28.685  1.00  0.00     0.026 C 
ENDBRANCH  14  19
ENDBRANCH   1  12
TORSDOF 3
ENDMDL
MODEL 2
REMARK VINA RESULT: -6.821990563      3.040      5.891
REMARK  3 active torsions:
REMARK  status: ('A' for Active; 'I' for Inactive)
REMARK    1  A    between atoms: C2_2  and  N1_3 
REMARK    2  A    between atoms: N1_3  and  C3_4 
REMARK       I    between atoms: N1_3  and  C5_6 
REMARK       I    between atoms: C5_6  and  N2_8 
REMARK    3  A    between atoms: N2_8  and  C6_10 
ROOT
HETATM    1  C6  UNL     1       1.400  -2.420 -27.616  1.00  0.00     0.114 C 
HETATM    2  C7  UNL     1      -0.024  -2.533 -27.326  1.00  0.00    -0.005 C 
HETATM    3  C8  UNL     1      -0.837  -1.527 -27.566  1.00  0.00    -0.027 C 
HETATM    4  C9  UNL     1      -0.318  -0.289 -28.127  1.00  0.00     0.042 C 
HETATM    5  C10 UNL     1       0.847  -0.429 -29.042  1.00  0.00     0.058 C 
HETATM    6  S1  UNL     1       2.020   0.960 -28.878  1.00  0.00    -0.154 SA
HETATM    7  C11 UNL     1       3.439  -0.019 -29.519  1.00  0.00     0.002 C 
HETATM    8  C12 UNL     1       4.725   0.586 -29.065  1.00  0.00     0.026 C 
HETATM    9  C13 UNL     1       3.318  -0.010 -31.022  1.00  0.00     0.026 C 
HETATM   10  C14 UNL     1       3.129  -1.348 -28.913  1.00  0.00     0.027 C 
HETATM   11  C15 UNL     1       1.690  -1.611 -28.879  1.00  0.00     0.027 C 
ENDROOT
BRANCH   1  12
HETATM   12  N2  UNL     1       1.964  -3.746 -27.802  1.00  0.00    -0.335 N 
HETATM   13  C5  UNL     1       2.552  -4.482 -26.743  1.00  0.00     0.318 C 
HETATM   14  N1  UNL     1       3.086  -5.764 -26.983  1.00  0.00    -0.335 N 
HETATM   15  O1  UNL     1       2.602  -3.990 -25.571  1.00  0.00    -0.247 OA
ATOM     16  H2  UNL     1       1.936  -4.164 -28.732  1.00  0.00     0.165 HD
BRANCH  14  17
HETATM   17  C2  UNL     1       3.058  -6.333 -28.296  1.00  0.00     0.123 C 
HETATM   18  C1  UNL     1       4.440  -6.559 -28.878  1.00  0.00     0.026 C 
ENDBRANCH  14  17
BRANCH  14  19
HETATM   19  C3  UNL     1       3.668  -6.503 -25.870  1.00  0.00     0.123 C 
HETATM   20  C4  UNL     1       2.621  -7.298 -25.128  1.00  0.00     0.026 C 
ENDBRANCH  14  19
ENDBRANCH   1  12
TORSDOF 3
ENDMDL
MODEL 3
REMARK VINA RESULT: -6.746856548      1.288      1.620
REMARK  3 active torsions:
REMARK  status: ('A' for Active; 'I' for Inactive)
REMARK    1  A    between atoms: C2_2  and  N1_3 
REMARK    2  A    between atoms: N1_3  and  C3_4 
REMARK       I    between atoms: N1_3  and  C5_6 
REMARK       I    between atoms: C5_6  and  N2_8 
REMARK    3  A    between atoms: N2_8  and  C6_10 
ROOT
HETATM    1  C6  UNL     1       2.927  -2.624 -27.637  1.00  0.00     0.114 C 
HETATM    2  C7  UNL     1       3.390  -3.996 -27.802  1.00  0.00    -0.005 C 
HETATM    3  C8  UNL     1       2.728  -4.994 -27.257  1.00  0.00    -0.027 C 
HETATM    4  C9  UNL     1       1.524  -4.734 -26.483  1.00  0.00     0.042 C 
HETATM    5  C10 UNL     1       0.713  -3.564 -26.919  1.00  0.00     0.058 C 
HETATM    6  S1  UNL     1      -0.049  -2.693 -25.506  1.00  0.00    -0.154 SA
HETATM    7  C11 UNL     1      -0.199  -1.107 -26.424  1.00  0.00     0.002 C 
HETATM    8  C12 UNL     1      -0.302   0.032 -25.466  1.00  0.00     0.026 C 
HETATM    9  C13 UNL     1      -1.432  -1.227 -27.283  1.00  0.00     0.026 C 
HETATM   10  C14 UNL     1       1.070  -1.144 -27.212  1.00  0.00     0.027 C 
HETATM   11  C15 UNL     1       1.405  -2.501 -27.645  1.00  0.00     0.027 C 
ENDROOT
BRANCH   1  12
HETATM   12  N2  UNL     1       3.441  -1.805 -28.722  1.00  0.00    -0.335 N 
HETATM   13  C5  UNL     1       4.332  -0.724 -28.508  1.00  0.00     0.318 C 
HETATM   14  N1  UNL     1       4.796   0.037 -29.600  1.00  0.00    -0.335 N 
HETATM   15  O1  UNL     1       4.717  -0.434 -27.331  1.00  0.00    -0.247 OA
ATOM     16  H2  UNL     1       3.149  -2.017 -29.676  1.00  0.00     0.165 HD
BRANCH  14  17
HETATM   17  C2  UNL     1       4.364  -0.258 -30.932  1.00  0.00     0.123 C 
HETATM   18  C1  UNL     1       2.877  -0.046 -31.138  1.00  0.00     0.026 C 
ENDBRANCH  14  17
BRANCH  14  19
HETATM   19  C3  UNL     1       5.725   1.132 -29.350  1.00  0.00     0.123 C 
HETATM   20  C4  UNL     1       5.224   2.427 -29.941  1.00  0.00     0.026 C 
ENDBRANCH  14  19
ENDBRANCH   1  12
TORSDOF 3
ENDMDL
MODEL 4
REMARK VINA RESULT: -6.592494439      3.240      5.438
REMARK  3 active torsions:
REMARK  status: ('A' for Active; 'I' for Inactive)
REMARK    1  A    between atoms: C2_2  and  N1_3 
REMARK    2  A    between atoms: N1_3  and  C3_4 
REMARK       I    between atoms: N1_3  and  C5_6 
REMARK       I    between atoms: C5_6  and  N2_8 
REMARK    3  A    between atoms: N2_8  and  C6_10 
ROOT
HETATM    1  C6  UNL     1       1.002  -3.135 -26.996  1.00  0.00     0.114 C 
HETATM    2  C7  UNL     1      -0.225  -3.594 -26.356  1.00  0.00    -0.005 C 
HETATM    3  C8  UNL     1      -1.310  -2.851 -26.382  1.00  0.00    -0.027 C 
HETATM    4  C9  UNL     1      -1.294  -1.559 -27.052  1.00  0.00     0.042 C 
HETATM    5  C10 UNL     1      -0.393  -1.453 -28.232  1.00  0.00     0.058 C 
HETATM    6  S1  UNL     1       0.370   0.201 -28.366  1.00  0.00    -0.154 SA
HETATM    7  C11 UNL     1       1.798  -0.417 -29.346  1.00  0.00     0.002 C 
HETATM    8  C12 UNL     1       2.946   0.528 -29.230  1.00  0.00     0.026 C 
HETATM    9  C13 UNL     1       1.316  -0.538 -30.770  1.00  0.00     0.026 C 
HETATM   10  C14 UNL     1       2.012  -1.739 -28.684  1.00  0.00     0.027 C 
HETATM   11  C15 UNL     1       0.748  -2.363 -28.290  1.00  0.00     0.027 C 
ENDROOT
BRANCH   1  12
HETATM   12  N2  UNL     1       1.836  -4.279 -27.321  1.00  0.00    -0.335 N 
HETATM   13  C5  UNL     1       2.820  -4.785 -26.435  1.00  0.00     0.318 C 
HETATM   14  N1  UNL     1       3.602  -5.897 -26.805  1.00  0.00    -0.335 N 
HETATM   15  O1  UNL     1       3.002  -4.239 -25.300  1.00  0.00    -0.247 OA
ATOM     16  H2  UNL     1       1.710  -4.737 -28.225  1.00  0.00     0.165 HD
BRANCH  14  17
HETATM   17  C2  UNL     1       3.429  -6.519 -28.083  1.00  0.00     0.123 C 
HETATM   18  C1  UNL     1       4.686  -6.504 -28.929  1.00  0.00     0.026 C 
ENDBRANCH  14  17
BRANCH  14  19
HETATM   19  C3  UNL     1       4.592  -6.405 -25.865  1.00  0.00     0.123 C 
HETATM   20  C4  UNL     1       5.829  -5.539 -25.844  1.00  0.00     0.026 C 
ENDBRANCH  14  19
ENDBRANCH   1  12
TORSDOF 3
ENDMDL
MODEL 5
REMARK VINA RESULT: -6.326723233      3.710      6.353
REMARK  3 active torsions:
REMARK  status: ('A' for Active; 'I' for Inactive)
REMARK    1  A    between atoms: C2_2  and  N1_3 
REMARK    2  A    between atoms: N1_3  and  C3_4 
REMARK       I    between atoms: N1_3  and  C5_6 
REMARK       I    between atoms: C5_6  and  N2_8 
REMARK    3  A    between atoms: N2_8  and  C6_10 
ROOT
HETATM    1  C6  UNL     1       6.760  -0.837 -27.049  1.00  0.00     0.114 C 
HETATM    2  C7  UNL     1       7.514   0.128 -26.259  1.00  0.00    -0.005 C 
HETATM    3  C8  UNL     1       8.532  -0.261 -25.522  1.00  0.00    -0.027 C 
HETATM    4  C9  UNL     1       8.915  -1.665 -25.491  1.00  0.00     0.042 C 
HETATM    5  C10 UNL     1       8.677  -2.430 -26.745  1.00  0.00     0.058 C 
HETATM    6  S1  UNL     1       8.174  -4.153 -26.413  1.00  0.00    -0.154 SA
HETATM    7  C11 UNL     1       7.331  -4.336 -28.036  1.00  0.00     0.002 C 
HETATM    8  C12 UNL     1       6.326  -5.437 -27.970  1.00  0.00     0.026 C 
HETATM    9  C13 UNL     1       8.411  -4.627 -29.047  1.00  0.00     0.026 C 
HETATM   10  C14 UNL     1       6.747  -2.969 -28.179  1.00  0.00     0.027 C 
HETATM   11  C15 UNL     1       7.637  -1.937 -27.645  1.00  0.00     0.027 C 
ENDROOT
BRANCH   1  12
HETATM   12  N2  UNL     1       6.100  -0.155 -28.149  1.00  0.00    -0.335 N 
HETATM   13  C5  UNL     1       4.691  -0.141 -28.304  1.00  0.00     0.318 C 
HETATM   14  N1  UNL     1       4.106   0.537 -29.392  1.00  0.00    -0.335 N 
HETATM   15  O1  UNL     1       3.947  -0.739 -27.463  1.00  0.00    -0.247 OA
ATOM     16  H2  UNL     1       6.673   0.335 -28.836  1.00  0.00     0.165 HD
BRANCH  14  17
HETATM   17  C2  UNL     1       4.922   1.204 -30.362  1.00  0.00     0.123 C 
HETATM   18  C1  UNL     1       5.219   2.646 -30.002  1.00  0.00     0.026 C 
ENDBRANCH  14  17
BRANCH  14  19
HETATM   19  C3  UNL     1       2.654   0.548 -29.516  1.00  0.00     0.123 C 
HETATM   20  C4  UNL     1       2.193  -0.288 -30.684  1.00  0.00     0.026 C 
ENDBRANCH  14  19
ENDBRANCH   1  12
TORSDOF 3
ENDMDL
