MODEL 1
REMARK VINA RESULT: -6.036182851      0.000      0.000
REMARK  4 active torsions:
REMARK  status: ('A' for Active; 'I' for Inactive)
REMARK       I    between atoms: C1_4  and  N3_6 
REMARK    1  A    between atoms: N3_6  and  S1_8 
REMARK    2  A    between atoms: S1_8  and  C2_11 
REMARK    3  A    between atoms: C5_14  and  N4_15 
REMARK       I    between atoms: C6_17  and  N6_19 
REMARK    4  A    between atoms: N6_19  and  N7_21 
ROOT
HETATM    1  C2  UNL     1      20.828  -6.662  33.533  1.00  0.00     0.080 A 
HETATM    2  C3  UNL     1      19.854  -7.097  34.389  1.00  0.00     0.027 A 
HETATM    3  C4  UNL     1      18.572  -7.387  33.957  1.00  0.00     0.031 A 
HETATM    4  C5  UNL     1      18.215  -7.238  32.610  1.00  0.00     0.034 A 
HETATM    5  C7  UNL     1      19.223  -6.796  31.750  1.00  0.00     0.031 A 
HETATM    6  C8  UNL     1      20.486  -6.517  32.191  1.00  0.00     0.027 A 
ENDROOT
BRANCH   1   7
HETATM    7  S1  UNL     1      22.473  -6.306  33.978  1.00  0.00     0.265 S 
HETATM    8  O1  UNL     1      22.706  -4.862  34.262  1.00  0.00    -0.200 OA
HETATM    9  O2  UNL     1      22.787  -7.147  35.217  1.00  0.00    -0.200 OA
BRANCH   7  10
HETATM   10  N3  UNL     1      23.611  -6.859  32.806  1.00  0.00    -0.254 N 
HETATM   11  C1  UNL     1      24.975  -6.512  32.959  1.00  0.00     0.195 C 
HETATM   12  N1  UNL     1      25.760  -7.161  33.790  1.00  0.00    -0.373 N 
HETATM   13  N2  UNL     1      25.558  -5.483  32.225  1.00  0.00    -0.063 NA
ATOM     14  H12 UNL     1      26.743  -6.911  33.900  1.00  0.00     0.158 HD
ATOM     15  H11 UNL     1      25.333  -7.915  34.328  1.00  0.00     0.158 HD
ATOM     16  H3  UNL     1      23.305  -7.427  32.016  1.00  0.00     0.181 HD
ENDBRANCH   7  10
ENDBRANCH   1   7
BRANCH   4  17
HETATM   17  N4  UNL     1      16.926  -7.568  32.204  1.00  0.00    -0.329 N 
HETATM   18  C6  UNL     1      16.012  -6.839  31.721  1.00  0.00     0.212 C 
HETATM   19  N5  UNL     1      14.732  -7.298  31.336  1.00  0.00    -0.062 NA
HETATM   20  N6  UNL     1      16.235  -5.431  31.666  1.00  0.00    -0.213 N 
ATOM     21  H6  UNL     1      16.442  -4.943  32.538  1.00  0.00     0.196 HD
ATOM     22  H4  UNL     1      16.680  -8.552  32.313  1.00  0.00     0.168 HD
BRANCH  20  23
HETATM   23  N7  UNL     1      16.185  -4.682  30.491  1.00  0.00    -0.036 N 
HETATM   24  O3  UNL     1      17.097  -4.832  29.666  1.00  0.00    -0.516 OA
HETATM   25  O4  UNL     1      15.130  -3.814  30.290  1.00  0.00    -0.516 OA
ENDBRANCH  20  23
ENDBRANCH   4  17
TORSDOF 4
ENDMDL
MODEL 2
REMARK VINA RESULT: -5.959252063      2.487      7.271
REMARK  4 active torsions:
REMARK  status: ('A' for Active; 'I' for Inactive)
REMARK       I    between atoms: C1_4  and  N3_6 
REMARK    1  A    between atoms: N3_6  and  S1_8 
REMARK    2  A    between atoms: S1_8  and  C2_11 
REMARK    3  A    between atoms: C5_14  and  N4_15 
REMARK       I    between atoms: C6_17  and  N6_19 
REMARK    4  A    between atoms: N6_19  and  N7_21 
ROOT
HETATM    1  C2  UNL     1      17.991  -6.922  32.248  1.00  0.00     0.080 A 
HETATM    2  C3  UNL     1      18.149  -7.700  33.362  1.00  0.00     0.027 A 
HETATM    3  C4  UNL     1      19.312  -7.685  34.109  1.00  0.00     0.031 A 
HETATM    4  C5  UNL     1      20.391  -6.867  33.748  1.00  0.00     0.034 A 
HETATM    5  C7  UNL     1      20.211  -6.076  32.609  1.00  0.00     0.031 A 
HETATM    6  C8  UNL     1      19.054  -6.100  31.883  1.00  0.00     0.027 A 
ENDROOT
BRANCH   1   7
HETATM    7  S1  UNL     1      16.555  -6.849  31.267  1.00  0.00     0.265 S 
HETATM    8  O1  UNL     1      15.426  -6.136  31.928  1.00  0.00    -0.200 OA
HETATM    9  O2  UNL     1      16.942  -6.138  29.969  1.00  0.00    -0.200 OA
BRANCH   7  10
HETATM   10  N3  UNL     1      16.031  -8.406  30.742  1.00  0.00    -0.254 N 
HETATM   11  C1  UNL     1      15.502  -8.547  29.437  1.00  0.00     0.195 C 
HETATM   12  N1  UNL     1      16.283  -8.633  28.383  1.00  0.00    -0.373 N 
HETATM   13  N2  UNL     1      14.131  -8.621  29.204  1.00  0.00    -0.063 NA
ATOM     14  H12 UNL     1      15.902  -8.735  27.443  1.00  0.00     0.158 HD
ATOM     15  H11 UNL     1      17.288  -8.579  28.554  1.00  0.00     0.158 HD
ATOM     16  H3  UNL     1      16.103  -9.212  31.363  1.00  0.00     0.181 HD
ENDBRANCH   7  10
ENDBRANCH   1   7
BRANCH   4  17
HETATM   17  N4  UNL     1      21.534  -6.852  34.539  1.00  0.00    -0.329 N 
HETATM   18  C6  UNL     1      22.751  -6.738  34.212  1.00  0.00     0.212 C 
HETATM   19  N5  UNL     1      23.834  -6.730  35.119  1.00  0.00    -0.062 NA
HETATM   20  N6  UNL     1      23.075  -6.735  32.822  1.00  0.00    -0.213 N 
ATOM     21  H6  UNL     1      22.790  -7.537  32.260  1.00  0.00     0.196 HD
ATOM     22  H4  UNL     1      21.365  -6.950  35.541  1.00  0.00     0.168 HD
BRANCH  20  23
HETATM   23  N7  UNL     1      23.759  -5.699  32.187  1.00  0.00    -0.036 N 
HETATM   24  O3  UNL     1      24.179  -5.896  31.038  1.00  0.00    -0.516 OA
HETATM   25  O4  UNL     1      23.939  -4.503  32.854  1.00  0.00    -0.516 OA
ENDBRANCH  20  23
ENDBRANCH   4  17
TORSDOF 4
ENDMDL
MODEL 3
REMARK VINA RESULT: -5.949982113      1.285      1.665
REMARK  4 active torsions:
REMARK  status: ('A' for Active; 'I' for Inactive)
REMARK       I    between atoms: C1_4  and  N3_6 
REMARK    1  A    between atoms: N3_6  and  S1_8 
REMARK    2  A    between atoms: S1_8  and  C2_11 
REMARK    3  A    between atoms: C5_14  and  N4_15 
REMARK       I    between atoms: C6_17  and  N6_19 
REMARK    4  A    between atoms: N6_19  and  N7_21 
ROOT
HETATM    1  C2  UNL     1      20.969  -6.707  33.592  1.00  0.00     0.080 A 
HETATM    2  C3  UNL     1      19.978  -7.110  34.443  1.00  0.00     0.027 A 
HETATM    3  C4  UNL     1      18.686  -7.343  34.008  1.00  0.00     0.031 A 
HETATM    4  C5  UNL     1      18.336  -7.167  32.664  1.00  0.00     0.034 A 
HETATM    5  C7  UNL     1      19.362  -6.758  31.807  1.00  0.00     0.031 A 
HETATM    6  C8  UNL     1      20.634  -6.535  32.251  1.00  0.00     0.027 A 
ENDROOT
BRANCH   1   7
HETATM    7  S1  UNL     1      22.628  -6.423  34.040  1.00  0.00     0.265 S 
HETATM    8  O1  UNL     1      23.010  -7.074  35.325  1.00  0.00    -0.200 OA
HETATM    9  O2  UNL     1      23.492  -6.958  32.897  1.00  0.00    -0.200 OA
BRANCH   7  10
HETATM   10  N3  UNL     1      23.019  -4.744  34.100  1.00  0.00    -0.254 N 
HETATM   11  C1  UNL     1      24.338  -4.336  33.784  1.00  0.00     0.195 C 
HETATM   12  N1  UNL     1      24.741  -4.221  32.538  1.00  0.00    -0.373 N 
HETATM   13  N2  UNL     1      25.266  -4.020  34.772  1.00  0.00    -0.063 NA
ATOM     14  H12 UNL     1      25.691  -3.926  32.311  1.00  0.00     0.158 HD
ATOM     15  H11 UNL     1      24.061  -4.452  31.814  1.00  0.00     0.158 HD
ATOM     16  H3  UNL     1      22.312  -4.057  34.360  1.00  0.00     0.181 HD
ENDBRANCH   7  10
ENDBRANCH   1   7
BRANCH   4  17
HETATM   17  N4  UNL     1      17.035  -7.440  32.254  1.00  0.00    -0.329 N 
HETATM   18  C6  UNL     1      16.138  -6.663  31.816  1.00  0.00     0.212 C 
HETATM   19  N5  UNL     1      14.843  -7.067  31.421  1.00  0.00    -0.062 NA
HETATM   20  N6  UNL     1      16.401  -5.260  31.827  1.00  0.00    -0.213 N 
ATOM     21  H6  UNL     1      16.629  -4.822  32.719  1.00  0.00     0.196 HD
ATOM     22  H4  UNL     1      16.761  -8.421  32.318  1.00  0.00     0.168 HD
BRANCH  20  23
HETATM   23  N7  UNL     1      16.363  -4.455  30.690  1.00  0.00    -0.036 N 
HETATM   24  O3  UNL     1      15.618  -3.466  30.701  1.00  0.00    -0.516 OA
HETATM   25  O4  UNL     1      17.152  -4.783  29.605  1.00  0.00    -0.516 OA
ENDBRANCH  20  23
ENDBRANCH   4  17
TORSDOF 4
ENDMDL
MODEL 4
REMARK VINA RESULT: -5.799420589      2.454      7.076
REMARK  4 active torsions:
REMARK  status: ('A' for Active; 'I' for Inactive)
REMARK       I    between atoms: C1_4  and  N3_6 
REMARK    1  A    between atoms: N3_6  and  S1_8 
REMARK    2  A    between atoms: S1_8  and  C2_11 
REMARK    3  A    between atoms: C5_14  and  N4_15 
REMARK       I    between atoms: C6_17  and  N6_19 
REMARK    4  A    between atoms: N6_19  and  N7_21 
ROOT
HETATM    1  C2  UNL     1      17.912  -7.183  32.215  1.00  0.00     0.080 A 
HETATM    2  C3  UNL     1      18.113  -7.935  33.340  1.00  0.00     0.027 A 
HETATM    3  C4  UNL     1      19.257  -7.817  34.108  1.00  0.00     0.031 A 
HETATM    4  C5  UNL     1      20.272  -6.917  33.756  1.00  0.00     0.034 A 
HETATM    5  C7  UNL     1      20.048  -6.155  32.605  1.00  0.00     0.031 A 
HETATM    6  C8  UNL     1      18.911  -6.280  31.859  1.00  0.00     0.027 A 
ENDROOT
BRANCH   1   7
HETATM    7  S1  UNL     1      16.493  -7.238  31.208  1.00  0.00     0.265 S 
HETATM    8  O1  UNL     1      16.805  -7.415  29.761  1.00  0.00    -0.200 OA
HETATM    9  O2  UNL     1      15.639  -8.403  31.712  1.00  0.00    -0.200 OA
BRANCH   7  10
HETATM   10  N3  UNL     1      15.477  -5.862  31.420  1.00  0.00    -0.254 N 
HETATM   11  C1  UNL     1      15.685  -4.724  30.602  1.00  0.00     0.195 C 
HETATM   12  N1  UNL     1      15.228  -4.671  29.370  1.00  0.00    -0.373 N 
HETATM   13  N2  UNL     1      16.364  -3.601  31.065  1.00  0.00    -0.063 NA
ATOM     14  H12 UNL     1      15.378  -3.851  28.782  1.00  0.00     0.158 HD
ATOM     15  H11 UNL     1      14.730  -5.494  29.031  1.00  0.00     0.158 HD
ATOM     16  H3  UNL     1      14.738  -5.867  32.123  1.00  0.00     0.181 HD
ENDBRANCH   7  10
ENDBRANCH   1   7
BRANCH   4  17
HETATM   17  N4  UNL     1      21.395  -6.801  34.567  1.00  0.00    -0.329 N 
HETATM   18  C6  UNL     1      22.616  -6.687  34.257  1.00  0.00     0.212 C 
HETATM   19  N5  UNL     1      23.677  -6.568  35.183  1.00  0.00    -0.062 NA
HETATM   20  N6  UNL     1      22.973  -6.804  32.880  1.00  0.00    -0.213 N 
ATOM     21  H6  UNL     1      22.720  -7.662  32.390  1.00  0.00     0.196 HD
ATOM     22  H4  UNL     1      21.205  -6.809  35.569  1.00  0.00     0.168 HD
BRANCH  20  23
HETATM   23  N7  UNL     1      23.649  -5.816  32.167  1.00  0.00    -0.036 N 
HETATM   24  O3  UNL     1      24.096  -6.106  31.048  1.00  0.00    -0.516 OA
HETATM   25  O4  UNL     1      23.790  -4.560  32.724  1.00  0.00    -0.516 OA
ENDBRANCH  20  23
ENDBRANCH   4  17
TORSDOF 4
ENDMDL
MODEL 5
REMARK VINA RESULT: -5.760570544      2.412      7.144
REMARK  4 active torsions:
REMARK  status: ('A' for Active; 'I' for Inactive)
REMARK       I    between atoms: C1_4  and  N3_6 
REMARK    1  A    between atoms: N3_6  and  S1_8 
REMARK    2  A    between atoms: S1_8  and  C2_11 
REMARK    3  A    between atoms: C5_14  and  N4_15 
REMARK       I    between atoms: C6_17  and  N6_19 
REMARK    4  A    between atoms: N6_19  and  N7_21 
ROOT
HETATM    1  C2  UNL     1      18.466  -6.692  32.727  1.00  0.00     0.080 A 
HETATM    2  C3  UNL     1      18.680  -7.281  33.942  1.00  0.00     0.027 A 
HETATM    3  C4  UNL     1      19.932  -7.321  34.528  1.00  0.00     0.031 A 
HETATM    4  C5  UNL     1      21.045  -6.759  33.889  1.00  0.00     0.034 A 
HETATM    5  C7  UNL     1      20.807  -6.158  32.650  1.00  0.00     0.031 A 
HETATM    6  C8  UNL     1      19.563  -6.124  32.085  1.00  0.00     0.027 A 
ENDROOT
BRANCH   1   7
HETATM    7  S1  UNL     1      16.923  -6.563  31.928  1.00  0.00     0.265 S 
HETATM    8  O1  UNL     1      16.261  -7.881  31.713  1.00  0.00    -0.200 OA
HETATM    9  O2  UNL     1      16.046  -5.666  32.803  1.00  0.00    -0.200 OA
BRANCH   7  10
HETATM   10  N3  UNL     1      17.021  -5.711  30.433  1.00  0.00    -0.254 N 
HETATM   11  C1  UNL     1      16.120  -4.646  30.191  1.00  0.00     0.195 C 
HETATM   12  N1  UNL     1      16.317  -3.450  30.700  1.00  0.00    -0.373 N 
HETATM   13  N2  UNL     1      14.993  -4.804  29.389  1.00  0.00    -0.063 NA
ATOM     14  H12 UNL     1      15.667  -2.682  30.526  1.00  0.00     0.158 HD
ATOM     15  H11 UNL     1      17.143  -3.333  31.288  1.00  0.00     0.158 HD
ATOM     16  H3  UNL     1      17.717  -5.970  29.733  1.00  0.00     0.181 HD
ENDBRANCH   7  10
ENDBRANCH   1   7
BRANCH   4  17
HETATM   17  N4  UNL     1      22.284  -6.789  34.521  1.00  0.00    -0.329 N 
HETATM   18  C6  UNL     1      23.446  -6.652  34.042  1.00  0.00     0.212 C 
HETATM   19  N5  UNL     1      24.641  -6.696  34.796  1.00  0.00    -0.062 NA
HETATM   20  N6  UNL     1      23.583  -6.564  32.624  1.00  0.00    -0.213 N 
ATOM     21  H6  UNL     1      23.220  -7.332  32.058  1.00  0.00     0.196 HD
ATOM     22  H4  UNL     1      22.249  -6.947  35.528  1.00  0.00     0.168 HD
BRANCH  20  23
HETATM   23  N7  UNL     1      24.182  -5.491  31.967  1.00  0.00    -0.036 N 
HETATM   24  O3  UNL     1      24.390  -5.595  30.750  1.00  0.00    -0.516 OA
HETATM   25  O4  UNL     1      24.514  -4.361  32.688  1.00  0.00    -0.516 OA
ENDBRANCH  20  23
ENDBRANCH   4  17
TORSDOF 4
ENDMDL
