MODEL 1
REMARK VINA RESULT: -7.666230989      0.000      0.000
REMARK  19 active torsions:
REMARK  status: ('A' for Active; 'I' for Inactive)
REMARK    1  A    between atoms: C2_2  and  C3_3 
REMARK    2  A    between atoms: C3_3  and  C5_5 
REMARK    3  A    between atoms: C5_5  and  C6_6 
REMARK    4  A    between atoms: C6_6  and  C7_7 
REMARK    5  A    between atoms: C8_8  and  O1_9 
REMARK    6  A    between atoms: O1_9  and  C9_10 
REMARK    7  A    between atoms: C11_13  and  O3_14 
REMARK    8  A    between atoms: C12_16  and  O4_17 
REMARK    9  A    between atoms: O4_17  and  C13_18 
REMARK   10  A    between atoms: C13_18  and  C14_20 
REMARK   11  A    between atoms: C14_20  and  C15_21 
REMARK   12  A    between atoms: C15_21  and  C16_22 
REMARK   13  A    between atoms: C16_22  and  C17_23 
REMARK   14  A    between atoms: C20_26  and  O6_27 
REMARK   15  A    between atoms: O6_27  and  C21_28 
REMARK   16  A    between atoms: C25_33  and  O8_34 
REMARK   17  A    between atoms: O8_34  and  C26_35 
REMARK       I    between atoms: C26_35  and  N1_37 
REMARK   18  A    between atoms: N1_37  and  C28_39 
REMARK   19  A    between atoms: C33_44  and  O10_45 
ROOT
HETATM    1  C7  UNL     1      22.764  26.462  16.429  1.00  0.00     0.030 C 
HETATM    2  C8  UNL     1      23.549  26.675  17.709  1.00  0.00     0.168 C 
HETATM    3  C11 UNL     1      22.867  27.731  18.555  1.00  0.00     0.178 C 
HETATM    4  C12 UNL     1      21.659  26.976  19.112  1.00  0.00     0.170 C 
HETATM    5  C19 UNL     1      20.733  26.679  17.983  1.00  0.00     0.060 C 
HETATM    6  C20 UNL     1      19.722  25.622  18.369  1.00  0.00     0.146 C 
HETATM    7  C23 UNL     1      18.686  25.446  17.269  1.00  0.00     0.060 C 
HETATM    8  C24 UNL     1      17.680  24.394  17.648  1.00  0.00     0.043 C 
HETATM    9  C25 UNL     1      16.745  24.189  16.464  1.00  0.00     0.134 C 
HETATM   10  C30 UNL     1      16.967  25.175  15.368  1.00  0.00     0.040 C 
HETATM   11  C31 UNL     1      18.401  25.246  14.881  1.00  0.00     0.026 C 
HETATM   12  C32 UNL     1      18.573  26.641  14.322  1.00  0.00     0.014 C 
HETATM   13  C33 UNL     1      19.347  24.934  16.005  1.00  0.00     0.128 C 
HETATM   14  C34 UNL     1      20.725  25.327  15.862  1.00  0.00     0.167 C 
HETATM   15  O11 UNL     1      21.428  24.683  15.089  1.00  0.00    -0.294 OA
HETATM   16  C35 UNL     1      21.291  26.494  16.636  1.00  0.00     0.074 C 
ENDROOT
BRANCH   4  17
HETATM   17  O4  UNL     1      21.058  27.760  20.129  1.00  0.00    -0.313 OA
BRANCH  17  18
HETATM   18  C13 UNL     1      21.311  27.467  21.447  1.00  0.00     0.259 C 
HETATM   19  O5  UNL     1      21.054  28.351  22.301  1.00  0.00    -0.265 OA
BRANCH  18  20
HETATM   20  C14 UNL     1      21.868  26.188  21.941  1.00  0.00     0.111 C 
BRANCH  20  21
HETATM   21  C15 UNL     1      23.266  26.328  22.438  1.00  0.00     0.010 C 
BRANCH  21  22
HETATM   22  C16 UNL     1      24.022  25.033  22.512  1.00  0.00     0.000 C 
BRANCH  22  23
HETATM   23  C17 UNL     1      25.360  25.196  23.225  1.00  0.00    -0.005 C 
HETATM   24  C18 UNL     1      26.388  24.269  22.633  1.00  0.00     0.005 C 
ENDBRANCH  22  23
ENDBRANCH  21  22
ENDBRANCH  20  21
ENDBRANCH  18  20
ENDBRANCH  17  18
ENDBRANCH   4  17
BRANCH   3  25
HETATM   25  O3  UNL     1      23.766  28.104  19.541  1.00  0.00    -0.390 OA
ATOM     26  H3  UNL     1      23.515  28.974  19.831  1.00  0.00     0.210 HD
ENDBRANCH   3  25
BRANCH   2  27
HETATM   27  O1  UNL     1      23.658  25.472  18.431  1.00  0.00    -0.313 OA
BRANCH  27  28
HETATM   28  C9  UNL     1      24.852  25.067  19.012  1.00  0.00     0.255 C 
HETATM   29  C10 UNL     1      25.301  23.677  19.075  1.00  0.00     0.126 C 
HETATM   30  O2  UNL     1      25.601  25.955  19.518  1.00  0.00    -0.266 OA
ENDBRANCH  27  28
ENDBRANCH   2  27
BRANCH   6  31
HETATM   31  O6  UNL     1      20.264  24.351  18.617  1.00  0.00    -0.315 OA
BRANCH  31  32
HETATM   32  C21 UNL     1      19.751  23.410  19.495  1.00  0.00     0.255 C 
HETATM   33  C22 UNL     1      19.353  23.648  20.886  1.00  0.00     0.126 C 
HETATM   34  O7  UNL     1      19.615  22.227  19.037  1.00  0.00    -0.266 OA
ENDBRANCH  31  32
ENDBRANCH   6  31
BRANCH   1  35
HETATM   35  C6  UNL     1      23.264  27.543  15.493  1.00  0.00     0.013 C 
BRANCH  35  36
HETATM   36  C5  UNL     1      22.420  28.788  15.480  1.00  0.00     0.038 C 
BRANCH  36  37
HETATM   37  C3  UNL     1      22.364  29.418  14.157  1.00  0.00    -0.068 C 
HETATM   38  C4  UNL     1      21.366  29.168  13.342  1.00  0.00     0.019 C 
BRANCH  37  39
HETATM   39  C2  UNL     1      23.399  30.349  13.748  1.00  0.00    -0.004 C 
HETATM   40  C1  UNL     1      24.221  30.976  14.539  1.00  0.00     0.012 C 
ENDBRANCH  37  39
ENDBRANCH  36  37
ENDBRANCH  35  36
ENDBRANCH   1  35
BRANCH  13  41
HETATM   41  O10 UNL     1      19.367  23.499  16.058  1.00  0.00    -0.381 OA
ATOM     42  H10 UNL     1      19.475  23.171  15.173  1.00  0.00     0.211 HD
ENDBRANCH  13  41
BRANCH   9  43
HETATM   43  O8  UNL     1      15.425  24.322  16.932  1.00  0.00    -0.298 OA
BRANCH  43  44
HETATM   44  C26 UNL     1      14.502  23.328  16.615  1.00  0.00     0.362 C 
HETATM   45  O9  UNL     1      13.865  23.369  15.526  1.00  0.00    -0.238 OA
HETATM   46  N1  UNL     1      14.240  22.240  17.488  1.00  0.00    -0.333 N 
HETATM   47  C27 UNL     1      13.280  21.236  17.121  1.00  0.00     0.155 C 
BRANCH  46  48
HETATM   48  C28 UNL     1      14.977  22.196  18.746  1.00  0.00     0.123 C 
HETATM   49  C29 UNL     1      16.121  21.216  18.620  1.00  0.00     0.026 C 
ENDBRANCH  46  48
ENDBRANCH  43  44
ENDBRANCH   9  43
TORSDOF 19
ENDMDL
MODEL 2
REMARK VINA RESULT: -7.658424796      0.805      1.102
REMARK  19 active torsions:
REMARK  status: ('A' for Active; 'I' for Inactive)
REMARK    1  A    between atoms: C2_2  and  C3_3 
REMARK    2  A    between atoms: C3_3  and  C5_5 
REMARK    3  A    between atoms: C5_5  and  C6_6 
REMARK    4  A    between atoms: C6_6  and  C7_7 
REMARK    5  A    between atoms: C8_8  and  O1_9 
REMARK    6  A    between atoms: O1_9  and  C9_10 
REMARK    7  A    between atoms: C11_13  and  O3_14 
REMARK    8  A    between atoms: C12_16  and  O4_17 
REMARK    9  A    between atoms: O4_17  and  C13_18 
REMARK   10  A    between atoms: C13_18  and  C14_20 
REMARK   11  A    between atoms: C14_20  and  C15_21 
REMARK   12  A    between atoms: C15_21  and  C16_22 
REMARK   13  A    between atoms: C16_22  and  C17_23 
REMARK   14  A    between atoms: C20_26  and  O6_27 
REMARK   15  A    between atoms: O6_27  and  C21_28 
REMARK   16  A    between atoms: C25_33  and  O8_34 
REMARK   17  A    between atoms: O8_34  and  C26_35 
REMARK       I    between atoms: C26_35  and  N1_37 
REMARK   18  A    between atoms: N1_37  and  C28_39 
REMARK   19  A    between atoms: C33_44  and  O10_45 
ROOT
HETATM    1  C7  UNL     1      22.468  26.592  16.105  1.00  0.00     0.030 C 
HETATM    2  C8  UNL     1      23.316  26.850  17.335  1.00  0.00     0.168 C 
HETATM    3  C11 UNL     1      22.636  27.877  18.217  1.00  0.00     0.178 C 
HETATM    4  C12 UNL     1      21.501  27.069  18.847  1.00  0.00     0.170 C 
HETATM    5  C19 UNL     1      20.525  26.722  17.776  1.00  0.00     0.060 C 
HETATM    6  C20 UNL     1      19.589  25.620  18.223  1.00  0.00     0.146 C 
HETATM    7  C23 UNL     1      18.500  25.389  17.188  1.00  0.00     0.060 C 
HETATM    8  C24 UNL     1      17.569  24.292  17.628  1.00  0.00     0.043 C 
HETATM    9  C25 UNL     1      16.577  24.037  16.502  1.00  0.00     0.134 C 
HETATM   10  C30 UNL     1      16.687  25.026  15.392  1.00  0.00     0.040 C 
HETATM   11  C31 UNL     1      18.084  25.162  14.821  1.00  0.00     0.026 C 
HETATM   12  C32 UNL     1      18.156  26.561  14.249  1.00  0.00     0.014 C 
HETATM   13  C33 UNL     1      19.109  24.902  15.888  1.00  0.00     0.128 C 
HETATM   14  C34 UNL     1      20.456  25.359  15.662  1.00  0.00     0.167 C 
HETATM   15  O11 UNL     1      21.142  24.744  14.851  1.00  0.00    -0.294 OA
HETATM   16  C35 UNL     1      21.011  26.556  16.398  1.00  0.00     0.074 C 
ENDROOT
BRANCH   4  17
HETATM   17  O4  UNL     1      20.924  27.828  19.896  1.00  0.00    -0.313 OA
BRANCH  17  18
HETATM   18  C13 UNL     1      21.299  27.583  21.194  1.00  0.00     0.259 C 
HETATM   19  O5  UNL     1      21.059  28.471  22.048  1.00  0.00    -0.265 OA
BRANCH  18  20
HETATM   20  C14 UNL     1      21.968  26.351  21.666  1.00  0.00     0.111 C 
BRANCH  20  21
HETATM   21  C15 UNL     1      23.298  26.623  22.281  1.00  0.00     0.010 C 
BRANCH  21  22
HETATM   22  C16 UNL     1      24.063  25.388  22.658  1.00  0.00     0.000 C 
BRANCH  22  23
HETATM   23  C17 UNL     1      24.800  25.557  23.982  1.00  0.00    -0.005 C 
HETATM   24  C18 UNL     1      24.259  26.740  24.740  1.00  0.00     0.005 C 
ENDBRANCH  22  23
ENDBRANCH  21  22
ENDBRANCH  20  21
ENDBRANCH  18  20
ENDBRANCH  17  18
ENDBRANCH   4  17
BRANCH   3  25
HETATM   25  O3  UNL     1      23.573  28.298  19.147  1.00  0.00    -0.390 OA
ATOM     26  H3  UNL     1      24.045  29.023  18.757  1.00  0.00     0.210 HD
ENDBRANCH   3  25
BRANCH   2  27
HETATM   27  O1  UNL     1      23.525  25.657  18.053  1.00  0.00    -0.313 OA
BRANCH  27  28
HETATM   28  C9  UNL     1      24.745  25.355  18.640  1.00  0.00     0.255 C 
HETATM   29  C10 UNL     1      25.027  24.106  19.348  1.00  0.00     0.126 C 
HETATM   30  O2  UNL     1      25.676  26.212  18.559  1.00  0.00    -0.266 OA
ENDBRANCH  27  28
ENDBRANCH   2  27
BRANCH   6  31
HETATM   31  O6  UNL     1      20.205  24.378  18.442  1.00  0.00    -0.315 OA
BRANCH  31  32
HETATM   32  C21 UNL     1      19.804  23.428  19.368  1.00  0.00     0.255 C 
HETATM   33  C22 UNL     1      19.527  23.664  20.789  1.00  0.00     0.126 C 
HETATM   34  O7  UNL     1      19.664  22.238  18.930  1.00  0.00    -0.266 OA
ENDBRANCH  31  32
ENDBRANCH   6  31
BRANCH   1  35
HETATM   35  C6  UNL     1      22.861  27.691  15.138  1.00  0.00     0.013 C 
BRANCH  35  36
HETATM   36  C5  UNL     1      24.261  28.207  15.324  1.00  0.00     0.038 C 
BRANCH  36  37
HETATM   37  C3  UNL     1      24.346  29.666  15.201  1.00  0.00    -0.068 C 
HETATM   38  C4  UNL     1      23.706  30.293  14.242  1.00  0.00     0.019 C 
BRANCH  37  39
HETATM   39  C2  UNL     1      25.119  30.434  16.161  1.00  0.00    -0.004 C 
HETATM   40  C1  UNL     1      25.895  29.946  17.084  1.00  0.00     0.012 C 
ENDBRANCH  37  39
ENDBRANCH  36  37
ENDBRANCH  35  36
ENDBRANCH   1  35
BRANCH  13  41
HETATM   41  O10 UNL     1      19.200  23.470  15.943  1.00  0.00    -0.381 OA
ATOM     42  H10 UNL     1      18.477  23.107  15.445  1.00  0.00     0.211 HD
ENDBRANCH  13  41
BRANCH   9  43
HETATM   43  O8  UNL     1      15.282  24.110  17.047  1.00  0.00    -0.298 OA
BRANCH  43  44
HETATM   44  C26 UNL     1      14.383  23.082  16.770  1.00  0.00     0.362 C 
HETATM   45  O9  UNL     1      13.749  23.063  15.678  1.00  0.00    -0.238 OA
HETATM   46  N1  UNL     1      14.144  22.026  17.686  1.00  0.00    -0.333 N 
HETATM   47  C27 UNL     1      13.208  20.986  17.360  1.00  0.00     0.155 C 
BRANCH  46  48
HETATM   48  C28 UNL     1      14.877  22.052  18.947  1.00  0.00     0.123 C 
HETATM   49  C29 UNL     1      16.088  21.154  18.838  1.00  0.00     0.026 C 
ENDBRANCH  46  48
ENDBRANCH  43  44
ENDBRANCH   9  43
TORSDOF 19
ENDMDL
MODEL 3
REMARK VINA RESULT: -7.632869628      0.752      1.178
REMARK  19 active torsions:
REMARK  status: ('A' for Active; 'I' for Inactive)
REMARK    1  A    between atoms: C2_2  and  C3_3 
REMARK    2  A    between atoms: C3_3  and  C5_5 
REMARK    3  A    between atoms: C5_5  and  C6_6 
REMARK    4  A    between atoms: C6_6  and  C7_7 
REMARK    5  A    between atoms: C8_8  and  O1_9 
REMARK    6  A    between atoms: O1_9  and  C9_10 
REMARK    7  A    between atoms: C11_13  and  O3_14 
REMARK    8  A    between atoms: C12_16  and  O4_17 
REMARK    9  A    between atoms: O4_17  and  C13_18 
REMARK   10  A    between atoms: C13_18  and  C14_20 
REMARK   11  A    between atoms: C14_20  and  C15_21 
REMARK   12  A    between atoms: C15_21  and  C16_22 
REMARK   13  A    between atoms: C16_22  and  C17_23 
REMARK   14  A    between atoms: C20_26  and  O6_27 
REMARK   15  A    between atoms: O6_27  and  C21_28 
REMARK   16  A    between atoms: C25_33  and  O8_34 
REMARK   17  A    between atoms: O8_34  and  C26_35 
REMARK       I    between atoms: C26_35  and  N1_37 
REMARK   18  A    between atoms: N1_37  and  C28_39 
REMARK   19  A    between atoms: C33_44  and  O10_45 
ROOT
HETATM    1  C7  UNL     1      22.724  26.423  16.398  1.00  0.00     0.030 C 
HETATM    2  C8  UNL     1      23.500  26.656  17.680  1.00  0.00     0.168 C 
HETATM    3  C11 UNL     1      22.814  27.727  18.503  1.00  0.00     0.178 C 
HETATM    4  C12 UNL     1      21.601  26.983  19.063  1.00  0.00     0.170 C 
HETATM    5  C19 UNL     1      20.682  26.669  17.933  1.00  0.00     0.060 C 
HETATM    6  C20 UNL     1      19.667  25.619  18.328  1.00  0.00     0.146 C 
HETATM    7  C23 UNL     1      18.639  25.427  17.224  1.00  0.00     0.060 C 
HETATM    8  C24 UNL     1      17.628  24.383  17.613  1.00  0.00     0.043 C 
HETATM    9  C25 UNL     1      16.702  24.160  16.426  1.00  0.00     0.134 C 
HETATM   10  C30 UNL     1      16.934  25.128  15.315  1.00  0.00     0.040 C 
HETATM   11  C31 UNL     1      18.371  25.188  14.837  1.00  0.00     0.026 C 
HETATM   12  C32 UNL     1      18.549  26.574  14.257  1.00  0.00     0.014 C 
HETATM   13  C33 UNL     1      19.309  24.894  15.974  1.00  0.00     0.128 C 
HETATM   14  C34 UNL     1      20.689  25.283  15.834  1.00  0.00     0.167 C 
HETATM   15  O11 UNL     1      21.395  24.624  15.077  1.00  0.00    -0.294 OA
HETATM   16  C35 UNL     1      21.251  26.461  16.593  1.00  0.00     0.074 C 
ENDROOT
BRANCH   4  17
HETATM   17  O4  UNL     1      20.993  27.784  20.064  1.00  0.00    -0.313 OA
BRANCH  17  18
HETATM   18  C13 UNL     1      21.283  27.551  21.386  1.00  0.00     0.259 C 
HETATM   19  O5  UNL     1      20.994  28.450  22.213  1.00  0.00    -0.265 OA
BRANCH  18  20
HETATM   20  C14 UNL     1      21.915  26.321  21.913  1.00  0.00     0.111 C 
BRANCH  20  21
HETATM   21  C15 UNL     1      23.267  26.573  22.483  1.00  0.00     0.010 C 
BRANCH  21  22
HETATM   22  C16 UNL     1      24.080  25.331  22.705  1.00  0.00     0.000 C 
BRANCH  22  23
HETATM   23  C17 UNL     1      24.961  25.440  23.944  1.00  0.00    -0.005 C 
HETATM   24  C18 UNL     1      24.482  26.554  24.836  1.00  0.00     0.005 C 
ENDBRANCH  22  23
ENDBRANCH  21  22
ENDBRANCH  20  21
ENDBRANCH  18  20
ENDBRANCH  17  18
ENDBRANCH   4  17
BRANCH   3  25
HETATM   25  O3  UNL     1      23.706  28.115  19.489  1.00  0.00    -0.390 OA
ATOM     26  H3  UNL     1      24.538  28.280  19.062  1.00  0.00     0.210 HD
ENDBRANCH   3  25
BRANCH   2  27
HETATM   27  O1  UNL     1      23.602  25.465  18.422  1.00  0.00    -0.313 OA
BRANCH  27  28
HETATM   28  C9  UNL     1      24.787  25.075  19.031  1.00  0.00     0.255 C 
HETATM   29  C10 UNL     1      25.264  23.693  19.084  1.00  0.00     0.126 C 
HETATM   30  O2  UNL     1      25.502  25.970  19.573  1.00  0.00    -0.266 OA
ENDBRANCH  27  28
ENDBRANCH   2  27
BRANCH   6  31
HETATM   31  O6  UNL     1      20.205  24.352  18.601  1.00  0.00    -0.315 OA
BRANCH  31  32
HETATM   32  C21 UNL     1      19.707  23.443  19.520  1.00  0.00     0.255 C 
HETATM   33  C22 UNL     1      19.354  23.724  20.915  1.00  0.00     0.126 C 
HETATM   34  O7  UNL     1      19.543  22.249  19.100  1.00  0.00    -0.266 OA
ENDBRANCH  31  32
ENDBRANCH   6  31
BRANCH   1  35
HETATM   35  C6  UNL     1      23.234  27.488  15.448  1.00  0.00     0.013 C 
BRANCH  35  36
HETATM   36  C5  UNL     1      22.445  28.769  15.475  1.00  0.00     0.038 C 
BRANCH  36  37
HETATM   37  C3  UNL     1      22.384  29.422  14.164  1.00  0.00    -0.068 C 
HETATM   38  C4  UNL     1      21.397  29.168  13.337  1.00  0.00     0.019 C 
BRANCH  37  39
HETATM   39  C2  UNL     1      23.404  30.381  13.780  1.00  0.00    -0.004 C 
HETATM   40  C1  UNL     1      24.217  30.998  14.587  1.00  0.00     0.012 C 
ENDBRANCH  37  39
ENDBRANCH  36  37
ENDBRANCH  35  36
ENDBRANCH   1  35
BRANCH  13  41
HETATM   41  O10 UNL     1      19.325  23.460  16.050  1.00  0.00    -0.381 OA
ATOM     42  H10 UNL     1      19.825  23.129  15.313  1.00  0.00     0.211 HD
ENDBRANCH  13  41
BRANCH   9  43
HETATM   43  O8  UNL     1      15.379  24.303  16.881  1.00  0.00    -0.298 OA
BRANCH  43  44
HETATM   44  C26 UNL     1      14.655  23.155  17.198  1.00  0.00     0.362 C 
HETATM   45  O9  UNL     1      14.551  22.774  18.397  1.00  0.00    -0.238 OA
HETATM   46  N1  UNL     1      14.009  22.375  16.204  1.00  0.00    -0.333 N 
HETATM   47  C27 UNL     1      13.272  21.200  16.576  1.00  0.00     0.155 C 
BRANCH  46  48
HETATM   48  C28 UNL     1      14.131  22.818  14.819  1.00  0.00     0.123 C 
HETATM   49  C29 UNL     1      15.030  21.863  14.068  1.00  0.00     0.026 C 
ENDBRANCH  46  48
ENDBRANCH  43  44
ENDBRANCH   9  43
TORSDOF 19
ENDMDL
MODEL 4
REMARK VINA RESULT: -7.568909532      2.665      7.946
REMARK  19 active torsions:
REMARK  status: ('A' for Active; 'I' for Inactive)
REMARK    1  A    between atoms: C2_2  and  C3_3 
REMARK    2  A    between atoms: C3_3  and  C5_5 
REMARK    3  A    between atoms: C5_5  and  C6_6 
REMARK    4  A    between atoms: C6_6  and  C7_7 
REMARK    5  A    between atoms: C8_8  and  O1_9 
REMARK    6  A    between atoms: O1_9  and  C9_10 
REMARK    7  A    between atoms: C11_13  and  O3_14 
REMARK    8  A    between atoms: C12_16  and  O4_17 
REMARK    9  A    between atoms: O4_17  and  C13_18 
REMARK   10  A    between atoms: C13_18  and  C14_20 
REMARK   11  A    between atoms: C14_20  and  C15_21 
REMARK   12  A    between atoms: C15_21  and  C16_22 
REMARK   13  A    between atoms: C16_22  and  C17_23 
REMARK   14  A    between atoms: C20_26  and  O6_27 
REMARK   15  A    between atoms: O6_27  and  C21_28 
REMARK   16  A    between atoms: C25_33  and  O8_34 
REMARK   17  A    between atoms: O8_34  and  C26_35 
REMARK       I    between atoms: C26_35  and  N1_37 
REMARK   18  A    between atoms: N1_37  and  C28_39 
REMARK   19  A    between atoms: C33_44  and  O10_45 
ROOT
HETATM    1  C7  UNL     1      19.345  26.321  16.042  1.00  0.00     0.030 C 
HETATM    2  C8  UNL     1      18.138  25.439  15.793  1.00  0.00     0.168 C 
HETATM    3  C11 UNL     1      18.581  23.998  15.647  1.00  0.00     0.178 C 
HETATM    4  C12 UNL     1      18.899  23.604  17.090  1.00  0.00     0.170 C 
HETATM    5  C19 UNL     1      20.098  24.371  17.530  1.00  0.00     0.060 C 
HETATM    6  C20 UNL     1      20.249  24.335  19.035  1.00  0.00     0.146 C 
HETATM    7  C23 UNL     1      21.561  24.980  19.457  1.00  0.00     0.060 C 
HETATM    8  C24 UNL     1      21.713  24.949  20.953  1.00  0.00     0.043 C 
HETATM    9  C25 UNL     1      22.984  25.706  21.312  1.00  0.00     0.134 C 
HETATM   10  C30 UNL     1      23.786  26.099  20.118  1.00  0.00     0.040 C 
HETATM   11  C31 UNL     1      23.005  26.876  19.077  1.00  0.00     0.026 C 
HETATM   12  C32 UNL     1      23.704  26.611  17.762  1.00  0.00     0.014 C 
HETATM   13  C33 UNL     1      21.565  26.449  19.083  1.00  0.00     0.128 C 
HETATM   14  C34 UNL     1      20.758  26.765  17.932  1.00  0.00     0.167 C 
HETATM   15  O11 UNL     1      20.413  27.933  17.777  1.00  0.00    -0.294 OA
HETATM   16  C35 UNL     1      20.347  25.697  16.946  1.00  0.00     0.074 C 
ENDROOT
BRANCH   4  17
HETATM   17  O4  UNL     1      19.086  22.200  17.153  1.00  0.00    -0.313 OA
BRANCH  17  18
HETATM   18  C13 UNL     1      17.994  21.377  17.284  1.00  0.00     0.259 C 
HETATM   19  O5  UNL     1      17.814  20.502  16.402  1.00  0.00    -0.265 OA
BRANCH  18  20
HETATM   20  C14 UNL     1      17.008  21.444  18.386  1.00  0.00     0.111 C 
BRANCH  20  21
HETATM   21  C15 UNL     1      15.768  20.674  18.089  1.00  0.00     0.010 C 
BRANCH  21  22
HETATM   22  C16 UNL     1      14.651  20.912  19.064  1.00  0.00     0.000 C 
BRANCH  22  23
HETATM   23  C17 UNL     1      13.549  19.867  18.933  1.00  0.00    -0.005 C 
HETATM   24  C18 UNL     1      13.513  18.983  20.152  1.00  0.00     0.005 C 
ENDBRANCH  22  23
ENDBRANCH  21  22
ENDBRANCH  20  21
ENDBRANCH  18  20
ENDBRANCH  17  18
ENDBRANCH   4  17
BRANCH   3  25
HETATM   25  O3  UNL     1      17.508  23.294  15.125  1.00  0.00    -0.390 OA
ATOM     26  H3  UNL     1      17.866  22.546  14.661  1.00  0.00     0.210 HD
ENDBRANCH   3  25
BRANCH   2  27
HETATM   27  O1  UNL     1      17.211  25.557  16.846  1.00  0.00    -0.313 OA
BRANCH  27  28
HETATM   28  C9  UNL     1      15.966  24.944  16.803  1.00  0.00     0.255 C 
HETATM   29  C10 UNL     1      15.282  24.399  17.976  1.00  0.00     0.126 C 
HETATM   30  O2  UNL     1      15.384  24.851  15.682  1.00  0.00    -0.266 OA
ENDBRANCH  27  28
ENDBRANCH   2  27
BRANCH   6  31
HETATM   31  O6  UNL     1      19.232  24.992  19.745  1.00  0.00    -0.315 OA
BRANCH  31  32
HETATM   32  C21 UNL     1      18.295  24.384  20.565  1.00  0.00     0.255 C 
HETATM   33  C22 UNL     1      18.299  22.983  20.996  1.00  0.00     0.126 C 
HETATM   34  O7  UNL     1      17.343  25.126  20.979  1.00  0.00    -0.266 OA
ENDBRANCH  31  32
ENDBRANCH   6  31
BRANCH   1  35
HETATM   35  C6  UNL     1      19.887  26.622  14.659  1.00  0.00     0.013 C 
BRANCH  35  36
HETATM   36  C5  UNL     1      21.385  26.734  14.593  1.00  0.00     0.038 C 
BRANCH  36  37
HETATM   37  C3  UNL     1      21.838  28.111  14.367  1.00  0.00    -0.068 C 
HETATM   38  C4  UNL     1      21.142  28.926  13.611  1.00  0.00     0.019 C 
BRANCH  37  39
HETATM   39  C2  UNL     1      23.050  28.593  15.005  1.00  0.00    -0.004 C 
HETATM   40  C1  UNL     1      23.652  29.718  14.752  1.00  0.00     0.012 C 
ENDBRANCH  37  39
ENDBRANCH  36  37
ENDBRANCH  35  36
ENDBRANCH   1  35
BRANCH  13  41
HETATM   41  O10 UNL     1      20.984  27.190  20.167  1.00  0.00    -0.381 OA
ATOM     42  H10 UNL     1      21.567  27.909  20.382  1.00  0.00     0.211 HD
ENDBRANCH  13  41
BRANCH   9  43
HETATM   43  O8  UNL     1      23.767  24.868  22.127  1.00  0.00    -0.298 OA
BRANCH  43  44
HETATM   44  C26 UNL     1      24.643  25.453  23.038  1.00  0.00     0.362 C 
HETATM   45  O9  UNL     1      24.252  26.387  23.794  1.00  0.00    -0.238 OA
HETATM   46  N1  UNL     1      25.993  25.033  23.160  1.00  0.00    -0.333 N 
HETATM   47  C27 UNL     1      26.861  25.664  24.114  1.00  0.00     0.155 C 
BRANCH  46  48
HETATM   48  C28 UNL     1      26.441  23.955  22.285  1.00  0.00     0.123 C 
HETATM   49  C29 UNL     1      27.108  24.547  21.065  1.00  0.00     0.026 C 
ENDBRANCH  46  48
ENDBRANCH  43  44
ENDBRANCH   9  43
TORSDOF 19
ENDMDL
MODEL 5
REMARK VINA RESULT: -7.402479530      1.647      2.258
REMARK  19 active torsions:
REMARK  status: ('A' for Active; 'I' for Inactive)
REMARK    1  A    between atoms: C2_2  and  C3_3 
REMARK    2  A    between atoms: C3_3  and  C5_5 
REMARK    3  A    between atoms: C5_5  and  C6_6 
REMARK    4  A    between atoms: C6_6  and  C7_7 
REMARK    5  A    between atoms: C8_8  and  O1_9 
REMARK    6  A    between atoms: O1_9  and  C9_10 
REMARK    7  A    between atoms: C11_13  and  O3_14 
REMARK    8  A    between atoms: C12_16  and  O4_17 
REMARK    9  A    between atoms: O4_17  and  C13_18 
REMARK   10  A    between atoms: C13_18  and  C14_20 
REMARK   11  A    between atoms: C14_20  and  C15_21 
REMARK   12  A    between atoms: C15_21  and  C16_22 
REMARK   13  A    between atoms: C16_22  and  C17_23 
REMARK   14  A    between atoms: C20_26  and  O6_27 
REMARK   15  A    between atoms: O6_27  and  C21_28 
REMARK   16  A    between atoms: C25_33  and  O8_34 
REMARK   17  A    between atoms: O8_34  and  C26_35 
REMARK       I    between atoms: C26_35  and  N1_37 
REMARK   18  A    between atoms: N1_37  and  C28_39 
REMARK   19  A    between atoms: C33_44  and  O10_45 
ROOT
HETATM    1  C7  UNL     1      23.978  26.803  16.204  1.00  0.00     0.030 C 
HETATM    2  C8  UNL     1      24.733  26.838  17.518  1.00  0.00     0.168 C 
HETATM    3  C11 UNL     1      24.175  27.939  18.397  1.00  0.00     0.178 C 
HETATM    4  C12 UNL     1      22.851  27.340  18.873  1.00  0.00     0.170 C 
HETATM    5  C19 UNL     1      21.938  27.234  17.700  1.00  0.00     0.060 C 
HETATM    6  C20 UNL     1      20.772  26.316  17.995  1.00  0.00     0.146 C 
HETATM    7  C23 UNL     1      19.767  26.345  16.854  1.00  0.00     0.060 C 
HETATM    8  C24 UNL     1      18.607  25.431  17.143  1.00  0.00     0.043 C 
HETATM    9  C25 UNL     1      17.701  25.421  15.919  1.00  0.00     0.134 C 
HETATM   10  C30 UNL     1      18.105  26.417  14.886  1.00  0.00     0.040 C 
HETATM   11  C31 UNL     1      19.552  26.304  14.450  1.00  0.00     0.026 C 
HETATM   12  C32 UNL     1      19.943  27.686  13.974  1.00  0.00     0.014 C 
HETATM   13  C33 UNL     1      20.399  25.805  15.587  1.00  0.00     0.128 C 
HETATM   14  C34 UNL     1      21.824  26.002  15.510  1.00  0.00     0.167 C 
HETATM   15  O11 UNL     1      22.458  25.302  14.727  1.00  0.00    -0.294 OA
HETATM   16  C35 UNL     1      22.518  27.036  16.364  1.00  0.00     0.074 C 
ENDROOT
BRANCH   4  17
HETATM   17  O4  UNL     1      22.327  28.151  19.911  1.00  0.00    -0.313 OA
BRANCH  17  18
HETATM   18  C13 UNL     1      21.881  27.564  21.069  1.00  0.00     0.259 C 
HETATM   19  O5  UNL     1      20.640  27.512  21.256  1.00  0.00    -0.265 OA
BRANCH  18  20
HETATM   20  C14 UNL     1      22.750  26.988  22.119  1.00  0.00     0.111 C 
BRANCH  20  21
HETATM   21  C15 UNL     1      22.304  27.353  23.493  1.00  0.00     0.010 C 
BRANCH  21  22
HETATM   22  C16 UNL     1      23.395  27.311  24.523  1.00  0.00     0.000 C 
BRANCH  22  23
HETATM   23  C17 UNL     1      23.006  28.054  25.796  1.00  0.00    -0.005 C 
HETATM   24  C18 UNL     1      24.026  27.818  26.878  1.00  0.00     0.005 C 
ENDBRANCH  22  23
ENDBRANCH  21  22
ENDBRANCH  20  21
ENDBRANCH  18  20
ENDBRANCH  17  18
ENDBRANCH   4  17
BRANCH   3  25
HETATM   25  O3  UNL     1      25.078  28.131  19.430  1.00  0.00    -0.390 OA
ATOM     26  H3  UNL     1      25.377  29.031  19.374  1.00  0.00     0.210 HD
ENDBRANCH   3  25
BRANCH   2  27
HETATM   27  O1  UNL     1      24.642  25.598  18.178  1.00  0.00    -0.313 OA
BRANCH  27  28
HETATM   28  C9  UNL     1      25.748  24.981  18.743  1.00  0.00     0.255 C 
HETATM   29  C10 UNL     1      26.587  24.006  18.045  1.00  0.00     0.126 C 
HETATM   30  O2  UNL     1      26.055  25.279  19.936  1.00  0.00    -0.266 OA
ENDBRANCH  27  28
ENDBRANCH   2  27
BRANCH   6  31
HETATM   31  O6  UNL     1      21.118  24.970  18.192  1.00  0.00    -0.315 OA
BRANCH  31  32
HETATM   32  C21 UNL     1      21.139  24.310  19.410  1.00  0.00     0.255 C 
HETATM   33  C22 UNL     1      19.980  23.754  20.116  1.00  0.00     0.126 C 
HETATM   34  O7  UNL     1      22.283  24.179  19.960  1.00  0.00    -0.266 OA
ENDBRANCH  31  32
ENDBRANCH   6  31
BRANCH   1  35
HETATM   35  C6  UNL     1      24.664  27.845  15.344  1.00  0.00     0.013 C 
BRANCH  35  36
HETATM   36  C5  UNL     1      23.865  29.103  15.143  1.00  0.00     0.038 C 
BRANCH  36  37
HETATM   37  C3  UNL     1      24.624  30.313  15.476  1.00  0.00    -0.068 C 
HETATM   38  C4  UNL     1      25.829  30.225  15.989  1.00  0.00     0.019 C 
BRANCH  37  39
HETATM   39  C2  UNL     1      24.058  31.624  15.213  1.00  0.00    -0.004 C 
HETATM   40  C1  UNL     1      24.640  32.767  15.431  1.00  0.00     0.012 C 
ENDBRANCH  37  39
ENDBRANCH  36  37
ENDBRANCH  35  36
ENDBRANCH   1  35
BRANCH  13  41
HETATM   41  O10 UNL     1      20.212  24.381  15.563  1.00  0.00    -0.381 OA
ATOM     42  H10 UNL     1      20.738  24.024  14.857  1.00  0.00     0.211 HD
ENDBRANCH  13  41
BRANCH   9  43
HETATM   43  O8  UNL     1      16.396  25.720  16.350  1.00  0.00    -0.298 OA
BRANCH  43  44
HETATM   44  C26 UNL     1      15.824  24.929  17.344  1.00  0.00     0.362 C 
HETATM   45  O9  UNL     1      15.952  25.238  18.562  1.00  0.00    -0.238 OA
HETATM   46  N1  UNL     1      15.080  23.759  17.039  1.00  0.00    -0.333 N 
HETATM   47  C27 UNL     1      14.507  22.974  18.096  1.00  0.00     0.155 C 
BRANCH  46  48
HETATM   48  C28 UNL     1      14.934  23.404  15.632  1.00  0.00     0.123 C 
HETATM   49  C29 UNL     1      15.877  22.270  15.303  1.00  0.00     0.026 C 
ENDBRANCH  46  48
ENDBRANCH  43  44
ENDBRANCH   9  43
TORSDOF 19
ENDMDL
