MODEL 1
REMARK VINA RESULT: -8.038250567      0.000      0.000
REMARK  10 active torsions:
REMARK  status: ('A' for Active; 'I' for Inactive)
REMARK    1  A    between atoms: C2_2  and  C3_3 
REMARK    2  A    between atoms: C3_3  and  C4_4 
REMARK    3  A    between atoms: C4_4  and  C5_5 
REMARK    4  A    between atoms: C5_5  and  C6_6 
REMARK    5  A    between atoms: C6_6  and  C7_7 
REMARK    6  A    between atoms: C7_7  and  C8_8 
REMARK       I    between atoms: C8_8  and  N1_10 
REMARK    7  A    between atoms: C10_12  and  C11_13 
REMARK       I    between atoms: C11_13  and  N2_15 
REMARK       I    between atoms: N2_15  and  C12_17 
REMARK    8  A    between atoms: C12_17  and  C13_19 
REMARK    9  A    between atoms: C13_19  and  C16_22 
REMARK   10  A    between atoms: C26_33  and  C27_34 
ROOT
HETATM    1  C8  UNL     1      -7.179  18.733   0.693  1.00  0.00     0.220 C 
HETATM    2  O1  UNL     1      -7.673  18.145   1.691  1.00  0.00    -0.273 OA
HETATM    3  N1  UNL     1      -7.551  18.365  -0.625  1.00  0.00    -0.346 N 
HETATM    4  C9  UNL     1      -7.009  19.185  -1.685  1.00  0.00     0.141 C 
HETATM    5  C10 UNL     1      -7.991  20.114  -2.333  1.00  0.00     0.113 C 
HETATM    6  C18 UNL     1      -9.394  20.003  -2.040  1.00  0.00     0.050 A 
HETATM    7  C19 UNL     1     -10.100  20.827  -0.964  1.00  0.00     0.143 A 
HETATM    8  O4  UNL     1     -10.227  20.932   0.242  1.00  0.00    -0.297 OA
HETATM    9  C20 UNL     1     -10.300  21.136  -2.373  1.00  0.00     0.081 A 
HETATM   10  C21 UNL     1     -11.445  20.549  -3.156  1.00  0.00    -0.036 C 
HETATM   11  C22 UNL     1     -12.775  21.149  -2.743  1.00  0.00     0.015 C 
HETATM   12  C23 UNL     1     -11.229  20.936  -4.608  1.00  0.00     0.015 C 
HETATM   13  C24 UNL     1     -11.401  19.072  -2.990  1.00  0.00     0.016 C 
HETATM   14  C25 UNL     1     -10.118  18.730  -2.273  1.00  0.00     0.018 C 
HETATM   15  C26 UNL     1      -9.345  17.641  -2.931  1.00  0.00     0.098 C 
HETATM   16  C28 UNL     1      -8.807  16.674  -1.946  1.00  0.00     0.023 C 
HETATM   17  C29 UNL     1      -7.658  15.849  -2.472  1.00  0.00     0.007 C 
HETATM   18  C30 UNL     1      -6.867  15.494  -1.245  1.00  0.00     0.002 C 
HETATM   19  C31 UNL     1      -7.710  15.951  -0.068  1.00  0.00     0.026 C 
HETATM   20  C32 UNL     1      -8.381  17.199  -0.610  1.00  0.00     0.092 C 
ENDROOT
BRANCH   5  21
HETATM   21  C11 UNL     1      -7.503  21.495  -2.134  1.00  0.00     0.231 C 
HETATM   22  O2  UNL     1      -7.332  21.882  -0.919  1.00  0.00    -0.273 OA
HETATM   23  N2  UNL     1      -7.193  22.456  -3.113  1.00  0.00    -0.297 N 
HETATM   24  C12 UNL     1      -7.256  22.375  -4.498  1.00  0.00     0.232 C 
ATOM     25  H2  UNL     1      -6.872  23.352  -2.748  1.00  0.00     0.171 HD
HETATM   26  O3  UNL     1      -7.641  21.338  -5.072  1.00  0.00    -0.272 OA
BRANCH  24  27
HETATM   27  C13 UNL     1      -6.871  23.514  -5.368  1.00  0.00     0.034 C 
HETATM   28  C14 UNL     1      -6.693  24.790  -4.604  1.00  0.00     0.025 C 
HETATM   29  C15 UNL     1      -7.921  23.620  -6.460  1.00  0.00     0.025 C 
BRANCH  27  30
HETATM   30  C16 UNL     1      -5.546  23.208  -6.080  1.00  0.00     0.014 C 
HETATM   31  C17 UNL     1      -4.462  23.223  -5.035  1.00  0.00     0.006 C 
ENDBRANCH  27  30
ENDBRANCH  24  27
ENDBRANCH   5  21
BRANCH   1  32
HETATM   32  C7  UNL     1      -6.203  19.809   0.986  1.00  0.00     0.103 C 
BRANCH  32  33
HETATM   33  C6  UNL     1      -5.016  19.203   1.720  1.00  0.00     0.009 C 
BRANCH  33  34
HETATM   34  C5  UNL     1      -4.297  18.182   0.889  1.00  0.00     0.000 C 
BRANCH  34  35
HETATM   35  C4  UNL     1      -3.199  17.532   1.650  1.00  0.00     0.000 C 
BRANCH  35  36
HETATM   36  C3  UNL     1      -2.090  17.004   0.774  1.00  0.00    -0.000 C 
BRANCH  36  37
HETATM   37  C2  UNL     1      -1.756  15.567   0.977  1.00  0.00    -0.005 C 
HETATM   38  C1  UNL     1      -0.489  15.325   1.734  1.00  0.00     0.005 C 
ENDBRANCH  36  37
ENDBRANCH  35  36
ENDBRANCH  34  35
ENDBRANCH  33  34
ENDBRANCH  32  33
ENDBRANCH   1  32
BRANCH  15  39
HETATM   39  C27 UNL     1     -10.226  16.832  -3.834  1.00  0.00     0.177 C 
HETATM   40  O5  UNL     1     -10.240  16.925  -5.068  1.00  0.00    -0.648 OA
HETATM   41  O6  UNL     1     -11.079  15.921  -3.233  1.00  0.00    -0.648 OA
ENDBRANCH  15  39
TORSDOF 10
ENDMDL
MODEL 2
REMARK VINA RESULT: -8.026620386      0.375      1.087
REMARK  10 active torsions:
REMARK  status: ('A' for Active; 'I' for Inactive)
REMARK    1  A    between atoms: C2_2  and  C3_3 
REMARK    2  A    between atoms: C3_3  and  C4_4 
REMARK    3  A    between atoms: C4_4  and  C5_5 
REMARK    4  A    between atoms: C5_5  and  C6_6 
REMARK    5  A    between atoms: C6_6  and  C7_7 
REMARK    6  A    between atoms: C7_7  and  C8_8 
REMARK       I    between atoms: C8_8  and  N1_10 
REMARK    7  A    between atoms: C10_12  and  C11_13 
REMARK       I    between atoms: C11_13  and  N2_15 
REMARK       I    between atoms: N2_15  and  C12_17 
REMARK    8  A    between atoms: C12_17  and  C13_19 
REMARK    9  A    between atoms: C13_19  and  C16_22 
REMARK   10  A    between atoms: C26_33  and  C27_34 
ROOT
HETATM    1  C8  UNL     1      -7.184  18.781   0.684  1.00  0.00     0.220 C 
HETATM    2  O1  UNL     1      -7.664  18.192   1.688  1.00  0.00    -0.273 OA
HETATM    3  N1  UNL     1      -7.556  18.399  -0.630  1.00  0.00    -0.346 N 
HETATM    4  C9  UNL     1      -7.031  19.219  -1.698  1.00  0.00     0.141 C 
HETATM    5  C10 UNL     1      -8.029  20.131  -2.346  1.00  0.00     0.113 C 
HETATM    6  C18 UNL     1      -9.429  20.002  -2.046  1.00  0.00     0.050 A 
HETATM    7  C19 UNL     1     -10.141  20.824  -0.972  1.00  0.00     0.143 A 
HETATM    8  O4  UNL     1     -10.264  20.934   0.234  1.00  0.00    -0.297 OA
HETATM    9  C20 UNL     1     -10.352  21.120  -2.382  1.00  0.00     0.081 A 
HETATM   10  C21 UNL     1     -11.493  20.513  -3.155  1.00  0.00    -0.036 C 
HETATM   11  C22 UNL     1     -12.829  21.097  -2.739  1.00  0.00     0.015 C 
HETATM   12  C23 UNL     1     -11.290  20.893  -4.610  1.00  0.00     0.015 C 
HETATM   13  C24 UNL     1     -11.428  19.038  -2.980  1.00  0.00     0.016 C 
HETATM   14  C25 UNL     1     -10.137  18.718  -2.267  1.00  0.00     0.018 C 
HETATM   15  C26 UNL     1      -9.352  17.635  -2.922  1.00  0.00     0.098 C 
HETATM   16  C28 UNL     1      -8.796  16.682  -1.934  1.00  0.00     0.023 C 
HETATM   17  C29 UNL     1      -7.638  15.870  -2.460  1.00  0.00     0.007 C 
HETATM   18  C30 UNL     1      -6.836  15.533  -1.235  1.00  0.00     0.002 C 
HETATM   19  C31 UNL     1      -7.680  15.987  -0.057  1.00  0.00     0.026 C 
HETATM   20  C32 UNL     1      -8.371  17.222  -0.603  1.00  0.00     0.092 C 
ENDROOT
BRANCH   5  21
HETATM   21  C11 UNL     1      -7.560  21.520  -2.160  1.00  0.00     0.231 C 
HETATM   22  O2  UNL     1      -7.326  21.897  -0.951  1.00  0.00    -0.273 OA
HETATM   23  N2  UNL     1      -7.328  22.498  -3.142  1.00  0.00    -0.297 N 
HETATM   24  C12 UNL     1      -7.470  22.431  -4.522  1.00  0.00     0.232 C 
ATOM     25  H2  UNL     1      -7.004  23.397  -2.786  1.00  0.00     0.171 HD
HETATM   26  O3  UNL     1      -7.865  21.393  -5.086  1.00  0.00    -0.272 OA
BRANCH  24  27
HETATM   27  C13 UNL     1      -7.160  23.588  -5.399  1.00  0.00     0.034 C 
HETATM   28  C14 UNL     1      -6.047  23.303  -6.360  1.00  0.00     0.025 C 
HETATM   29  C15 UNL     1      -6.870  24.773  -4.493  1.00  0.00     0.025 C 
BRANCH  27  30
HETATM   30  C16 UNL     1      -8.398  23.974  -6.220  1.00  0.00     0.014 C 
HETATM   31  C17 UNL     1      -9.392  24.589  -5.270  1.00  0.00     0.006 C 
ENDBRANCH  27  30
ENDBRANCH  24  27
ENDBRANCH   5  21
BRANCH   1  32
HETATM   32  C7  UNL     1      -6.221  19.872   0.965  1.00  0.00     0.103 C 
BRANCH  32  33
HETATM   33  C6  UNL     1      -5.009  19.283   1.673  1.00  0.00     0.009 C 
BRANCH  33  34
HETATM   34  C5  UNL     1      -4.367  18.185   0.877  1.00  0.00     0.000 C 
BRANCH  34  35
HETATM   35  C4  UNL     1      -3.212  17.591   1.599  1.00  0.00     0.000 C 
BRANCH  35  36
HETATM   36  C3  UNL     1      -2.147  17.043   0.682  1.00  0.00    -0.000 C 
BRANCH  36  37
HETATM   37  C2  UNL     1      -1.792  15.615   0.909  1.00  0.00    -0.005 C 
HETATM   38  C1  UNL     1      -0.559  15.406   1.731  1.00  0.00     0.005 C 
ENDBRANCH  36  37
ENDBRANCH  35  36
ENDBRANCH  34  35
ENDBRANCH  33  34
ENDBRANCH  32  33
ENDBRANCH   1  32
BRANCH  15  39
HETATM   39  C27 UNL     1     -10.226  16.808  -3.815  1.00  0.00     0.177 C 
HETATM   40  O5  UNL     1     -10.252  16.897  -5.049  1.00  0.00    -0.648 OA
HETATM   41  O6  UNL     1     -11.058  15.885  -3.204  1.00  0.00    -0.648 OA
ENDBRANCH  15  39
TORSDOF 10
ENDMDL
MODEL 3
REMARK VINA RESULT: -8.021357133      1.080      1.573
REMARK  10 active torsions:
REMARK  status: ('A' for Active; 'I' for Inactive)
REMARK    1  A    between atoms: C2_2  and  C3_3 
REMARK    2  A    between atoms: C3_3  and  C4_4 
REMARK    3  A    between atoms: C4_4  and  C5_5 
REMARK    4  A    between atoms: C5_5  and  C6_6 
REMARK    5  A    between atoms: C6_6  and  C7_7 
REMARK    6  A    between atoms: C7_7  and  C8_8 
REMARK       I    between atoms: C8_8  and  N1_10 
REMARK    7  A    between atoms: C10_12  and  C11_13 
REMARK       I    between atoms: C11_13  and  N2_15 
REMARK       I    between atoms: N2_15  and  C12_17 
REMARK    8  A    between atoms: C12_17  and  C13_19 
REMARK    9  A    between atoms: C13_19  and  C16_22 
REMARK   10  A    between atoms: C26_33  and  C27_34 
ROOT
HETATM    1  C8  UNL     1      -7.285  18.918   0.617  1.00  0.00     0.220 C 
HETATM    2  O1  UNL     1      -7.766  18.344   1.628  1.00  0.00    -0.273 OA
HETATM    3  N1  UNL     1      -7.628  18.494  -0.692  1.00  0.00    -0.346 N 
HETATM    4  C9  UNL     1      -7.106  19.299  -1.774  1.00  0.00     0.141 C 
HETATM    5  C10 UNL     1      -8.116  20.169  -2.461  1.00  0.00     0.113 C 
HETATM    6  C18 UNL     1      -9.516  20.013  -2.178  1.00  0.00     0.050 A 
HETATM    7  C19 UNL     1     -10.265  20.844  -1.137  1.00  0.00     0.143 A 
HETATM    8  O4  UNL     1     -10.409  20.983   0.064  1.00  0.00    -0.297 OA
HETATM    9  C20 UNL     1     -10.461  21.099  -2.557  1.00  0.00     0.081 A 
HETATM   10  C21 UNL     1     -11.575  20.444  -3.330  1.00  0.00    -0.036 C 
HETATM   11  C22 UNL     1     -12.931  21.005  -2.950  1.00  0.00     0.015 C 
HETATM   12  C23 UNL     1     -11.358  20.791  -4.792  1.00  0.00     0.015 C 
HETATM   13  C24 UNL     1     -11.476  18.976  -3.116  1.00  0.00     0.016 C 
HETATM   14  C25 UNL     1     -10.189  18.707  -2.375  1.00  0.00     0.018 C 
HETATM   15  C26 UNL     1      -9.368  17.627  -2.990  1.00  0.00     0.098 C 
HETATM   16  C28 UNL     1      -8.804  16.714  -1.969  1.00  0.00     0.023 C 
HETATM   17  C29 UNL     1      -7.620  15.917  -2.457  1.00  0.00     0.007 C 
HETATM   18  C30 UNL     1      -6.829  15.632  -1.211  1.00  0.00     0.002 C 
HETATM   19  C31 UNL     1      -7.702  16.094  -0.058  1.00  0.00     0.026 C 
HETATM   20  C32 UNL     1      -8.414  17.298  -0.647  1.00  0.00     0.092 C 
ENDROOT
BRANCH   5  21
HETATM   21  C11 UNL     1      -7.683  21.573  -2.303  1.00  0.00     0.231 C 
HETATM   22  O2  UNL     1      -7.460  21.981  -1.103  1.00  0.00    -0.273 OA
HETATM   23  N2  UNL     1      -7.477  22.536  -3.306  1.00  0.00    -0.297 N 
HETATM   24  C12 UNL     1      -7.616  22.436  -4.684  1.00  0.00     0.232 C 
ATOM     25  H2  UNL     1      -7.177  23.450  -2.969  1.00  0.00     0.171 HD
HETATM   26  O3  UNL     1      -7.984  21.377  -5.226  1.00  0.00    -0.272 OA
BRANCH  24  27
HETATM   27  C13 UNL     1      -7.337  23.583  -5.585  1.00  0.00     0.034 C 
HETATM   28  C14 UNL     1      -6.265  23.282  -6.587  1.00  0.00     0.025 C 
HETATM   29  C15 UNL     1      -7.006  24.775  -4.705  1.00  0.00     0.025 C 
BRANCH  27  30
HETATM   30  C16 UNL     1      -8.605  23.965  -6.360  1.00  0.00     0.014 C 
HETATM   31  C17 UNL     1      -9.588  24.521  -5.364  1.00  0.00     0.006 C 
ENDBRANCH  27  30
ENDBRANCH  24  27
ENDBRANCH   5  21
BRANCH   1  32
HETATM   32  C7  UNL     1      -6.354  20.039   0.883  1.00  0.00     0.103 C 
BRANCH  32  33
HETATM   33  C6  UNL     1      -5.503  19.689   2.095  1.00  0.00     0.009 C 
BRANCH  33  34
HETATM   34  C5  UNL     1      -4.066  19.454   1.730  1.00  0.00     0.000 C 
BRANCH  34  35
HETATM   35  C4  UNL     1      -3.592  18.128   2.204  1.00  0.00     0.000 C 
BRANCH  35  36
HETATM   36  C3  UNL     1      -4.567  17.010   1.932  1.00  0.00    -0.000 C 
BRANCH  36  37
HETATM   37  C2  UNL     1      -5.160  16.382   3.146  1.00  0.00    -0.005 C 
HETATM   38  C1  UNL     1      -4.159  15.822   4.107  1.00  0.00     0.005 C 
ENDBRANCH  36  37
ENDBRANCH  35  36
ENDBRANCH  34  35
ENDBRANCH  33  34
ENDBRANCH  32  33
ENDBRANCH   1  32
BRANCH  15  39
HETATM   39  C27 UNL     1     -10.208  16.756  -3.875  1.00  0.00     0.177 C 
HETATM   40  O5  UNL     1     -10.199  16.796  -5.111  1.00  0.00    -0.648 OA
HETATM   41  O6  UNL     1     -11.049  15.849  -3.252  1.00  0.00    -0.648 OA
ENDBRANCH  15  39
TORSDOF 10
ENDMDL
MODEL 4
REMARK VINA RESULT: -7.069339117      0.929      1.171
REMARK  10 active torsions:
REMARK  status: ('A' for Active; 'I' for Inactive)
REMARK    1  A    between atoms: C2_2  and  C3_3 
REMARK    2  A    between atoms: C3_3  and  C4_4 
REMARK    3  A    between atoms: C4_4  and  C5_5 
REMARK    4  A    between atoms: C5_5  and  C6_6 
REMARK    5  A    between atoms: C6_6  and  C7_7 
REMARK    6  A    between atoms: C7_7  and  C8_8 
REMARK       I    between atoms: C8_8  and  N1_10 
REMARK    7  A    between atoms: C10_12  and  C11_13 
REMARK       I    between atoms: C11_13  and  N2_15 
REMARK       I    between atoms: N2_15  and  C12_17 
REMARK    8  A    between atoms: C12_17  and  C13_19 
REMARK    9  A    between atoms: C13_19  and  C16_22 
REMARK   10  A    between atoms: C26_33  and  C27_34 
ROOT
HETATM    1  C8  UNL     1      -7.409  19.208   0.715  1.00  0.00     0.220 C 
HETATM    2  O1  UNL     1      -7.909  18.613   1.705  1.00  0.00    -0.273 OA
HETATM    3  N1  UNL     1      -7.533  18.674  -0.593  1.00  0.00    -0.346 N 
HETATM    4  C9  UNL     1      -7.021  19.499  -1.663  1.00  0.00     0.141 C 
HETATM    5  C10 UNL     1      -8.067  20.166  -2.506  1.00  0.00     0.113 C 
HETATM    6  C18 UNL     1      -9.450  19.804  -2.362  1.00  0.00     0.050 A 
HETATM    7  C19 UNL     1     -10.429  20.555  -1.460  1.00  0.00     0.143 A 
HETATM    8  O4  UNL     1     -10.728  20.725  -0.292  1.00  0.00    -0.297 OA
HETATM    9  C20 UNL     1     -10.500  20.708  -2.906  1.00  0.00     0.081 A 
HETATM   10  C21 UNL     1     -11.406  19.850  -3.748  1.00  0.00    -0.036 C 
HETATM   11  C22 UNL     1     -12.866  20.207  -3.549  1.00  0.00     0.015 C 
HETATM   12  C23 UNL     1     -11.081  20.158  -5.198  1.00  0.00     0.015 C 
HETATM   13  C24 UNL     1     -11.111  18.428  -3.431  1.00  0.00     0.016 C 
HETATM   14  C25 UNL     1      -9.890  18.400  -2.545  1.00  0.00     0.018 C 
HETATM   15  C26 UNL     1      -8.850  17.436  -3.000  1.00  0.00     0.098 C 
HETATM   16  C28 UNL     1      -8.274  16.673  -1.869  1.00  0.00     0.023 C 
HETATM   17  C29 UNL     1      -6.934  16.051  -2.179  1.00  0.00     0.007 C 
HETATM   18  C30 UNL     1      -6.255  15.953  -0.841  1.00  0.00     0.002 C 
HETATM   19  C31 UNL     1      -7.313  16.325   0.182  1.00  0.00     0.026 C 
HETATM   20  C32 UNL     1      -8.128  17.372  -0.554  1.00  0.00     0.092 C 
ENDROOT
BRANCH   5  21
HETATM   21  C11 UNL     1      -7.873  21.626  -2.394  1.00  0.00     0.231 C 
HETATM   22  O2  UNL     1      -7.805  22.115  -1.205  1.00  0.00    -0.273 OA
HETATM   23  N2  UNL     1      -7.748  22.568  -3.431  1.00  0.00    -0.297 N 
HETATM   24  C12 UNL     1      -7.769  22.391  -4.808  1.00  0.00     0.232 C 
ATOM     25  H2  UNL     1      -7.621  23.532  -3.123  1.00  0.00     0.171 HD
HETATM   26  O3  UNL     1      -7.925  21.264  -5.316  1.00  0.00    -0.272 OA
BRANCH  24  27
HETATM   27  C13 UNL     1      -7.608  23.529  -5.747  1.00  0.00     0.034 C 
HETATM   28  C14 UNL     1      -8.860  24.338  -5.894  1.00  0.00     0.025 C 
HETATM   29  C15 UNL     1      -7.115  22.957  -7.065  1.00  0.00     0.025 C 
BRANCH  27  30
HETATM   30  C16 UNL     1      -6.501  24.469  -5.251  1.00  0.00     0.014 C 
HETATM   31  C17 UNL     1      -7.094  25.851  -5.161  1.00  0.00     0.006 C 
ENDBRANCH  27  30
ENDBRANCH  24  27
ENDBRANCH   5  21
BRANCH   1  32
HETATM   32  C7  UNL     1      -6.695  20.474   1.005  1.00  0.00     0.103 C 
BRANCH  32  33
HETATM   33  C6  UNL     1      -5.263  20.146   1.400  1.00  0.00     0.009 C 
BRANCH  33  34
HETATM   34  C5  UNL     1      -5.136  18.766   1.977  1.00  0.00     0.000 C 
BRANCH  34  35
HETATM   35  C4  UNL     1      -3.729  18.289   1.949  1.00  0.00     0.000 C 
BRANCH  35  36
HETATM   36  C3  UNL     1      -3.598  16.797   2.124  1.00  0.00    -0.000 C 
BRANCH  36  37
HETATM   37  C2  UNL     1      -2.902  16.090   1.013  1.00  0.00    -0.005 C 
HETATM   38  C1  UNL     1      -1.646  16.754   0.546  1.00  0.00     0.005 C 
ENDBRANCH  36  37
ENDBRANCH  35  36
ENDBRANCH  34  35
ENDBRANCH  33  34
ENDBRANCH  32  33
ENDBRANCH   1  32
BRANCH  15  39
HETATM   39  C27 UNL     1      -9.443  16.403  -3.910  1.00  0.00     0.177 C 
HETATM   40  O5  UNL     1      -9.291  16.380  -5.137  1.00  0.00    -0.648 OA
HETATM   41  O6  UNL     1     -10.211  15.411  -3.323  1.00  0.00    -0.648 OA
ENDBRANCH  15  39
TORSDOF 10
ENDMDL
MODEL 5
REMARK VINA RESULT: -7.018918431      1.298      1.640
REMARK  10 active torsions:
REMARK  status: ('A' for Active; 'I' for Inactive)
REMARK    1  A    between atoms: C2_2  and  C3_3 
REMARK    2  A    between atoms: C3_3  and  C4_4 
REMARK    3  A    between atoms: C4_4  and  C5_5 
REMARK    4  A    between atoms: C5_5  and  C6_6 
REMARK    5  A    between atoms: C6_6  and  C7_7 
REMARK    6  A    between atoms: C7_7  and  C8_8 
REMARK       I    between atoms: C8_8  and  N1_10 
REMARK    7  A    between atoms: C10_12  and  C11_13 
REMARK       I    between atoms: C11_13  and  N2_15 
REMARK       I    between atoms: N2_15  and  C12_17 
REMARK    8  A    between atoms: C12_17  and  C13_19 
REMARK    9  A    between atoms: C13_19  and  C16_22 
REMARK   10  A    between atoms: C26_33  and  C27_34 
ROOT
HETATM    1  C8  UNL     1      -7.237  18.621  -0.220  1.00  0.00     0.220 C 
HETATM    2  O1  UNL     1      -7.535  17.903   0.770  1.00  0.00    -0.273 OA
HETATM    3  N1  UNL     1      -7.885  18.444  -1.469  1.00  0.00    -0.346 N 
HETATM    4  C9  UNL     1      -7.544  19.400  -2.498  1.00  0.00     0.141 C 
HETATM    5  C10 UNL     1      -8.605  20.417  -2.794  1.00  0.00     0.113 C 
HETATM    6  C18 UNL     1      -9.921  20.275  -2.233  1.00  0.00     0.050 A 
HETATM    7  C19 UNL     1     -10.361  20.945  -0.933  1.00  0.00     0.143 A 
HETATM    8  O4  UNL     1     -10.233  20.881   0.277  1.00  0.00    -0.297 OA
HETATM    9  C20 UNL     1     -10.836  21.448  -2.214  1.00  0.00     0.081 A 
HETATM   10  C21 UNL     1     -12.137  20.984  -2.811  1.00  0.00    -0.036 C 
HETATM   11  C22 UNL     1     -13.332  21.529  -2.053  1.00  0.00     0.015 C 
HETATM   12  C23 UNL     1     -12.211  21.568  -4.211  1.00  0.00     0.015 C 
HETATM   13  C24 UNL     1     -12.112  19.498  -2.860  1.00  0.00     0.016 C 
HETATM   14  C25 UNL     1     -10.722  19.052  -2.479  1.00  0.00     0.018 C 
HETATM   15  C26 UNL     1     -10.139  18.060  -3.426  1.00  0.00     0.098 C 
HETATM   16  C28 UNL     1      -9.445  16.962  -2.715  1.00  0.00     0.023 C 
HETATM   17  C29 UNL     1      -8.459  16.211  -3.576  1.00  0.00     0.007 C 
HETATM   18  C30 UNL     1      -7.445  15.683  -2.601  1.00  0.00     0.002 C 
HETATM   19  C31 UNL     1      -8.011  15.976  -1.223  1.00  0.00     0.026 C 
HETATM   20  C32 UNL     1      -8.735  17.292  -1.439  1.00  0.00     0.092 C 
ENDROOT
BRANCH   5  21
HETATM   21  C11 UNL     1      -8.039  21.753  -2.518  1.00  0.00     0.231 C 
HETATM   22  O2  UNL     1      -7.491  21.926  -1.366  1.00  0.00    -0.273 OA
HETATM   23  N2  UNL     1      -8.015  22.879  -3.360  1.00  0.00    -0.297 N 
HETATM   24  C12 UNL     1      -8.502  23.040  -4.651  1.00  0.00     0.232 C 
ATOM     25  H2  UNL     1      -7.571  23.705  -2.961  1.00  0.00     0.171 HD
HETATM   26  O3  UNL     1      -9.076  22.111  -5.251  1.00  0.00    -0.272 OA
BRANCH  24  27
HETATM   27  C13 UNL     1      -8.368  24.324  -5.384  1.00  0.00     0.034 C 
HETATM   28  C14 UNL     1      -9.658  25.082  -5.462  1.00  0.00     0.025 C 
HETATM   29  C15 UNL     1      -7.787  24.002  -6.749  1.00  0.00     0.025 C 
BRANCH  27  30
HETATM   30  C16 UNL     1      -7.340  25.225  -4.685  1.00  0.00     0.014 C 
HETATM   31  C17 UNL     1      -8.095  26.373  -4.069  1.00  0.00     0.006 C 
ENDBRANCH  27  30
ENDBRANCH  24  27
ENDBRANCH   5  21
BRANCH   1  32
HETATM   32  C7  UNL     1      -6.184  19.640   0.005  1.00  0.00     0.103 C 
BRANCH  32  33
HETATM   33  C6  UNL     1      -5.989  19.816   1.504  1.00  0.00     0.009 C 
BRANCH  33  34
HETATM   34  C5  UNL     1      -4.538  19.812   1.890  1.00  0.00     0.000 C 
BRANCH  34  35
HETATM   35  C4  UNL     1      -4.009  18.429   2.010  1.00  0.00     0.000 C 
BRANCH  35  36
HETATM   36  C3  UNL     1      -2.728  18.208   1.245  1.00  0.00    -0.000 C 
BRANCH  36  37
HETATM   37  C2  UNL     1      -2.808  17.189   0.162  1.00  0.00    -0.005 C 
HETATM   38  C1  UNL     1      -4.158  16.566  -0.005  1.00  0.00     0.005 C 
ENDBRANCH  36  37
ENDBRANCH  35  36
ENDBRANCH  34  35
ENDBRANCH  33  34
ENDBRANCH  32  33
ENDBRANCH   1  32
BRANCH  15  39
HETATM   39  C27 UNL     1     -11.216  17.390  -4.226  1.00  0.00     0.177 C 
HETATM   40  O5  UNL     1     -11.469  17.642  -5.410  1.00  0.00    -0.648 OA
HETATM   41  O6  UNL     1     -11.972  16.425  -3.582  1.00  0.00    -0.648 OA
ENDBRANCH  15  39
TORSDOF 10
ENDMDL
