MODEL 1
REMARK VINA RESULT: -7.253978131      0.000      0.000
REMARK  18 active torsions:
REMARK  status: ('A' for Active; 'I' for Inactive)
REMARK    1  A    between atoms: O1_2  and  C2_3 
REMARK    2  A    between atoms: C3_4  and  O2_5 
REMARK    3  A    between atoms: O2_5  and  C4_6 
REMARK    4  A    between atoms: C5_8  and  C6_9 
REMARK    5  A    between atoms: C6_9  and  O4_10 
REMARK    6  A    between atoms: C7_12  and  O5_13 
REMARK    7  A    between atoms: O5_13  and  C8_14 
REMARK    8  A    between atoms: C10_17  and  O7_19 
REMARK    9  A    between atoms: C12_21  and  O8_22 
REMARK   10  A    between atoms: C14_24  and  O9_25 
REMARK   11  A    between atoms: C15_27  and  O10_28 
REMARK   12  A    between atoms: C17_30  and  O11_31 
REMARK   13  A    between atoms: O11_31  and  C18_32 
REMARK   14  A    between atoms: C21_36  and  O13_37 
REMARK   15  A    between atoms: C22_39  and  O14_40 
REMARK   16  A    between atoms: C23_42  and  O15_43 
REMARK   17  A    between atoms: C27_48  and  O17_49 
REMARK   18  A    between atoms: C28_51  and  O18_52 
ROOT
HETATM    1  C4  UNL     1      -3.068 -24.438  -9.237  1.00  0.00     0.295 C 
HETATM    2  O3  UNL     1      -2.786 -23.299  -8.430  1.00  0.00    -0.348 OA
HETATM    3  C5  UNL     1      -2.053 -23.878  -7.337  1.00  0.00     0.180 C 
HETATM    4  C7  UNL     1      -0.691 -24.093  -7.898  1.00  0.00     0.187 C 
HETATM    5  C15 UNL     1      -0.806 -25.260  -8.941  1.00  0.00     0.186 C 
HETATM    6  C17 UNL     1      -1.800 -24.786  -9.984  1.00  0.00     0.211 C 
ENDROOT
BRANCH   1   7
HETATM    7  O2  UNL     1      -4.112 -24.031 -10.054  1.00  0.00    -0.326 OA
BRANCH   7   8
HETATM    8  C3  UNL     1      -5.167 -24.916  -9.831  1.00  0.00     0.295 C 
HETATM    9  C2  UNL     1      -6.246 -24.291  -8.972  1.00  0.00     0.207 C 
HETATM   10  C28 UNL     1      -7.605 -24.579  -9.614  1.00  0.00     0.183 C 
HETATM   11  C27 UNL     1      -7.632 -26.093  -9.834  1.00  0.00     0.178 C 
HETATM   12  C25 UNL     1      -6.560 -26.399 -10.877  1.00  0.00     0.152 C 
HETATM   13  O16 UNL     1      -5.707 -25.304 -11.039  1.00  0.00    -0.351 OA
HETATM   14  C26 UNL     1      -5.818 -27.665 -10.573  1.00  0.00     0.042 C 
BRANCH   9  15
HETATM   15  O1  UNL     1      -6.087 -22.929  -8.827  1.00  0.00    -0.383 OA
HETATM   16  C1  UNL     1      -6.026 -22.577  -7.481  1.00  0.00     0.202 C 
ENDBRANCH   9  15
BRANCH  10  17
HETATM   17  O18 UNL     1      -8.640 -24.242  -8.777  1.00  0.00    -0.390 OA
ATOM     18  H18 UNL     1      -9.482 -24.459  -9.159  1.00  0.00     0.210 HD
ENDBRANCH  10  17
BRANCH  11  19
HETATM   19  O17 UNL     1      -7.248 -26.733  -8.662  1.00  0.00    -0.390 OA
ATOM     20  H17 UNL     1      -6.997 -26.054  -8.046  1.00  0.00     0.210 HD
ENDBRANCH  11  19
ENDBRANCH   7   8
ENDBRANCH   1   7
BRANCH   6  21
HETATM   21  O11 UNL     1      -2.118 -25.679 -10.939  1.00  0.00    -0.346 OA
BRANCH  21  22
HETATM   22  C18 UNL     1      -1.318 -25.757 -12.046  1.00  0.00     0.292 C 
HETATM   23  O12 UNL     1      -0.610 -26.931 -11.947  1.00  0.00    -0.351 OA
HETATM   24  C19 UNL     1      -1.127 -28.071 -12.441  1.00  0.00     0.152 C 
HETATM   25  C20 UNL     1      -2.161 -28.609 -11.448  1.00  0.00     0.042 C 
HETATM   26  C21 UNL     1      -1.795 -27.942 -13.764  1.00  0.00     0.178 C 
HETATM   27  C22 UNL     1      -2.786 -26.799 -13.691  1.00  0.00     0.183 C 
HETATM   28  C23 UNL     1      -1.918 -25.577 -13.375  1.00  0.00     0.207 C 
BRANCH  26  29
HETATM   29  O13 UNL     1      -2.411 -29.104 -14.190  1.00  0.00    -0.390 OA
ATOM     30  H13 UNL     1      -3.258 -29.255 -13.788  1.00  0.00     0.210 HD
ENDBRANCH  26  29
BRANCH  27  31
HETATM   31  O14 UNL     1      -3.256 -26.596 -14.987  1.00  0.00    -0.390 OA
ATOM     32  H14 UNL     1      -4.166 -26.336 -14.907  1.00  0.00     0.210 HD
ENDBRANCH  27  31
BRANCH  28  33
HETATM   33  O15 UNL     1      -0.894 -25.601 -14.338  1.00  0.00    -0.383 OA
HETATM   34  C24 UNL     1      -0.178 -24.414 -14.372  1.00  0.00     0.202 C 
ENDBRANCH  28  33
ENDBRANCH  21  22
ENDBRANCH   6  21
BRANCH   3  35
HETATM   35  C6  UNL     1      -2.151 -22.902  -6.235  1.00  0.00     0.198 C 
BRANCH  35  36
HETATM   36  O4  UNL     1      -1.208 -21.904  -6.223  1.00  0.00    -0.398 OA
ATOM     37  H4  UNL     1      -1.489 -21.058  -6.547  1.00  0.00     0.209 HD
ENDBRANCH  35  36
ENDBRANCH   3  35
BRANCH   5  38
HETATM   38  O10 UNL     1      -1.106 -26.443  -8.343  1.00  0.00    -0.385 OA
HETATM   39  C16 UNL     1      -0.147 -27.439  -8.501  1.00  0.00     0.202 C 
ENDBRANCH   5  38
BRANCH   4  40
HETATM   40  O5  UNL     1       0.223 -24.387  -6.959  1.00  0.00    -0.348 OA
BRANCH  40  41
HETATM   41  C8  UNL     1       1.494 -23.804  -7.203  1.00  0.00     0.291 C 
HETATM   42  O6  UNL     1       1.428 -22.648  -6.419  1.00  0.00    -0.355 OA
HETATM   43  C9  UNL     1       2.399 -21.721  -6.637  1.00  0.00     0.211 C 
HETATM   44  C10 UNL     1       2.201 -21.224  -8.077  1.00  0.00     0.104 C 
HETATM   45  C11 UNL     1       2.995 -19.999  -8.368  1.00  0.00     0.051 C 
HETATM   46  C12 UNL     1       2.662 -22.379  -8.933  1.00  0.00     0.190 C 
HETATM   47  C14 UNL     1       1.748 -23.552  -8.629  1.00  0.00     0.205 C 
BRANCH  44  48
HETATM   48  O7  UNL     1       0.857 -21.004  -8.333  1.00  0.00    -0.385 OA
ATOM     49  H7  UNL     1       0.710 -20.098  -8.577  1.00  0.00     0.210 HD
ENDBRANCH  44  48
BRANCH  46  50
HETATM   50  O8  UNL     1       2.662 -22.119 -10.278  1.00  0.00    -0.385 OA
HETATM   51  C13 UNL     1       3.995 -22.002 -10.709  1.00  0.00     0.202 C 
ENDBRANCH  46  50
BRANCH  47  52
HETATM   52  O9  UNL     1       2.399 -24.654  -9.238  1.00  0.00    -0.388 OA
ATOM     53  H9  UNL     1       2.664 -24.450 -10.127  1.00  0.00     0.210 HD
ENDBRANCH  47  52
ENDBRANCH  40  41
ENDBRANCH   4  40
TORSDOF 18
ENDMDL
MODEL 2
REMARK VINA RESULT: -7.198669704      2.928      5.977
REMARK  18 active torsions:
REMARK  status: ('A' for Active; 'I' for Inactive)
REMARK    1  A    between atoms: O1_2  and  C2_3 
REMARK    2  A    between atoms: C3_4  and  O2_5 
REMARK    3  A    between atoms: O2_5  and  C4_6 
REMARK    4  A    between atoms: C5_8  and  C6_9 
REMARK    5  A    between atoms: C6_9  and  O4_10 
REMARK    6  A    between atoms: C7_12  and  O5_13 
REMARK    7  A    between atoms: O5_13  and  C8_14 
REMARK    8  A    between atoms: C10_17  and  O7_19 
REMARK    9  A    between atoms: C12_21  and  O8_22 
REMARK   10  A    between atoms: C14_24  and  O9_25 
REMARK   11  A    between atoms: C15_27  and  O10_28 
REMARK   12  A    between atoms: C17_30  and  O11_31 
REMARK   13  A    between atoms: O11_31  and  C18_32 
REMARK   14  A    between atoms: C21_36  and  O13_37 
REMARK   15  A    between atoms: C22_39  and  O14_40 
REMARK   16  A    between atoms: C23_42  and  O15_43 
REMARK   17  A    between atoms: C27_48  and  O17_49 
REMARK   18  A    between atoms: C28_51  and  O18_52 
ROOT
HETATM    1  C4  UNL     1      -3.701 -23.507  -8.894  1.00  0.00     0.295 C 
HETATM    2  O3  UNL     1      -4.433 -22.567  -9.673  1.00  0.00    -0.348 OA
HETATM    3  C5  UNL     1      -5.360 -22.034  -8.712  1.00  0.00     0.180 C 
HETATM    4  C7  UNL     1      -4.540 -21.075  -7.923  1.00  0.00     0.187 C 
HETATM    5  C15 UNL     1      -3.543 -21.927  -7.061  1.00  0.00     0.186 C 
HETATM    6  C17 UNL     1      -2.717 -22.725  -8.052  1.00  0.00     0.211 C 
ENDROOT
BRANCH   1   7
HETATM    7  O2  UNL     1      -3.107 -24.342  -9.829  1.00  0.00    -0.326 OA
BRANCH   7   8
HETATM    8  C3  UNL     1      -4.134 -25.069 -10.431  1.00  0.00     0.295 C 
HETATM    9  C2  UNL     1      -3.815 -25.390 -11.876  1.00  0.00     0.207 C 
HETATM   10  C28 UNL     1      -4.129 -26.867 -12.124  1.00  0.00     0.183 C 
HETATM   11  C27 UNL     1      -5.565 -27.060 -11.632  1.00  0.00     0.178 C 
HETATM   12  C25 UNL     1      -5.538 -26.848 -10.120  1.00  0.00     0.152 C 
HETATM   13  O16 UNL     1      -4.341 -26.240  -9.733  1.00  0.00    -0.351 OA
HETATM   14  C26 UNL     1      -6.745 -26.106  -9.631  1.00  0.00     0.042 C 
BRANCH   9  15
HETATM   15  O1  UNL     1      -2.498 -25.142 -12.197  1.00  0.00    -0.383 OA
HETATM   16  C1  UNL     1      -2.408 -24.290 -13.297  1.00  0.00     0.202 C 
ENDBRANCH   9  15
BRANCH  10  17
HETATM   17  O18 UNL     1      -4.082 -27.175 -13.461  1.00  0.00    -0.390 OA
ATOM     18  H18 UNL     1      -3.243 -27.549 -13.704  1.00  0.00     0.210 HD
ENDBRANCH  10  17
BRANCH  11  19
HETATM   19  O17 UNL     1      -6.370 -26.062 -12.166  1.00  0.00    -0.390 OA
ATOM     20  H17 UNL     1      -7.217 -26.455 -12.344  1.00  0.00     0.210 HD
ENDBRANCH  11  19
ENDBRANCH   7   8
ENDBRANCH   1   7
BRANCH   6  21
HETATM   21  O11 UNL     1      -1.846 -23.601  -7.519  1.00  0.00    -0.346 OA
BRANCH  21  22
HETATM   22  C18 UNL     1      -0.538 -23.220  -7.393  1.00  0.00     0.292 C 
HETATM   23  O12 UNL     1       0.114 -24.237  -6.738  1.00  0.00    -0.351 OA
HETATM   24  C19 UNL     1       0.648 -25.254  -7.439  1.00  0.00     0.152 C 
HETATM   25  C20 UNL     1      -0.474 -26.221  -7.827  1.00  0.00     0.042 C 
HETATM   26  C21 UNL     1       1.357 -24.859  -8.686  1.00  0.00     0.178 C 
HETATM   27  C22 UNL     1       0.438 -23.969  -9.498  1.00  0.00     0.183 C 
HETATM   28  C23 UNL     1       0.191 -22.765  -8.584  1.00  0.00     0.207 C 
BRANCH  26  29
HETATM   29  O13 UNL     1       1.795 -25.934  -9.438  1.00  0.00    -0.390 OA
ATOM     30  H13 UNL     1       2.589 -25.756  -9.929  1.00  0.00     0.210 HD
ENDBRANCH  26  29
BRANCH  27  31
HETATM   31  O14 UNL     1       1.196 -23.480 -10.560  1.00  0.00    -0.390 OA
ATOM     32  H14 UNL     1       1.207 -22.534 -10.472  1.00  0.00     0.210 HD
ENDBRANCH  27  31
BRANCH  28  33
HETATM   33  O15 UNL     1       1.471 -22.337  -8.192  1.00  0.00    -0.383 OA
HETATM   34  C24 UNL     1       1.506 -20.982  -7.898  1.00  0.00     0.202 C 
ENDBRANCH  28  33
ENDBRANCH  21  22
ENDBRANCH   6  21
BRANCH   3  35
HETATM   35  C6  UNL     1      -6.457 -21.448  -9.504  1.00  0.00     0.198 C 
BRANCH  35  36
HETATM   36  O4  UNL     1      -7.493 -20.897  -8.791  1.00  0.00    -0.398 OA
ATOM     37  H4  UNL     1      -8.011 -20.242  -9.243  1.00  0.00     0.209 HD
ENDBRANCH  35  36
ENDBRANCH   3  35
BRANCH   5  38
HETATM   38  O10 UNL     1      -4.191 -22.658  -6.116  1.00  0.00    -0.385 OA
HETATM   39  C16 UNL     1      -3.800 -22.401  -4.807  1.00  0.00     0.202 C 
ENDBRANCH   5  38
BRANCH   4  40
HETATM   40  O5  UNL     1      -5.279 -20.275  -7.138  1.00  0.00    -0.348 OA
BRANCH  40  41
HETATM   41  C8  UNL     1      -4.819 -18.932  -7.103  1.00  0.00     0.291 C 
HETATM   42  O6  UNL     1      -3.910 -18.919  -8.164  1.00  0.00    -0.355 OA
HETATM   43  C9  UNL     1      -3.090 -17.837  -8.236  1.00  0.00     0.211 C 
HETATM   44  C10 UNL     1      -2.213 -17.879  -6.975  1.00  0.00     0.104 C 
HETATM   45  C11 UNL     1      -1.066 -16.933  -7.050  1.00  0.00     0.051 C 
HETATM   46  C12 UNL     1      -3.153 -17.496  -5.858  1.00  0.00     0.190 C 
HETATM   47  C14 UNL     1      -4.238 -18.556  -5.806  1.00  0.00     0.205 C 
BRANCH  44  48
HETATM   48  O7  UNL     1      -1.764 -19.169  -6.741  1.00  0.00    -0.385 OA
ATOM     49  H7  UNL     1      -1.421 -19.246  -5.859  1.00  0.00     0.210 HD
ENDBRANCH  44  48
BRANCH  46  50
HETATM   50  O8  UNL     1      -2.554 -17.376  -4.632  1.00  0.00    -0.385 OA
HETATM   51  C13 UNL     1      -2.727 -16.057  -4.179  1.00  0.00     0.202 C 
ENDBRANCH  46  50
BRANCH  47  52
HETATM   52  O9  UNL     1      -5.217 -17.994  -4.948  1.00  0.00    -0.388 OA
ATOM     53  H9  UNL     1      -4.835 -17.716  -4.124  1.00  0.00     0.210 HD
ENDBRANCH  47  52
ENDBRANCH  40  41
ENDBRANCH   4  40
TORSDOF 18
ENDMDL
MODEL 3
REMARK VINA RESULT: -7.039515642      3.646      8.087
REMARK  18 active torsions:
REMARK  status: ('A' for Active; 'I' for Inactive)
REMARK    1  A    between atoms: O1_2  and  C2_3 
REMARK    2  A    between atoms: C3_4  and  O2_5 
REMARK    3  A    between atoms: O2_5  and  C4_6 
REMARK    4  A    between atoms: C5_8  and  C6_9 
REMARK    5  A    between atoms: C6_9  and  O4_10 
REMARK    6  A    between atoms: C7_12  and  O5_13 
REMARK    7  A    between atoms: O5_13  and  C8_14 
REMARK    8  A    between atoms: C10_17  and  O7_19 
REMARK    9  A    between atoms: C12_21  and  O8_22 
REMARK   10  A    between atoms: C14_24  and  O9_25 
REMARK   11  A    between atoms: C15_27  and  O10_28 
REMARK   12  A    between atoms: C17_30  and  O11_31 
REMARK   13  A    between atoms: O11_31  and  C18_32 
REMARK   14  A    between atoms: C21_36  and  O13_37 
REMARK   15  A    between atoms: C22_39  and  O14_40 
REMARK   16  A    between atoms: C23_42  and  O15_43 
REMARK   17  A    between atoms: C27_48  and  O17_49 
REMARK   18  A    between atoms: C28_51  and  O18_52 
ROOT
HETATM    1  C4  UNL     1      -3.174 -20.309  -6.867  1.00  0.00     0.295 C 
HETATM    2  O3  UNL     1      -2.065 -20.524  -7.734  1.00  0.00    -0.348 OA
HETATM    3  C5  UNL     1      -1.128 -21.187  -6.867  1.00  0.00     0.180 C 
HETATM    4  C7  UNL     1      -1.634 -22.586  -6.804  1.00  0.00     0.187 C 
HETATM    5  C15 UNL     1      -2.965 -22.554  -5.973  1.00  0.00     0.186 C 
HETATM    6  C17 UNL     1      -3.900 -21.627  -6.728  1.00  0.00     0.211 C 
ENDROOT
BRANCH   1   7
HETATM    7  O2  UNL     1      -3.915 -19.318  -7.494  1.00  0.00    -0.326 OA
BRANCH   7   8
HETATM    8  C3  UNL     1      -3.479 -18.098  -6.974  1.00  0.00     0.295 C 
HETATM    9  C2  UNL     1      -4.621 -17.316  -6.359  1.00  0.00     0.207 C 
HETATM   10  C28 UNL     1      -4.171 -16.791  -4.995  1.00  0.00     0.183 C 
HETATM   11  C27 UNL     1      -2.848 -16.068  -5.259  1.00  0.00     0.178 C 
HETATM   12  C25 UNL     1      -1.847 -17.138  -5.690  1.00  0.00     0.152 C 
HETATM   13  O16 UNL     1      -2.509 -18.324  -6.020  1.00  0.00    -0.351 OA
HETATM   14  C26 UNL     1      -0.944 -16.661  -6.786  1.00  0.00     0.042 C 
BRANCH   9  15
HETATM   15  O1  UNL     1      -5.763 -18.074  -6.205  1.00  0.00    -0.383 OA
HETATM   16  C1  UNL     1      -6.813 -17.546  -6.952  1.00  0.00     0.202 C 
ENDBRANCH   9  15
BRANCH  10  17
HETATM   17  O18 UNL     1      -5.067 -15.887  -4.481  1.00  0.00    -0.390 OA
ATOM     18  H18 UNL     1      -4.709 -15.430  -3.729  1.00  0.00     0.210 HD
ENDBRANCH  10  17
BRANCH  11  19
HETATM   19  O17 UNL     1      -3.006 -15.206  -6.337  1.00  0.00    -0.390 OA
ATOM     20  H17 UNL     1      -3.930 -15.206  -6.558  1.00  0.00     0.210 HD
ENDBRANCH  11  19
ENDBRANCH   7   8
ENDBRANCH   1   7
BRANCH   6  21
HETATM   21  O11 UNL     1      -5.085 -21.384  -6.139  1.00  0.00    -0.346 OA
BRANCH  21  22
HETATM   22  C18 UNL     1      -6.127 -22.231  -6.401  1.00  0.00     0.292 C 
HETATM   23  O12 UNL     1      -6.401 -22.902  -5.233  1.00  0.00    -0.351 OA
HETATM   24  C19 UNL     1      -7.265 -22.379  -4.345  1.00  0.00     0.152 C 
HETATM   25  C20 UNL     1      -6.544 -21.287  -3.549  1.00  0.00     0.042 C 
HETATM   26  C21 UNL     1      -8.491 -21.776  -4.933  1.00  0.00     0.178 C 
HETATM   27  C22 UNL     1      -8.073 -20.813  -6.026  1.00  0.00     0.183 C 
HETATM   28  C23 UNL     1      -7.338 -21.698  -7.036  1.00  0.00     0.207 C 
BRANCH  26  29
HETATM   29  O13 UNL     1      -9.301 -21.150  -4.005  1.00  0.00    -0.390 OA
ATOM     30  H13 UNL     1      -9.265 -20.201  -4.046  1.00  0.00     0.210 HD
ENDBRANCH  26  29
BRANCH  27  31
HETATM   31  O14 UNL     1      -9.243 -20.409  -6.667  1.00  0.00    -0.390 OA
ATOM     32  H14 UNL     1      -8.979 -19.823  -7.367  1.00  0.00     0.210 HD
ENDBRANCH  27  31
BRANCH  28  33
HETATM   33  O15 UNL     1      -8.218 -22.764  -7.293  1.00  0.00    -0.383 OA
HETATM   34  C24 UNL     1      -8.173 -23.174  -8.617  1.00  0.00     0.202 C 
ENDBRANCH  28  33
ENDBRANCH  21  22
ENDBRANCH   6  21
BRANCH   3  35
HETATM   35  C6  UNL     1       0.192 -21.004  -7.500  1.00  0.00     0.198 C 
BRANCH  35  36
HETATM   36  O4  UNL     1       0.398 -21.679  -8.678  1.00  0.00    -0.398 OA
ATOM     37  H4  UNL     1       1.087 -22.332  -8.671  1.00  0.00     0.209 HD
ENDBRANCH  35  36
ENDBRANCH   3  35
BRANCH   5  38
HETATM   38  O10 UNL     1      -2.740 -22.226  -4.673  1.00  0.00    -0.385 OA
HETATM   39  C16 UNL     1      -3.347 -23.066  -3.745  1.00  0.00     0.202 C 
ENDBRANCH   5  38
BRANCH   4  40
HETATM   40  O5  UNL     1      -0.753 -23.436  -6.252  1.00  0.00    -0.348 OA
BRANCH  40  41
HETATM   41  C8  UNL     1      -0.662 -24.679  -6.933  1.00  0.00     0.291 C 
HETATM   42  O6  UNL     1       0.540 -24.530  -7.630  1.00  0.00    -0.355 OA
HETATM   43  C9  UNL     1       0.789 -25.453  -8.597  1.00  0.00     0.211 C 
HETATM   44  C10 UNL     1      -0.301 -25.262  -9.662  1.00  0.00     0.104 C 
HETATM   45  C11 UNL     1       0.002 -25.994 -10.923  1.00  0.00     0.051 C 
HETATM   46  C12 UNL     1      -1.551 -25.807  -9.014  1.00  0.00     0.190 C 
HETATM   47  C14 UNL     1      -1.826 -24.952  -7.790  1.00  0.00     0.205 C 
BRANCH  44  48
HETATM   48  O7  UNL     1      -0.497 -23.915  -9.918  1.00  0.00    -0.385 OA
ATOM     49  H7  UNL     1       0.257 -23.549 -10.365  1.00  0.00     0.210 HD
ENDBRANCH  44  48
BRANCH  46  50
HETATM   50  O8  UNL     1      -2.650 -25.824  -9.831  1.00  0.00    -0.385 OA
HETATM   51  C13 UNL     1      -3.026 -27.162 -10.042  1.00  0.00     0.202 C 
ENDBRANCH  46  50
BRANCH  47  52
HETATM   52  O9  UNL     1      -2.822 -25.678  -7.088  1.00  0.00    -0.388 OA
ATOM     53  H9  UNL     1      -3.687 -25.505  -7.440  1.00  0.00     0.210 HD
ENDBRANCH  47  52
ENDBRANCH  40  41
ENDBRANCH   4  40
TORSDOF 18
ENDMDL
MODEL 4
REMARK VINA RESULT: -6.987311579      3.635      7.895
REMARK  18 active torsions:
REMARK  status: ('A' for Active; 'I' for Inactive)
REMARK    1  A    between atoms: O1_2  and  C2_3 
REMARK    2  A    between atoms: C3_4  and  O2_5 
REMARK    3  A    between atoms: O2_5  and  C4_6 
REMARK    4  A    between atoms: C5_8  and  C6_9 
REMARK    5  A    between atoms: C6_9  and  O4_10 
REMARK    6  A    between atoms: C7_12  and  O5_13 
REMARK    7  A    between atoms: O5_13  and  C8_14 
REMARK    8  A    between atoms: C10_17  and  O7_19 
REMARK    9  A    between atoms: C12_21  and  O8_22 
REMARK   10  A    between atoms: C14_24  and  O9_25 
REMARK   11  A    between atoms: C15_27  and  O10_28 
REMARK   12  A    between atoms: C17_30  and  O11_31 
REMARK   13  A    between atoms: O11_31  and  C18_32 
REMARK   14  A    between atoms: C21_36  and  O13_37 
REMARK   15  A    between atoms: C22_39  and  O14_40 
REMARK   16  A    between atoms: C23_42  and  O15_43 
REMARK   17  A    between atoms: C27_48  and  O17_49 
REMARK   18  A    between atoms: C28_51  and  O18_52 
ROOT
HETATM    1  C4  UNL     1      -2.176 -19.940  -7.172  1.00  0.00     0.295 C 
HETATM    2  O3  UNL     1      -0.988 -20.015  -7.953  1.00  0.00    -0.348 OA
HETATM    3  C5  UNL     1      -0.187 -20.940  -7.197  1.00  0.00     0.180 C 
HETATM    4  C7  UNL     1      -0.762 -22.269  -7.541  1.00  0.00     0.187 C 
HETATM    5  C15 UNL     1      -2.176 -22.345  -6.864  1.00  0.00     0.186 C 
HETATM    6  C17 UNL     1      -2.975 -21.194  -7.445  1.00  0.00     0.211 C 
ENDROOT
BRANCH   1   7
HETATM    7  O2  UNL     1      -2.793 -18.772  -7.595  1.00  0.00    -0.326 OA
BRANCH   7   8
HETATM    8  C3  UNL     1      -2.663 -17.848  -6.558  1.00  0.00     0.295 C 
HETATM    9  C2  UNL     1      -3.209 -16.491  -6.950  1.00  0.00     0.207 C 
HETATM   10  C28 UNL     1      -4.089 -15.974  -5.810  1.00  0.00     0.183 C 
HETATM   11  C27 UNL     1      -3.221 -16.078  -4.554  1.00  0.00     0.178 C 
HETATM   12  C25 UNL     1      -2.985 -17.567  -4.311  1.00  0.00     0.152 C 
HETATM   13  O16 UNL     1      -3.331 -18.309  -5.443  1.00  0.00    -0.351 OA
HETATM   14  C26 UNL     1      -1.591 -17.852  -3.841  1.00  0.00     0.042 C 
BRANCH   9  15
HETATM   15  O1  UNL     1      -3.945 -16.531  -8.115  1.00  0.00    -0.383 OA
HETATM   16  C1  UNL     1      -5.295 -16.738  -7.842  1.00  0.00     0.202 C 
ENDBRANCH   9  15
BRANCH  10  17
HETATM   17  O18 UNL     1      -4.433 -14.658  -5.994  1.00  0.00    -0.390 OA
ATOM     18  H18 UNL     1      -3.692 -14.081  -5.855  1.00  0.00     0.210 HD
ENDBRANCH  10  17
BRANCH  11  19
HETATM   19  O17 UNL     1      -1.979 -15.510  -4.808  1.00  0.00    -0.390 OA
ATOM     20  H17 UNL     1      -2.137 -14.621  -5.104  1.00  0.00     0.210 HD
ENDBRANCH  11  19
ENDBRANCH   7   8
ENDBRANCH   1   7
BRANCH   6  21
HETATM   21  O11 UNL     1      -4.206 -21.017  -6.932  1.00  0.00    -0.346 OA
BRANCH  21  22
HETATM   22  C18 UNL     1      -5.263 -21.618  -7.558  1.00  0.00     0.292 C 
HETATM   23  O12 UNL     1      -5.921 -22.363  -6.609  1.00  0.00    -0.351 OA
HETATM   24  C19 UNL     1      -6.892 -21.800  -5.867  1.00  0.00     0.152 C 
HETATM   25  C20 UNL     1      -6.239 -20.965  -4.762  1.00  0.00     0.042 C 
HETATM   26  C21 UNL     1      -7.825 -20.914  -6.614  1.00  0.00     0.178 C 
HETATM   27  C22 UNL     1      -7.005 -19.919  -7.411  1.00  0.00     0.183 C 
HETATM   28  C23 UNL     1      -6.181 -20.796  -8.358  1.00  0.00     0.207 C 
BRANCH  26  29
HETATM   29  O13 UNL     1      -8.739 -20.265  -5.805  1.00  0.00    -0.390 OA
ATOM     30  H13 UNL     1      -9.525 -20.771  -5.636  1.00  0.00     0.210 HD
ENDBRANCH  26  29
BRANCH  27  31
HETATM   31  O14 UNL     1      -7.901 -19.231  -8.227  1.00  0.00    -0.390 OA
ATOM     32  H14 UNL     1      -7.472 -18.421  -8.476  1.00  0.00     0.210 HD
ENDBRANCH  27  31
BRANCH  28  33
HETATM   33  O15 UNL     1      -7.118 -21.641  -8.978  1.00  0.00    -0.383 OA
HETATM   34  C24 UNL     1      -6.665 -22.122 -10.197  1.00  0.00     0.202 C 
ENDBRANCH  28  33
ENDBRANCH  21  22
ENDBRANCH   6  21
BRANCH   3  35
HETATM   35  C6  UNL     1       1.203 -20.705  -7.630  1.00  0.00     0.198 C 
BRANCH  35  36
HETATM   36  O4  UNL     1       1.550 -21.215  -8.857  1.00  0.00    -0.398 OA
ATOM     37  H4  UNL     1       1.206 -22.074  -9.066  1.00  0.00     0.209 HD
ENDBRANCH  35  36
ENDBRANCH   3  35
BRANCH   5  38
HETATM   38  O10 UNL     1      -2.085 -22.368  -5.508  1.00  0.00    -0.385 OA
HETATM   39  C16 UNL     1      -3.110 -23.054  -4.864  1.00  0.00     0.202 C 
ENDBRANCH   5  38
BRANCH   4  40
HETATM   40  O5  UNL     1       0.009 -23.293  -7.142  1.00  0.00    -0.348 OA
BRANCH  40  41
HETATM   41  C8  UNL     1       0.249 -24.253  -8.160  1.00  0.00     0.291 C 
HETATM   42  O6  UNL     1      -0.012 -23.510  -9.314  1.00  0.00    -0.355 OA
HETATM   43  C9  UNL     1      -0.129 -24.219 -10.468  1.00  0.00     0.211 C 
HETATM   44  C10 UNL     1      -1.365 -25.115 -10.297  1.00  0.00     0.104 C 
HETATM   45  C11 UNL     1      -1.800 -25.733 -11.580  1.00  0.00     0.051 C 
HETATM   46  C12 UNL     1      -0.923 -26.172  -9.316  1.00  0.00     0.190 C 
HETATM   47  C14 UNL     1      -0.579 -25.460  -8.019  1.00  0.00     0.205 C 
BRANCH  44  48
HETATM   48  O7  UNL     1      -2.405 -24.400  -9.726  1.00  0.00    -0.385 OA
ATOM     49  H7  UNL     1      -3.000 -24.986  -9.273  1.00  0.00     0.210 HD
ENDBRANCH  44  48
BRANCH  46  50
HETATM   50  O8  UNL     1      -1.853 -27.151  -9.082  1.00  0.00    -0.385 OA
HETATM   51  C13 UNL     1      -1.325 -28.379  -9.518  1.00  0.00     0.202 C 
ENDBRANCH  46  50
BRANCH  47  52
HETATM   52  O9  UNL     1       0.084 -26.453  -7.255  1.00  0.00    -0.388 OA
ATOM     53  H9  UNL     1      -0.318 -26.556  -6.400  1.00  0.00     0.210 HD
ENDBRANCH  47  52
ENDBRANCH  40  41
ENDBRANCH   4  40
TORSDOF 18
ENDMDL
MODEL 5
REMARK VINA RESULT: -6.971729124      4.007      8.355
REMARK  18 active torsions:
REMARK  status: ('A' for Active; 'I' for Inactive)
REMARK    1  A    between atoms: O1_2  and  C2_3 
REMARK    2  A    between atoms: C3_4  and  O2_5 
REMARK    3  A    between atoms: O2_5  and  C4_6 
REMARK    4  A    between atoms: C5_8  and  C6_9 
REMARK    5  A    between atoms: C6_9  and  O4_10 
REMARK    6  A    between atoms: C7_12  and  O5_13 
REMARK    7  A    between atoms: O5_13  and  C8_14 
REMARK    8  A    between atoms: C10_17  and  O7_19 
REMARK    9  A    between atoms: C12_21  and  O8_22 
REMARK   10  A    between atoms: C14_24  and  O9_25 
REMARK   11  A    between atoms: C15_27  and  O10_28 
REMARK   12  A    between atoms: C17_30  and  O11_31 
REMARK   13  A    between atoms: O11_31  and  C18_32 
REMARK   14  A    between atoms: C21_36  and  O13_37 
REMARK   15  A    between atoms: C22_39  and  O14_40 
REMARK   16  A    between atoms: C23_42  and  O15_43 
REMARK   17  A    between atoms: C27_48  and  O17_49 
REMARK   18  A    between atoms: C28_51  and  O18_52 
ROOT
HETATM    1  C4  UNL     1      -2.775 -19.586  -7.405  1.00  0.00     0.295 C 
HETATM    2  O3  UNL     1      -1.618 -19.868  -8.186  1.00  0.00    -0.348 OA
HETATM    3  C5  UNL     1      -1.045 -20.985  -7.484  1.00  0.00     0.180 C 
HETATM    4  C7  UNL     1      -1.884 -22.139  -7.908  1.00  0.00     0.187 C 
HETATM    5  C15 UNL     1      -3.292 -21.950  -7.240  1.00  0.00     0.186 C 
HETATM    6  C17 UNL     1      -3.818 -20.623  -7.754  1.00  0.00     0.211 C 
ENDROOT
BRANCH   1   7
HETATM    7  O2  UNL     1      -3.123 -18.291  -7.760  1.00  0.00    -0.326 OA
BRANCH   7   8
HETATM    8  C3  UNL     1      -2.881 -17.488  -6.645  1.00  0.00     0.295 C 
HETATM    9  C2  UNL     1      -3.404 -16.082  -6.849  1.00  0.00     0.207 C 
HETATM   10  C28 UNL     1      -4.177 -15.665  -5.595  1.00  0.00     0.183 C 
HETATM   11  C27 UNL     1      -3.222 -15.929  -4.429  1.00  0.00     0.178 C 
HETATM   12  C25 UNL     1      -3.025 -17.441  -4.363  1.00  0.00     0.152 C 
HETATM   13  O16 UNL     1      -3.481 -18.047  -5.536  1.00  0.00    -0.351 OA
HETATM   14  C26 UNL     1      -1.611 -17.815  -4.036  1.00  0.00     0.042 C 
BRANCH   9  15
HETATM   15  O1  UNL     1      -4.226 -15.974  -7.951  1.00  0.00    -0.383 OA
HETATM   16  C1  UNL     1      -5.551 -16.234  -7.608  1.00  0.00     0.202 C 
ENDBRANCH   9  15
BRANCH  10  17
HETATM   17  O18 UNL     1      -4.484 -14.328  -5.613  1.00  0.00    -0.390 OA
ATOM     18  H18 UNL     1      -5.385 -14.180  -5.876  1.00  0.00     0.210 HD
ENDBRANCH  10  17
BRANCH  11  19
HETATM   19  O17 UNL     1      -1.982 -15.373  -4.718  1.00  0.00    -0.390 OA
ATOM     20  H17 UNL     1      -1.834 -15.496  -5.649  1.00  0.00     0.210 HD
ENDBRANCH  11  19
ENDBRANCH   7   8
ENDBRANCH   1   7
BRANCH   6  21
HETATM   21  O11 UNL     1      -4.991 -20.217  -7.234  1.00  0.00    -0.346 OA
BRANCH  21  22
HETATM   22  C18 UNL     1      -6.142 -20.790  -7.701  1.00  0.00     0.292 C 
HETATM   23  O12 UNL     1      -6.636 -21.579  -6.690  1.00  0.00    -0.351 OA
HETATM   24  C19 UNL     1      -7.466 -21.052  -5.771  1.00  0.00     0.152 C 
HETATM   25  C20 UNL     1      -6.632 -20.267  -4.754  1.00  0.00     0.042 C 
HETATM   26  C21 UNL     1      -8.505 -20.134  -6.310  1.00  0.00     0.178 C 
HETATM   27  C22 UNL     1      -7.824 -19.103  -7.188  1.00  0.00     0.183 C 
HETATM   28  C23 UNL     1      -7.175 -19.934  -8.298  1.00  0.00     0.207 C 
BRANCH  26  29
HETATM   29  O13 UNL     1      -9.267 -19.524  -5.331  1.00  0.00    -0.390 OA
ATOM     30  H13 UNL     1      -9.710 -18.738  -5.629  1.00  0.00     0.210 HD
ENDBRANCH  26  29
BRANCH  27  31
HETATM   31  O14 UNL     1      -8.840 -18.379  -7.810  1.00  0.00    -0.390 OA
ATOM     32  H14 UNL     1      -8.926 -18.734  -8.687  1.00  0.00     0.210 HD
ENDBRANCH  27  31
BRANCH  28  33
HETATM   33  O15 UNL     1      -8.207 -20.752  -8.790  1.00  0.00    -0.383 OA
HETATM   34  C24 UNL     1      -7.867 -21.364  -9.987  1.00  0.00     0.202 C 
ENDBRANCH  28  33
ENDBRANCH  21  22
ENDBRANCH   6  21
BRANCH   3  35
HETATM   35  C6  UNL     1       0.370 -21.027  -7.899  1.00  0.00     0.198 C 
BRANCH  35  36
HETATM   36  O4  UNL     1       0.653 -21.780  -9.012  1.00  0.00    -0.398 OA
ATOM     37  H4  UNL     1       0.125 -21.605  -9.782  1.00  0.00     0.209 HD
ENDBRANCH  35  36
ENDBRANCH   3  35
BRANCH   5  38
HETATM   38  O10 UNL     1      -3.228 -22.069  -5.887  1.00  0.00    -0.385 OA
HETATM   39  C16 UNL     1      -4.049 -23.053  -5.347  1.00  0.00     0.202 C 
ENDBRANCH   5  38
BRANCH   4  40
HETATM   40  O5  UNL     1      -1.355 -23.325  -7.567  1.00  0.00    -0.348 OA
BRANCH  40  41
HETATM   41  C8  UNL     1      -1.807 -24.401  -8.376  1.00  0.00     0.291 C 
HETATM   42  O6  UNL     1      -2.115 -25.366  -7.414  1.00  0.00    -0.355 OA
HETATM   43  C9  UNL     1      -2.331 -26.625  -7.877  1.00  0.00     0.211 C 
HETATM   44  C10 UNL     1      -0.999 -27.093  -8.482  1.00  0.00     0.104 C 
HETATM   45  C11 UNL     1      -0.986 -28.555  -8.765  1.00  0.00     0.051 C 
HETATM   46  C12 UNL     1      -0.873 -26.299  -9.759  1.00  0.00     0.190 C 
HETATM   47  C14 UNL     1      -0.812 -24.834  -9.367  1.00  0.00     0.205 C 
BRANCH  44  48
HETATM   48  O7  UNL     1       0.056 -26.750  -7.652  1.00  0.00    -0.385 OA
ATOM     49  H7  UNL     1      -0.112 -25.917  -7.229  1.00  0.00     0.210 HD
ENDBRANCH  44  48
BRANCH  46  50
HETATM   50  O8  UNL     1       0.216 -26.627 -10.523  1.00  0.00    -0.385 OA
HETATM   51  C13 UNL     1      -0.234 -26.996 -11.803  1.00  0.00     0.202 C 
ENDBRANCH  46  50
BRANCH  47  52
HETATM   52  O9  UNL     1      -0.979 -24.148 -10.597  1.00  0.00    -0.388 OA
ATOM     53  H9  UNL     1      -0.286 -24.365 -11.210  1.00  0.00     0.210 HD
ENDBRANCH  47  52
ENDBRANCH  40  41
ENDBRANCH   4  40
TORSDOF 18
ENDMDL
