MODEL 1
REMARK VINA RESULT: -9.435069963      0.000      0.000
REMARK  16 active torsions:
REMARK  status: ('A' for Active; 'I' for Inactive)
REMARK    1  A    between atoms: O1_2  and  N1_3 
REMARK    2  A    between atoms: C2_5  and  C3_6 
REMARK    3  A    between atoms: C2_5  and  C22_53 
REMARK    4  A    between atoms: N4_11  and  C4_12 
REMARK    5  A    between atoms: C4_12  and  C5_13 
REMARK    6  A    between atoms: C5_13  and  O2_14 
REMARK    7  A    between atoms: C5_13  and  N5_16 
REMARK    8  A    between atoms: N5_16  and  C6_18 
REMARK    9  A    between atoms: N7_24  and  C9_25 
REMARK   10  A    between atoms: C11_27  and  N8_28 
REMARK   11  A    between atoms: C14_31  and  N9_32 
REMARK       I    between atoms: N11_39  and  C16_40 
REMARK   12  A    between atoms: C16_40  and  C17_42 
REMARK   13  A    between atoms: C17_42  and  C18_43 
REMARK   14  A    between atoms: C17_42  and  C20_46 
REMARK   15  A    between atoms: C20_46  and  O7_48 
REMARK   16  A    between atoms: C24_56  and  N13_57 
ROOT
HETATM    1  C6  UNL     1      -2.232 -21.082  -6.350  1.00  0.00     0.131 A 
HETATM    2  C7  UNL     1      -2.805 -20.885  -5.130  1.00  0.00     0.141 A 
HETATM    3  N6  UNL     1      -3.586 -21.979  -4.896  1.00  0.00    -0.315 N 
ATOM      4  H6  UNL     1      -4.154 -22.141  -4.063  1.00  0.00     0.170 HD
HETATM    5  C8  UNL     1      -3.481 -22.801  -5.941  1.00  0.00     0.330 A 
HETATM    6  O3  UNL     1      -4.092 -23.898  -6.006  1.00  0.00    -0.246 OA
HETATM    7  N7  UNL     1      -2.657 -22.279  -6.852  1.00  0.00    -0.254 N 
ENDROOT
BRANCH   1   8
HETATM    8  N5  UNL     1      -1.390 -20.228  -7.065  1.00  0.00    -0.324 N 
ATOM      9  H5  UNL     1      -0.422 -20.542  -7.146  1.00  0.00     0.169 HD
BRANCH   8  10
HETATM   10  C5  UNL     1      -1.668 -19.020  -7.682  1.00  0.00     0.139 C 
BRANCH  10  11
HETATM   11  C4  UNL     1      -1.316 -17.645  -7.317  1.00  0.00     0.255 C 
BRANCH  11  12
HETATM   12  N4  UNL     1      -2.469 -16.808  -6.990  1.00  0.00    -0.210 N 
HETATM   13  N3  UNL     1      -2.672 -16.081  -5.933  1.00  0.00    -0.224 N 
HETATM   14  N2  UNL     1      -3.834 -15.496  -6.018  1.00  0.00    -0.267 N 
ATOM     15  H3  UNL     1      -2.021 -15.982  -5.154  1.00  0.00     0.210 HD
HETATM   16  C3  UNL     1      -4.421 -15.827  -7.135  1.00  0.00     0.168 A 
ATOM     17  H2  UNL     1      -4.226 -14.871  -5.314  1.00  0.00     0.190 HD
HETATM   18  N12 UNL     1      -3.545 -16.672  -7.764  1.00  0.00    -0.264 N 
ATOM     19  H12 UNL     1      -3.692 -17.121  -8.668  1.00  0.00     0.190 HD
BRANCH  16  20
HETATM   20  C2  UNL     1      -5.738 -15.452  -7.680  1.00  0.00     0.128 C 
HETATM   21  N1  UNL     1      -5.857 -14.260  -8.064  1.00  0.00    -0.261 N 
ATOM     22  H1  UNL     1      -4.987 -13.747  -7.926  1.00  0.00     0.194 HD
BRANCH  21  23
HETATM   23  O1  UNL     1      -6.775 -13.488  -8.590  1.00  0.00    -0.285 OA
HETATM   24  C1  UNL     1      -6.971 -13.210  -9.980  1.00  0.00     0.237 C 
ENDBRANCH  21  23
BRANCH  20  25
HETATM   25  C22 UNL     1      -6.817 -16.475  -7.826  1.00  0.00     0.073 A 
HETATM   26  C23 UNL     1      -6.758 -17.675  -7.174  1.00  0.00     0.085 A 
HETATM   27  S1  UNL     1      -8.167 -18.478  -7.757  1.00  0.00    -0.064 SA
HETATM   28  C24 UNL     1      -8.731 -17.251  -8.779  1.00  0.00     0.142 A 
HETATM   29  N14 UNL     1      -7.832 -16.285  -8.637  1.00  0.00    -0.335 N 
ATOM     30  H14 UNL     1      -7.928 -15.409  -9.150  1.00  0.00     0.168 HD
BRANCH  28  31
HETATM   31  N13 UNL     1      -9.801 -17.224  -9.552  1.00  0.00    -0.380 N 
ATOM     32 2H13 UNL     1      -9.815 -17.162 -10.569  1.00  0.00     0.158 HD
ATOM     33 1H13 UNL     1     -10.788 -17.262  -9.298  1.00  0.00     0.158 HD
ENDBRANCH  28  31
ENDBRANCH  20  25
ENDBRANCH  16  20
ENDBRANCH  11  12
ENDBRANCH  10  11
BRANCH  10  34
HETATM   34  O2  UNL     1      -2.378 -19.094  -8.785  1.00  0.00    -0.348 OA
ATOM     35  H2  UNL     1      -2.486 -19.984  -9.099  1.00  0.00     0.219 HD
ENDBRANCH  10  34
ENDBRANCH   8  10
ENDBRANCH   1   8
BRANCH   7  36
HETATM   36  C9  UNL     1      -2.312 -22.854  -8.121  1.00  0.00     0.268 C 
HETATM   37  C10 UNL     1      -2.504 -24.347  -8.116  1.00  0.00     0.106 C 
HETATM   38  C11 UNL     1      -1.139 -24.893  -8.321  1.00  0.00     0.231 C 
HETATM   39  N11 UNL     1      -0.281 -23.719  -8.419  1.00  0.00    -0.198 N 
HETATM   40  C16 UNL     1       1.126 -23.769  -8.410  1.00  0.00     0.259 C 
HETATM   41  O8  UNL     1      -1.007 -22.608  -8.504  1.00  0.00    -0.246 OA
HETATM   42  O5  UNL     1       1.641 -24.945  -8.285  1.00  0.00    -0.270 OA
BRANCH  38  43
HETATM   43  N8  UNL     1      -1.041 -25.786  -9.427  1.00  0.00    -0.285 N 
HETATM   44  C12 UNL     1      -1.111 -25.305 -10.676  1.00  0.00     0.102 A 
HETATM   45  C13 UNL     1      -1.026 -26.075 -11.812  1.00  0.00     0.065 A 
HETATM   46  C14 UNL     1      -0.855 -27.436 -11.612  1.00  0.00     0.103 A 
HETATM   47  N10 UNL     1      -0.787 -27.897 -10.349  1.00  0.00    -0.295 N 
HETATM   48  C15 UNL     1      -0.876 -27.106  -9.269  1.00  0.00     0.329 A 
ATOM     49  H10 UNL     1      -0.662 -28.899 -10.206  1.00  0.00     0.172 HD
HETATM   50  O4  UNL     1      -0.800 -27.643  -8.138  1.00  0.00    -0.246 OA
BRANCH  46  51
HETATM   51  N9  UNL     1      -0.764 -28.227 -12.636  1.00  0.00    -0.385 N 
ATOM     52  H92 UNL     1      -0.129 -29.026 -12.646  1.00  0.00     0.157 HD
ATOM     53  H91 UNL     1      -1.339 -28.052 -13.460  1.00  0.00     0.157 HD
ENDBRANCH  46  51
ENDBRANCH  38  43
BRANCH  40  54
HETATM   54  C17 UNL     1       2.083 -22.671  -8.528  1.00  0.00     0.177 C 
BRANCH  54  55
HETATM   55  C18 UNL     1       1.930 -21.588  -7.550  1.00  0.00     0.138 C 
HETATM   56  C19 UNL     1       2.205 -21.756  -6.083  1.00  0.00     0.092 C 
HETATM   57  O6  UNL     1       1.563 -20.467  -7.867  1.00  0.00    -0.297 OA
ENDBRANCH  54  55
BRANCH  54  58
HETATM   58  C20 UNL     1       2.295 -22.207  -9.952  1.00  0.00     0.134 C 
HETATM   59  C21 UNL     1       3.707 -22.013 -10.360  1.00  0.00     0.040 C 
BRANCH  58  60
HETATM   60  O7  UNL     1       1.747 -23.143 -10.861  1.00  0.00    -0.395 OA
ATOM     61  H7  UNL     1       1.047 -22.744 -11.365  1.00  0.00     0.210 HD
ENDBRANCH  58  60
ENDBRANCH  54  58
ENDBRANCH  40  54
ENDBRANCH   7  36
TORSDOF 16
ENDMDL
MODEL 2
REMARK VINA RESULT: -9.391756688      1.208      1.493
REMARK  16 active torsions:
REMARK  status: ('A' for Active; 'I' for Inactive)
REMARK    1  A    between atoms: O1_2  and  N1_3 
REMARK    2  A    between atoms: C2_5  and  C3_6 
REMARK    3  A    between atoms: C2_5  and  C22_53 
REMARK    4  A    between atoms: N4_11  and  C4_12 
REMARK    5  A    between atoms: C4_12  and  C5_13 
REMARK    6  A    between atoms: C5_13  and  O2_14 
REMARK    7  A    between atoms: C5_13  and  N5_16 
REMARK    8  A    between atoms: N5_16  and  C6_18 
REMARK    9  A    between atoms: N7_24  and  C9_25 
REMARK   10  A    between atoms: C11_27  and  N8_28 
REMARK   11  A    between atoms: C14_31  and  N9_32 
REMARK       I    between atoms: N11_39  and  C16_40 
REMARK   12  A    between atoms: C16_40  and  C17_42 
REMARK   13  A    between atoms: C17_42  and  C18_43 
REMARK   14  A    between atoms: C17_42  and  C20_46 
REMARK   15  A    between atoms: C20_46  and  O7_48 
REMARK   16  A    between atoms: C24_56  and  N13_57 
ROOT
HETATM    1  C6  UNL     1      -2.303 -21.161  -6.317  1.00  0.00     0.131 A 
HETATM    2  C7  UNL     1      -2.876 -20.987  -5.093  1.00  0.00     0.141 A 
HETATM    3  N6  UNL     1      -3.633 -22.099  -4.866  1.00  0.00    -0.315 N 
ATOM      4  H6  UNL     1      -4.194 -22.279  -4.033  1.00  0.00     0.170 HD
HETATM    5  C8  UNL     1      -3.514 -22.910  -5.918  1.00  0.00     0.330 A 
HETATM    6  O3  UNL     1      -4.103 -24.018  -5.991  1.00  0.00    -0.246 OA
HETATM    7  N7  UNL     1      -2.704 -22.363  -6.827  1.00  0.00    -0.254 N 
ENDROOT
BRANCH   1   8
HETATM    8  N5  UNL     1      -1.481 -20.284  -7.027  1.00  0.00    -0.324 N 
ATOM      9  H5  UNL     1      -0.498 -20.555  -7.074  1.00  0.00     0.169 HD
BRANCH   8  10
HETATM   10  C5  UNL     1      -1.797 -19.103  -7.677  1.00  0.00     0.139 C 
BRANCH  10  11
HETATM   11  C4  UNL     1      -1.646 -17.704  -7.267  1.00  0.00     0.255 C 
BRANCH  11  12
HETATM   12  N4  UNL     1      -2.910 -16.976  -7.181  1.00  0.00    -0.210 N 
HETATM   13  N3  UNL     1      -3.127 -15.770  -6.748  1.00  0.00    -0.224 N 
HETATM   14  N2  UNL     1      -4.398 -15.497  -6.824  1.00  0.00    -0.267 N 
ATOM     15  H3  UNL     1      -2.409 -15.133  -6.400  1.00  0.00     0.210 HD
HETATM   16  C3  UNL     1      -5.047 -16.519  -7.311  1.00  0.00     0.168 A 
ATOM     17  H2  UNL     1      -4.824 -14.613  -6.545  1.00  0.00     0.190 HD
HETATM   18  N12 UNL     1      -4.093 -17.473  -7.541  1.00  0.00    -0.264 N 
ATOM     19  H12 UNL     1      -4.259 -18.405  -7.923  1.00  0.00     0.190 HD
BRANCH  16  20
HETATM   20  C2  UNL     1      -6.486 -16.713  -7.569  1.00  0.00     0.128 C 
HETATM   21  N1  UNL     1      -7.031 -15.863  -8.319  1.00  0.00    -0.261 N 
ATOM     22  H1  UNL     1      -6.354 -15.166  -8.628  1.00  0.00     0.194 HD
BRANCH  21  23
HETATM   23  O1  UNL     1      -8.216 -15.615  -8.818  1.00  0.00    -0.285 OA
HETATM   24  C1  UNL     1      -8.747 -16.103 -10.054  1.00  0.00     0.237 C 
ENDBRANCH  21  23
BRANCH  20  25
HETATM   25  C22 UNL     1      -7.200 -17.905  -7.020  1.00  0.00     0.073 A 
HETATM   26  C23 UNL     1      -7.861 -18.781  -7.835  1.00  0.00     0.085 A 
HETATM   27  S1  UNL     1      -8.558 -19.878  -6.704  1.00  0.00    -0.064 SA
HETATM   28  C24 UNL     1      -7.972 -19.160  -5.287  1.00  0.00     0.142 A 
HETATM   29  N14 UNL     1      -7.272 -18.121  -5.727  1.00  0.00    -0.335 N 
ATOM     30  H14 UNL     1      -6.799 -17.500  -5.070  1.00  0.00     0.168 HD
BRANCH  28  31
HETATM   31  N13 UNL     1      -8.148 -19.514  -4.027  1.00  0.00    -0.380 N 
ATOM     32 2H13 UNL     1      -8.974 -19.338  -3.457  1.00  0.00     0.158 HD
ATOM     33 1H13 UNL     1      -7.522 -20.017  -3.399  1.00  0.00     0.158 HD
ENDBRANCH  28  31
ENDBRANCH  20  25
ENDBRANCH  16  20
ENDBRANCH  11  12
ENDBRANCH  10  11
BRANCH  10  34
HETATM   34  O2  UNL     1      -2.334 -19.235  -8.868  1.00  0.00    -0.348 OA
ATOM     35  H2  UNL     1      -2.688 -20.103  -9.023  1.00  0.00     0.219 HD
ENDBRANCH  10  34
ENDBRANCH   8  10
ENDBRANCH   1   8
BRANCH   7  36
HETATM   36  C9  UNL     1      -2.351 -22.920  -8.102  1.00  0.00     0.268 C 
HETATM   37  C10 UNL     1      -2.525 -24.415  -8.113  1.00  0.00     0.106 C 
HETATM   38  C11 UNL     1      -1.154 -24.943  -8.322  1.00  0.00     0.231 C 
HETATM   39  N11 UNL     1      -0.309 -23.757  -8.407  1.00  0.00    -0.198 N 
HETATM   40  C16 UNL     1       1.098 -23.791  -8.397  1.00  0.00     0.259 C 
HETATM   41  O8  UNL     1      -1.048 -22.654  -8.481  1.00  0.00    -0.246 OA
HETATM   42  O5  UNL     1       1.627 -24.962  -8.284  1.00  0.00    -0.270 OA
BRANCH  38  43
HETATM   43  N8  UNL     1      -1.044 -25.823  -9.438  1.00  0.00    -0.285 N 
HETATM   44  C12 UNL     1      -1.131 -25.330 -10.682  1.00  0.00     0.102 A 
HETATM   45  C13 UNL     1      -1.037 -26.087 -11.826  1.00  0.00     0.065 A 
HETATM   46  C14 UNL     1      -0.837 -27.447 -11.641  1.00  0.00     0.103 A 
HETATM   47  N10 UNL     1      -0.753 -27.918 -10.383  1.00  0.00    -0.295 N 
HETATM   48  C15 UNL     1      -0.852 -27.140  -9.294  1.00  0.00     0.329 A 
ATOM     49  H10 UNL     1      -0.607 -28.919 -10.251  1.00  0.00     0.172 HD
HETATM   50  O4  UNL     1      -0.758 -27.687  -8.169  1.00  0.00    -0.246 OA
BRANCH  46  51
HETATM   51  N9  UNL     1      -0.736 -28.225 -12.673  1.00  0.00    -0.385 N 
ATOM     52  H92 UNL     1      -1.439 -28.235 -13.413  1.00  0.00     0.157 HD
ATOM     53  H91 UNL     1       0.067 -28.849 -12.757  1.00  0.00     0.157 HD
ENDBRANCH  46  51
ENDBRANCH  38  43
BRANCH  40  54
HETATM   54  C17 UNL     1       2.042 -22.681  -8.502  1.00  0.00     0.177 C 
BRANCH  54  55
HETATM   55  C18 UNL     1       1.865 -21.602  -7.522  1.00  0.00     0.138 C 
HETATM   56  C19 UNL     1       2.175 -21.757  -6.061  1.00  0.00     0.092 C 
HETATM   57  O6  UNL     1       1.448 -20.498  -7.834  1.00  0.00    -0.297 OA
ENDBRANCH  54  55
BRANCH  54  58
HETATM   58  C20 UNL     1       2.262 -22.210  -9.922  1.00  0.00     0.134 C 
HETATM   59  C21 UNL     1       3.677 -22.001 -10.317  1.00  0.00     0.040 C 
BRANCH  58  60
HETATM   60  O7  UNL     1       1.731 -23.148 -10.840  1.00  0.00    -0.395 OA
ATOM     61  H7  UNL     1       1.812 -22.822 -11.729  1.00  0.00     0.210 HD
ENDBRANCH  58  60
ENDBRANCH  54  58
ENDBRANCH  40  54
ENDBRANCH   7  36
TORSDOF 16
ENDMDL
MODEL 3
REMARK VINA RESULT: -9.288762158      1.476      1.988
REMARK  16 active torsions:
REMARK  status: ('A' for Active; 'I' for Inactive)
REMARK    1  A    between atoms: O1_2  and  N1_3 
REMARK    2  A    between atoms: C2_5  and  C3_6 
REMARK    3  A    between atoms: C2_5  and  C22_53 
REMARK    4  A    between atoms: N4_11  and  C4_12 
REMARK    5  A    between atoms: C4_12  and  C5_13 
REMARK    6  A    between atoms: C5_13  and  O2_14 
REMARK    7  A    between atoms: C5_13  and  N5_16 
REMARK    8  A    between atoms: N5_16  and  C6_18 
REMARK    9  A    between atoms: N7_24  and  C9_25 
REMARK   10  A    between atoms: C11_27  and  N8_28 
REMARK   11  A    between atoms: C14_31  and  N9_32 
REMARK       I    between atoms: N11_39  and  C16_40 
REMARK   12  A    between atoms: C16_40  and  C17_42 
REMARK   13  A    between atoms: C17_42  and  C18_43 
REMARK   14  A    between atoms: C17_42  and  C20_46 
REMARK   15  A    between atoms: C20_46  and  O7_48 
REMARK   16  A    between atoms: C24_56  and  N13_57 
ROOT
HETATM    1  C6  UNL     1      -2.486 -21.553  -6.234  1.00  0.00     0.131 A 
HETATM    2  C7  UNL     1      -3.074 -21.400  -5.014  1.00  0.00     0.141 A 
HETATM    3  N6  UNL     1      -3.880 -22.489  -4.842  1.00  0.00    -0.315 N 
ATOM      4  H6  UNL     1      -4.463 -22.677  -4.026  1.00  0.00     0.170 HD
HETATM    5  C8  UNL     1      -3.774 -23.264  -5.922  1.00  0.00     0.330 A 
HETATM    6  O3  UNL     1      -4.404 -24.345  -6.046  1.00  0.00    -0.246 OA
HETATM    7  N7  UNL     1      -2.926 -22.717  -6.796  1.00  0.00    -0.254 N 
ENDROOT
BRANCH   1   8
HETATM    8  N5  UNL     1      -1.617 -20.684  -6.896  1.00  0.00    -0.324 N 
ATOM      9  H5  UNL     1      -0.937 -21.135  -7.508  1.00  0.00     0.169 HD
BRANCH   8  10
HETATM   10  C5  UNL     1      -1.539 -19.302  -6.849  1.00  0.00     0.139 C 
BRANCH  10  11
HETATM   11  C4  UNL     1      -1.720 -18.361  -5.741  1.00  0.00     0.255 C 
BRANCH  11  12
HETATM   12  N4  UNL     1      -3.050 -17.755  -5.694  1.00  0.00    -0.210 N 
HETATM   13  N3  UNL     1      -3.741 -17.388  -4.657  1.00  0.00    -0.224 N 
HETATM   14  N2  UNL     1      -4.888 -16.903  -5.041  1.00  0.00    -0.267 N 
ATOM     15  H3  UNL     1      -3.432 -17.467  -3.687  1.00  0.00     0.210 HD
HETATM   16  C3  UNL     1      -4.977 -16.942  -6.342  1.00  0.00     0.168 A 
ATOM     17  H2  UNL     1      -5.610 -16.547  -4.416  1.00  0.00     0.190 HD
HETATM   18  N12 UNL     1      -3.796 -17.490  -6.766  1.00  0.00    -0.264 N 
ATOM     19  H12 UNL     1      -3.532 -17.665  -7.736  1.00  0.00     0.190 HD
BRANCH  16  20
HETATM   20  C2  UNL     1      -6.068 -16.535  -7.246  1.00  0.00     0.128 C 
HETATM   21  N1  UNL     1      -7.052 -17.317  -7.309  1.00  0.00    -0.261 N 
ATOM     22  H1  UNL     1      -6.913 -18.123  -6.700  1.00  0.00     0.194 HD
BRANCH  21  23
HETATM   23  O1  UNL     1      -8.201 -17.396  -7.931  1.00  0.00    -0.285 OA
HETATM   24  C1  UNL     1      -8.722 -18.528  -8.634  1.00  0.00     0.237 C 
ENDBRANCH  21  23
BRANCH  20  25
HETATM   25  C22 UNL     1      -6.010 -15.227  -7.964  1.00  0.00     0.073 A 
HETATM   26  C23 UNL     1      -4.935 -14.391  -7.843  1.00  0.00     0.085 A 
HETATM   27  S1  UNL     1      -5.424 -13.029  -8.778  1.00  0.00    -0.064 SA
HETATM   28  C24 UNL     1      -6.944 -13.603  -9.254  1.00  0.00     0.142 A 
HETATM   29  N14 UNL     1      -7.020 -14.801  -8.688  1.00  0.00    -0.335 N 
ATOM     30  H14 UNL     1      -7.849 -15.381  -8.813  1.00  0.00     0.168 HD
BRANCH  28  31
HETATM   31  N13 UNL     1      -7.865 -13.026 -10.005  1.00  0.00    -0.380 N 
ATOM     32 2H13 UNL     1      -8.796 -12.734  -9.708  1.00  0.00     0.158 HD
ATOM     33 1H13 UNL     1      -7.832 -12.764 -10.989  1.00  0.00     0.158 HD
ENDBRANCH  28  31
ENDBRANCH  20  25
ENDBRANCH  16  20
ENDBRANCH  11  12
ENDBRANCH  10  11
BRANCH  10  34
HETATM   34  O2  UNL     1      -1.261 -18.708  -7.988  1.00  0.00    -0.348 OA
ATOM     35  H2  UNL     1      -1.836 -18.974  -8.696  1.00  0.00     0.219 HD
ENDBRANCH  10  34
ENDBRANCH   8  10
ENDBRANCH   1   8
BRANCH   7  36
HETATM   36  C9  UNL     1      -2.572 -23.241  -8.084  1.00  0.00     0.268 C 
HETATM   37  C10 UNL     1      -2.674 -24.742  -8.112  1.00  0.00     0.106 C 
HETATM   38  C11 UNL     1      -1.284 -25.201  -8.355  1.00  0.00     0.231 C 
HETATM   39  N11 UNL     1      -0.498 -23.975  -8.439  1.00  0.00    -0.198 N 
HETATM   40  C16 UNL     1       0.909 -23.941  -8.457  1.00  0.00     0.259 C 
HETATM   41  O8  UNL     1      -1.291 -22.908  -8.484  1.00  0.00    -0.246 OA
HETATM   42  O5  UNL     1       1.495 -25.087  -8.370  1.00  0.00    -0.270 OA
BRANCH  38  43
HETATM   43  N8  UNL     1      -1.154 -26.060  -9.484  1.00  0.00    -0.285 N 
HETATM   44  C12 UNL     1      -1.284 -25.556 -10.719  1.00  0.00     0.102 A 
HETATM   45  C13 UNL     1      -1.175 -26.293 -11.876  1.00  0.00     0.065 A 
HETATM   46  C14 UNL     1      -0.913 -27.644 -11.712  1.00  0.00     0.103 A 
HETATM   47  N10 UNL     1      -0.786 -28.128 -10.463  1.00  0.00    -0.295 N 
HETATM   48  C15 UNL     1      -0.901 -27.369  -9.362  1.00  0.00     0.329 A 
ATOM     49  H10 UNL     1      -0.593 -29.123 -10.347  1.00  0.00     0.172 HD
HETATM   50  O4  UNL     1      -0.764 -27.926  -8.246  1.00  0.00    -0.246 OA
BRANCH  46  51
HETATM   51  N9  UNL     1      -0.794 -28.404 -12.757  1.00  0.00    -0.385 N 
ATOM     52  H92 UNL     1       0.103 -28.550 -13.219  1.00  0.00     0.157 HD
ATOM     53  H91 UNL     1      -1.618 -28.872 -13.135  1.00  0.00     0.157 HD
ENDBRANCH  46  51
ENDBRANCH  38  43
BRANCH  40  54
HETATM   54  C17 UNL     1       1.797 -22.786  -8.564  1.00  0.00     0.177 C 
BRANCH  54  55
HETATM   55  C18 UNL     1       1.587 -21.729  -7.568  1.00  0.00     0.138 C 
HETATM   56  C19 UNL     1       1.802 -21.930  -6.095  1.00  0.00     0.092 C 
HETATM   57  O6  UNL     1       1.218 -20.606  -7.873  1.00  0.00    -0.297 OA
ENDBRANCH  54  55
BRANCH  54  58
HETATM   58  C20 UNL     1       1.967 -22.287  -9.982  1.00  0.00     0.134 C 
HETATM   59  C21 UNL     1       3.361 -21.996 -10.397  1.00  0.00     0.040 C 
BRANCH  58  60
HETATM   60  O7  UNL     1       1.474 -23.243 -10.902  1.00  0.00    -0.395 OA
ATOM     61  H7  UNL     1       2.081 -23.970 -10.981  1.00  0.00     0.210 HD
ENDBRANCH  58  60
ENDBRANCH  54  58
ENDBRANCH  40  54
ENDBRANCH   7  36
TORSDOF 16
ENDMDL
MODEL 4
REMARK VINA RESULT: -9.227257352      1.386      1.923
REMARK  16 active torsions:
REMARK  status: ('A' for Active; 'I' for Inactive)
REMARK    1  A    between atoms: O1_2  and  N1_3 
REMARK    2  A    between atoms: C2_5  and  C3_6 
REMARK    3  A    between atoms: C2_5  and  C22_53 
REMARK    4  A    between atoms: N4_11  and  C4_12 
REMARK    5  A    between atoms: C4_12  and  C5_13 
REMARK    6  A    between atoms: C5_13  and  O2_14 
REMARK    7  A    between atoms: C5_13  and  N5_16 
REMARK    8  A    between atoms: N5_16  and  C6_18 
REMARK    9  A    between atoms: N7_24  and  C9_25 
REMARK   10  A    between atoms: C11_27  and  N8_28 
REMARK   11  A    between atoms: C14_31  and  N9_32 
REMARK       I    between atoms: N11_39  and  C16_40 
REMARK   12  A    between atoms: C16_40  and  C17_42 
REMARK   13  A    between atoms: C17_42  and  C18_43 
REMARK   14  A    between atoms: C17_42  and  C20_46 
REMARK   15  A    between atoms: C20_46  and  O7_48 
REMARK   16  A    between atoms: C24_56  and  N13_57 
ROOT
HETATM    1  C6  UNL     1      -2.617 -21.939  -6.093  1.00  0.00     0.131 A 
HETATM    2  C7  UNL     1      -3.301 -21.709  -4.937  1.00  0.00     0.141 A 
HETATM    3  N6  UNL     1      -4.375 -22.551  -4.957  1.00  0.00    -0.315 N 
ATOM      4  H6  UNL     1      -5.089 -22.625  -4.233  1.00  0.00     0.170 HD
HETATM    5  C8  UNL     1      -4.332 -23.260  -6.086  1.00  0.00     0.330 A 
HETATM    6  O3  UNL     1      -5.197 -24.123  -6.379  1.00  0.00    -0.246 OA
HETATM    7  N7  UNL     1      -3.264 -22.908  -6.806  1.00  0.00    -0.254 N 
ENDROOT
BRANCH   1   8
HETATM    8  N5  UNL     1      -1.474 -21.295  -6.571  1.00  0.00    -0.324 N 
ATOM      9  H5  UNL     1      -0.597 -21.788  -6.399  1.00  0.00     0.169 HD
BRANCH   8  10
HETATM   10  C5  UNL     1      -1.350 -20.091  -7.243  1.00  0.00     0.139 C 
BRANCH  10  11
HETATM   11  C4  UNL     1      -0.627 -18.863  -6.900  1.00  0.00     0.255 C 
BRANCH  11  12
HETATM   12  N4  UNL     1      -1.501 -17.731  -6.596  1.00  0.00    -0.210 N 
HETATM   13  N3  UNL     1      -1.277 -16.719  -5.813  1.00  0.00    -0.224 N 
HETATM   14  N2  UNL     1      -2.316 -15.933  -5.803  1.00  0.00    -0.267 N 
ATOM     15  H3  UNL     1      -0.418 -16.564  -5.284  1.00  0.00     0.210 HD
HETATM   16  C3  UNL     1      -3.247 -16.411  -6.582  1.00  0.00     0.168 A 
ATOM     17  H2  UNL     1      -2.390 -15.069  -5.266  1.00  0.00     0.190 HD
HETATM   18  N12 UNL     1      -2.726 -17.569  -7.094  1.00  0.00    -0.264 N 
ATOM     19  H12 UNL     1      -3.195 -18.199  -7.745  1.00  0.00     0.190 HD
BRANCH  16  20
HETATM   20  C2  UNL     1      -4.599 -15.909  -6.890  1.00  0.00     0.128 C 
HETATM   21  N1  UNL     1      -4.676 -14.694  -7.207  1.00  0.00    -0.261 N 
ATOM     22  H1  UNL     1      -3.755 -14.257  -7.195  1.00  0.00     0.194 HD
BRANCH  21  23
HETATM   23  O1  UNL     1      -5.598 -13.828  -7.547  1.00  0.00    -0.285 OA
HETATM   24  C1  UNL     1      -5.756 -13.198  -8.822  1.00  0.00     0.237 C 
ENDBRANCH  21  23
BRANCH  20  25
HETATM   25  C22 UNL     1      -5.769 -16.837  -6.893  1.00  0.00     0.073 A 
HETATM   26  C23 UNL     1      -6.604 -16.932  -7.971  1.00  0.00     0.085 A 
HETATM   27  S1  UNL     1      -7.796 -18.044  -7.414  1.00  0.00    -0.064 SA
HETATM   28  C24 UNL     1      -7.163 -18.312  -5.866  1.00  0.00     0.142 A 
HETATM   29  N14 UNL     1      -6.076 -17.550  -5.834  1.00  0.00    -0.335 N 
ATOM     30  H14 UNL     1      -5.490 -17.520  -5.000  1.00  0.00     0.168 HD
BRANCH  28  31
HETATM   31  N13 UNL     1      -7.614 -19.083  -4.893  1.00  0.00    -0.380 N 
ATOM     32 2H13 UNL     1      -7.678 -20.100  -4.903  1.00  0.00     0.158 HD
ATOM     33 1H13 UNL     1      -7.969 -18.827  -3.972  1.00  0.00     0.158 HD
ENDBRANCH  28  31
ENDBRANCH  20  25
ENDBRANCH  16  20
ENDBRANCH  11  12
ENDBRANCH  10  11
BRANCH  10  34
HETATM   34  O2  UNL     1      -1.990 -20.009  -8.387  1.00  0.00    -0.348 OA
ATOM     35  H2  UNL     1      -2.867 -20.373  -8.350  1.00  0.00     0.219 HD
ENDBRANCH  10  34
ENDBRANCH   8  10
ENDBRANCH   1   8
BRANCH   7  36
HETATM   36  C9  UNL     1      -2.890 -23.428  -8.090  1.00  0.00     0.268 C 
HETATM   37  C10 UNL     1      -2.895 -24.933  -8.094  1.00  0.00     0.106 C 
HETATM   38  C11 UNL     1      -1.481 -25.304  -8.345  1.00  0.00     0.231 C 
HETATM   39  N11 UNL     1      -0.778 -24.032  -8.458  1.00  0.00    -0.198 N 
HETATM   40  C16 UNL     1       0.624 -23.908  -8.493  1.00  0.00     0.259 C 
HETATM   41  O8  UNL     1      -1.638 -23.020  -8.510  1.00  0.00    -0.246 OA
HETATM   42  O5  UNL     1       1.284 -25.011  -8.395  1.00  0.00    -0.270 OA
BRANCH  38  43
HETATM   43  N8  UNL     1      -1.307 -26.172  -9.463  1.00  0.00    -0.285 N 
HETATM   44  C12 UNL     1      -1.483 -25.697 -10.704  1.00  0.00     0.102 A 
HETATM   45  C13 UNL     1      -1.339 -26.445 -11.850  1.00  0.00     0.065 A 
HETATM   46  C14 UNL     1      -0.988 -27.774 -11.668  1.00  0.00     0.103 A 
HETATM   47  N10 UNL     1      -0.817 -28.228 -10.413  1.00  0.00    -0.295 N 
HETATM   48  C15 UNL     1      -0.969 -27.460  -9.323  1.00  0.00     0.329 A 
ATOM     49  H10 UNL     1      -0.560 -29.206 -10.284  1.00  0.00     0.172 HD
HETATM   50  O4  UNL     1      -0.785 -27.989  -8.200  1.00  0.00    -0.246 OA
BRANCH  46  51
HETATM   51  N9  UNL     1      -0.832 -28.541 -12.702  1.00  0.00    -0.385 N 
ATOM     52  H92 UNL     1       0.090 -28.851 -13.010  1.00  0.00     0.157 HD
ATOM     53  H91 UNL     1      -1.649 -28.847 -13.230  1.00  0.00     0.157 HD
ENDBRANCH  46  51
ENDBRANCH  38  43
BRANCH  40  54
HETATM   54  C17 UNL     1       1.434 -22.699  -8.629  1.00  0.00     0.177 C 
BRANCH  54  55
HETATM   55  C18 UNL     1       2.303 -22.647  -9.810  1.00  0.00     0.138 C 
HETATM   56  C19 UNL     1       3.798 -22.777  -9.739  1.00  0.00     0.092 C 
HETATM   57  O6  UNL     1       1.865 -22.491 -10.938  1.00  0.00    -0.297 OA
ENDBRANCH  54  55
BRANCH  54  58
HETATM   58  C20 UNL     1       2.098 -22.271  -7.339  1.00  0.00     0.134 C 
HETATM   59  C21 UNL     1       2.519 -20.850  -7.275  1.00  0.00     0.040 C 
BRANCH  58  60
HETATM   60  O7  UNL     1       1.223 -22.472  -6.245  1.00  0.00    -0.395 OA
ATOM     61  H7  UNL     1       1.719 -22.590  -5.443  1.00  0.00     0.210 HD
ENDBRANCH  58  60
ENDBRANCH  54  58
ENDBRANCH  40  54
ENDBRANCH   7  36
TORSDOF 16
ENDMDL
MODEL 5
REMARK VINA RESULT: -9.225487750      1.143      1.198
REMARK  16 active torsions:
REMARK  status: ('A' for Active; 'I' for Inactive)
REMARK    1  A    between atoms: O1_2  and  N1_3 
REMARK    2  A    between atoms: C2_5  and  C3_6 
REMARK    3  A    between atoms: C2_5  and  C22_53 
REMARK    4  A    between atoms: N4_11  and  C4_12 
REMARK    5  A    between atoms: C4_12  and  C5_13 
REMARK    6  A    between atoms: C5_13  and  O2_14 
REMARK    7  A    between atoms: C5_13  and  N5_16 
REMARK    8  A    between atoms: N5_16  and  C6_18 
REMARK    9  A    between atoms: N7_24  and  C9_25 
REMARK   10  A    between atoms: C11_27  and  N8_28 
REMARK   11  A    between atoms: C14_31  and  N9_32 
REMARK       I    between atoms: N11_39  and  C16_40 
REMARK   12  A    between atoms: C16_40  and  C17_42 
REMARK   13  A    between atoms: C17_42  and  C18_43 
REMARK   14  A    between atoms: C17_42  and  C20_46 
REMARK   15  A    between atoms: C20_46  and  O7_48 
REMARK   16  A    between atoms: C24_56  and  N13_57 
ROOT
HETATM    1  C6  UNL     1      -2.405 -22.046  -6.440  1.00  0.00     0.131 A 
HETATM    2  C7  UNL     1      -3.124 -21.965  -5.286  1.00  0.00     0.141 A 
HETATM    3  N6  UNL     1      -4.117 -22.896  -5.390  1.00  0.00    -0.315 N 
ATOM      4  H6  UNL     1      -4.832 -23.088  -4.688  1.00  0.00     0.170 HD
HETATM    5  C8  UNL     1      -3.993 -23.512  -6.567  1.00  0.00     0.330 A 
HETATM    6  O3  UNL     1      -4.771 -24.426  -6.940  1.00  0.00    -0.246 OA
HETATM    7  N7  UNL     1      -2.951 -23.013  -7.236  1.00  0.00    -0.254 N 
ENDROOT
BRANCH   1   8
HETATM    8  N5  UNL     1      -1.319 -21.269  -6.846  1.00  0.00    -0.324 N 
ATOM      9  H5  UNL     1      -0.402 -21.683  -6.673  1.00  0.00     0.169 HD
BRANCH   8  10
HETATM   10  C5  UNL     1      -1.296 -20.022  -7.448  1.00  0.00     0.139 C 
BRANCH  10  11
HETATM   11  C4  UNL     1      -0.600 -18.785  -7.082  1.00  0.00     0.255 C 
BRANCH  11  12
HETATM   12  N4  UNL     1      -1.497 -17.697  -6.697  1.00  0.00    -0.210 N 
HETATM   13  N3  UNL     1      -1.330 -16.789  -5.783  1.00  0.00    -0.224 N 
HETATM   14  N2  UNL     1      -2.372 -16.007  -5.744  1.00  0.00    -0.267 N 
ATOM     15  H3  UNL     1      -0.508 -16.702  -5.185  1.00  0.00     0.210 HD
HETATM   16  C3  UNL     1      -3.248 -16.384  -6.634  1.00  0.00     0.168 A 
ATOM     17  H2  UNL     1      -2.484 -15.216  -5.110  1.00  0.00     0.190 HD
HETATM   18  N12 UNL     1      -2.689 -17.471  -7.249  1.00  0.00    -0.264 N 
ATOM     19  H12 UNL     1      -3.113 -18.016  -8.001  1.00  0.00     0.190 HD
BRANCH  16  20
HETATM   20  C2  UNL     1      -4.580 -15.844  -6.963  1.00  0.00     0.128 C 
HETATM   21  N1  UNL     1      -4.619 -14.626  -7.277  1.00  0.00    -0.261 N 
ATOM     22  H1  UNL     1      -3.686 -14.215  -7.247  1.00  0.00     0.194 HD
BRANCH  21  23
HETATM   23  O1  UNL     1      -5.511 -13.735  -7.630  1.00  0.00    -0.285 OA
HETATM   24  C1  UNL     1      -5.612 -13.076  -8.896  1.00  0.00     0.237 C 
ENDBRANCH  21  23
BRANCH  20  25
HETATM   25  C22 UNL     1      -5.775 -16.740  -6.992  1.00  0.00     0.073 A 
HETATM   26  C23 UNL     1      -5.930 -17.755  -6.090  1.00  0.00     0.085 A 
HETATM   27  S1  UNL     1      -7.388 -18.500  -6.625  1.00  0.00    -0.064 SA
HETATM   28  C24 UNL     1      -7.701 -17.486  -7.944  1.00  0.00     0.142 A 
HETATM   29  N14 UNL     1      -6.691 -16.625  -7.926  1.00  0.00    -0.335 N 
ATOM     30  H14 UNL     1      -6.628 -15.886  -8.626  1.00  0.00     0.168 HD
BRANCH  28  31
HETATM   31  N13 UNL     1      -8.697 -17.513  -8.811  1.00  0.00    -0.380 N 
ATOM     32 2H13 UNL     1      -8.710 -17.999  -9.707  1.00  0.00     0.158 HD
ATOM     33 1H13 UNL     1      -9.617 -17.076  -8.759  1.00  0.00     0.158 HD
ENDBRANCH  28  31
ENDBRANCH  20  25
ENDBRANCH  16  20
ENDBRANCH  11  12
ENDBRANCH  10  11
BRANCH  10  34
HETATM   34  O2  UNL     1      -2.024 -19.901  -8.534  1.00  0.00    -0.348 OA
ATOM     35  H2  UNL     1      -1.726 -20.456  -9.246  1.00  0.00     0.219 HD
ENDBRANCH  10  34
ENDBRANCH   8  10
ENDBRANCH   1   8
BRANCH   7  36
HETATM   36  C9  UNL     1      -2.513 -23.401  -8.546  1.00  0.00     0.268 C 
HETATM   37  C10 UNL     1      -2.755 -24.866  -8.794  1.00  0.00     0.106 C 
HETATM   38  C11 UNL     1      -1.397 -25.438  -8.968  1.00  0.00     0.231 C 
HETATM   39  N11 UNL     1      -0.493 -24.305  -8.807  1.00  0.00    -0.198 N 
HETATM   40  C16 UNL     1       0.905 -24.423  -8.689  1.00  0.00     0.259 C 
HETATM   41  O8  UNL     1      -1.171 -23.161  -8.775  1.00  0.00    -0.246 OA
HETATM   42  O5  UNL     1       1.366 -25.628  -8.709  1.00  0.00    -0.270 OA
BRANCH  38  43
HETATM   43  N8  UNL     1      -1.230 -26.153 -10.189  1.00  0.00    -0.285 N 
HETATM   44  C12 UNL     1      -1.235 -25.488 -11.353  1.00  0.00     0.102 A 
HETATM   45  C13 UNL     1      -1.079 -26.077 -12.586  1.00  0.00     0.065 A 
HETATM   46  C14 UNL     1      -0.909 -27.452 -12.585  1.00  0.00     0.103 A 
HETATM   47  N10 UNL     1      -0.908 -28.099 -11.405  1.00  0.00    -0.295 N 
HETATM   48  C15 UNL     1      -1.063 -27.481 -10.224  1.00  0.00     0.329 A 
ATOM     49  H10 UNL     1      -0.783 -29.111 -11.409  1.00  0.00     0.172 HD
HETATM   50  O4  UNL     1      -1.046 -28.184  -9.185  1.00  0.00    -0.246 OA
BRANCH  46  51
HETATM   51  N9  UNL     1      -0.754 -28.078 -13.711  1.00  0.00    -0.385 N 
ATOM     52  H92 UNL     1      -1.188 -27.751 -14.574  1.00  0.00     0.157 HD
ATOM     53  H91 UNL     1      -0.184 -28.924 -13.742  1.00  0.00     0.157 HD
ENDBRANCH  46  51
ENDBRANCH  38  43
BRANCH  40  54
HETATM   54  C17 UNL     1       1.905 -23.367  -8.550  1.00  0.00     0.177 C 
BRANCH  54  55
HETATM   55  C18 UNL     1       1.849 -22.599  -7.301  1.00  0.00     0.138 C 
HETATM   56  C19 UNL     1       2.646 -21.348  -7.066  1.00  0.00     0.092 C 
HETATM   57  O6  UNL     1       1.143 -22.930  -6.361  1.00  0.00    -0.297 OA
ENDBRANCH  54  55
BRANCH  54  58
HETATM   58  C20 UNL     1       2.070 -22.528  -9.798  1.00  0.00     0.134 C 
HETATM   59  C21 UNL     1       3.466 -22.339 -10.264  1.00  0.00     0.040 C 
BRANCH  58  60
HETATM   60  O7  UNL     1       1.369 -23.112 -10.880  1.00  0.00    -0.395 OA
ATOM     61  H7  UNL     1       0.447 -23.195 -10.669  1.00  0.00     0.210 HD
ENDBRANCH  58  60
ENDBRANCH  54  58
ENDBRANCH  40  54
ENDBRANCH   7  36
TORSDOF 16
ENDMDL
