MODEL 1
REMARK VINA RESULT: -9.102411265      0.000      0.000
REMARK  4 active torsions:
REMARK  status: ('A' for Active; 'I' for Inactive)
REMARK    1  A    between atoms: C4_4  and  C5_5 
REMARK    2  A    between atoms: C5_5  and  O2_7 
REMARK    3  A    between atoms: O2_7  and  C6_8 
REMARK    4  A    between atoms: C6_8  and  C7_9 
ROOT
HETATM    1  C5  UNL     1      30.504  -5.369  13.589  1.00  0.00     0.295 C 
HETATM    2  O1  UNL     1      29.525  -5.911  14.142  1.00  0.00    -0.259 OA
ENDROOT
BRANCH   1   3
HETATM    3  C4  UNL     1      31.292  -6.124  12.590  1.00  0.00     0.063 A 
HETATM    4  C3  UNL     1      30.923  -6.143  11.263  1.00  0.00     0.028 A 
HETATM    5  C2  UNL     1      31.628  -6.825  10.302  1.00  0.00    -0.035 A 
HETATM    6  C1  UNL     1      31.136  -6.768   8.920  1.00  0.00     0.050 C 
HETATM    7  C12 UNL     1      32.770  -7.534  10.666  1.00  0.00     0.075 A 
HETATM    8  C11 UNL     1      33.142  -7.516  11.993  1.00  0.00     0.081 A 
HETATM    9  N2  UNL     1      33.517  -8.236   9.685  1.00  0.00    -0.100 NA
HETATM   10  C10 UNL     1      32.415  -6.817  12.964  1.00  0.00     0.073 A 
HETATM   11 CL3  UNL     1      34.589  -8.415  12.447  1.00  0.00    -0.080 Cl
HETATM   12 CL2  UNL     1      32.950  -6.844  14.637  1.00  0.00    -0.081 Cl
ENDBRANCH   1   3
BRANCH   1  13
HETATM   13  O2  UNL     1      30.813  -4.085  13.931  1.00  0.00    -0.309 OA
BRANCH  13  14
HETATM   14  C6  UNL     1      29.998  -2.993  14.154  1.00  0.00     0.263 C 
BRANCH  14  15
HETATM   15  C7  UNL     1      30.613  -1.768  14.674  1.00  0.00     0.152 A 
HETATM   16  N1  UNL     1      31.156  -0.758  13.974  1.00  0.00    -0.325 N 
HETATM   17  C8  UNL     1      31.609   0.170  14.835  1.00  0.00     0.169 A 
ATOM     18  H1  UNL     1      31.216  -0.703  12.957  1.00  0.00     0.169 HD
HETATM   19 CL1  UNL     1      32.397   1.677  14.438  1.00  0.00    -0.059 Cl
HETATM   20  C9  UNL     1      31.317  -0.321  16.086  1.00  0.00     0.270 A 
HETATM   21  F1  UNL     1      31.590   0.277  17.274  1.00  0.00    -0.174 F 
HETATM   22  O3  UNL     1      30.726  -1.472  15.982  1.00  0.00    -0.266 OA
ENDBRANCH  14  15
ENDBRANCH  13  14
ENDBRANCH   1  13
TORSDOF 4
ENDMDL
MODEL 2
REMARK VINA RESULT: -9.050507658      1.369      1.556
REMARK  4 active torsions:
REMARK  status: ('A' for Active; 'I' for Inactive)
REMARK    1  A    between atoms: C4_4  and  C5_5 
REMARK    2  A    between atoms: C5_5  and  O2_7 
REMARK    3  A    between atoms: O2_7  and  C6_8 
REMARK    4  A    between atoms: C6_8  and  C7_9 
ROOT
HETATM    1  C5  UNL     1      30.293  -5.272  13.418  1.00  0.00     0.295 C 
HETATM    2  O1  UNL     1      29.190  -5.850  13.493  1.00  0.00    -0.259 OA
ENDROOT
BRANCH   1   3
HETATM    3  C4  UNL     1      31.524  -6.067  13.213  1.00  0.00     0.063 A 
HETATM    4  C3  UNL     1      31.840  -6.579  11.973  1.00  0.00     0.028 A 
HETATM    5  C2  UNL     1      32.973  -7.316  11.737  1.00  0.00    -0.035 A 
HETATM    6  C1  UNL     1      33.201  -7.806  10.372  1.00  0.00     0.050 C 
HETATM    7  C12 UNL     1      33.856  -7.568  12.784  1.00  0.00     0.075 A 
HETATM    8  C11 UNL     1      33.543  -7.057  14.025  1.00  0.00     0.081 A 
HETATM    9  N2  UNL     1      35.037  -8.319  12.556  1.00  0.00    -0.100 NA
HETATM   10  C10 UNL     1      32.384  -6.306  14.255  1.00  0.00     0.073 A 
HETATM   11 CL3  UNL     1      34.665  -7.378  15.347  1.00  0.00    -0.080 Cl
HETATM   12 CL2  UNL     1      32.051  -5.690  15.866  1.00  0.00    -0.081 Cl
ENDBRANCH   1   3
BRANCH   1  13
HETATM   13  O2  UNL     1      30.322  -3.913  13.530  1.00  0.00    -0.309 OA
BRANCH  13  14
HETATM   14  C6  UNL     1      29.718  -3.073  14.443  1.00  0.00     0.263 C 
BRANCH  14  15
HETATM   15  C7  UNL     1      30.434  -1.858  14.843  1.00  0.00     0.152 A 
HETATM   16  N1  UNL     1      31.006  -0.938  14.047  1.00  0.00    -0.325 N 
HETATM   17  C8  UNL     1      31.558   0.015  14.816  1.00  0.00     0.169 A 
ATOM     18  H1  UNL     1      31.018  -0.960  13.028  1.00  0.00     0.169 HD
HETATM   19 CL1  UNL     1      32.421   1.434  14.274  1.00  0.00    -0.059 Cl
HETATM   20  C9  UNL     1      31.298  -0.366  16.112  1.00  0.00     0.270 A 
HETATM   21  F1  UNL     1      31.668   0.295  17.239  1.00  0.00    -0.174 F 
HETATM   22  O3  UNL     1      30.631  -1.478  16.119  1.00  0.00    -0.266 OA
ENDBRANCH  14  15
ENDBRANCH  13  14
ENDBRANCH   1  13
TORSDOF 4
ENDMDL
MODEL 3
REMARK VINA RESULT: -9.046299116      1.232      1.300
REMARK  4 active torsions:
REMARK  status: ('A' for Active; 'I' for Inactive)
REMARK    1  A    between atoms: C4_4  and  C5_5 
REMARK    2  A    between atoms: C5_5  and  O2_7 
REMARK    3  A    between atoms: O2_7  and  C6_8 
REMARK    4  A    between atoms: C6_8  and  C7_9 
ROOT
HETATM    1  C5  UNL     1      30.481  -5.469  13.452  1.00  0.00     0.295 C 
HETATM    2  O1  UNL     1      29.490  -6.031  13.963  1.00  0.00    -0.259 OA
ENDROOT
BRANCH   1   3
HETATM    3  C4  UNL     1      31.282  -6.181  12.433  1.00  0.00     0.063 A 
HETATM    4  C3  UNL     1      30.900  -6.189  11.109  1.00  0.00     0.028 A 
HETATM    5  C2  UNL     1      31.616  -6.832  10.129  1.00  0.00    -0.035 A 
HETATM    6  C1  UNL     1      31.109  -6.766   8.754  1.00  0.00     0.050 C 
HETATM    7  C12 UNL     1      32.783  -7.511  10.470  1.00  0.00     0.075 A 
HETATM    8  C11 UNL     1      33.168  -7.504  11.793  1.00  0.00     0.081 A 
HETATM    9  N2  UNL     1      33.542  -8.171   9.470  1.00  0.00    -0.100 NA
HETATM   10  C10 UNL     1      32.429  -6.846  12.784  1.00  0.00     0.073 A 
HETATM   11 CL3  UNL     1      34.647  -8.365  12.218  1.00  0.00    -0.080 Cl
HETATM   12 CL2  UNL     1      32.982  -6.885  14.451  1.00  0.00    -0.081 Cl
ENDBRANCH   1   3
BRANCH   1  13
HETATM   13  O2  UNL     1      30.790  -4.205  13.859  1.00  0.00    -0.309 OA
BRANCH  13  14
HETATM   14  C6  UNL     1      30.205  -2.993  13.552  1.00  0.00     0.263 C 
BRANCH  14  15
HETATM   15  C7  UNL     1      30.720  -1.790  14.213  1.00  0.00     0.152 A 
HETATM   16  N1  UNL     1      30.504  -1.386  15.476  1.00  0.00    -0.325 N 
HETATM   17  C8  UNL     1      31.158  -0.230  15.678  1.00  0.00     0.169 A 
ATOM     18  H1  UNL     1      29.937  -1.877  16.167  1.00  0.00     0.169 HD
HETATM   19 CL1  UNL     1      31.204   0.708  17.151  1.00  0.00    -0.059 Cl
HETATM   20  C9  UNL     1      31.780   0.051  14.484  1.00  0.00     0.270 A 
HETATM   21  F1  UNL     1      32.560   1.128  14.212  1.00  0.00    -0.174 F 
HETATM   22  O3  UNL     1      31.515  -0.879  13.619  1.00  0.00    -0.266 OA
ENDBRANCH  14  15
ENDBRANCH  13  14
ENDBRANCH   1  13
TORSDOF 4
ENDMDL
MODEL 4
REMARK VINA RESULT: -9.022579609      2.017      2.835
REMARK  4 active torsions:
REMARK  status: ('A' for Active; 'I' for Inactive)
REMARK    1  A    between atoms: C4_4  and  C5_5 
REMARK    2  A    between atoms: C5_5  and  O2_7 
REMARK    3  A    between atoms: O2_7  and  C6_8 
REMARK    4  A    between atoms: C6_8  and  C7_9 
ROOT
HETATM    1  C5  UNL     1      30.259  -5.191  14.992  1.00  0.00     0.295 C 
HETATM    2  O1  UNL     1      29.471  -5.845  15.706  1.00  0.00    -0.259 OA
ENDROOT
BRANCH   1   3
HETATM    3  C4  UNL     1      31.435  -5.861  14.396  1.00  0.00     0.063 A 
HETATM    4  C3  UNL     1      32.535  -6.179  15.161  1.00  0.00     0.028 A 
HETATM    5  C2  UNL     1      33.645  -6.806  14.650  1.00  0.00    -0.035 A 
HETATM    6  C1  UNL     1      34.754  -7.094  15.568  1.00  0.00     0.050 C 
HETATM    7  C12 UNL     1      33.678  -7.144  13.300  1.00  0.00     0.075 A 
HETATM    8  C11 UNL     1      32.578  -6.828  12.532  1.00  0.00     0.081 A 
HETATM    9  N2  UNL     1      34.811  -7.801  12.756  1.00  0.00    -0.100 NA
HETATM   10  C10 UNL     1      31.452  -6.188  13.064  1.00  0.00     0.073 A 
HETATM   11 CL3  UNL     1      32.626  -7.259  10.823  1.00  0.00    -0.080 Cl
HETATM   12 CL2  UNL     1      30.089  -5.815  12.020  1.00  0.00    -0.081 Cl
ENDBRANCH   1   3
BRANCH   1  13
HETATM   13  O2  UNL     1      30.002  -3.868  14.787  1.00  0.00    -0.309 OA
BRANCH  13  14
HETATM   14  C6  UNL     1      29.430  -2.923  15.616  1.00  0.00     0.263 C 
BRANCH  14  15
HETATM   15  C7  UNL     1      30.119  -1.640  15.780  1.00  0.00     0.152 A 
HETATM   16  N1  UNL     1      29.747  -0.438  15.308  1.00  0.00    -0.325 N 
HETATM   17  C8  UNL     1      30.659   0.475  15.683  1.00  0.00     0.169 A 
ATOM     18  H1  UNL     1      28.909  -0.250  14.757  1.00  0.00     0.169 HD
HETATM   19 CL1  UNL     1      30.642   2.185  15.328  1.00  0.00    -0.059 Cl
HETATM   20  C9  UNL     1      31.600  -0.225  16.401  1.00  0.00     0.270 A 
HETATM   21  F1  UNL     1      32.718   0.283  16.981  1.00  0.00    -0.174 F 
HETATM   22  O3  UNL     1      31.273  -1.479  16.454  1.00  0.00    -0.266 OA
ENDBRANCH  14  15
ENDBRANCH  13  14
ENDBRANCH   1  13
TORSDOF 4
ENDMDL
MODEL 5
REMARK VINA RESULT: -8.994406721      1.801      1.973
REMARK  4 active torsions:
REMARK  status: ('A' for Active; 'I' for Inactive)
REMARK    1  A    between atoms: C4_4  and  C5_5 
REMARK    2  A    between atoms: C5_5  and  O2_7 
REMARK    3  A    between atoms: O2_7  and  C6_8 
REMARK    4  A    between atoms: C6_8  and  C7_9 
ROOT
HETATM    1  C5  UNL     1      30.215  -5.391  13.296  1.00  0.00     0.295 C 
HETATM    2  O1  UNL     1      29.145  -6.008  13.474  1.00  0.00    -0.259 OA
ENDROOT
BRANCH   1   3
HETATM    3  C4  UNL     1      31.471  -6.146  13.092  1.00  0.00     0.063 A 
HETATM    4  C3  UNL     1      31.810  -6.637  11.851  1.00  0.00     0.028 A 
HETATM    5  C2  UNL     1      32.968  -7.339  11.616  1.00  0.00    -0.035 A 
HETATM    6  C1  UNL     1      33.220  -7.809  10.249  1.00  0.00     0.050 C 
HETATM    7  C12 UNL     1      33.850  -7.573  12.668  1.00  0.00     0.075 A 
HETATM    8  C11 UNL     1      33.513  -7.082  13.911  1.00  0.00     0.081 A 
HETATM    9  N2  UNL     1      35.055  -8.285  12.443  1.00  0.00    -0.100 NA
HETATM   10  C10 UNL     1      32.330  -6.369  14.138  1.00  0.00     0.073 A 
HETATM   11 CL3  UNL     1      34.635  -7.381  15.238  1.00  0.00    -0.080 Cl
HETATM   12 CL2  UNL     1      31.968  -5.776  15.752  1.00  0.00    -0.081 Cl
ENDBRANCH   1   3
BRANCH   1  13
HETATM   13  O2  UNL     1      30.186  -4.027  13.294  1.00  0.00    -0.309 OA
BRANCH  13  14
HETATM   14  C6  UNL     1      29.507  -3.142  14.107  1.00  0.00     0.263 C 
BRANCH  14  15
HETATM   15  C7  UNL     1      30.229  -1.965  14.601  1.00  0.00     0.152 A 
HETATM   16  N1  UNL     1      30.210  -1.448  15.841  1.00  0.00    -0.325 N 
HETATM   17  C8  UNL     1      31.009  -0.368  15.870  1.00  0.00     0.169 A 
ATOM     18  H1  UNL     1      29.677  -1.814  16.630  1.00  0.00     0.169 HD
HETATM   19 CL1  UNL     1      31.334   0.663  17.243  1.00  0.00    -0.059 Cl
HETATM   20  C9  UNL     1      31.513  -0.252  14.596  1.00  0.00     0.270 A 
HETATM   21  F1  UNL     1      32.371   0.700  14.148  1.00  0.00    -0.174 F 
HETATM   22  O3  UNL     1      31.044  -1.204  13.849  1.00  0.00    -0.266 OA
ENDBRANCH  14  15
ENDBRANCH  13  14
ENDBRANCH   1  13
TORSDOF 4
ENDMDL
