MODEL 1
REMARK VINA RESULT: -7.997107412      0.000      0.000
REMARK  5 active torsions:
REMARK  status: ('A' for Active; 'I' for Inactive)
REMARK    1  A    between atoms: O1_2  and  C2_3 
REMARK    2  A    between atoms: C2_3  and  C3_5 
REMARK    3  A    between atoms: N1_9  and  C5_10 
REMARK    4  A    between atoms: C5_10  and  C6_11 
REMARK    5  A    between atoms: C12_21  and  O3_22 
ROOT
HETATM    1  C3  UNL     1      26.963  -4.172  15.566  1.00  0.00     0.134 A 
HETATM    2  S1  UNL     1      27.932  -2.783  15.602  1.00  0.00    -0.050 SA
HETATM    3  C4  UNL     1      28.962  -3.175  14.299  1.00  0.00     0.148 A 
HETATM    4  S2  UNL     1      30.177  -2.176  13.810  1.00  0.00    -0.052 SA
HETATM    5  N1  UNL     1      28.543  -4.357  13.871  1.00  0.00    -0.307 N 
HETATM    6  C12 UNL     1      27.494  -4.881  14.533  1.00  0.00     0.168 A 
ENDROOT
BRANCH   5   7
HETATM    7  C5  UNL     1      29.068  -5.063  12.679  1.00  0.00     0.178 C 
BRANCH   7   8
HETATM    8  C6  UNL     1      30.314  -5.756  12.830  1.00  0.00     0.043 A 
HETATM    9  C7  UNL     1      31.016  -6.158  11.687  1.00  0.00     0.166 A 
HETATM   10  F1  UNL     1      30.478  -6.077  10.428  1.00  0.00    -0.202 F 
HETATM   11  C8  UNL     1      32.238  -6.752  11.743  1.00  0.00     0.158 A 
HETATM   12  F2  UNL     1      32.923  -7.144  10.606  1.00  0.00    -0.203 F 
HETATM   13  C9  UNL     1      32.863  -7.000  12.936  1.00  0.00     0.090 A 
HETATM   14  C10 UNL     1      32.213  -6.629  14.080  1.00  0.00     0.158 A 
HETATM   15  F3  UNL     1      32.829  -6.877  15.269  1.00  0.00    -0.203 F 
HETATM   16  C11 UNL     1      30.950  -6.011  14.016  1.00  0.00     0.166 A 
HETATM   17  F4  UNL     1      30.444  -5.720  15.225  1.00  0.00    -0.202 F 
ENDBRANCH   7   8
ENDBRANCH   5   7
BRANCH   6  18
HETATM   18  O3  UNL     1      26.889  -6.140  14.215  1.00  0.00    -0.345 OA
ATOM     19  H3  UNL     1      26.903  -6.814  14.885  1.00  0.00     0.219 HD
ENDBRANCH   6  18
BRANCH   1  20
HETATM   20  C2  UNL     1      25.808  -4.520  16.442  1.00  0.00     0.304 C 
HETATM   21  O2  UNL     1      25.930  -4.400  17.678  1.00  0.00    -0.259 OA
BRANCH  20  22
HETATM   22  O1  UNL     1      24.635  -4.965  15.850  1.00  0.00    -0.322 OA
HETATM   23  C1  UNL     1      23.678  -4.038  15.393  1.00  0.00     0.213 C 
ENDBRANCH  20  22
ENDBRANCH   1  20
TORSDOF 5
ENDMDL
MODEL 2
REMARK VINA RESULT: -7.969500951      1.228      1.418
REMARK  5 active torsions:
REMARK  status: ('A' for Active; 'I' for Inactive)
REMARK    1  A    between atoms: O1_2  and  C2_3 
REMARK    2  A    between atoms: C2_3  and  C3_5 
REMARK    3  A    between atoms: N1_9  and  C5_10 
REMARK    4  A    between atoms: C5_10  and  C6_11 
REMARK    5  A    between atoms: C12_21  and  O3_22 
ROOT
HETATM    1  C3  UNL     1      28.546  -3.557  16.393  1.00  0.00     0.134 A 
HETATM    2  S1  UNL     1      29.392  -2.153  15.964  1.00  0.00    -0.050 SA
HETATM    3  C4  UNL     1      29.983  -2.682  14.453  1.00  0.00     0.148 A 
HETATM    4  S2  UNL     1      30.920  -1.725  13.495  1.00  0.00    -0.052 SA
HETATM    5  N1  UNL     1      29.521  -3.916  14.315  1.00  0.00    -0.307 N 
HETATM    6  C12 UNL     1      28.767  -4.376  15.330  1.00  0.00     0.168 A 
ENDROOT
BRANCH   5   7
HETATM    7  C5  UNL     1      29.687  -4.753  13.104  1.00  0.00     0.178 C 
BRANCH   7   8
HETATM    8  C6  UNL     1      30.836  -5.610  13.057  1.00  0.00     0.043 A 
HETATM    9  C7  UNL     1      31.261  -6.117  11.823  1.00  0.00     0.166 A 
HETATM   10  F1  UNL     1      30.521  -5.977  10.676  1.00  0.00    -0.202 F 
HETATM   11  C8  UNL     1      32.383  -6.873  11.683  1.00  0.00     0.158 A 
HETATM   12  F2  UNL     1      32.794  -7.368  10.458  1.00  0.00    -0.203 F 
HETATM   13  C9  UNL     1      33.174  -7.192  12.756  1.00  0.00     0.090 A 
HETATM   14  C10 UNL     1      32.795  -6.722  13.983  1.00  0.00     0.158 A 
HETATM   15  F3  UNL     1      33.575  -7.039  15.052  1.00  0.00    -0.203 F 
HETATM   16  C11 UNL     1      31.635  -5.937  14.120  1.00  0.00     0.166 A 
HETATM   17  F4  UNL     1      31.398  -5.566  15.389  1.00  0.00    -0.202 F 
ENDBRANCH   7   8
ENDBRANCH   5   7
BRANCH   6  18
HETATM   18  O3  UNL     1      28.169  -5.678  15.364  1.00  0.00    -0.345 OA
ATOM     19  H3  UNL     1      28.712  -6.416  15.113  1.00  0.00     0.219 HD
ENDBRANCH   6  18
BRANCH   1  20
HETATM   20  C2  UNL     1      27.746  -3.818  17.625  1.00  0.00     0.304 C 
HETATM   21  O2  UNL     1      28.295  -3.692  18.739  1.00  0.00    -0.259 OA
BRANCH  20  22
HETATM   22  O1  UNL     1      26.418  -4.192  17.489  1.00  0.00    -0.322 OA
HETATM   23  C1  UNL     1      25.539  -3.411  16.714  1.00  0.00     0.213 C 
ENDBRANCH  20  22
ENDBRANCH   1  20
TORSDOF 5
ENDMDL
MODEL 3
REMARK VINA RESULT: -7.860177838      1.016      1.062
REMARK  5 active torsions:
REMARK  status: ('A' for Active; 'I' for Inactive)
REMARK    1  A    between atoms: O1_2  and  C2_3 
REMARK    2  A    between atoms: C2_3  and  C3_5 
REMARK    3  A    between atoms: N1_9  and  C5_10 
REMARK    4  A    between atoms: C5_10  and  C6_11 
REMARK    5  A    between atoms: C12_21  and  O3_22 
ROOT
HETATM    1  C3  UNL     1      27.119  -3.898  16.149  1.00  0.00     0.134 A 
HETATM    2  S1  UNL     1      28.066  -2.669  16.830  1.00  0.00    -0.050 SA
HETATM    3  C4  UNL     1      29.247  -2.569  15.603  1.00  0.00     0.148 A 
HETATM    4  S2  UNL     1      30.504  -1.507  15.681  1.00  0.00    -0.052 SA
HETATM    5  N1  UNL     1      28.891  -3.476  14.705  1.00  0.00    -0.307 N 
HETATM    6  C12 UNL     1      27.775  -4.173  14.989  1.00  0.00     0.168 A 
ENDROOT
BRANCH   5   7
HETATM    7  C5  UNL     1      29.560  -3.688  13.401  1.00  0.00     0.178 C 
BRANCH   7   8
HETATM    8  C6  UNL     1      30.426  -4.825  13.290  1.00  0.00     0.043 A 
HETATM    9  C7  UNL     1      30.483  -5.527  12.080  1.00  0.00     0.166 A 
HETATM   10  F1  UNL     1      29.612  -5.284  11.048  1.00  0.00    -0.202 F 
HETATM   11  C8  UNL     1      31.333  -6.567  11.870  1.00  0.00     0.158 A 
HETATM   12  F2  UNL     1      31.381  -7.252  10.669  1.00  0.00    -0.203 F 
HETATM   13  C9  UNL     1      32.194  -7.001  12.844  1.00  0.00     0.090 A 
HETATM   14  C10 UNL     1      32.171  -6.348  14.045  1.00  0.00     0.158 A 
HETATM   15  F3  UNL     1      33.022  -6.778  15.017  1.00  0.00    -0.203 F 
HETATM   16  C11 UNL     1      31.292  -5.269  14.255  1.00  0.00     0.166 A 
HETATM   17  F4  UNL     1      31.386  -4.746  15.488  1.00  0.00    -0.202 F 
ENDBRANCH   7   8
ENDBRANCH   5   7
BRANCH   6  18
HETATM   18  O3  UNL     1      27.222  -5.187  14.142  1.00  0.00    -0.345 OA
ATOM     19  H3  UNL     1      26.305  -5.407  14.262  1.00  0.00     0.219 HD
ENDBRANCH   6  18
BRANCH   1  20
HETATM   20  C2  UNL     1      25.869  -4.511  16.685  1.00  0.00     0.304 C 
HETATM   21  O2  UNL     1      25.704  -4.563  17.920  1.00  0.00    -0.259 OA
BRANCH  20  22
HETATM   22  O1  UNL     1      24.932  -5.003  15.788  1.00  0.00    -0.322 OA
HETATM   23  C1  UNL     1      23.829  -4.212  15.413  1.00  0.00     0.213 C 
ENDBRANCH  20  22
ENDBRANCH   1  20
TORSDOF 5
ENDMDL
MODEL 4
REMARK VINA RESULT: -7.750086154      5.794      7.695
REMARK  5 active torsions:
REMARK  status: ('A' for Active; 'I' for Inactive)
REMARK    1  A    between atoms: O1_2  and  C2_3 
REMARK    2  A    between atoms: C2_3  and  C3_5 
REMARK    3  A    between atoms: N1_9  and  C5_10 
REMARK    4  A    between atoms: C5_10  and  C6_11 
REMARK    5  A    between atoms: C12_21  and  O3_22 
ROOT
HETATM    1  C3  UNL     1      31.271  -4.642   6.742  1.00  0.00     0.134 A 
HETATM    2  S1  UNL     1      30.237  -3.708   7.705  1.00  0.00    -0.050 SA
HETATM    3  C4  UNL     1      29.940  -4.862   8.927  1.00  0.00     0.148 A 
HETATM    4  S2  UNL     1      28.963  -4.545  10.214  1.00  0.00    -0.052 SA
HETATM    5  N1  UNL     1      30.636  -5.931   8.568  1.00  0.00    -0.307 N 
HETATM    6  C12 UNL     1      31.335  -5.818   7.423  1.00  0.00     0.168 A 
ENDROOT
BRANCH   5   7
HETATM    7  C5  UNL     1      30.774  -7.164   9.378  1.00  0.00     0.178 C 
BRANCH   7   8
HETATM    8  C6  UNL     1      31.760  -7.151  10.419  1.00  0.00     0.043 A 
HETATM    9  C7  UNL     1      31.365  -6.859  11.731  1.00  0.00     0.166 A 
HETATM   10  F1  UNL     1      30.106  -6.408  12.036  1.00  0.00    -0.202 F 
HETATM   11  C8  UNL     1      32.222  -6.901  12.785  1.00  0.00     0.158 A 
HETATM   12  F2  UNL     1      31.820  -6.612  14.077  1.00  0.00    -0.203 F 
HETATM   13  C9  UNL     1      33.543  -7.232  12.627  1.00  0.00     0.090 A 
HETATM   14  C10 UNL     1      33.975  -7.521  11.363  1.00  0.00     0.158 A 
HETATM   15  F3  UNL     1      35.287  -7.846  11.199  1.00  0.00    -0.203 F 
HETATM   16  C11 UNL     1      33.082  -7.480  10.275  1.00  0.00     0.166 A 
HETATM   17  F4  UNL     1      33.665  -7.778   9.103  1.00  0.00    -0.202 F 
ENDBRANCH   7   8
ENDBRANCH   5   7
BRANCH   6  18
HETATM   18  O3  UNL     1      32.155  -6.856   6.874  1.00  0.00    -0.345 OA
ATOM     19  H3  UNL     1      32.903  -7.141   7.387  1.00  0.00     0.219 HD
ENDBRANCH   6  18
BRANCH   1  20
HETATM   20  C2  UNL     1      31.951  -4.260   5.471  1.00  0.00     0.304 C 
HETATM   21  O2  UNL     1      32.602  -3.196   5.431  1.00  0.00    -0.259 OA
BRANCH  20  22
HETATM   22  O1  UNL     1      31.836  -5.103   4.375  1.00  0.00    -0.322 OA
HETATM   23  C1  UNL     1      31.369  -4.603   3.144  1.00  0.00     0.213 C 
ENDBRANCH  20  22
ENDBRANCH   1  20
TORSDOF 5
ENDMDL
MODEL 5
REMARK VINA RESULT: -7.727929143      1.477      1.726
REMARK  5 active torsions:
REMARK  status: ('A' for Active; 'I' for Inactive)
REMARK    1  A    between atoms: O1_2  and  C2_3 
REMARK    2  A    between atoms: C2_3  and  C3_5 
REMARK    3  A    between atoms: N1_9  and  C5_10 
REMARK    4  A    between atoms: C5_10  and  C6_11 
REMARK    5  A    between atoms: C12_21  and  O3_22 
ROOT
HETATM    1  C3  UNL     1      26.194  -4.899  15.000  1.00  0.00     0.134 A 
HETATM    2  S1  UNL     1      26.748  -3.915  16.263  1.00  0.00    -0.050 SA
HETATM    3  C4  UNL     1      28.225  -3.431  15.559  1.00  0.00     0.148 A 
HETATM    4  S2  UNL     1      29.273  -2.419  16.329  1.00  0.00    -0.052 SA
HETATM    5  N1  UNL     1      28.259  -4.033  14.380  1.00  0.00    -0.307 N 
HETATM    6  C12 UNL     1      27.195  -4.803  14.084  1.00  0.00     0.168 A 
ENDROOT
BRANCH   5   7
HETATM    7  C5  UNL     1      29.310  -3.832  13.354  1.00  0.00     0.178 C 
BRANCH   7   8
HETATM    8  C6  UNL     1      30.244  -4.902  13.162  1.00  0.00     0.043 A 
HETATM    9  C7  UNL     1      30.334  -5.514  11.905  1.00  0.00     0.166 A 
HETATM   10  F1  UNL     1      29.441  -5.256  10.897  1.00  0.00    -0.202 F 
HETATM   11  C8  UNL     1      31.246  -6.481  11.620  1.00  0.00     0.158 A 
HETATM   12  F2  UNL     1      31.326  -7.078  10.373  1.00  0.00    -0.203 F 
HETATM   13  C9  UNL     1      32.141  -6.927  12.557  1.00  0.00     0.090 A 
HETATM   14  C10 UNL     1      32.088  -6.361  13.801  1.00  0.00     0.158 A 
HETATM   15  F3  UNL     1      32.973  -6.802  14.737  1.00  0.00    -0.203 F 
HETATM   16  C11 UNL     1      31.144  -5.357  14.089  1.00  0.00     0.166 A 
HETATM   17  F4  UNL     1      31.216  -4.915  15.355  1.00  0.00    -0.202 F 
ENDBRANCH   7   8
ENDBRANCH   5   7
BRANCH   6  18
HETATM   18  O3  UNL     1      27.040  -5.526  12.857  1.00  0.00    -0.345 OA
ATOM     19  H3  UNL     1      26.168  -5.575  12.484  1.00  0.00     0.219 HD
ENDBRANCH   6  18
BRANCH   1  20
HETATM   20  C2  UNL     1      24.918  -5.667  14.914  1.00  0.00     0.304 C 
HETATM   21  O2  UNL     1      23.948  -5.306  15.611  1.00  0.00    -0.259 OA
BRANCH  20  22
HETATM   22  O1  UNL     1      24.855  -6.757  14.059  1.00  0.00    -0.322 OA
HETATM   23  C1  UNL     1      24.189  -7.932  14.459  1.00  0.00     0.213 C 
ENDBRANCH  20  22
ENDBRANCH   1  20
TORSDOF 5
ENDMDL
