MODEL 1
REMARK VINA RESULT: -6.872530660      0.000      0.000
REMARK  6 active torsions:
REMARK  status: ('A' for Active; 'I' for Inactive)
REMARK    1  A    between atoms: C2_2  and  N1_5 
REMARK    2  A    between atoms: C4_6  and  O1_7 
REMARK    3  A    between atoms: N2_10  and  N3_11 
REMARK    4  A    between atoms: C6_13  and  C7_15 
REMARK    5  A    between atoms: C7_15  and  C8_16 
REMARK    6  A    between atoms: C8_16  and  C9_17 
ROOT
HETATM    1  N1  UNL     1      25.572  -3.156  15.868  1.00  0.00    -0.279 N 
HETATM    2  C4  UNL     1      26.294  -3.613  16.905  1.00  0.00     0.164 A 
HETATM    3  C5  UNL     1      27.535  -3.053  16.795  1.00  0.00     0.175 A 
HETATM    4  N2  UNL     1      27.586  -2.246  15.693  1.00  0.00    -0.236 N 
HETATM    5  C10 UNL     1      26.371  -2.327  15.144  1.00  0.00     0.203 A 
HETATM    6  S1  UNL     1      25.847  -1.555  13.799  1.00  0.00    -0.038 SA
ENDROOT
BRANCH   4   7
HETATM    7  N3  UNL     1      28.672  -1.504  15.265  1.00  0.00    -0.285 N 
HETATM    8  C6  UNL     1      29.588  -1.842  14.443  1.00  0.00     0.099 C 
HETATM    9 CL2  UNL     1      30.867  -0.638  14.102  1.00  0.00    -0.068 Cl
ATOM     10  H3  UNL     1      28.751  -0.566  15.657  1.00  0.00     0.188 HD
BRANCH   8  11
HETATM   11  C7  UNL     1      29.716  -3.126  13.756  1.00  0.00     0.101 C 
BRANCH  11  12
HETATM   12  C8  UNL     1      30.728  -4.026  14.311  1.00  0.00     0.017 C 
BRANCH  12  13
HETATM   13  C9  UNL     1      31.125  -5.199  13.960  1.00  0.00     0.100 C 
HETATM   14 CL3  UNL     1      31.934  -6.232  15.163  1.00  0.00    -0.071 Cl
HETATM   15 CL4  UNL     1      30.890  -5.858  12.378  1.00  0.00    -0.071 Cl
ENDBRANCH  12  13
ENDBRANCH  11  12
ENDBRANCH   8  11
ENDBRANCH   4   7
BRANCH   2  16
HETATM   16  O1  UNL     1      25.901  -4.487  17.914  1.00  0.00    -0.345 OA
ATOM     17  H1  UNL     1      26.414  -5.160  18.345  1.00  0.00     0.219 HD
ENDBRANCH   2  16
BRANCH   1  18
HETATM   18  C2  UNL     1      24.204  -3.521  15.634  1.00  0.00     0.111 C 
HETATM   19  C1  UNL     1      23.475  -2.620  14.675  1.00  0.00     0.056 C 
HETATM   20  C3  UNL     1      24.198  -4.936  15.094  1.00  0.00     0.056 C 
HETATM   21 CL1  UNL     1      23.338  -3.507  17.184  1.00  0.00    -0.096 Cl
ENDBRANCH   1  18
TORSDOF 6
ENDMDL
MODEL 2
REMARK VINA RESULT: -6.787925036      3.004      4.266
REMARK  6 active torsions:
REMARK  status: ('A' for Active; 'I' for Inactive)
REMARK    1  A    between atoms: C2_2  and  N1_5 
REMARK    2  A    between atoms: C4_6  and  O1_7 
REMARK    3  A    between atoms: N2_10  and  N3_11 
REMARK    4  A    between atoms: C6_13  and  C7_15 
REMARK    5  A    between atoms: C7_15  and  C8_16 
REMARK    6  A    between atoms: C8_16  and  C9_17 
ROOT
HETATM    1  N1  UNL     1      28.543  -3.693  15.654  1.00  0.00    -0.279 N 
HETATM    2  C4  UNL     1      29.402  -2.958  16.379  1.00  0.00     0.164 A 
HETATM    3  C5  UNL     1      30.546  -3.695  16.497  1.00  0.00     0.175 A 
HETATM    4  N2  UNL     1      30.400  -4.888  15.845  1.00  0.00    -0.236 N 
HETATM    5  C10 UNL     1      29.165  -4.860  15.338  1.00  0.00     0.203 A 
HETATM    6  S1  UNL     1      28.445  -6.026  14.442  1.00  0.00    -0.038 SA
ENDROOT
BRANCH   4   7
HETATM    7  N3  UNL     1      31.349  -5.888  15.737  1.00  0.00    -0.285 N 
HETATM    8  C6  UNL     1      32.007  -6.248  14.704  1.00  0.00     0.099 C 
HETATM    9 CL2  UNL     1      33.170  -7.594  14.902  1.00  0.00    -0.068 Cl
ATOM     10  H3  UNL     1      31.549  -6.404  16.594  1.00  0.00     0.188 HD
BRANCH   8  11
HETATM   11  C7  UNL     1      31.900  -5.686  13.359  1.00  0.00     0.101 C 
BRANCH  11  12
HETATM   12  C8  UNL     1      31.645  -6.663  12.300  1.00  0.00     0.017 C 
BRANCH  12  13
HETATM   13  C9  UNL     1      32.377  -7.101  11.336  1.00  0.00     0.100 C 
HETATM   14 CL3  UNL     1      31.731  -7.067   9.678  1.00  0.00    -0.071 Cl
HETATM   15 CL4  UNL     1      33.986  -7.698  11.549  1.00  0.00    -0.071 Cl
ENDBRANCH  12  13
ENDBRANCH  11  12
ENDBRANCH   8  11
ENDBRANCH   4   7
BRANCH   2  16
HETATM   16  O1  UNL     1      29.210  -1.692  16.925  1.00  0.00    -0.345 OA
ATOM     17  H1  UNL     1      28.792  -1.461  17.746  1.00  0.00     0.219 HD
ENDBRANCH   2  16
BRANCH   1  18
HETATM   18  C2  UNL     1      27.219  -3.256  15.313  1.00  0.00     0.111 C 
HETATM   19  C1  UNL     1      26.613  -3.970  14.135  1.00  0.00     0.056 C 
HETATM   20  C3  UNL     1      26.343  -3.466  16.531  1.00  0.00     0.056 C 
HETATM   21 CL1  UNL     1      27.269  -1.519  14.949  1.00  0.00    -0.096 Cl
ENDBRANCH   1  18
TORSDOF 6
ENDMDL
MODEL 3
REMARK VINA RESULT: -6.632528974      0.994      1.248
REMARK  6 active torsions:
REMARK  status: ('A' for Active; 'I' for Inactive)
REMARK    1  A    between atoms: C2_2  and  N1_5 
REMARK    2  A    between atoms: C4_6  and  O1_7 
REMARK    3  A    between atoms: N2_10  and  N3_11 
REMARK    4  A    between atoms: C6_13  and  C7_15 
REMARK    5  A    between atoms: C7_15  and  C8_16 
REMARK    6  A    between atoms: C8_16  and  C9_17 
ROOT
HETATM    1  N1  UNL     1      25.738  -3.295  15.722  1.00  0.00    -0.279 N 
HETATM    2  C4  UNL     1      26.347  -3.647  16.867  1.00  0.00     0.164 A 
HETATM    3  C5  UNL     1      27.553  -3.006  16.882  1.00  0.00     0.175 A 
HETATM    4  N2  UNL     1      27.696  -2.256  15.748  1.00  0.00    -0.236 N 
HETATM    5  C10 UNL     1      26.571  -2.450  15.056  1.00  0.00     0.203 A 
HETATM    6  S1  UNL     1      26.179  -1.787  13.612  1.00  0.00    -0.038 SA
ENDROOT
BRANCH   4   7
HETATM    7  N3  UNL     1      28.779  -1.462  15.418  1.00  0.00    -0.285 N 
HETATM    8  C6  UNL     1      29.936  -1.826  15.019  1.00  0.00     0.099 C 
HETATM    9 CL2  UNL     1      31.127  -0.536  14.675  1.00  0.00    -0.068 Cl
ATOM     10  H3  UNL     1      28.635  -0.456  15.503  1.00  0.00     0.188 HD
BRANCH   8  11
HETATM   11  C7  UNL     1      30.403  -3.198  14.828  1.00  0.00     0.101 C 
BRANCH  11  12
HETATM   12  C8  UNL     1      30.078  -3.786  13.528  1.00  0.00     0.017 C 
BRANCH  12  13
HETATM   13  C9  UNL     1      29.592  -4.931  13.197  1.00  0.00     0.100 C 
HETATM   14 CL3  UNL     1      30.527  -5.982  12.106  1.00  0.00    -0.071 Cl
HETATM   15 CL4  UNL     1      28.082  -5.538  13.781  1.00  0.00    -0.071 Cl
ENDBRANCH  12  13
ENDBRANCH  11  12
ENDBRANCH   8  11
ENDBRANCH   4   7
BRANCH   2  16
HETATM   16  O1  UNL     1      25.882  -4.493  17.869  1.00  0.00    -0.345 OA
ATOM     17  H1  UNL     1      25.722  -4.293  18.784  1.00  0.00     0.219 HD
ENDBRANCH   2  16
BRANCH   1  18
HETATM   18  C2  UNL     1      24.439  -3.768  15.339  1.00  0.00     0.111 C 
HETATM   19  C1  UNL     1      23.837  -3.050  14.161  1.00  0.00     0.056 C 
HETATM   20  C3  UNL     1      24.569  -5.242  15.014  1.00  0.00     0.056 C 
HETATM   21 CL1  UNL     1      23.339  -3.592  16.722  1.00  0.00    -0.096 Cl
ENDBRANCH   1  18
TORSDOF 6
ENDMDL
MODEL 4
REMARK VINA RESULT: -6.619528652      2.905      3.652
REMARK  6 active torsions:
REMARK  status: ('A' for Active; 'I' for Inactive)
REMARK    1  A    between atoms: C2_2  and  N1_5 
REMARK    2  A    between atoms: C4_6  and  O1_7 
REMARK    3  A    between atoms: N2_10  and  N3_11 
REMARK    4  A    between atoms: C6_13  and  C7_15 
REMARK    5  A    between atoms: C7_15  and  C8_16 
REMARK    6  A    between atoms: C8_16  and  C9_17 
ROOT
HETATM    1  N1  UNL     1      26.901  -4.295  14.951  1.00  0.00    -0.279 N 
HETATM    2  C4  UNL     1      26.726  -5.365  14.158  1.00  0.00     0.164 A 
HETATM    3  C5  UNL     1      27.894  -6.072  14.191  1.00  0.00     0.175 A 
HETATM    4  N2  UNL     1      28.796  -5.443  15.003  1.00  0.00    -0.236 N 
HETATM    5  C10 UNL     1      28.162  -4.359  15.456  1.00  0.00     0.203 A 
HETATM    6  S1  UNL     1      28.755  -3.232  16.485  1.00  0.00    -0.038 SA
ENDROOT
BRANCH   4   7
HETATM    7  N3  UNL     1      30.081  -5.867  15.290  1.00  0.00    -0.285 N 
HETATM    8  C6  UNL     1      31.099  -5.888  14.520  1.00  0.00     0.099 C 
HETATM    9 CL2  UNL     1      32.632  -6.506  15.205  1.00  0.00    -0.068 Cl
ATOM     10  H3  UNL     1      30.235  -6.206  16.240  1.00  0.00     0.188 HD
BRANCH   8  11
HETATM   11  C7  UNL     1      31.144  -5.475  13.119  1.00  0.00     0.101 C 
BRANCH  11  12
HETATM   12  C8  UNL     1      31.175  -6.572  12.151  1.00  0.00     0.017 C 
BRANCH  12  13
HETATM   13  C9  UNL     1      32.096  -6.997  11.358  1.00  0.00     0.100 C 
HETATM   14 CL3  UNL     1      33.651  -7.525  12.047  1.00  0.00    -0.071 Cl
HETATM   15 CL4  UNL     1      31.905  -7.119   9.644  1.00  0.00    -0.071 Cl
ENDBRANCH  12  13
ENDBRANCH  11  12
ENDBRANCH   8  11
ENDBRANCH   4   7
BRANCH   2  16
HETATM   16  O1  UNL     1      25.597  -5.724  13.427  1.00  0.00    -0.345 OA
ATOM     17  H1  UNL     1      25.536  -5.941  12.505  1.00  0.00     0.219 HD
ENDBRANCH   2  16
BRANCH   1  18
HETATM   18  C2  UNL     1      25.889  -3.302  15.177  1.00  0.00     0.111 C 
HETATM   19  C1  UNL     1      24.740  -3.354  14.207  1.00  0.00     0.056 C 
HETATM   20  C3  UNL     1      25.366  -3.499  16.585  1.00  0.00     0.056 C 
HETATM   21 CL1  UNL     1      26.636  -1.695  15.074  1.00  0.00    -0.096 Cl
ENDBRANCH   1  18
TORSDOF 6
ENDMDL
MODEL 5
REMARK VINA RESULT: -6.611679728      2.917      3.898
REMARK  6 active torsions:
REMARK  status: ('A' for Active; 'I' for Inactive)
REMARK    1  A    between atoms: C2_2  and  N1_5 
REMARK    2  A    between atoms: C4_6  and  O1_7 
REMARK    3  A    between atoms: N2_10  and  N3_11 
REMARK    4  A    between atoms: C6_13  and  C7_15 
REMARK    5  A    between atoms: C7_15  and  C8_16 
REMARK    6  A    between atoms: C8_16  and  C9_17 
ROOT
HETATM    1  N1  UNL     1      27.154  -4.262  14.999  1.00  0.00    -0.279 N 
HETATM    2  C4  UNL     1      26.921  -5.351  14.246  1.00  0.00     0.164 A 
HETATM    3  C5  UNL     1      28.066  -6.095  14.270  1.00  0.00     0.175 A 
HETATM    4  N2  UNL     1      29.011  -5.472  15.037  1.00  0.00    -0.236 N 
HETATM    5  C10 UNL     1      28.426  -4.353  15.471  1.00  0.00     0.203 A 
HETATM    6  S1  UNL     1      29.085  -3.215  16.447  1.00  0.00    -0.038 SA
ENDROOT
BRANCH   4   7
HETATM    7  N3  UNL     1      30.289  -5.930  15.302  1.00  0.00    -0.285 N 
HETATM    8  C6  UNL     1      31.281  -6.018  14.502  1.00  0.00     0.099 C 
HETATM    9 CL2  UNL     1      32.813  -6.662  15.166  1.00  0.00    -0.068 Cl
ATOM     10  H3  UNL     1      30.462  -6.235  16.259  1.00  0.00     0.188 HD
BRANCH   8  11
HETATM   11  C7  UNL     1      31.295  -5.663  13.085  1.00  0.00     0.101 C 
BRANCH  11  12
HETATM   12  C8  UNL     1      31.455  -6.792  12.167  1.00  0.00     0.017 C 
BRANCH  12  13
HETATM   13  C9  UNL     1      32.430  -7.156  11.410  1.00  0.00     0.100 C 
HETATM   14 CL3  UNL     1      32.187  -7.192   9.646  1.00  0.00    -0.071 Cl
HETATM   15 CL4  UNL     1      33.996  -7.588  12.003  1.00  0.00    -0.071 Cl
ENDBRANCH  12  13
ENDBRANCH  11  12
ENDBRANCH   8  11
ENDBRANCH   4   7
BRANCH   2  16
HETATM   16  O1  UNL     1      25.761  -5.695  13.559  1.00  0.00    -0.345 OA
ATOM     17  H1  UNL     1      25.587  -6.478  13.051  1.00  0.00     0.219 HD
ENDBRANCH   2  16
BRANCH   1  18
HETATM   18  C2  UNL     1      26.182  -3.230  15.221  1.00  0.00     0.111 C 
HETATM   19  C1  UNL     1      26.380  -2.451  16.492  1.00  0.00     0.056 C 
HETATM   20  C3  UNL     1      26.245  -2.286  14.038  1.00  0.00     0.056 C 
HETATM   21 CL1  UNL     1      24.568  -3.970  15.264  1.00  0.00    -0.096 Cl
ENDBRANCH   1  18
TORSDOF 6
ENDMDL
