MODEL 1
REMARK VINA RESULT: -6.252620237      0.000      0.000
REMARK  13 active torsions:
REMARK  status: ('A' for Active; 'I' for Inactive)
REMARK    1  A    between atoms: C2_2  and  O1_3 
REMARK    2  A    between atoms: O1_3  and  C3_4 
REMARK    3  A    between atoms: C3_4  and  C4_5 
REMARK    4  A    between atoms: C4_5  and  O2_6 
REMARK    5  A    between atoms: O2_6  and  C5_7 
REMARK    6  A    between atoms: C5_7  and  C6_8 
REMARK    7  A    between atoms: C6_8  and  O3_9 
REMARK    8  A    between atoms: O3_9  and  C7_10 
REMARK    9  A    between atoms: C7_10  and  C8_11 
REMARK       I    between atoms: C8_11  and  N1_13 
REMARK   10  A    between atoms: N1_13  and  C9_15 
REMARK   11  A    between atoms: C12_18  and  N2_19 
REMARK   12  A    between atoms: N2_19  and  N3_21 
REMARK   13  A    between atoms: C17_29  and  C18_30 
ROOT
HETATM    1  N3  UNL     1     -26.829  14.617 -18.225  1.00  0.00    -0.282 N 
ATOM      2  H3  UNL     1     -25.995  15.195 -18.125  1.00  0.00     0.188 HD
HETATM    3  C13 UNL     1     -27.148  14.148 -19.402  1.00  0.00     0.209 C 
HETATM    4  C14 UNL     1     -26.354  14.426 -20.558  1.00  0.00     0.130 C 
HETATM    5  N4  UNL     1     -25.700  14.648 -21.505  1.00  0.00    -0.189 NA
HETATM    6  C15 UNL     1     -28.324  13.339 -19.521  1.00  0.00     0.130 C 
HETATM    7  N5  UNL     1     -29.290  12.687 -19.632  1.00  0.00    -0.189 NA
ENDROOT
BRANCH   1   8
HETATM    8  N2  UNL     1     -27.607  14.341 -17.107  1.00  0.00    -0.299 N 
ATOM      9  H2  UNL     1     -28.538  14.753 -17.040  1.00  0.00     0.187 HD
BRANCH   8  10
HETATM   10  C12 UNL     1     -27.144  13.497 -16.047  1.00  0.00     0.049 A 
HETATM   11  C11 UNL     1     -28.006  12.707 -15.330  1.00  0.00     0.033 A 
HETATM   12  C10 UNL     1     -27.525  11.887 -14.295  1.00  0.00     0.033 A 
HETATM   13  C9  UNL     1     -26.188  11.856 -13.974  1.00  0.00     0.050 A 
HETATM   14  C17 UNL     1     -25.328  12.662 -14.708  1.00  0.00     0.058 A 
HETATM   15  C16 UNL     1     -25.812  13.479 -15.743  1.00  0.00     0.050 A 
BRANCH  13  16
HETATM   16  N1  UNL     1     -25.692  10.966 -13.003  1.00  0.00    -0.324 N 
HETATM   17  C8  UNL     1     -25.220   9.677 -13.274  1.00  0.00     0.245 C 
HETATM   18  O4  UNL     1     -25.186   9.155 -14.377  1.00  0.00    -0.271 OA
ATOM     19  H1  UNL     1     -25.674  11.283 -12.033  1.00  0.00     0.169 HD
BRANCH  17  20
HETATM   20  C7  UNL     1     -24.704   8.838 -12.128  1.00  0.00     0.270 C 
BRANCH  20  21
HETATM   21  O3  UNL     1     -24.363   7.612 -12.654  1.00  0.00    -0.380 OA
BRANCH  21  22
HETATM   22  C6  UNL     1     -24.644   6.530 -11.870  1.00  0.00     0.194 C 
BRANCH  22  23
HETATM   23  C5  UNL     1     -25.208   6.919 -10.545  1.00  0.00     0.193 C 
BRANCH  23  24
HETATM   24  O2  UNL     1     -26.017   6.012 -10.005  1.00  0.00    -0.387 OA
BRANCH  24  25
HETATM   25  C4  UNL     1     -27.192   6.249  -9.414  1.00  0.00     0.193 C 
BRANCH  25  26
HETATM   26  C3  UNL     1     -27.904   7.318 -10.273  1.00  0.00     0.193 C 
BRANCH  26  27
HETATM   27  O1  UNL     1     -28.853   6.819 -11.102  1.00  0.00    -0.389 OA
BRANCH  27  28
HETATM   28  C2  UNL     1     -29.294   7.662 -12.087  1.00  0.00     0.163 C 
HETATM   29  C1  UNL     1     -28.259   7.588 -13.221  1.00  0.00     0.033 C 
ENDBRANCH  27  28
ENDBRANCH  26  27
ENDBRANCH  25  26
ENDBRANCH  24  25
ENDBRANCH  23  24
ENDBRANCH  22  23
ENDBRANCH  21  22
ENDBRANCH  20  21
ENDBRANCH  17  20
ENDBRANCH  13  16
BRANCH  14  30
HETATM   30  C18 UNL     1     -23.908  12.783 -14.432  1.00  0.00     0.267 C 
HETATM   31  N6  UNL     1     -23.376  14.088 -14.097  1.00  0.00    -0.057 NA
HETATM   32  O5  UNL     1     -23.070  11.864 -14.453  1.00  0.00    -0.271 OA
ENDBRANCH  14  30
ENDBRANCH   8  10
ENDBRANCH   1   8
TORSDOF 13
ENDMDL
MODEL 2
REMARK VINA RESULT: -6.056347320      1.005      1.070
REMARK  13 active torsions:
REMARK  status: ('A' for Active; 'I' for Inactive)
REMARK    1  A    between atoms: C2_2  and  O1_3 
REMARK    2  A    between atoms: O1_3  and  C3_4 
REMARK    3  A    between atoms: C3_4  and  C4_5 
REMARK    4  A    between atoms: C4_5  and  O2_6 
REMARK    5  A    between atoms: O2_6  and  C5_7 
REMARK    6  A    between atoms: C5_7  and  C6_8 
REMARK    7  A    between atoms: C6_8  and  O3_9 
REMARK    8  A    between atoms: O3_9  and  C7_10 
REMARK    9  A    between atoms: C7_10  and  C8_11 
REMARK       I    between atoms: C8_11  and  N1_13 
REMARK   10  A    between atoms: N1_13  and  C9_15 
REMARK   11  A    between atoms: C12_18  and  N2_19 
REMARK   12  A    between atoms: N2_19  and  N3_21 
REMARK   13  A    between atoms: C17_29  and  C18_30 
ROOT
HETATM    1  N3  UNL     1     -26.765  14.934 -18.632  1.00  0.00    -0.282 N 
ATOM      2  H3  UNL     1     -25.968  15.570 -18.612  1.00  0.00     0.188 HD
HETATM    3  C13 UNL     1     -27.020  14.259 -19.721  1.00  0.00     0.209 C 
HETATM    4  C14 UNL     1     -26.206  14.389 -20.890  1.00  0.00     0.130 C 
HETATM    5  N4  UNL     1     -25.536  14.491 -21.846  1.00  0.00    -0.189 NA
HETATM    6  C15 UNL     1     -28.143  13.371 -19.729  1.00  0.00     0.130 C 
HETATM    7  N5  UNL     1     -29.067  12.652 -19.750  1.00  0.00    -0.189 NA
ENDROOT
BRANCH   1   8
HETATM    8  N2  UNL     1     -27.561  14.800 -17.501  1.00  0.00    -0.299 N 
ATOM      9  H2  UNL     1     -28.455  15.290 -17.466  1.00  0.00     0.187 HD
BRANCH   8  10
HETATM   10  C12 UNL     1     -27.166  13.997 -16.383  1.00  0.00     0.049 A 
HETATM   11  C11 UNL     1     -28.010  13.062 -15.838  1.00  0.00     0.033 A 
HETATM   12  C10 UNL     1     -27.597  12.286 -14.742  1.00  0.00     0.033 A 
HETATM   13  C9  UNL     1     -26.348  12.441 -14.189  1.00  0.00     0.050 A 
HETATM   14  C17 UNL     1     -25.506  13.391 -14.751  1.00  0.00     0.058 A 
HETATM   15  C16 UNL     1     -25.921  14.165 -15.848  1.00  0.00     0.050 A 
BRANCH  13  16
HETATM   16  N1  UNL     1     -25.898  11.600 -13.154  1.00  0.00    -0.324 N 
HETATM   17  C8  UNL     1     -25.365  10.321 -13.345  1.00  0.00     0.245 C 
HETATM   18  O4  UNL     1     -25.230   9.766 -14.423  1.00  0.00    -0.271 OA
ATOM     19  H1  UNL     1     -25.965  11.948 -12.197  1.00  0.00     0.169 HD
BRANCH  17  20
HETATM   20  C7  UNL     1     -24.911   9.537 -12.135  1.00  0.00     0.270 C 
BRANCH  20  21
HETATM   21  O3  UNL     1     -24.928   8.207 -12.492  1.00  0.00    -0.380 OA
BRANCH  21  22
HETATM   22  C6  UNL     1     -24.267   7.357 -11.652  1.00  0.00     0.194 C 
BRANCH  22  23
HETATM   23  C5  UNL     1     -25.094   6.965 -10.475  1.00  0.00     0.193 C 
BRANCH  23  24
HETATM   24  O2  UNL     1     -26.329   6.575 -10.776  1.00  0.00    -0.387 OA
BRANCH  24  25
HETATM   25  C4  UNL     1     -27.457   6.988 -10.191  1.00  0.00     0.193 C 
BRANCH  25  26
HETATM   26  C3  UNL     1     -28.326   7.609 -11.308  1.00  0.00     0.193 C 
BRANCH  26  27
HETATM   27  O1  UNL     1     -28.000   7.196 -12.557  1.00  0.00    -0.389 OA
BRANCH  27  28
HETATM   28  C2  UNL     1     -28.335   8.046 -13.578  1.00  0.00     0.163 C 
HETATM   29  C1  UNL     1     -28.996   9.271 -12.928  1.00  0.00     0.033 C 
ENDBRANCH  27  28
ENDBRANCH  26  27
ENDBRANCH  25  26
ENDBRANCH  24  25
ENDBRANCH  23  24
ENDBRANCH  22  23
ENDBRANCH  21  22
ENDBRANCH  20  21
ENDBRANCH  17  20
ENDBRANCH  13  16
BRANCH  14  30
HETATM   30  C18 UNL     1     -24.190  13.712 -14.226  1.00  0.00     0.267 C 
HETATM   31  N6  UNL     1     -23.149  12.709 -14.306  1.00  0.00    -0.057 NA
HETATM   32  O5  UNL     1     -23.847  14.785 -13.697  1.00  0.00    -0.271 OA
ENDBRANCH  14  30
ENDBRANCH   8  10
ENDBRANCH   1   8
TORSDOF 13
ENDMDL
MODEL 3
REMARK VINA RESULT: -5.950546756      1.288      2.257
REMARK  13 active torsions:
REMARK  status: ('A' for Active; 'I' for Inactive)
REMARK    1  A    between atoms: C2_2  and  O1_3 
REMARK    2  A    between atoms: O1_3  and  C3_4 
REMARK    3  A    between atoms: C3_4  and  C4_5 
REMARK    4  A    between atoms: C4_5  and  O2_6 
REMARK    5  A    between atoms: O2_6  and  C5_7 
REMARK    6  A    between atoms: C5_7  and  C6_8 
REMARK    7  A    between atoms: C6_8  and  O3_9 
REMARK    8  A    between atoms: O3_9  and  C7_10 
REMARK    9  A    between atoms: C7_10  and  C8_11 
REMARK       I    between atoms: C8_11  and  N1_13 
REMARK   10  A    between atoms: N1_13  and  C9_15 
REMARK   11  A    between atoms: C12_18  and  N2_19 
REMARK   12  A    between atoms: N2_19  and  N3_21 
REMARK   13  A    between atoms: C17_29  and  C18_30 
ROOT
HETATM    1  N3  UNL     1     -26.796  14.910 -18.573  1.00  0.00    -0.282 N 
ATOM      2  H3  UNL     1     -26.007  15.556 -18.546  1.00  0.00     0.188 HD
HETATM    3  C13 UNL     1     -27.058  14.262 -19.677  1.00  0.00     0.209 C 
HETATM    4  C14 UNL     1     -26.263  14.436 -20.853  1.00  0.00     0.130 C 
HETATM    5  N4  UNL     1     -25.609  14.573 -21.815  1.00  0.00    -0.189 NA
HETATM    6  C15 UNL     1     -28.171  13.361 -19.694  1.00  0.00     0.130 C 
HETATM    7  N5  UNL     1     -29.085  12.631 -19.723  1.00  0.00    -0.189 NA
ENDROOT
BRANCH   1   8
HETATM    8  N2  UNL     1     -27.574  14.734 -17.435  1.00  0.00    -0.299 N 
ATOM      9  H2  UNL     1     -28.439  15.266 -17.342  1.00  0.00     0.187 HD
BRANCH   8  10
HETATM   10  C12 UNL     1     -27.199  13.831 -16.390  1.00  0.00     0.049 A 
HETATM   11  C11 UNL     1     -25.892  13.687 -16.000  1.00  0.00     0.033 A 
HETATM   12  C10 UNL     1     -25.552  12.794 -14.969  1.00  0.00     0.033 A 
HETATM   13  C9  UNL     1     -26.511  12.045 -14.330  1.00  0.00     0.050 A 
HETATM   14  C17 UNL     1     -27.830  12.201 -14.737  1.00  0.00     0.058 A 
HETATM   15  C16 UNL     1     -28.167  13.096 -15.766  1.00  0.00     0.050 A 
BRANCH  13  16
HETATM   16  N1  UNL     1     -26.186  11.222 -13.235  1.00  0.00    -0.324 N 
HETATM   17  C8  UNL     1     -25.432  10.047 -13.323  1.00  0.00     0.245 C 
HETATM   18  O4  UNL     1     -24.970   9.579 -14.351  1.00  0.00    -0.271 OA
ATOM     19  H1  UNL     1     -26.523  11.502 -12.314  1.00  0.00     0.169 HD
BRANCH  17  20
HETATM   20  C7  UNL     1     -25.151   9.271 -12.057  1.00  0.00     0.270 C 
BRANCH  20  21
HETATM   21  O3  UNL     1     -24.962   7.958 -12.428  1.00  0.00    -0.380 OA
BRANCH  21  22
HETATM   22  C6  UNL     1     -24.531   7.117 -11.442  1.00  0.00     0.194 C 
BRANCH  22  23
HETATM   23  C5  UNL     1     -24.866   7.621 -10.078  1.00  0.00     0.193 C 
BRANCH  23  24
HETATM   24  O2  UNL     1     -25.907   7.018  -9.511  1.00  0.00    -0.387 OA
BRANCH  24  25
HETATM   25  C4  UNL     1     -27.045   7.598  -9.121  1.00  0.00     0.193 C 
BRANCH  25  26
HETATM   26  C3  UNL     1     -28.179   6.911  -9.914  1.00  0.00     0.193 C 
BRANCH  26  27
HETATM   27  O1  UNL     1     -28.004   6.930 -11.258  1.00  0.00    -0.389 OA
BRANCH  27  28
HETATM   28  C2  UNL     1     -28.688   7.901 -11.940  1.00  0.00     0.163 C 
HETATM   29  C1  UNL     1     -28.309   7.745 -13.420  1.00  0.00     0.033 C 
ENDBRANCH  27  28
ENDBRANCH  26  27
ENDBRANCH  25  26
ENDBRANCH  24  25
ENDBRANCH  23  24
ENDBRANCH  22  23
ENDBRANCH  21  22
ENDBRANCH  20  21
ENDBRANCH  17  20
ENDBRANCH  13  16
BRANCH  14  30
HETATM   30  C18 UNL     1     -28.934  11.424 -14.202  1.00  0.00     0.267 C 
HETATM   31  N6  UNL     1     -29.182  11.461 -12.776  1.00  0.00    -0.057 NA
HETATM   32  O5  UNL     1     -29.714  10.705 -14.852  1.00  0.00    -0.271 OA
ENDBRANCH  14  30
ENDBRANCH   8  10
ENDBRANCH   1   8
TORSDOF 13
ENDMDL
MODEL 4
REMARK VINA RESULT: -5.922838124      0.946      1.304
REMARK  13 active torsions:
REMARK  status: ('A' for Active; 'I' for Inactive)
REMARK    1  A    between atoms: C2_2  and  O1_3 
REMARK    2  A    between atoms: O1_3  and  C3_4 
REMARK    3  A    between atoms: C3_4  and  C4_5 
REMARK    4  A    between atoms: C4_5  and  O2_6 
REMARK    5  A    between atoms: O2_6  and  C5_7 
REMARK    6  A    between atoms: C5_7  and  C6_8 
REMARK    7  A    between atoms: C6_8  and  O3_9 
REMARK    8  A    between atoms: O3_9  and  C7_10 
REMARK    9  A    between atoms: C7_10  and  C8_11 
REMARK       I    between atoms: C8_11  and  N1_13 
REMARK   10  A    between atoms: N1_13  and  C9_15 
REMARK   11  A    between atoms: C12_18  and  N2_19 
REMARK   12  A    between atoms: N2_19  and  N3_21 
REMARK   13  A    between atoms: C17_29  and  C18_30 
ROOT
HETATM    1  N3  UNL     1     -26.901  14.629 -18.011  1.00  0.00    -0.282 N 
ATOM      2  H3  UNL     1     -26.093  15.242 -17.906  1.00  0.00     0.188 HD
HETATM    3  C13 UNL     1     -27.228  14.196 -19.199  1.00  0.00     0.209 C 
HETATM    4  C14 UNL     1     -26.479  14.561 -20.361  1.00  0.00     0.130 C 
HETATM    5  N4  UNL     1     -25.862  14.855 -21.313  1.00  0.00    -0.189 NA
HETATM    6  C15 UNL     1     -28.367  13.337 -19.325  1.00  0.00     0.130 C 
HETATM    7  N5  UNL     1     -29.304  12.644 -19.441  1.00  0.00    -0.189 NA
ENDROOT
BRANCH   1   8
HETATM    8  N2  UNL     1     -27.635  14.269 -16.888  1.00  0.00    -0.299 N 
ATOM      9  H2  UNL     1     -28.587  14.623 -16.785  1.00  0.00     0.187 HD
BRANCH   8  10
HETATM   10  C12 UNL     1     -27.100  13.416 -15.870  1.00  0.00     0.049 A 
HETATM   11  C11 UNL     1     -27.903  12.573 -15.144  1.00  0.00     0.033 A 
HETATM   12  C10 UNL     1     -27.352  11.745 -14.151  1.00  0.00     0.033 A 
HETATM   13  C9  UNL     1     -26.004  11.758 -13.881  1.00  0.00     0.050 A 
HETATM   14  C17 UNL     1     -25.204  12.616 -14.623  1.00  0.00     0.058 A 
HETATM   15  C16 UNL     1     -25.758  13.442 -15.617  1.00  0.00     0.050 A 
BRANCH  13  16
HETATM   16  N1  UNL     1     -25.436  10.862 -12.955  1.00  0.00    -0.324 N 
HETATM   17  C8  UNL     1     -24.954   9.589 -13.275  1.00  0.00     0.245 C 
HETATM   18  O4  UNL     1     -24.969   9.087 -14.388  1.00  0.00    -0.271 OA
ATOM     19  H1  UNL     1     -25.373  11.163 -11.982  1.00  0.00     0.169 HD
BRANCH  17  20
HETATM   20  C7  UNL     1     -24.358   8.742 -12.174  1.00  0.00     0.270 C 
BRANCH  20  21
HETATM   21  O3  UNL     1     -24.759   7.446 -12.408  1.00  0.00    -0.380 OA
BRANCH  21  22
HETATM   22  C6  UNL     1     -24.912   6.661 -11.300  1.00  0.00     0.194 C 
BRANCH  22  23
HETATM   23  C5  UNL     1     -26.069   7.084 -10.459  1.00  0.00     0.193 C 
BRANCH  23  24
HETATM   24  O2  UNL     1     -27.252   6.970 -11.056  1.00  0.00    -0.387 OA
BRANCH  24  25
HETATM   25  C4  UNL     1     -28.134   7.952 -11.264  1.00  0.00     0.193 C 
BRANCH  25  26
HETATM   26  C3  UNL     1     -29.230   7.365 -12.182  1.00  0.00     0.193 C 
BRANCH  26  27
HETATM   27  O1  UNL     1     -30.474   7.392 -11.645  1.00  0.00    -0.389 OA
BRANCH  27  28
HETATM   28  C2  UNL     1     -30.973   8.632 -11.343  1.00  0.00     0.163 C 
HETATM   29  C1  UNL     1     -32.477   8.447 -11.087  1.00  0.00     0.033 C 
ENDBRANCH  27  28
ENDBRANCH  26  27
ENDBRANCH  25  26
ENDBRANCH  24  25
ENDBRANCH  23  24
ENDBRANCH  22  23
ENDBRANCH  21  22
ENDBRANCH  20  21
ENDBRANCH  17  20
ENDBRANCH  13  16
BRANCH  14  30
HETATM   30  C18 UNL     1     -23.779  12.786 -14.397  1.00  0.00     0.267 C 
HETATM   31  N6  UNL     1     -23.272  14.118 -14.142  1.00  0.00    -0.057 NA
HETATM   32  O5  UNL     1     -22.919  11.888 -14.400  1.00  0.00    -0.271 OA
ENDBRANCH  14  30
ENDBRANCH   8  10
ENDBRANCH   1   8
TORSDOF 13
ENDMDL
MODEL 5
REMARK VINA RESULT: -5.911781670      1.805      2.580
REMARK  13 active torsions:
REMARK  status: ('A' for Active; 'I' for Inactive)
REMARK    1  A    between atoms: C2_2  and  O1_3 
REMARK    2  A    between atoms: O1_3  and  C3_4 
REMARK    3  A    between atoms: C3_4  and  C4_5 
REMARK    4  A    between atoms: C4_5  and  O2_6 
REMARK    5  A    between atoms: O2_6  and  C5_7 
REMARK    6  A    between atoms: C5_7  and  C6_8 
REMARK    7  A    between atoms: C6_8  and  O3_9 
REMARK    8  A    between atoms: O3_9  and  C7_10 
REMARK    9  A    between atoms: C7_10  and  C8_11 
REMARK       I    between atoms: C8_11  and  N1_13 
REMARK   10  A    between atoms: N1_13  and  C9_15 
REMARK   11  A    between atoms: C12_18  and  N2_19 
REMARK   12  A    between atoms: N2_19  and  N3_21 
REMARK   13  A    between atoms: C17_29  and  C18_30 
ROOT
HETATM    1  N3  UNL     1     -26.571  14.879 -18.898  1.00  0.00    -0.282 N 
ATOM      2  H3  UNL     1     -25.774  15.513 -18.949  1.00  0.00     0.188 HD
HETATM    3  C13 UNL     1     -26.945  14.229 -19.968  1.00  0.00     0.209 C 
HETATM    4  C14 UNL     1     -26.261  14.384 -21.214  1.00  0.00     0.130 C 
HETATM    5  N4  UNL     1     -25.698  14.506 -22.235  1.00  0.00    -0.189 NA
HETATM    6  C15 UNL     1     -28.067  13.344 -19.875  1.00  0.00     0.130 C 
HETATM    7  N5  UNL     1     -28.991  12.627 -19.812  1.00  0.00    -0.189 NA
ENDROOT
BRANCH   1   8
HETATM    8  N2  UNL     1     -27.241  14.720 -17.691  1.00  0.00    -0.299 N 
ATOM      9  H2  UNL     1     -28.221  15.000 -17.630  1.00  0.00     0.187 HD
BRANCH   8  10
HETATM   10  C12 UNL     1     -26.601  14.178 -16.531  1.00  0.00     0.049 A 
HETATM   11  C11 UNL     1     -26.556  12.826 -16.302  1.00  0.00     0.033 A 
HETATM   12  C10 UNL     1     -25.920  12.320 -15.156  1.00  0.00     0.033 A 
HETATM   13  C9  UNL     1     -25.333  13.158 -14.238  1.00  0.00     0.050 A 
HETATM   14  C17 UNL     1     -25.389  14.524 -14.482  1.00  0.00     0.058 A 
HETATM   15  C16 UNL     1     -26.024  15.027 -15.630  1.00  0.00     0.050 A 
BRANCH  13  16
HETATM   16  N1  UNL     1     -24.615  12.650 -13.139  1.00  0.00    -0.324 N 
HETATM   17  C8  UNL     1     -23.358  12.042 -13.226  1.00  0.00     0.245 C 
HETATM   18  O4  UNL     1     -22.728  11.865 -14.256  1.00  0.00    -0.271 OA
ATOM     19  H1  UNL     1     -25.040  12.731 -12.216  1.00  0.00     0.169 HD
BRANCH  17  20
HETATM   20  C7  UNL     1     -22.700  11.554 -11.955  1.00  0.00     0.270 C 
BRANCH  20  21
HETATM   21  O3  UNL     1     -23.485  10.534 -11.467  1.00  0.00    -0.380 OA
BRANCH  21  22
HETATM   22  C6  UNL     1     -22.892   9.305 -11.402  1.00  0.00     0.194 C 
BRANCH  22  23
HETATM   23  C5  UNL     1     -23.700   8.248 -12.076  1.00  0.00     0.193 C 
BRANCH  23  24
HETATM   24  O2  UNL     1     -24.126   8.574 -13.293  1.00  0.00    -0.387 OA
BRANCH  24  25
HETATM   25  C4  UNL     1     -25.396   8.738 -13.672  1.00  0.00     0.193 C 
BRANCH  25  26
HETATM   26  C3  UNL     1     -26.267   8.354 -12.455  1.00  0.00     0.193 C 
BRANCH  26  27
HETATM   27  O1  UNL     1     -27.133   7.340 -12.692  1.00  0.00    -0.389 OA
BRANCH  27  28
HETATM   28  C2  UNL     1     -28.338   7.693 -13.239  1.00  0.00     0.163 C 
HETATM   29  C1  UNL     1     -29.412   7.330 -12.202  1.00  0.00     0.033 C 
ENDBRANCH  27  28
ENDBRANCH  26  27
ENDBRANCH  25  26
ENDBRANCH  24  25
ENDBRANCH  23  24
ENDBRANCH  22  23
ENDBRANCH  21  22
ENDBRANCH  20  21
ENDBRANCH  17  20
ENDBRANCH  13  16
BRANCH  14  30
HETATM   30  C18 UNL     1     -24.877  15.527 -13.564  1.00  0.00     0.267 C 
HETATM   31  N6  UNL     1     -23.444  15.635 -13.384  1.00  0.00    -0.057 NA
HETATM   32  O5  UNL     1     -25.552  16.328 -12.894  1.00  0.00    -0.271 OA
ENDBRANCH  14  30
ENDBRANCH   8  10
ENDBRANCH   1   8
TORSDOF 13
ENDMDL
