MODEL 1
REMARK VINA RESULT: -7.019122987      0.000      0.000
REMARK  9 active torsions:
REMARK  status: ('A' for Active; 'I' for Inactive)
REMARK       I    between atoms: C2_2  and  N1_4 
REMARK    1  A    between atoms: N1_4  and  C3_6 
REMARK    2  A    between atoms: C3_6  and  C4_7 
REMARK    3  A    between atoms: C5_11  and  N3_12 
REMARK    4  A    between atoms: N3_12  and  S1_14 
REMARK    5  A    between atoms: S1_14  and  C6_17 
REMARK    6  A    between atoms: C7_18  and  O4_19 
REMARK    7  A    between atoms: O4_19  and  C8_20 
REMARK    8  A    between atoms: C10_23  and  N4_24 
REMARK       I    between atoms: N4_24  and  C11_26 
REMARK    9  A    between atoms: C13_32  and  O7_33 
ROOT
HETATM    1  C4  UNL     1      -8.907  17.833 -14.708  1.00  0.00     0.262 C 
HETATM    2  N2  UNL     1      -7.521  17.469 -15.091  1.00  0.00    -0.040 N 
ATOM      3  H21 UNL     1      -6.823  18.103 -14.703  1.00  0.00     0.280 HD
ATOM      4  H22 UNL     1      -7.324  17.640 -16.077  1.00  0.00     0.280 HD
HETATM    5  C5  UNL     1      -7.309  16.121 -14.715  1.00  0.00     0.344 C 
HETATM    6  C10 UNL     1      -7.694  15.813 -13.297  1.00  0.00     0.340 C 
HETATM    7  N5  UNL     1      -8.864  16.406 -12.805  1.00  0.00    -0.022 N 
ATOM      8  H51 UNL     1      -8.928  16.322 -11.792  1.00  0.00     0.282 HD
ATOM      9  H52 UNL     1      -9.692  15.867 -13.061  1.00  0.00     0.282 HD
HETATM   10  C13 UNL     1      -8.977  17.822 -13.244  1.00  0.00     0.353 C 
ENDROOT
BRANCH   5  11
HETATM   11  N3  UNL     1      -7.978  15.229 -15.602  1.00  0.00    -0.283 N 
ATOM     12  H3  UNL     1      -8.657  14.528 -15.303  1.00  0.00     0.174 HD
BRANCH  11  13
HETATM   13  S1  UNL     1      -7.498  15.476 -17.256  1.00  0.00     0.252 S 
HETATM   14  O2  UNL     1      -6.144  16.096 -17.332  1.00  0.00    -0.201 OA
HETATM   15  O3  UNL     1      -8.464  16.355 -17.974  1.00  0.00    -0.201 OA
BRANCH  13  16
HETATM   16  C6  UNL     1      -7.421  13.894 -18.000  1.00  0.00     0.155 C 
HETATM   17  C7  UNL     1      -7.229  12.819 -17.234  1.00  0.00     0.159 C 
BRANCH  17  18
HETATM   18  O4  UNL     1      -7.172  11.597 -17.843  1.00  0.00    -0.291 OA
BRANCH  18  19
HETATM   19  C8  UNL     1      -8.271  10.738 -17.880  1.00  0.00     0.259 C 
HETATM   20  C9  UNL     1      -9.504  11.077 -17.099  1.00  0.00     0.126 C 
HETATM   21  O5  UNL     1      -8.172   9.710 -18.575  1.00  0.00    -0.265 OA
ENDBRANCH  18  19
ENDBRANCH  17  18
ENDBRANCH  13  16
ENDBRANCH  11  13
ENDBRANCH   5  11
BRANCH   6  22
HETATM   22  N4  UNL     1      -6.604  16.010 -12.356  1.00  0.00    -0.330 N 
HETATM   23  C11 UNL     1      -6.710  15.651 -10.997  1.00  0.00     0.215 C 
HETATM   24  C12 UNL     1      -5.570  15.877 -10.092  1.00  0.00     0.117 C 
HETATM   25  O6  UNL     1      -7.764  15.143 -10.552  1.00  0.00    -0.274 OA
ATOM     26  H4  UNL     1      -5.732  16.423 -12.690  1.00  0.00     0.164 HD
ENDBRANCH   6  22
BRANCH   1  27
HETATM   27  C3  UNL     1      -9.354  18.999 -15.455  1.00  0.00     0.160 C 
BRANCH  27  28
HETATM   28  N1  UNL     1      -8.805  20.259 -15.129  1.00  0.00    -0.359 N 
HETATM   29  C2  UNL     1      -7.544  20.798 -15.289  1.00  0.00     0.213 C 
HETATM   30  C1  UNL     1      -7.280  22.201 -14.774  1.00  0.00     0.117 C 
HETATM   31  O1  UNL     1      -6.579  20.244 -15.822  1.00  0.00    -0.274 OA
ATOM     32  H1  UNL     1      -9.470  20.895 -14.689  1.00  0.00     0.162 HD
ENDBRANCH  27  28
ENDBRANCH   1  27
BRANCH  10  33
HETATM   33  O7  UNL     1      -7.991  18.578 -12.649  1.00  0.00    -0.368 OA
ATOM     34  H7  UNL     1      -8.236  18.903 -11.791  1.00  0.00     0.212 HD
ENDBRANCH  10  33
TORSDOF 9
ENDMDL
MODEL 2
REMARK VINA RESULT: -6.810695739      1.970      2.283
REMARK  9 active torsions:
REMARK  status: ('A' for Active; 'I' for Inactive)
REMARK       I    between atoms: C2_2  and  N1_4 
REMARK    1  A    between atoms: N1_4  and  C3_6 
REMARK    2  A    between atoms: C3_6  and  C4_7 
REMARK    3  A    between atoms: C5_11  and  N3_12 
REMARK    4  A    between atoms: N3_12  and  S1_14 
REMARK    5  A    between atoms: S1_14  and  C6_17 
REMARK    6  A    between atoms: C7_18  and  O4_19 
REMARK    7  A    between atoms: O4_19  and  C8_20 
REMARK    8  A    between atoms: C10_23  and  N4_24 
REMARK       I    between atoms: N4_24  and  C11_26 
REMARK    9  A    between atoms: C13_32  and  O7_33 
ROOT
HETATM    1  C4  UNL     1      -8.138  19.393 -14.321  1.00  0.00     0.262 C 
HETATM    2  N2  UNL     1      -7.253  18.267 -13.932  1.00  0.00    -0.040 N 
ATOM      3  H21 UNL     1      -6.606  18.512 -13.183  1.00  0.00     0.280 HD
ATOM      4  H22 UNL     1      -6.557  18.047 -14.644  1.00  0.00     0.280 HD
HETATM    5  C5  UNL     1      -8.077  17.163 -13.609  1.00  0.00     0.344 C 
HETATM    6  C10 UNL     1      -9.182  17.485 -12.644  1.00  0.00     0.340 C 
HETATM    7  N5  UNL     1      -9.841  18.709 -12.808  1.00  0.00    -0.022 N 
ATOM      8  H51 UNL     1     -10.412  18.938 -11.995  1.00  0.00     0.282 HD
ATOM      9  H52 UNL     1     -10.582  18.644 -13.507  1.00  0.00     0.282 HD
HETATM   10  C13 UNL     1      -8.884  19.801 -13.127  1.00  0.00     0.353 C 
ENDROOT
BRANCH   5  11
HETATM   11  N3  UNL     1      -8.619  16.564 -14.783  1.00  0.00    -0.283 N 
ATOM     12  H3  UNL     1      -9.617  16.521 -14.993  1.00  0.00     0.174 HD
BRANCH  11  13
HETATM   13  S1  UNL     1      -7.378  15.916 -15.814  1.00  0.00     0.252 S 
HETATM   14  O2  UNL     1      -6.187  15.498 -15.018  1.00  0.00    -0.201 OA
HETATM   15  O3  UNL     1      -6.942  16.915 -16.831  1.00  0.00    -0.201 OA
BRANCH  13  16
HETATM   16  C6  UNL     1      -8.052  14.496 -16.583  1.00  0.00     0.155 C 
HETATM   17  C7  UNL     1      -7.714  14.212 -17.842  1.00  0.00     0.159 C 
BRANCH  17  18
HETATM   18  O4  UNL     1      -8.255  13.097 -18.417  1.00  0.00    -0.291 OA
BRANCH  18  19
HETATM   19  C8  UNL     1      -8.180  11.841 -17.814  1.00  0.00     0.259 C 
HETATM   20  C9  UNL     1      -9.403  11.247 -17.185  1.00  0.00     0.126 C 
HETATM   21  O5  UNL     1      -7.078  11.264 -17.828  1.00  0.00    -0.265 OA
ENDBRANCH  18  19
ENDBRANCH  17  18
ENDBRANCH  13  16
ENDBRANCH  11  13
ENDBRANCH   5  11
BRANCH   6  22
HETATM   22  N4  UNL     1      -8.792  17.312 -11.255  1.00  0.00    -0.330 N 
HETATM   23  C11 UNL     1      -9.735  17.081 -10.233  1.00  0.00     0.215 C 
HETATM   24  C12 UNL     1      -9.278  16.915  -8.843  1.00  0.00     0.117 C 
HETATM   25  O6  UNL     1     -10.957  17.015 -10.496  1.00  0.00    -0.274 OA
ATOM     26  H4  UNL     1      -7.802  17.361 -11.011  1.00  0.00     0.164 HD
ENDBRANCH   6  22
BRANCH   1  27
HETATM   27  C3  UNL     1      -7.400  20.378 -15.097  1.00  0.00     0.160 C 
BRANCH  27  28
HETATM   28  N1  UNL     1      -8.055  21.575 -15.463  1.00  0.00    -0.359 N 
HETATM   29  C2  UNL     1      -7.812  22.901 -15.165  1.00  0.00     0.213 C 
HETATM   30  C1  UNL     1      -8.762  23.956 -15.701  1.00  0.00     0.117 C 
HETATM   31  O1  UNL     1      -6.877  23.333 -14.486  1.00  0.00    -0.274 OA
ATOM     32  H1  UNL     1      -8.865  21.432 -16.066  1.00  0.00     0.162 HD
ENDBRANCH  27  28
ENDBRANCH   1  27
BRANCH  10  33
HETATM   33  O7  UNL     1      -8.073  20.046 -12.040  1.00  0.00    -0.368 OA
ATOM     34  H7  UNL     1      -8.495  19.859 -11.210  1.00  0.00     0.212 HD
ENDBRANCH  10  33
TORSDOF 9
ENDMDL
MODEL 3
REMARK VINA RESULT: -6.795796628      1.238      1.352
REMARK  9 active torsions:
REMARK  status: ('A' for Active; 'I' for Inactive)
REMARK       I    between atoms: C2_2  and  N1_4 
REMARK    1  A    between atoms: N1_4  and  C3_6 
REMARK    2  A    between atoms: C3_6  and  C4_7 
REMARK    3  A    between atoms: C5_11  and  N3_12 
REMARK    4  A    between atoms: N3_12  and  S1_14 
REMARK    5  A    between atoms: S1_14  and  C6_17 
REMARK    6  A    between atoms: C7_18  and  O4_19 
REMARK    7  A    between atoms: O4_19  and  C8_20 
REMARK    8  A    between atoms: C10_23  and  N4_24 
REMARK       I    between atoms: N4_24  and  C11_26 
REMARK    9  A    between atoms: C13_32  and  O7_33 
ROOT
HETATM    1  C4  UNL     1      -9.080  18.841 -13.720  1.00  0.00     0.262 C 
HETATM    2  N2  UNL     1      -7.802  18.368 -14.307  1.00  0.00    -0.040 N 
ATOM      3  H21 UNL     1      -7.007  18.951 -14.046  1.00  0.00     0.280 HD
ATOM      4  H22 UNL     1      -7.751  18.515 -15.314  1.00  0.00     0.280 HD
HETATM    5  C5  UNL     1      -7.634  17.013 -13.940  1.00  0.00     0.344 C 
HETATM    6  C10 UNL     1      -7.814  16.749 -12.472  1.00  0.00     0.340 C 
HETATM    7  N5  UNL     1      -8.844  17.434 -11.817  1.00  0.00    -0.022 N 
ATOM      8  H51 UNL     1      -8.754  17.365 -10.804  1.00  0.00     0.282 HD
ATOM      9  H52 UNL     1      -9.739  16.957 -11.928  1.00  0.00     0.282 HD
HETATM   10  C13 UNL     1      -8.920  18.850 -12.263  1.00  0.00     0.353 C 
ENDROOT
BRANCH   5  11
HETATM   11  N3  UNL     1      -8.499  16.165 -14.692  1.00  0.00    -0.283 N 
ATOM     12  H3  UNL     1      -9.129  15.478 -14.276  1.00  0.00     0.174 HD
BRANCH  11  13
HETATM   13  S1  UNL     1      -8.350  16.440 -16.403  1.00  0.00     0.252 S 
HETATM   14  O2  UNL     1      -6.949  16.805 -16.765  1.00  0.00    -0.201 OA
HETATM   15  O3  UNL     1      -9.257  17.532 -16.856  1.00  0.00    -0.201 OA
BRANCH  13  16
HETATM   16  C6  UNL     1      -8.748  14.930 -17.193  1.00  0.00     0.155 C 
HETATM   17  C7  UNL     1      -7.816  14.305 -17.914  1.00  0.00     0.159 C 
BRANCH  17  18
HETATM   18  O4  UNL     1      -8.155  13.128 -18.520  1.00  0.00    -0.291 OA
BRANCH  18  19
HETATM   19  C8  UNL     1      -8.128  11.910 -17.840  1.00  0.00     0.259 C 
HETATM   20  C9  UNL     1      -9.369  11.410 -17.166  1.00  0.00     0.126 C 
HETATM   21  O5  UNL     1      -7.052  11.285 -17.826  1.00  0.00    -0.265 OA
ENDBRANCH  18  19
ENDBRANCH  17  18
ENDBRANCH  13  16
ENDBRANCH  11  13
ENDBRANCH   5  11
BRANCH   6  22
HETATM   22  N4  UNL     1      -6.577  16.871 -11.717  1.00  0.00    -0.330 N 
HETATM   23  C11 UNL     1      -6.479  16.478 -10.367  1.00  0.00     0.215 C 
HETATM   24  C12 UNL     1      -5.199  16.628  -9.656  1.00  0.00     0.117 C 
HETATM   25  O6  UNL     1      -7.471  16.004  -9.767  1.00  0.00    -0.274 OA
ATOM     26  H4  UNL     1      -5.753  17.255 -12.181  1.00  0.00     0.164 HD
ENDBRANCH   6  22
BRANCH   1  27
HETATM   27  C3  UNL     1      -9.552  20.030 -14.414  1.00  0.00     0.160 C 
BRANCH  27  28
HETATM   28  N1  UNL     1      -8.752  21.195 -14.374  1.00  0.00    -0.359 N 
HETATM   29  C2  UNL     1      -7.602  21.560 -15.044  1.00  0.00     0.213 C 
HETATM   30  C1  UNL     1      -6.965  22.899 -14.722  1.00  0.00     0.117 C 
HETATM   31  O1  UNL     1      -7.018  20.894 -15.903  1.00  0.00    -0.274 OA
ATOM     32  H1  UNL     1      -9.092  21.903 -13.724  1.00  0.00     0.162 HD
ENDBRANCH  27  28
ENDBRANCH   1  27
BRANCH  10  33
HETATM   33  O7  UNL     1      -7.799  19.535 -11.846  1.00  0.00    -0.368 OA
ATOM     34  H7  UNL     1      -7.229  19.787 -12.562  1.00  0.00     0.212 HD
ENDBRANCH  10  33
TORSDOF 9
ENDMDL
MODEL 4
REMARK VINA RESULT: -6.735026683      2.097      2.342
REMARK  9 active torsions:
REMARK  status: ('A' for Active; 'I' for Inactive)
REMARK       I    between atoms: C2_2  and  N1_4 
REMARK    1  A    between atoms: N1_4  and  C3_6 
REMARK    2  A    between atoms: C3_6  and  C4_7 
REMARK    3  A    between atoms: C5_11  and  N3_12 
REMARK    4  A    between atoms: N3_12  and  S1_14 
REMARK    5  A    between atoms: S1_14  and  C6_17 
REMARK    6  A    between atoms: C7_18  and  O4_19 
REMARK    7  A    between atoms: O4_19  and  C8_20 
REMARK    8  A    between atoms: C10_23  and  N4_24 
REMARK       I    between atoms: N4_24  and  C11_26 
REMARK    9  A    between atoms: C13_32  and  O7_33 
ROOT
HETATM    1  C4  UNL     1      -8.203  19.192 -14.914  1.00  0.00     0.262 C 
HETATM    2  N2  UNL     1      -7.348  18.076 -14.442  1.00  0.00    -0.040 N 
ATOM      3  H21 UNL     1      -6.996  18.219 -13.495  1.00  0.00     0.280 HD
ATOM      4  H22 UNL     1      -6.446  18.040 -14.916  1.00  0.00     0.280 HD
HETATM    5  C5  UNL     1      -8.088  16.878 -14.578  1.00  0.00     0.344 C 
HETATM    6  C10 UNL     1      -9.467  16.939 -13.984  1.00  0.00     0.340 C 
HETATM    7  N5  UNL     1     -10.189  18.125 -14.158  1.00  0.00    -0.022 N 
ATOM      8  H51 UNL     1     -11.005  18.159 -13.547  1.00  0.00     0.282 HD
ATOM      9  H52 UNL     1     -10.667  18.143 -15.059  1.00  0.00     0.282 HD
HETATM   10  C13 UNL     1      -9.322  19.319 -13.975  1.00  0.00     0.353 C 
ENDROOT
BRANCH   5  11
HETATM   11  N3  UNL     1      -8.168  16.475 -15.943  1.00  0.00    -0.283 N 
ATOM     12  H3  UNL     1      -9.016  16.536 -16.508  1.00  0.00     0.174 HD
BRANCH  11  13
HETATM   13  S1  UNL     1      -6.649  15.866 -16.530  1.00  0.00     0.252 S 
HETATM   14  O2  UNL     1      -5.831  15.306 -15.414  1.00  0.00    -0.201 OA
HETATM   15  O3  UNL     1      -5.861  16.936 -17.205  1.00  0.00    -0.201 OA
BRANCH  13  16
HETATM   16  C6  UNL     1      -7.022  14.568 -17.643  1.00  0.00     0.155 C 
HETATM   17  C7  UNL     1      -6.827  13.305 -17.263  1.00  0.00     0.159 C 
BRANCH  17  18
HETATM   18  O4  UNL     1      -7.126  12.312 -18.153  1.00  0.00    -0.291 OA
BRANCH  18  19
HETATM   19  C8  UNL     1      -8.071  11.325 -17.871  1.00  0.00     0.259 C 
HETATM   20  C9  UNL     1      -9.326  11.689 -17.138  1.00  0.00     0.126 C 
HETATM   21  O5  UNL     1      -7.822  10.167 -18.251  1.00  0.00    -0.265 OA
ENDBRANCH  18  19
ENDBRANCH  17  18
ENDBRANCH  13  16
ENDBRANCH  11  13
ENDBRANCH   5  11
BRANCH   6  22
HETATM   22  N4  UNL     1      -9.501  16.536 -12.588  1.00  0.00    -0.330 N 
HETATM   23  C11 UNL     1     -10.711  16.370 -11.883  1.00  0.00     0.215 C 
HETATM   24  C12 UNL     1     -10.682  15.961 -10.470  1.00  0.00     0.117 C 
HETATM   25  O6  UNL     1     -11.811  16.569 -12.449  1.00  0.00    -0.274 OA
ATOM     26  H4  UNL     1      -8.620  16.367 -12.101  1.00  0.00     0.164 HD
ENDBRANCH   6  22
BRANCH   1  27
HETATM   27  C3  UNL     1      -7.390  20.353 -15.247  1.00  0.00     0.160 C 
BRANCH  27  28
HETATM   28  N1  UNL     1      -8.043  21.567 -15.556  1.00  0.00    -0.359 N 
HETATM   29  C2  UNL     1      -7.826  22.871 -15.158  1.00  0.00     0.213 C 
HETATM   30  C1  UNL     1      -8.766  23.952 -15.659  1.00  0.00     0.117 C 
HETATM   31  O1  UNL     1      -6.924  23.264 -14.415  1.00  0.00    -0.274 OA
ATOM     32  H1  UNL     1      -8.827  21.459 -16.199  1.00  0.00     0.162 HD
ENDBRANCH  27  28
ENDBRANCH   1  27
BRANCH  10  33
HETATM   33  O7  UNL     1      -8.918  19.410 -12.661  1.00  0.00    -0.368 OA
ATOM     34  H7  UNL     1      -8.838  18.564 -12.236  1.00  0.00     0.212 HD
ENDBRANCH  10  33
TORSDOF 9
ENDMDL
MODEL 5
REMARK VINA RESULT: -6.725976200      1.721      1.994
REMARK  9 active torsions:
REMARK  status: ('A' for Active; 'I' for Inactive)
REMARK       I    between atoms: C2_2  and  N1_4 
REMARK    1  A    between atoms: N1_4  and  C3_6 
REMARK    2  A    between atoms: C3_6  and  C4_7 
REMARK    3  A    between atoms: C5_11  and  N3_12 
REMARK    4  A    between atoms: N3_12  and  S1_14 
REMARK    5  A    between atoms: S1_14  and  C6_17 
REMARK    6  A    between atoms: C7_18  and  O4_19 
REMARK    7  A    between atoms: O4_19  and  C8_20 
REMARK    8  A    between atoms: C10_23  and  N4_24 
REMARK       I    between atoms: N4_24  and  C11_26 
REMARK    9  A    between atoms: C13_32  and  O7_33 
ROOT
HETATM    1  C4  UNL     1      -7.926  19.099 -14.874  1.00  0.00     0.262 C 
HETATM    2  N2  UNL     1      -7.274  17.874 -15.397  1.00  0.00    -0.040 N 
ATOM      3  H21 UNL     1      -6.429  17.624 -14.883  1.00  0.00     0.280 HD
ATOM      4  H22 UNL     1      -6.839  18.015 -16.309  1.00  0.00     0.280 HD
HETATM    5  C5  UNL     1      -8.239  16.840 -15.403  1.00  0.00     0.344 C 
HETATM    6  C10 UNL     1      -8.975  16.682 -14.104  1.00  0.00     0.340 C 
HETATM    7  N5  UNL     1      -9.339  17.851 -13.425  1.00  0.00    -0.022 N 
ATOM      8  H51 UNL     1      -9.630  17.653 -12.468  1.00  0.00     0.282 HD
ATOM      9  H52 UNL     1     -10.216  18.232 -13.780  1.00  0.00     0.282 HD
HETATM   10  C13 UNL     1      -8.248  18.861 -13.465  1.00  0.00     0.353 C 
ENDROOT
BRANCH   5  11
HETATM   11  N3  UNL     1      -9.171  17.013 -16.468  1.00  0.00    -0.283 N 
ATOM     12  H3  UNL     1      -9.947  17.675 -16.446  1.00  0.00     0.174 HD
BRANCH  11  13
HETATM   13  S1  UNL     1      -8.826  15.960 -17.809  1.00  0.00     0.252 S 
HETATM   14  O2  UNL     1      -7.358  15.734 -17.947  1.00  0.00    -0.201 OA
HETATM   15  O3  UNL     1      -9.342  16.526 -19.088  1.00  0.00    -0.201 OA
BRANCH  13  16
HETATM   16  C6  UNL     1      -9.588  14.425 -17.454  1.00  0.00     0.155 C 
HETATM   17  C7  UNL     1      -8.831  13.334 -17.325  1.00  0.00     0.159 C 
BRANCH  17  18
HETATM   18  O4  UNL     1      -9.453  12.149 -17.048  1.00  0.00    -0.291 OA
BRANCH  18  19
HETATM   19  C8  UNL     1      -8.925  10.923 -17.454  1.00  0.00     0.259 C 
HETATM   20  C9  UNL     1      -9.706   9.666 -17.223  1.00  0.00     0.126 C 
HETATM   21  O5  UNL     1      -7.807  10.934 -18.001  1.00  0.00    -0.265 OA
ENDBRANCH  18  19
ENDBRANCH  17  18
ENDBRANCH  13  16
ENDBRANCH  11  13
ENDBRANCH   5  11
BRANCH   6  22
HETATM   22  N4  UNL     1      -8.323  15.759 -13.190  1.00  0.00    -0.330 N 
HETATM   23  C11 UNL     1      -9.025  15.095 -12.163  1.00  0.00     0.215 C 
HETATM   24  C12 UNL     1      -8.308  14.172 -11.268  1.00  0.00     0.117 C 
HETATM   25  O6  UNL     1     -10.253  15.285 -12.005  1.00  0.00    -0.274 OA
ATOM     26  H4  UNL     1      -7.323  15.585 -13.296  1.00  0.00     0.164 HD
ENDBRANCH   6  22
BRANCH   1  27
HETATM   27  C3  UNL     1      -7.176  20.284 -15.265  1.00  0.00     0.160 C 
BRANCH  27  28
HETATM   28  N1  UNL     1      -7.889  21.468 -15.555  1.00  0.00    -0.359 N 
HETATM   29  C2  UNL     1      -7.718  22.781 -15.164  1.00  0.00     0.213 C 
HETATM   30  C1  UNL     1      -8.718  23.820 -15.637  1.00  0.00     0.117 C 
HETATM   31  O1  UNL     1      -6.812  23.213 -14.447  1.00  0.00    -0.274 OA
ATOM     32  H1  UNL     1      -8.687  21.325 -16.175  1.00  0.00     0.162 HD
ENDBRANCH  27  28
ENDBRANCH   1  27
BRANCH  10  33
HETATM   33  O7  UNL     1      -7.170  18.416 -12.731  1.00  0.00    -0.368 OA
ATOM     34  H7  UNL     1      -6.441  18.136 -13.271  1.00  0.00     0.212 HD
ENDBRANCH  10  33
TORSDOF 9
ENDMDL
