MODEL 1
REMARK VINA RESULT: -6.409664204      0.000      0.000
REMARK  11 active torsions:
REMARK  status: ('A' for Active; 'I' for Inactive)
REMARK    1  A    between atoms: N2_5  and  C3_6 
REMARK    2  A    between atoms: C3_6  and  C4_7 
REMARK    3  A    between atoms: C4_7  and  N3_8 
REMARK    4  A    between atoms: C6_13  and  N4_14 
REMARK    5  A    between atoms: N4_14  and  C7_16 
REMARK    6  A    between atoms: C7_16  and  C8_17 
REMARK    7  A    between atoms: C8_17  and  S1_18 
REMARK    8  A    between atoms: S1_18  and  N5_19 
REMARK    9  A    between atoms: N7_27  and  C10_29 
REMARK   10  A    between atoms: C10_29  and  C11_30 
REMARK   11  A    between atoms: C11_30  and  O4_31 
ROOT
HETATM    1  C1  UNL     1     -12.028  19.445 -14.524  1.00  0.00     0.163 C 
HETATM    2  N1  UNL     1     -11.154  18.287 -14.656  1.00  0.00    -0.287 N 
HETATM    3  C2  UNL     1     -11.473  16.995 -14.627  1.00  0.00     0.330 A 
HETATM    4  O1  UNL     1     -12.622  16.501 -14.477  1.00  0.00    -0.246 OA
HETATM    5  N2  UNL     1     -10.362  16.229 -14.786  1.00  0.00    -0.291 N 
HETATM    6  C5  UNL     1      -9.342  17.093 -14.915  1.00  0.00     0.128 A 
HETATM    7  C6  UNL     1      -7.978  16.945 -15.101  1.00  0.00     0.148 A 
HETATM    8  N6  UNL     1      -7.206  18.030 -15.192  1.00  0.00    -0.175 N 
ATOM      9  H6  UNL     1      -6.204  17.899 -15.328  1.00  0.00     0.186 HD
HETATM   10  C9  UNL     1      -7.677  19.287 -15.114  1.00  0.00     0.681 A 
HETATM   11  N7  UNL     1      -6.856  20.284 -15.214  1.00  0.00    -0.224 N 
ATOM     12  H7  UNL     1      -5.856  20.139 -15.349  1.00  0.00     0.177 HD
HETATM   13  N8  UNL     1      -8.991  19.454 -14.935  1.00  0.00    -0.174 N 
ATOM     14  H8  UNL     1      -9.376  20.397 -14.872  1.00  0.00     0.186 HD
HETATM   15  C12 UNL     1      -9.809  18.394 -14.837  1.00  0.00     0.158 A 
ENDROOT
BRANCH   7  16
HETATM   16  N4  UNL     1      -7.507  15.748 -15.176  1.00  0.00    -0.373 N 
ATOM     17  H4  UNL     1      -8.173  14.985 -15.297  1.00  0.00     0.161 HD
BRANCH  16  18
HETATM   18  C7  UNL     1      -6.124  15.410 -15.102  1.00  0.00     0.138 C 
BRANCH  18  19
HETATM   19  C8  UNL     1      -5.670  14.456 -16.192  1.00  0.00     0.182 C 
BRANCH  19  20
HETATM   20  S1  UNL     1      -5.888  15.337 -17.744  1.00  0.00     0.226 S 
HETATM   21  O2  UNL     1      -5.468  16.774 -17.513  1.00  0.00    -0.206 OA
HETATM   22  O3  UNL     1      -7.503  15.336 -18.206  1.00  0.00    -0.206 OA
BRANCH  20  23
HETATM   23  N5  UNL     1      -4.963  14.766 -18.845  1.00  0.00    -0.328 N 
ATOM     24  H52 UNL     1      -4.719  13.779 -18.921  1.00  0.00     0.168 HD
ATOM     25  H51 UNL     1      -4.640  15.502 -19.472  1.00  0.00     0.168 HD
ENDBRANCH  20  23
ENDBRANCH  19  20
ENDBRANCH  18  19
ENDBRANCH  16  18
ENDBRANCH   7  16
BRANCH   5  26
HETATM   26  C3  UNL     1     -10.316  14.783 -14.807  1.00  0.00     0.161 C 
BRANCH  26  27
HETATM   27  C4  UNL     1     -10.637  14.331 -16.233  1.00  0.00     0.250 C 
BRANCH  27  28
HETATM   28  N3  UNL     1     -12.015  13.902 -16.347  1.00  0.00    -0.078 N 
ATOM     29  H33 UNL     1     -12.083  12.895 -16.496  1.00  0.00     0.274 HD
ATOM     30  H32 UNL     1     -12.502  13.960 -15.453  1.00  0.00     0.274 HD
ATOM     31  H31 UNL     1     -12.503  14.423 -17.075  1.00  0.00     0.274 HD
ENDBRANCH  27  28
ENDBRANCH  26  27
ENDBRANCH   5  26
BRANCH  11  32
HETATM   32  C10 UNL     1      -7.425  21.613 -15.122  1.00  0.00     0.164 C 
BRANCH  32  33
HETATM   33  C11 UNL     1      -6.860  22.331 -13.907  1.00  0.00     0.184 C 
BRANCH  33  34
HETATM   34  O4  UNL     1      -6.483  23.604 -14.330  1.00  0.00    -0.399 OA
ATOM     35  H4  UNL     1      -5.539  23.656 -14.240  1.00  0.00     0.209 HD
ENDBRANCH  33  34
ENDBRANCH  32  33
ENDBRANCH  11  32
TORSDOF 11
ENDMDL
MODEL 2
REMARK VINA RESULT: -5.920717880      1.583      1.703
REMARK  11 active torsions:
REMARK  status: ('A' for Active; 'I' for Inactive)
REMARK    1  A    between atoms: N2_5  and  C3_6 
REMARK    2  A    between atoms: C3_6  and  C4_7 
REMARK    3  A    between atoms: C4_7  and  N3_8 
REMARK    4  A    between atoms: C6_13  and  N4_14 
REMARK    5  A    between atoms: N4_14  and  C7_16 
REMARK    6  A    between atoms: C7_16  and  C8_17 
REMARK    7  A    between atoms: C8_17  and  S1_18 
REMARK    8  A    between atoms: S1_18  and  N5_19 
REMARK    9  A    between atoms: N7_27  and  C10_29 
REMARK   10  A    between atoms: C10_29  and  C11_30 
REMARK   11  A    between atoms: C11_30  and  O4_31 
ROOT
HETATM    1  C1  UNL     1     -10.695  18.569 -11.582  1.00  0.00     0.163 C 
HETATM    2  N1  UNL     1     -10.209  17.640 -12.593  1.00  0.00    -0.287 N 
HETATM    3  C2  UNL     1     -10.567  16.375 -12.802  1.00  0.00     0.330 A 
HETATM    4  O1  UNL     1     -11.419  15.711 -12.154  1.00  0.00    -0.246 OA
HETATM    5  N2  UNL     1      -9.875  15.854 -13.849  1.00  0.00    -0.291 N 
HETATM    6  C5  UNL     1      -9.075  16.842 -14.281  1.00  0.00     0.128 A 
HETATM    7  C6  UNL     1      -8.141  16.944 -15.299  1.00  0.00     0.148 A 
HETATM    8  N6  UNL     1      -7.489  18.094 -15.480  1.00  0.00    -0.175 N 
ATOM      9  H6  UNL     1      -6.805  18.148 -16.234  1.00  0.00     0.186 HD
HETATM   10  C9  UNL     1      -7.685  19.187 -14.722  1.00  0.00     0.681 A 
HETATM   11  N7  UNL     1      -7.008  20.264 -14.967  1.00  0.00    -0.224 N 
ATOM     12  H7  UNL     1      -6.327  20.304 -15.725  1.00  0.00     0.177 HD
HETATM   13  N8  UNL     1      -8.581  19.113 -13.734  1.00  0.00    -0.174 N 
ATOM     14  H8  UNL     1      -8.749  19.927 -13.142  1.00  0.00     0.186 HD
HETATM   15  C12 UNL     1      -9.263  17.977 -13.512  1.00  0.00     0.158 A 
ENDROOT
BRANCH   7  16
HETATM   16  N4  UNL     1      -7.938  15.906 -16.036  1.00  0.00    -0.373 N 
ATOM     17  H4  UNL     1      -7.546  15.078 -15.587  1.00  0.00     0.161 HD
BRANCH  16  18
HETATM   18  C7  UNL     1      -8.221  15.828 -17.431  1.00  0.00     0.138 C 
BRANCH  18  19
HETATM   19  C8  UNL     1      -7.452  14.735 -18.150  1.00  0.00     0.182 C 
BRANCH  19  20
HETATM   20  S1  UNL     1      -5.717  15.021 -17.775  1.00  0.00     0.226 S 
HETATM   21  O2  UNL     1      -5.385  14.223 -16.530  1.00  0.00    -0.206 OA
HETATM   22  O3  UNL     1      -5.441  16.644 -17.442  1.00  0.00    -0.206 OA
BRANCH  20  23
HETATM   23  N5  UNL     1      -4.806  14.492 -18.909  1.00  0.00    -0.328 N 
ATOM     24  H52 UNL     1      -5.060  13.718 -19.523  1.00  0.00     0.168 HD
ATOM     25  H51 UNL     1      -3.933  15.017 -18.954  1.00  0.00     0.168 HD
ENDBRANCH  20  23
ENDBRANCH  19  20
ENDBRANCH  18  19
ENDBRANCH  16  18
ENDBRANCH   7  16
BRANCH   5  26
HETATM   26  C3  UNL     1      -9.995  14.509 -14.369  1.00  0.00     0.161 C 
BRANCH  26  27
HETATM   27  C4  UNL     1     -11.152  14.502 -15.369  1.00  0.00     0.250 C 
BRANCH  27  28
HETATM   28  N3  UNL     1     -10.887  13.597 -16.467  1.00  0.00    -0.078 N 
ATOM     29  H33 UNL     1     -10.274  12.832 -16.185  1.00  0.00     0.274 HD
ATOM     30  H32 UNL     1     -11.714  13.052 -16.713  1.00  0.00     0.274 HD
ATOM     31  H31 UNL     1     -10.515  14.098 -17.274  1.00  0.00     0.274 HD
ENDBRANCH  27  28
ENDBRANCH  26  27
ENDBRANCH   5  26
BRANCH  11  32
HETATM   32  C10 UNL     1      -7.264  21.408 -14.115  1.00  0.00     0.164 C 
BRANCH  32  33
HETATM   33  C11 UNL     1      -7.210  22.684 -14.939  1.00  0.00     0.184 C 
BRANCH  33  34
HETATM   34  O4  UNL     1      -6.460  23.604 -14.208  1.00  0.00    -0.399 OA
ATOM     35  H4  UNL     1      -7.072  24.087 -13.665  1.00  0.00     0.209 HD
ENDBRANCH  33  34
ENDBRANCH  32  33
ENDBRANCH  11  32
TORSDOF 11
ENDMDL
MODEL 3
REMARK VINA RESULT: -5.897910626      3.065      7.287
REMARK  11 active torsions:
REMARK  status: ('A' for Active; 'I' for Inactive)
REMARK    1  A    between atoms: N2_5  and  C3_6 
REMARK    2  A    between atoms: C3_6  and  C4_7 
REMARK    3  A    between atoms: C4_7  and  N3_8 
REMARK    4  A    between atoms: C6_13  and  N4_14 
REMARK    5  A    between atoms: N4_14  and  C7_16 
REMARK    6  A    between atoms: C7_16  and  C8_17 
REMARK    7  A    between atoms: C8_17  and  S1_18 
REMARK    8  A    between atoms: S1_18  and  N5_19 
REMARK    9  A    between atoms: N7_27  and  C10_29 
REMARK   10  A    between atoms: C10_29  and  C11_30 
REMARK   11  A    between atoms: C11_30  and  O4_31 
ROOT
HETATM    1  C1  UNL     1     -10.039   9.568 -17.032  1.00  0.00     0.163 C 
HETATM    2  N1  UNL     1      -9.523  10.922 -17.177  1.00  0.00    -0.287 N 
HETATM    3  C2  UNL     1      -8.323  11.314 -17.602  1.00  0.00     0.330 A 
HETATM    4  O1  UNL     1      -7.372  10.577 -17.974  1.00  0.00    -0.246 OA
HETATM    5  N2  UNL     1      -8.237  12.670 -17.589  1.00  0.00    -0.291 N 
HETATM    6  C5  UNL     1      -9.426  13.104 -17.141  1.00  0.00     0.128 A 
HETATM    7  C6  UNL     1      -9.961  14.360 -16.904  1.00  0.00     0.148 A 
HETATM    8  N6  UNL     1     -11.209  14.465 -16.443  1.00  0.00    -0.175 N 
ATOM      9  H6  UNL     1     -11.584  15.398 -16.274  1.00  0.00     0.186 HD
HETATM   10  C9  UNL     1     -12.000  13.408 -16.189  1.00  0.00     0.681 A 
HETATM   11  N7  UNL     1     -13.201  13.602 -15.742  1.00  0.00    -0.224 N 
ATOM     12  H7  UNL     1     -13.563  14.541 -15.578  1.00  0.00     0.177 HD
HETATM   13  N8  UNL     1     -11.505  12.187 -16.410  1.00  0.00    -0.174 N 
ATOM     14  H8  UNL     1     -12.083  11.366 -16.225  1.00  0.00     0.186 HD
HETATM   15  C12 UNL     1     -10.255  12.028 -16.873  1.00  0.00     0.158 A 
ENDROOT
BRANCH   7  16
HETATM   16  N4  UNL     1      -9.218  15.385 -17.140  1.00  0.00    -0.373 N 
ATOM     17  H4  UNL     1      -8.219  15.224 -17.273  1.00  0.00     0.161 HD
BRANCH  16  18
HETATM   18  C7  UNL     1      -9.686  16.729 -17.228  1.00  0.00     0.138 C 
BRANCH  18  19
HETATM   19  C8  UNL     1      -9.511  17.522 -15.945  1.00  0.00     0.182 C 
BRANCH  19  20
HETATM   20  S1  UNL     1      -7.798  17.293 -15.450  1.00  0.00     0.226 S 
HETATM   21  O2  UNL     1      -6.965  17.228 -16.714  1.00  0.00    -0.206 OA
HETATM   22  O3  UNL     1      -7.607  15.841 -14.627  1.00  0.00    -0.206 OA
BRANCH  20  23
HETATM   23  N5  UNL     1      -7.287  18.502 -14.632  1.00  0.00    -0.328 N 
ATOM     24  H52 UNL     1      -7.635  18.743 -13.703  1.00  0.00     0.168 HD
ATOM     25  H51 UNL     1      -6.568  19.014 -15.142  1.00  0.00     0.168 HD
ENDBRANCH  20  23
ENDBRANCH  19  20
ENDBRANCH  18  19
ENDBRANCH  16  18
ENDBRANCH   7  16
BRANCH   5  26
HETATM   26  C3  UNL     1      -7.088  13.457 -17.982  1.00  0.00     0.161 C 
BRANCH  26  27
HETATM   27  C4  UNL     1      -6.128  13.499 -16.793  1.00  0.00     0.250 C 
BRANCH  27  28
HETATM   28  N3  UNL     1      -5.453  14.777 -16.711  1.00  0.00    -0.078 N 
ATOM     29  H33 UNL     1      -4.615  14.797 -17.292  1.00  0.00     0.274 HD
ATOM     30  H32 UNL     1      -5.984  15.512 -17.177  1.00  0.00     0.274 HD
ATOM     31  H31 UNL     1      -5.245  15.021 -15.743  1.00  0.00     0.274 HD
ENDBRANCH  27  28
ENDBRANCH  26  27
ENDBRANCH   5  26
BRANCH  11  32
HETATM   32  C10 UNL     1     -14.003  12.423 -15.488  1.00  0.00     0.164 C 
BRANCH  32  33
HETATM   33  C11 UNL     1     -15.075  12.290 -16.558  1.00  0.00     0.184 C 
BRANCH  33  34
HETATM   34  O4  UNL     1     -15.463  13.584 -16.902  1.00  0.00    -0.399 OA
ATOM     35  H4  UNL     1     -16.208  13.803 -16.355  1.00  0.00     0.209 HD
ENDBRANCH  33  34
ENDBRANCH  32  33
ENDBRANCH  11  32
TORSDOF 11
ENDMDL
MODEL 4
REMARK VINA RESULT: -5.847543786      2.358      2.953
REMARK  11 active torsions:
REMARK  status: ('A' for Active; 'I' for Inactive)
REMARK    1  A    between atoms: N2_5  and  C3_6 
REMARK    2  A    between atoms: C3_6  and  C4_7 
REMARK    3  A    between atoms: C4_7  and  N3_8 
REMARK    4  A    between atoms: C6_13  and  N4_14 
REMARK    5  A    between atoms: N4_14  and  C7_16 
REMARK    6  A    between atoms: C7_16  and  C8_17 
REMARK    7  A    between atoms: C8_17  and  S1_18 
REMARK    8  A    between atoms: S1_18  and  N5_19 
REMARK    9  A    between atoms: N7_27  and  C10_29 
REMARK   10  A    between atoms: C10_29  and  C11_30 
REMARK   11  A    between atoms: C11_30  and  O4_31 
ROOT
HETATM    1  C1  UNL     1      -6.742  17.634 -11.122  1.00  0.00     0.163 C 
HETATM    2  N1  UNL     1      -7.376  16.988 -12.262  1.00  0.00    -0.287 N 
HETATM    3  C2  UNL     1      -7.696  15.705 -12.420  1.00  0.00     0.330 A 
HETATM    4  O1  UNL     1      -7.513  14.771 -11.596  1.00  0.00    -0.246 OA
HETATM    5  N2  UNL     1      -8.274  15.508 -13.634  1.00  0.00    -0.291 N 
HETATM    6  C5  UNL     1      -8.301  16.714 -14.223  1.00  0.00     0.128 A 
HETATM    7  C6  UNL     1      -8.755  17.173 -15.448  1.00  0.00     0.148 A 
HETATM    8  N6  UNL     1      -8.635  18.468 -15.750  1.00  0.00    -0.175 N 
ATOM      9  H6  UNL     1      -8.975  18.785 -16.657  1.00  0.00     0.186 HD
HETATM   10  C9  UNL     1      -8.091  19.376 -14.923  1.00  0.00     0.681 A 
HETATM   11  N7  UNL     1      -8.014  20.615 -15.297  1.00  0.00    -0.224 N 
ATOM     12  H7  UNL     1      -8.358  20.919 -16.207  1.00  0.00     0.177 HD
HETATM   13  N8  UNL     1      -7.645  18.957 -13.735  1.00  0.00    -0.174 N 
ATOM     14  H8  UNL     1      -7.226  19.625 -13.088  1.00  0.00     0.186 HD
HETATM   15  C12 UNL     1      -7.743  17.664 -13.385  1.00  0.00     0.158 A 
ENDROOT
BRANCH   7  16
HETATM   16  N4  UNL     1      -9.279  16.316 -16.255  1.00  0.00    -0.373 N 
ATOM     17  H4  UNL     1     -10.069  15.768 -15.914  1.00  0.00     0.161 HD
BRANCH  16  18
HETATM   18  C7  UNL     1      -8.838  16.077 -17.590  1.00  0.00     0.138 C 
BRANCH  18  19
HETATM   19  C8  UNL     1      -8.076  14.774 -17.756  1.00  0.00     0.182 C 
BRANCH  19  20
HETATM   20  S1  UNL     1      -6.347  15.170 -17.463  1.00  0.00     0.226 S 
HETATM   21  O2  UNL     1      -5.911  14.412 -16.226  1.00  0.00    -0.206 OA
HETATM   22  O3  UNL     1      -6.157  16.812 -17.161  1.00  0.00    -0.206 OA
BRANCH  20  23
HETATM   23  N5  UNL     1      -5.457  14.683 -18.632  1.00  0.00    -0.328 N 
ATOM     24  H52 UNL     1      -5.711  14.783 -19.615  1.00  0.00     0.168 HD
ATOM     25  H51 UNL     1      -4.598  14.255 -18.286  1.00  0.00     0.168 HD
ENDBRANCH  20  23
ENDBRANCH  19  20
ENDBRANCH  18  19
ENDBRANCH  16  18
ENDBRANCH   7  16
BRANCH   5  26
HETATM   26  C3  UNL     1      -8.753  14.246 -14.158  1.00  0.00     0.161 C 
BRANCH  26  27
HETATM   27  C4  UNL     1     -10.157  14.016 -13.599  1.00  0.00     0.250 C 
BRANCH  27  28
HETATM   28  N3  UNL     1     -10.131  13.099 -12.480  1.00  0.00    -0.078 N 
ATOM     29  H33 UNL     1     -11.007  13.117 -11.957  1.00  0.00     0.274 HD
ATOM     30  H32 UNL     1     -10.154  12.127 -12.790  1.00  0.00     0.274 HD
ATOM     31  H31 UNL     1      -9.329  13.279 -11.875  1.00  0.00     0.274 HD
ENDBRANCH  27  28
ENDBRANCH  26  27
ENDBRANCH   5  26
BRANCH  11  32
HETATM   32  C10 UNL     1      -7.417  21.546 -14.361  1.00  0.00     0.164 C 
BRANCH  32  33
HETATM   33  C11 UNL     1      -7.192  22.886 -15.043  1.00  0.00     0.184 C 
BRANCH  33  34
HETATM   34  O4  UNL     1      -6.413  23.653 -14.179  1.00  0.00    -0.399 OA
ATOM     35  H4  UNL     1      -6.485  24.554 -14.471  1.00  0.00     0.209 HD
ENDBRANCH  33  34
ENDBRANCH  32  33
ENDBRANCH  11  32
TORSDOF 11
ENDMDL
MODEL 5
REMARK VINA RESULT: -5.763821358      3.083      7.259
REMARK  11 active torsions:
REMARK  status: ('A' for Active; 'I' for Inactive)
REMARK    1  A    between atoms: N2_5  and  C3_6 
REMARK    2  A    between atoms: C3_6  and  C4_7 
REMARK    3  A    between atoms: C4_7  and  N3_8 
REMARK    4  A    between atoms: C6_13  and  N4_14 
REMARK    5  A    between atoms: N4_14  and  C7_16 
REMARK    6  A    between atoms: C7_16  and  C8_17 
REMARK    7  A    between atoms: C8_17  and  S1_18 
REMARK    8  A    between atoms: S1_18  and  N5_19 
REMARK    9  A    between atoms: N7_27  and  C10_29 
REMARK   10  A    between atoms: C10_29  and  C11_30 
REMARK   11  A    between atoms: C11_30  and  O4_31 
ROOT
HETATM    1  C1  UNL     1     -10.070   9.574 -17.027  1.00  0.00     0.163 C 
HETATM    2  N1  UNL     1      -9.548  10.926 -17.172  1.00  0.00    -0.287 N 
HETATM    3  C2  UNL     1      -8.348  11.314 -17.598  1.00  0.00     0.330 A 
HETATM    4  O1  UNL     1      -7.400  10.573 -17.971  1.00  0.00    -0.246 OA
HETATM    5  N2  UNL     1      -8.256  12.669 -17.585  1.00  0.00    -0.291 N 
HETATM    6  C5  UNL     1      -9.442  13.108 -17.135  1.00  0.00     0.128 A 
HETATM    7  C6  UNL     1      -9.972  14.365 -16.897  1.00  0.00     0.148 A 
HETATM    8  N6  UNL     1     -11.219  14.476 -16.435  1.00  0.00    -0.175 N 
ATOM      9  H6  UNL     1     -11.590  15.410 -16.265  1.00  0.00     0.186 HD
HETATM   10  C9  UNL     1     -12.014  13.422 -16.180  1.00  0.00     0.681 A 
HETATM   11  N7  UNL     1     -13.214  13.621 -15.733  1.00  0.00    -0.224 N 
ATOM     12  H7  UNL     1     -13.572  14.561 -15.568  1.00  0.00     0.177 HD
HETATM   13  N8  UNL     1     -11.525  12.199 -16.403  1.00  0.00    -0.174 N 
ATOM     14  H8  UNL     1     -12.106  11.381 -16.218  1.00  0.00     0.186 HD
HETATM   15  C12 UNL     1     -10.276  12.035 -16.867  1.00  0.00     0.158 A 
ENDROOT
BRANCH   7  16
HETATM   16  N4  UNL     1      -9.224  15.388 -17.133  1.00  0.00    -0.373 N 
ATOM     17  H4  UNL     1      -8.228  15.222 -17.272  1.00  0.00     0.161 HD
BRANCH  16  18
HETATM   18  C7  UNL     1      -9.686  16.735 -17.214  1.00  0.00     0.138 C 
BRANCH  18  19
HETATM   19  C8  UNL     1      -9.521  17.515 -15.923  1.00  0.00     0.182 C 
BRANCH  19  20
HETATM   20  S1  UNL     1      -7.806  17.297 -15.428  1.00  0.00     0.226 S 
HETATM   21  O2  UNL     1      -6.972  17.248 -16.692  1.00  0.00    -0.206 OA
HETATM   22  O3  UNL     1      -7.603  15.842 -14.614  1.00  0.00    -0.206 OA
BRANCH  20  23
HETATM   23  N5  UNL     1      -7.306  18.506 -14.601  1.00  0.00    -0.328 N 
ATOM     24  H52 UNL     1      -7.160  19.437 -14.993  1.00  0.00     0.168 HD
ATOM     25  H51 UNL     1      -7.147  18.246 -13.629  1.00  0.00     0.168 HD
ENDBRANCH  20  23
ENDBRANCH  19  20
ENDBRANCH  18  19
ENDBRANCH  16  18
ENDBRANCH   7  16
BRANCH   5  26
HETATM   26  C3  UNL     1      -7.104  13.451 -17.979  1.00  0.00     0.161 C 
BRANCH  26  27
HETATM   27  C4  UNL     1      -6.152  13.507 -16.783  1.00  0.00     0.250 C 
BRANCH  27  28
HETATM   28  N3  UNL     1      -5.475  14.784 -16.713  1.00  0.00    -0.078 N 
ATOM     29  H33 UNL     1      -4.594  14.771 -17.227  1.00  0.00     0.274 HD
ATOM     30  H32 UNL     1      -5.962  15.497 -17.256  1.00  0.00     0.274 HD
ATOM     31  H31 UNL     1      -5.340  15.077 -15.745  1.00  0.00     0.274 HD
ENDBRANCH  27  28
ENDBRANCH  26  27
ENDBRANCH   5  26
BRANCH  11  32
HETATM   32  C10 UNL     1     -14.021  12.445 -15.478  1.00  0.00     0.164 C 
BRANCH  32  33
HETATM   33  C11 UNL     1     -14.018  12.131 -13.991  1.00  0.00     0.184 C 
BRANCH  33  34
HETATM   34  O4  UNL     1     -13.068  11.131 -13.792  1.00  0.00    -0.399 OA
ATOM     35  H4  UNL     1     -13.515  10.408 -13.367  1.00  0.00     0.209 HD
ENDBRANCH  33  34
ENDBRANCH  32  33
ENDBRANCH  11  32
TORSDOF 11
ENDMDL
