MODEL 1
REMARK VINA RESULT: -7.328606967      0.000      0.000
REMARK  8 active torsions:
REMARK  status: ('A' for Active; 'I' for Inactive)
REMARK    1  A    between atoms: O1_2  and  N1_3 
REMARK    2  A    between atoms: C2_5  and  C3_6 
REMARK    3  A    between atoms: C2_5  and  C11_24 
REMARK       I    between atoms: C3_6  and  N2_8 
REMARK    4  A    between atoms: N2_8  and  C4_10 
REMARK    5  A    between atoms: C4_10  and  C5_11 
REMARK    6  A    between atoms: C7_15  and  C8_16 
REMARK    7  A    between atoms: C8_16  and  N4_17 
REMARK       I    between atoms: N4_17  and  C9_18 
REMARK    8  A    between atoms: C13_27  and  N6_28 
ROOT
HETATM    1  C3  UNL     1      -6.885  14.913 -16.290  1.00  0.00     0.275 C 
HETATM    2  O2  UNL     1      -6.365  15.288 -17.347  1.00  0.00    -0.266 OA
HETATM    3  N2  UNL     1      -8.227  14.427 -16.235  1.00  0.00    -0.314 N 
ATOM      4  H2  UNL     1      -8.617  14.123 -15.343  1.00  0.00     0.166 HD
ENDROOT
BRANCH   1   5
HETATM    5  C2  UNL     1      -6.101  14.969 -15.036  1.00  0.00     0.149 C 
HETATM    6  N1  UNL     1      -4.925  14.547 -15.148  1.00  0.00    -0.260 N 
ATOM      7  H1  UNL     1      -4.677  14.226 -16.083  1.00  0.00     0.194 HD
BRANCH   6   8
HETATM    8  O1  UNL     1      -3.959  14.450 -14.264  1.00  0.00    -0.285 OA
HETATM    9  C1  UNL     1      -2.767  13.731 -14.571  1.00  0.00     0.237 C 
ENDBRANCH   6   8
BRANCH   5  10
HETATM   10  C11 UNL     1      -6.712  15.537 -13.800  1.00  0.00     0.075 A 
HETATM   11  C12 UNL     1      -7.704  16.481 -13.844  1.00  0.00     0.085 A 
HETATM   12  S1  UNL     1      -7.974  16.807 -12.170  1.00  0.00    -0.064 SA
HETATM   13  C13 UNL     1      -6.831  15.743 -11.534  1.00  0.00     0.142 A 
HETATM   14  N7  UNL     1      -6.288  15.181 -12.605  1.00  0.00    -0.335 N 
ATOM     15  H7  UNL     1      -5.551  14.482 -12.505  1.00  0.00     0.168 HD
BRANCH  13  16
HETATM   16  N6  UNL     1      -6.512  15.485 -10.275  1.00  0.00    -0.380 N 
ATOM     17  H62 UNL     1      -7.158  15.198  -9.540  1.00  0.00     0.158 HD
ATOM     18  H61 UNL     1      -5.607  15.522  -9.805  1.00  0.00     0.158 HD
ENDBRANCH  13  16
ENDBRANCH   5  10
ENDBRANCH   1   5
BRANCH   3  19
HETATM   19  C4  UNL     1      -9.029  14.362 -17.417  1.00  0.00     0.247 C 
HETATM   20  C6  UNL     1     -10.378  13.681 -17.102  1.00  0.00     0.135 C 
HETATM   21  C7  UNL     1      -9.979  12.260 -17.231  1.00  0.00     0.066 C 
HETATM   22  N5  UNL     1      -8.901  12.178 -17.902  1.00  0.00    -0.265 N 
HETATM   23  O5  UNL     1      -8.461  13.421 -18.288  1.00  0.00    -0.237 OA
ATOM     24  H5  UNL     1      -8.426  11.303 -18.124  1.00  0.00     0.194 HD
BRANCH  19  25
HETATM   25  C5  UNL     1      -9.277  15.675 -18.054  1.00  0.00     0.289 C 
HETATM   26  N3  UNL     1      -9.586  16.843 -17.327  1.00  0.00    -0.057 NA
HETATM   27  O3  UNL     1      -9.209  15.759 -19.299  1.00  0.00    -0.271 OA
ENDBRANCH  19  25
BRANCH  21  28
HETATM   28  C8  UNL     1     -10.807  11.171 -16.603  1.00  0.00     0.213 C 
BRANCH  28  29
HETATM   29  N4  UNL     1     -10.518   9.945 -17.185  1.00  0.00    -0.382 NA
HETATM   30  C9  UNL     1     -10.237   8.755 -17.750  1.00  0.00     0.287 C 
HETATM   31  C10 UNL     1      -8.994   8.660 -18.657  1.00  0.00     0.135 C 
HETATM   32  O4  UNL     1     -10.824   7.630 -17.682  1.00  0.00    -0.258 OA
ENDBRANCH  28  29
ENDBRANCH  21  28
ENDBRANCH   3  19
TORSDOF 8
ENDMDL
MODEL 2
REMARK VINA RESULT: -7.264890091      2.444      3.297
REMARK  8 active torsions:
REMARK  status: ('A' for Active; 'I' for Inactive)
REMARK    1  A    between atoms: O1_2  and  N1_3 
REMARK    2  A    between atoms: C2_5  and  C3_6 
REMARK    3  A    between atoms: C2_5  and  C11_24 
REMARK       I    between atoms: C3_6  and  N2_8 
REMARK    4  A    between atoms: N2_8  and  C4_10 
REMARK    5  A    between atoms: C4_10  and  C5_11 
REMARK    6  A    between atoms: C7_15  and  C8_16 
REMARK    7  A    between atoms: C8_16  and  N4_17 
REMARK       I    between atoms: N4_17  and  C9_18 
REMARK    8  A    between atoms: C13_27  and  N6_28 
ROOT
HETATM    1  C3  UNL     1      -8.012  16.680 -16.117  1.00  0.00     0.275 C 
HETATM    2  O2  UNL     1      -7.174  16.856 -17.008  1.00  0.00    -0.266 OA
HETATM    3  N2  UNL     1      -9.258  16.027 -16.365  1.00  0.00    -0.314 N 
ATOM      4  H2  UNL     1      -9.921  15.898 -15.600  1.00  0.00     0.166 HD
ENDROOT
BRANCH   1   5
HETATM    5  C2  UNL     1      -7.726  17.162 -14.748  1.00  0.00     0.149 C 
HETATM    6  N1  UNL     1      -7.341  16.266 -13.958  1.00  0.00    -0.260 N 
ATOM      7  H1  UNL     1      -7.280  15.336 -14.371  1.00  0.00     0.194 HD
BRANCH   6   8
HETATM    8  O1  UNL     1      -7.002  16.324 -12.692  1.00  0.00    -0.285 OA
HETATM    9  C1  UNL     1      -7.567  15.416 -11.749  1.00  0.00     0.237 C 
ENDBRANCH   6   8
BRANCH   5  10
HETATM   10  C11 UNL     1      -7.861  18.612 -14.425  1.00  0.00     0.075 A 
HETATM   11  C12 UNL     1      -8.385  19.048 -13.237  1.00  0.00     0.085 A 
HETATM   12  S1  UNL     1      -8.358  20.764 -13.434  1.00  0.00    -0.064 SA
HETATM   13  C13 UNL     1      -7.695  20.814 -14.983  1.00  0.00     0.142 A 
HETATM   14  N7  UNL     1      -7.518  19.538 -15.296  1.00  0.00    -0.335 N 
ATOM     15  H7  UNL     1      -7.122  19.277 -16.199  1.00  0.00     0.168 HD
BRANCH  13  16
HETATM   16  N6  UNL     1      -7.396  21.852 -15.751  1.00  0.00    -0.380 N 
ATOM     17  H62 UNL     1      -6.832  22.656 -15.477  1.00  0.00     0.158 HD
ATOM     18  H61 UNL     1      -7.656  22.052 -16.717  1.00  0.00     0.158 HD
ENDBRANCH  13  16
ENDBRANCH   5  10
ENDBRANCH   1   5
BRANCH   3  19
HETATM   19  C4  UNL     1      -9.585  15.552 -17.674  1.00  0.00     0.247 C 
HETATM   20  C6  UNL     1     -10.666  14.453 -17.580  1.00  0.00     0.135 C 
HETATM   21  C7  UNL     1      -9.805  13.277 -17.310  1.00  0.00     0.066 C 
HETATM   22  N5  UNL     1      -8.608  13.535 -17.653  1.00  0.00    -0.265 N 
HETATM   23  O5  UNL     1      -8.500  14.808 -18.160  1.00  0.00    -0.237 OA
ATOM     24  H5  UNL     1      -7.829  12.883 -17.564  1.00  0.00     0.194 HD
BRANCH  19  25
HETATM   25  C5  UNL     1     -10.037  16.608 -18.607  1.00  0.00     0.289 C 
HETATM   26  N3  UNL     1     -10.434  17.895 -18.186  1.00  0.00    -0.057 NA
HETATM   27  O3  UNL     1     -10.068  16.354 -19.829  1.00  0.00    -0.271 OA
ENDBRANCH  19  25
BRANCH  21  28
HETATM   28  C8  UNL     1     -10.384  12.027 -16.705  1.00  0.00     0.213 C 
BRANCH  28  29
HETATM   29  N4  UNL     1      -9.838  10.900 -17.303  1.00  0.00    -0.382 NA
HETATM   30  C9  UNL     1      -9.310   9.806 -17.884  1.00  0.00     0.287 C 
HETATM   31  C10 UNL     1     -10.103   8.486 -17.801  1.00  0.00     0.135 C 
HETATM   32  O4  UNL     1      -8.227   9.632 -18.525  1.00  0.00    -0.258 OA
ENDBRANCH  28  29
ENDBRANCH  21  28
ENDBRANCH   3  19
TORSDOF 8
ENDMDL
MODEL 3
REMARK VINA RESULT: -7.208203482      3.211      4.175
REMARK  8 active torsions:
REMARK  status: ('A' for Active; 'I' for Inactive)
REMARK    1  A    between atoms: O1_2  and  N1_3 
REMARK    2  A    between atoms: C2_5  and  C3_6 
REMARK    3  A    between atoms: C2_5  and  C11_24 
REMARK       I    between atoms: C3_6  and  N2_8 
REMARK    4  A    between atoms: N2_8  and  C4_10 
REMARK    5  A    between atoms: C4_10  and  C5_11 
REMARK    6  A    between atoms: C7_15  and  C8_16 
REMARK    7  A    between atoms: C8_16  and  N4_17 
REMARK       I    between atoms: N4_17  and  C9_18 
REMARK    8  A    between atoms: C13_27  and  N6_28 
ROOT
HETATM    1  C3  UNL     1      -8.147  17.508 -16.066  1.00  0.00     0.275 C 
HETATM    2  O2  UNL     1      -7.116  17.373 -16.735  1.00  0.00    -0.266 OA
HETATM    3  N2  UNL     1      -9.386  16.913 -16.454  1.00  0.00    -0.314 N 
ATOM      4  H2  UNL     1     -10.213  17.045 -15.872  1.00  0.00     0.166 HD
ENDROOT
BRANCH   1   5
HETATM    5  C2  UNL     1      -8.106  18.313 -14.826  1.00  0.00     0.149 C 
HETATM    6  N1  UNL     1      -7.711  17.682 -13.817  1.00  0.00    -0.260 N 
ATOM      7  H1  UNL     1      -7.474  16.705 -13.994  1.00  0.00     0.194 HD
BRANCH   6   8
HETATM    8  O1  UNL     1      -7.549  18.064 -12.572  1.00  0.00    -0.285 OA
HETATM    9  C1  UNL     1      -8.636  18.014 -11.652  1.00  0.00     0.237 C 
ENDBRANCH   6   8
BRANCH   5  10
HETATM   10  C11 UNL     1      -8.473  19.758 -14.863  1.00  0.00     0.075 A 
HETATM   11  C12 UNL     1      -9.771  20.184 -14.767  1.00  0.00     0.085 A 
HETATM   12  S1  UNL     1      -9.608  21.896 -14.929  1.00  0.00    -0.064 SA
HETATM   13  C13 UNL     1      -7.932  21.959 -15.104  1.00  0.00     0.142 A 
HETATM   14  N7  UNL     1      -7.557  20.689 -15.035  1.00  0.00    -0.335 N 
ATOM     15  H7  UNL     1      -6.571  20.436 -15.113  1.00  0.00     0.168 HD
BRANCH  13  16
HETATM   16  N6  UNL     1      -7.129  22.999 -15.270  1.00  0.00    -0.380 N 
ATOM     17  H62 UNL     1      -7.086  23.824 -14.672  1.00  0.00     0.158 HD
ATOM     18  H61 UNL     1      -6.431  23.183 -15.991  1.00  0.00     0.158 HD
ENDBRANCH  13  16
ENDBRANCH   5  10
ENDBRANCH   1   5
BRANCH   3  19
HETATM   19  C4  UNL     1      -9.479  16.133 -17.650  1.00  0.00     0.247 C 
HETATM   20  C6  UNL     1     -10.291  14.848 -17.379  1.00  0.00     0.135 C 
HETATM   21  C7  UNL     1      -9.217  13.983 -16.835  1.00  0.00     0.066 C 
HETATM   22  N5  UNL     1      -8.082  14.448 -17.172  1.00  0.00    -0.265 N 
HETATM   23  O5  UNL     1      -8.216  15.590 -17.925  1.00  0.00    -0.237 OA
ATOM     24  H5  UNL     1      -7.188  14.028 -16.916  1.00  0.00     0.194 HD
BRANCH  19  25
HETATM   25  C5  UNL     1     -10.069  16.855 -18.799  1.00  0.00     0.289 C 
HETATM   26  N3  UNL     1     -10.592  18.162 -18.707  1.00  0.00    -0.057 NA
HETATM   27  O3  UNL     1     -10.106  16.284 -19.910  1.00  0.00    -0.271 OA
ENDBRANCH  19  25
BRANCH  21  28
HETATM   28  C8  UNL     1      -9.555  12.770 -16.011  1.00  0.00     0.213 C 
BRANCH  28  29
HETATM   29  N4  UNL     1      -9.408  11.615 -16.766  1.00  0.00    -0.382 NA
HETATM   30  C9  UNL     1      -9.267  10.493 -17.498  1.00  0.00     0.287 C 
HETATM   31  C10 UNL     1     -10.244   9.329 -17.236  1.00  0.00     0.135 C 
HETATM   32  O4  UNL     1      -8.443  10.183 -18.415  1.00  0.00    -0.258 OA
ENDBRANCH  28  29
ENDBRANCH  21  28
ENDBRANCH   3  19
TORSDOF 8
ENDMDL
MODEL 4
REMARK VINA RESULT: -7.180161809      1.830      2.759
REMARK  8 active torsions:
REMARK  status: ('A' for Active; 'I' for Inactive)
REMARK    1  A    between atoms: O1_2  and  N1_3 
REMARK    2  A    between atoms: C2_5  and  C3_6 
REMARK    3  A    between atoms: C2_5  and  C11_24 
REMARK       I    between atoms: C3_6  and  N2_8 
REMARK    4  A    between atoms: N2_8  and  C4_10 
REMARK    5  A    between atoms: C4_10  and  C5_11 
REMARK    6  A    between atoms: C7_15  and  C8_16 
REMARK    7  A    between atoms: C8_16  and  N4_17 
REMARK       I    between atoms: N4_17  and  C9_18 
REMARK    8  A    between atoms: C13_27  and  N6_28 
ROOT
HETATM    1  C3  UNL     1      -6.899  14.944 -16.266  1.00  0.00     0.275 C 
HETATM    2  O2  UNL     1      -6.397  15.391 -17.304  1.00  0.00    -0.266 OA
HETATM    3  N2  UNL     1      -8.221  14.405 -16.234  1.00  0.00    -0.314 N 
ATOM      4  H2  UNL     1      -8.598  14.043 -15.358  1.00  0.00     0.166 HD
ENDROOT
BRANCH   1   5
HETATM    5  C2  UNL     1      -6.115  14.969 -15.012  1.00  0.00     0.149 C 
HETATM    6  N1  UNL     1      -6.745  15.410 -14.021  1.00  0.00    -0.260 N 
ATOM      7  H1  UNL     1      -7.705  15.690 -14.220  1.00  0.00     0.194 HD
BRANCH   6   8
HETATM    8  O1  UNL     1      -6.378  15.573 -12.772  1.00  0.00    -0.285 OA
HETATM    9  C1  UNL     1      -7.237  16.233 -11.845  1.00  0.00     0.237 C 
ENDBRANCH   6   8
BRANCH   5  10
HETATM   10  C11 UNL     1      -4.717  14.450 -14.998  1.00  0.00     0.075 A 
HETATM   11  C12 UNL     1      -4.267  13.542 -15.919  1.00  0.00     0.085 A 
HETATM   12  S1  UNL     1      -2.645  13.262 -15.395  1.00  0.00    -0.064 SA
HETATM   13  C13 UNL     1      -2.644  14.298 -14.065  1.00  0.00     0.142 A 
HETATM   14  N7  UNL     1      -3.864  14.817 -14.063  1.00  0.00    -0.335 N 
ATOM     15  H7  UNL     1      -4.138  15.491 -13.348  1.00  0.00     0.168 HD
BRANCH  13  16
HETATM   16  N6  UNL     1      -1.682  14.572 -13.196  1.00  0.00    -0.380 N 
ATOM     17  H62 UNL     1      -1.197  13.895 -12.606  1.00  0.00     0.158 HD
ATOM     18  H61 UNL     1      -1.253  15.464 -12.948  1.00  0.00     0.158 HD
ENDBRANCH  13  16
ENDBRANCH   5  10
ENDBRANCH   1   5
BRANCH   3  19
HETATM   19  C4  UNL     1      -9.024  14.368 -17.418  1.00  0.00     0.247 C 
HETATM   20  C6  UNL     1     -10.382  13.702 -17.113  1.00  0.00     0.135 C 
HETATM   21  C7  UNL     1     -10.002  12.278 -17.262  1.00  0.00     0.066 C 
HETATM   22  N5  UNL     1      -8.925  12.190 -17.934  1.00  0.00    -0.265 N 
HETATM   23  O5  UNL     1      -8.467  13.432 -18.302  1.00  0.00    -0.237 OA
ATOM     24  H5  UNL     1      -8.462  11.312 -18.168  1.00  0.00     0.194 HD
BRANCH  19  25
HETATM   25  C5  UNL     1      -9.253  15.694 -18.037  1.00  0.00     0.289 C 
HETATM   26  N3  UNL     1      -9.585  16.847 -17.297  1.00  0.00    -0.057 NA
HETATM   27  O3  UNL     1      -9.145  15.802 -19.277  1.00  0.00    -0.271 OA
ENDBRANCH  19  25
BRANCH  21  28
HETATM   28  C8  UNL     1     -10.846  11.192 -16.650  1.00  0.00     0.213 C 
BRANCH  28  29
HETATM   29  N4  UNL     1     -10.536   9.961 -17.212  1.00  0.00    -0.382 NA
HETATM   30  C9  UNL     1     -10.234   8.768 -17.758  1.00  0.00     0.287 C 
HETATM   31  C10 UNL     1      -8.989   8.678 -18.662  1.00  0.00     0.135 C 
HETATM   32  O4  UNL     1     -10.802   7.634 -17.672  1.00  0.00    -0.258 OA
ENDBRANCH  28  29
ENDBRANCH  21  28
ENDBRANCH   3  19
TORSDOF 8
ENDMDL
MODEL 5
REMARK VINA RESULT: -7.085052435      3.989      7.852
REMARK  8 active torsions:
REMARK  status: ('A' for Active; 'I' for Inactive)
REMARK    1  A    between atoms: O1_2  and  N1_3 
REMARK    2  A    between atoms: C2_5  and  C3_6 
REMARK    3  A    between atoms: C2_5  and  C11_24 
REMARK       I    between atoms: C3_6  and  N2_8 
REMARK    4  A    between atoms: N2_8  and  C4_10 
REMARK    5  A    between atoms: C4_10  and  C5_11 
REMARK    6  A    between atoms: C7_15  and  C8_16 
REMARK    7  A    between atoms: C8_16  and  N4_17 
REMARK       I    between atoms: N4_17  and  C9_18 
REMARK    8  A    between atoms: C13_27  and  N6_28 
ROOT
HETATM    1  C3  UNL     1     -10.539  14.342 -16.613  1.00  0.00     0.275 C 
HETATM    2  O2  UNL     1      -9.782  14.528 -15.654  1.00  0.00    -0.266 OA
HETATM    3  N2  UNL     1     -10.471  15.135 -17.799  1.00  0.00    -0.314 N 
ATOM      4  H2  UNL     1     -11.111  14.946 -18.570  1.00  0.00     0.166 HD
ENDROOT
BRANCH   1   5
HETATM    5  C2  UNL     1     -11.553  13.267 -16.539  1.00  0.00     0.149 C 
HETATM    6  N1  UNL     1     -12.728  13.680 -16.394  1.00  0.00    -0.260 N 
ATOM      7  H1  UNL     1     -12.818  14.695 -16.347  1.00  0.00     0.194 HD
BRANCH   6   8
HETATM    8  O1  UNL     1     -13.863  13.028 -16.292  1.00  0.00    -0.285 OA
HETATM    9  C1  UNL     1     -15.071  13.720 -15.989  1.00  0.00     0.237 C 
ENDBRANCH   6   8
BRANCH   5  10
HETATM   10  C11 UNL     1     -11.139  11.841 -16.681  1.00  0.00     0.075 A 
HETATM   11  C12 UNL     1      -9.931  11.483 -17.218  1.00  0.00     0.085 A 
HETATM   12  S1  UNL     1     -10.017   9.758 -17.193  1.00  0.00    -0.064 SA
HETATM   13  C13 UNL     1     -11.553   9.607 -16.514  1.00  0.00     0.142 A 
HETATM   14  N7  UNL     1     -11.945  10.860 -16.331  1.00  0.00    -0.335 N 
ATOM     15  H7  UNL     1     -12.859  11.062 -15.925  1.00  0.00     0.168 HD
BRANCH  13  16
HETATM   16  N6  UNL     1     -12.250   8.522 -16.210  1.00  0.00    -0.380 N 
ATOM     17  H62 UNL     1     -12.023   7.568 -16.490  1.00  0.00     0.158 HD
ATOM     18  H61 UNL     1     -13.108   8.422 -15.668  1.00  0.00     0.158 HD
ENDBRANCH  13  16
ENDBRANCH   5  10
ENDBRANCH   1   5
BRANCH   3  19
HETATM   19  C4  UNL     1      -9.514  16.193 -17.916  1.00  0.00     0.247 C 
HETATM   20  C6  UNL     1      -9.725  17.221 -16.784  1.00  0.00     0.135 C 
HETATM   21  C7  UNL     1     -10.793  18.048 -17.392  1.00  0.00     0.066 C 
HETATM   22  N5  UNL     1     -10.813  17.865 -18.651  1.00  0.00    -0.265 N 
HETATM   23  O5  UNL     1      -9.845  16.968 -19.036  1.00  0.00    -0.237 OA
ATOM     24  H5  UNL     1     -11.462  18.322 -19.290  1.00  0.00     0.194 HD
BRANCH  19  25
HETATM   25  C5  UNL     1      -8.105  15.739 -17.913  1.00  0.00     0.289 C 
HETATM   26  N3  UNL     1      -7.077  16.407 -17.217  1.00  0.00    -0.057 NA
HETATM   27  O3  UNL     1      -7.807  14.710 -18.557  1.00  0.00    -0.271 OA
ENDBRANCH  19  25
BRANCH  21  28
HETATM   28  C8  UNL     1     -11.666  18.925 -16.534  1.00  0.00     0.213 C 
BRANCH  28  29
HETATM   29  N4  UNL     1     -10.888  19.770 -15.756  1.00  0.00    -0.382 NA
HETATM   30  C9  UNL     1     -10.133  20.590 -14.999  1.00  0.00     0.287 C 
HETATM   31  C10 UNL     1      -9.327  19.970 -13.840  1.00  0.00     0.135 C 
HETATM   32  O4  UNL     1      -9.938  21.845 -15.053  1.00  0.00    -0.258 OA
ENDBRANCH  28  29
ENDBRANCH  21  28
ENDBRANCH   3  19
TORSDOF 8
ENDMDL
