MODEL 1
REMARK VINA RESULT: -6.646234876      0.000      0.000
REMARK  5 active torsions:
REMARK  status: ('A' for Active; 'I' for Inactive)
REMARK    1  A    between atoms: C2_2  and  C3_4 
REMARK    2  A    between atoms: C3_4  and  N1_5 
REMARK    3  A    between atoms: N1_5  and  N2_7 
REMARK    4  A    between atoms: N2_7  and  C4_9 
REMARK    5  A    between atoms: C5_12  and  C7_14 
ROOT
HETATM    1  C4  UNL     1      33.257  78.336  61.879  1.00  0.00     0.191 C 
HETATM    2  N3  UNL     1      33.161  77.137  62.428  1.00  0.00    -0.350 N 
ATOM      3  H3  UNL     1      33.870  76.720  63.032  1.00  0.00     0.163 HD
HETATM    4  C5  UNL     1      31.921  76.497  62.062  1.00  0.00     0.053 C 
HETATM    5  C6  UNL     1      32.190  75.419  61.068  1.00  0.00     0.041 C 
HETATM    6  C9  UNL     1      31.058  77.629  61.574  1.00  0.00     0.050 C 
HETATM    7  C10 UNL     1      30.166  77.302  60.423  1.00  0.00     0.041 C 
HETATM    8  C11 UNL     1      30.321  78.363  62.641  1.00  0.00     0.041 C 
HETATM    9  N4  UNL     1      32.101  78.563  61.102  1.00  0.00    -0.350 N 
ATOM     10  H4  UNL     1      32.004  79.247  60.351  1.00  0.00     0.163 HD
ENDROOT
BRANCH   1  11
HETATM   11  N2  UNL     1      34.319  79.230  62.034  1.00  0.00    -0.276 N 
ATOM     12  H2  UNL     1      34.497  79.732  61.164  1.00  0.00     0.189 HD
BRANCH  11  13
HETATM   13  N1  UNL     1      35.151  79.614  62.968  1.00  0.00    -0.329 N 
ATOM     14  H1  UNL     1      36.123  79.772  62.701  1.00  0.00     0.180 HD
BRANCH  13  15
HETATM   15  C3  UNL     1      34.798  79.825  64.317  1.00  0.00     0.184 C 
BRANCH  15  16
HETATM   16  C2  UNL     1      35.901  80.422  65.082  1.00  0.00    -0.002 C 
HETATM   17  C1  UNL     1      37.156  80.334  64.766  1.00  0.00     0.029 C 
HETATM   18 BR1  UNL     1      35.504  81.415  66.713  1.00  0.00    -0.055 Br
ENDBRANCH  15  16
ENDBRANCH  13  15
ENDBRANCH  11  13
ENDBRANCH   1  11
BRANCH   4  19
HETATM   19  C7  UNL     1      31.435  75.864  63.359  1.00  0.00     0.029 C 
HETATM   20  C8  UNL     1      32.505  75.603  64.352  1.00  0.00     0.007 C 
ENDBRANCH   4  19
TORSDOF 5
ENDMDL
MODEL 2
REMARK VINA RESULT: -6.597305784      3.991      6.287
REMARK  5 active torsions:
REMARK  status: ('A' for Active; 'I' for Inactive)
REMARK    1  A    between atoms: C2_2  and  C3_4 
REMARK    2  A    between atoms: C3_4  and  N1_5 
REMARK    3  A    between atoms: N1_5  and  N2_7 
REMARK    4  A    between atoms: N2_7  and  C4_9 
REMARK    5  A    between atoms: C5_12  and  C7_14 
ROOT
HETATM    1  C4  UNL     1      30.228  77.957  62.396  1.00  0.00     0.191 C 
HETATM    2  N3  UNL     1      31.173  78.247  63.272  1.00  0.00    -0.350 N 
ATOM      3  H3  UNL     1      31.007  78.421  64.264  1.00  0.00     0.163 HD
HETATM    4  C5  UNL     1      32.470  78.287  62.642  1.00  0.00     0.053 C 
HETATM    5  C6  UNL     1      32.918  79.703  62.510  1.00  0.00     0.041 C 
HETATM    6  C9  UNL     1      32.268  77.547  61.347  1.00  0.00     0.050 C 
HETATM    7  C10 UNL     1      33.022  78.088  60.178  1.00  0.00     0.041 C 
HETATM    8  C11 UNL     1      32.399  76.066  61.442  1.00  0.00     0.041 C 
HETATM    9  N4  UNL     1      30.828  77.802  61.128  1.00  0.00    -0.350 N 
ATOM     10  H4  UNL     1      30.356  77.855  60.226  1.00  0.00     0.163 HD
ENDROOT
BRANCH   1  11
HETATM   11  N2  UNL     1      28.864  77.825  62.668  1.00  0.00    -0.276 N 
ATOM     12  H2  UNL     1      28.488  78.692  63.052  1.00  0.00     0.189 HD
BRANCH  11  13
HETATM   13  N1  UNL     1      27.927  76.917  62.575  1.00  0.00    -0.329 N 
ATOM     14  H1  UNL     1      26.957  77.226  62.651  1.00  0.00     0.180 HD
BRANCH  13  15
HETATM   15  C3  UNL     1      28.164  75.540  62.376  1.00  0.00     0.184 C 
BRANCH  15  16
HETATM   16  C2  UNL     1      28.038  75.164  60.961  1.00  0.00    -0.002 C 
HETATM   17  C1  UNL     1      29.034  74.908  60.170  1.00  0.00     0.029 C 
HETATM   18 BR1  UNL     1      26.265  75.044  60.160  1.00  0.00    -0.055 Br
ENDBRANCH  15  16
ENDBRANCH  13  15
ENDBRANCH  11  13
ENDBRANCH   1  11
BRANCH   4  19
HETATM   19  C7  UNL     1      33.382  77.569  63.628  1.00  0.00     0.029 C 
HETATM   20  C8  UNL     1      34.545  78.370  64.080  1.00  0.00     0.007 C 
ENDBRANCH   4  19
TORSDOF 5
ENDMDL
MODEL 3
REMARK VINA RESULT: -6.406657849      1.110      1.880
REMARK  5 active torsions:
REMARK  status: ('A' for Active; 'I' for Inactive)
REMARK    1  A    between atoms: C2_2  and  C3_4 
REMARK    2  A    between atoms: C3_4  and  N1_5 
REMARK    3  A    between atoms: N1_5  and  N2_7 
REMARK    4  A    between atoms: N2_7  and  C4_9 
REMARK    5  A    between atoms: C5_12  and  C7_14 
ROOT
HETATM    1  C4  UNL     1      33.700  79.025  61.975  1.00  0.00     0.191 C 
HETATM    2  N3  UNL     1      33.411  78.063  61.116  1.00  0.00    -0.350 N 
ATOM      3  H3  UNL     1      34.054  77.712  60.405  1.00  0.00     0.163 HD
HETATM    4  C5  UNL     1      32.069  77.576  61.315  1.00  0.00     0.053 C 
HETATM    5  C6  UNL     1      31.189  78.071  60.218  1.00  0.00     0.041 C 
HETATM    6  C9  UNL     1      31.711  78.050  62.698  1.00  0.00     0.050 C 
HETATM    7  C10 UNL     1      30.291  78.473  62.881  1.00  0.00     0.041 C 
HETATM    8  C11 UNL     1      32.160  77.159  63.804  1.00  0.00     0.041 C 
HETATM    9  N4  UNL     1      32.568  79.251  62.787  1.00  0.00    -0.350 N 
ATOM     10  H4  UNL     1      32.376  80.090  63.334  1.00  0.00     0.163 HD
ENDROOT
BRANCH   1  11
HETATM   11  N2  UNL     1      34.914  79.709  62.069  1.00  0.00    -0.276 N 
ATOM     12  H2  UNL     1      34.990  80.412  61.335  1.00  0.00     0.189 HD
BRANCH  11  13
HETATM   13  N1  UNL     1      35.983  79.713  62.824  1.00  0.00    -0.329 N 
ATOM     14  H1  UNL     1      36.853  80.051  62.413  1.00  0.00     0.180 HD
BRANCH  13  15
HETATM   15  C3  UNL     1      36.016  79.280  64.167  1.00  0.00     0.184 C 
BRANCH  15  16
HETATM   16  C2  UNL     1      36.531  80.324  65.063  1.00  0.00    -0.002 C 
HETATM   17  C1  UNL     1      37.732  80.813  65.019  1.00  0.00     0.029 C 
HETATM   18 BR1  UNL     1      35.371  81.047  66.453  1.00  0.00    -0.055 Br
ENDBRANCH  15  16
ENDBRANCH  13  15
ENDBRANCH  11  13
ENDBRANCH   1  11
BRANCH   4  19
HETATM   19  C7  UNL     1      32.203  76.063  61.196  1.00  0.00     0.029 C 
HETATM   20  C8  UNL     1      30.923  75.352  60.961  1.00  0.00     0.007 C 
ENDBRANCH   4  19
TORSDOF 5
ENDMDL
MODEL 4
REMARK VINA RESULT: -6.297276972      4.260      6.769
REMARK  5 active torsions:
REMARK  status: ('A' for Active; 'I' for Inactive)
REMARK    1  A    between atoms: C2_2  and  C3_4 
REMARK    2  A    between atoms: C3_4  and  N1_5 
REMARK    3  A    between atoms: N1_5  and  N2_7 
REMARK    4  A    between atoms: N2_7  and  C4_9 
REMARK    5  A    between atoms: C5_12  and  C7_14 
ROOT
HETATM    1  C4  UNL     1      30.064  77.608  62.243  1.00  0.00     0.191 C 
HETATM    2  N3  UNL     1      30.928  77.968  63.175  1.00  0.00    -0.350 N 
ATOM      3  H3  UNL     1      30.702  78.068  64.165  1.00  0.00     0.163 HD
HETATM    4  C5  UNL     1      32.234  78.203  62.609  1.00  0.00     0.053 C 
HETATM    5  C6  UNL     1      32.503  79.668  62.563  1.00  0.00     0.041 C 
HETATM    6  C9  UNL     1      32.180  77.511  61.273  1.00  0.00     0.050 C 
HETATM    7  C10 UNL     1      32.906  78.202  60.166  1.00  0.00     0.041 C 
HETATM    8  C11 UNL     1      32.495  76.056  61.305  1.00  0.00     0.041 C 
HETATM    9  N4  UNL     1      30.730  77.595  60.999  1.00  0.00    -0.350 N 
ATOM     10  H4  UNL     1      30.291  77.635  60.079  1.00  0.00     0.163 HD
ENDROOT
BRANCH   1  11
HETATM   11  N2  UNL     1      28.718  77.293  62.445  1.00  0.00    -0.276 N 
ATOM     12  H2  UNL     1      28.279  77.969  63.070  1.00  0.00     0.189 HD
BRANCH  11  13
HETATM   13  N1  UNL     1      27.854  76.385  62.066  1.00  0.00    -0.329 N 
ATOM     14  H1  UNL     1      26.863  76.589  62.198  1.00  0.00     0.180 HD
BRANCH  13  15
HETATM   15  C3  UNL     1      28.198  75.145  61.489  1.00  0.00     0.184 C 
BRANCH  15  16
HETATM   16  C2  UNL     1      27.285  74.779  60.398  1.00  0.00    -0.002 C 
HETATM   17  C1  UNL     1      26.177  75.395  60.120  1.00  0.00     0.029 C 
HETATM   18 BR1  UNL     1      27.714  73.252  59.265  1.00  0.00    -0.055 Br
ENDBRANCH  15  16
ENDBRANCH  13  15
ENDBRANCH  11  13
ENDBRANCH   1  11
BRANCH   4  19
HETATM   19  C7  UNL     1      33.189  77.555  63.602  1.00  0.00     0.029 C 
HETATM   20  C8  UNL     1      34.372  78.382  63.941  1.00  0.00     0.007 C 
ENDBRANCH   4  19
TORSDOF 5
ENDMDL
MODEL 5
REMARK VINA RESULT: -6.296042260      1.285      1.559
REMARK  5 active torsions:
REMARK  status: ('A' for Active; 'I' for Inactive)
REMARK    1  A    between atoms: C2_2  and  C3_4 
REMARK    2  A    between atoms: C3_4  and  N1_5 
REMARK    3  A    between atoms: N1_5  and  N2_7 
REMARK    4  A    between atoms: N2_7  and  C4_9 
REMARK    5  A    between atoms: C5_12  and  C7_14 
ROOT
HETATM    1  C4  UNL     1      33.625  77.389  63.204  1.00  0.00     0.191 C 
HETATM    2  N3  UNL     1      32.764  76.392  63.307  1.00  0.00    -0.350 N 
ATOM      3  H3  UNL     1      32.820  75.652  64.007  1.00  0.00     0.163 HD
HETATM    4  C5  UNL     1      31.737  76.488  62.300  1.00  0.00     0.053 C 
HETATM    5  C6  UNL     1      31.969  75.456  61.249  1.00  0.00     0.041 C 
HETATM    6  C9  UNL     1      31.815  77.917  61.835  1.00  0.00     0.050 C 
HETATM    7  C10 UNL     1      31.574  78.129  60.377  1.00  0.00     0.041 C 
HETATM    8  C11 UNL     1      31.046  78.890  62.660  1.00  0.00     0.041 C 
HETATM    9  N4  UNL     1      33.238  78.200  62.115  1.00  0.00    -0.350 N 
ATOM     10  H4  UNL     1      33.832  78.861  61.614  1.00  0.00     0.163 HD
ENDROOT
BRANCH   1  11
HETATM   11  N2  UNL     1      34.734  77.610  64.025  1.00  0.00    -0.276 N 
ATOM     12  H2  UNL     1      34.738  76.957  64.808  1.00  0.00     0.189 HD
BRANCH  11  13
HETATM   13  N1  UNL     1      35.768  78.409  64.084  1.00  0.00    -0.329 N 
ATOM     14  H1  UNL     1      36.687  77.986  64.213  1.00  0.00     0.180 HD
BRANCH  13  15
HETATM   15  C3  UNL     1      35.701  79.814  63.981  1.00  0.00     0.184 C 
BRANCH  15  16
HETATM   16  C2  UNL     1      36.437  80.476  65.067  1.00  0.00    -0.002 C 
HETATM   17  C1  UNL     1      37.710  80.726  65.055  1.00  0.00     0.029 C 
HETATM   18 BR1  UNL     1      35.479  81.022  66.675  1.00  0.00    -0.055 Br
ENDBRANCH  15  16
ENDBRANCH  13  15
ENDBRANCH  11  13
ENDBRANCH   1  11
BRANCH   4  19
HETATM   19  C7  UNL     1      30.453  76.151  63.048  1.00  0.00     0.029 C 
HETATM   20  C8  UNL     1      29.322  75.754  62.174  1.00  0.00     0.007 C 
ENDBRANCH   4  19
TORSDOF 5
ENDMDL
