MODEL 1
REMARK VINA RESULT: -7.010018135      0.000      0.000
REMARK  4 active torsions:
REMARK  status: ('A' for Active; 'I' for Inactive)
REMARK    1  A    between atoms: O1_2  and  C2_3 
REMARK    2  A    between atoms: N3_13  and  C6_14 
REMARK    3  A    between atoms: C7_17  and  N5_18 
REMARK    4  A    between atoms: N9_30  and  N10_31 
ROOT
HETATM    1  C2  UNL     1      -2.736   5.362   8.671  1.00  0.00     0.249 A 
HETATM    2  N1  UNL     1      -1.509   5.758   8.286  1.00  0.00    -0.287 N 
ATOM      3  H1  UNL     1      -1.409   6.352   7.463  1.00  0.00     0.172 HD
HETATM    4  C3  UNL     1      -0.410   5.382   8.973  1.00  0.00     0.268 A 
HETATM    5  O2  UNL     1       0.749   5.731   8.644  1.00  0.00    -0.267 OA
HETATM    6  C4  UNL     1      -0.564   4.579  10.081  1.00  0.00     0.149 A 
HETATM    7  C5  UNL     1       0.348   4.043  10.967  1.00  0.00     0.280 A 
HETATM    8  O3  UNL     1       1.599   4.149  10.996  1.00  0.00    -0.266 OA
HETATM    9  N2  UNL     1      -0.362   3.337  11.863  1.00  0.00    -0.242 N 
ATOM     10  H2  UNL     1       0.031   2.819  12.648  1.00  0.00     0.191 HD
HETATM   11  N3  UNL     1      -1.658   3.416  11.567  1.00  0.00    -0.062 N 
HETATM   12  C12 UNL     1      -1.844   4.174  10.472  1.00  0.00     0.191 A 
HETATM   13  N9  UNL     1      -2.910   4.579   9.749  1.00  0.00    -0.205 N 
ENDROOT
BRANCH  11  14
HETATM   14  C6  UNL     1      -2.701   2.791  12.301  1.00  0.00     0.735 A 
HETATM   15  N4  UNL     1      -3.248   3.159  13.484  1.00  0.00    -0.018 N 
HETATM   16  C7  UNL     1      -4.210   2.316  13.854  1.00  0.00     0.710 A 
ATOM     17  H4  UNL     1      -2.960   3.976  14.023  1.00  0.00     0.203 HD
HETATM   18  N7  UNL     1      -4.266   1.390  12.867  1.00  0.00    -0.117 N 
HETATM   19  N8  UNL     1      -3.364   1.675  11.941  1.00  0.00    -0.115 N 
ATOM     20  H7  UNL     1      -4.905   0.595  12.842  1.00  0.00     0.206 HD
ATOM     21  H8  UNL     1      -3.198   1.136  11.091  1.00  0.00     0.206 HD
BRANCH  16  22
HETATM   22  N5  UNL     1      -5.004   2.381  15.031  1.00  0.00    -0.213 N 
HETATM   23  C8  UNL     1      -5.761   3.584  15.278  1.00  0.00     0.160 C 
HETATM   24  C9  UNL     1      -6.706   3.505  16.410  1.00  0.00     0.134 C 
HETATM   25  N6  UNL     1      -6.517   2.450  17.331  1.00  0.00    -0.418 N 
HETATM   26  C10 UNL     1      -5.244   1.823  17.328  1.00  0.00     0.134 C 
ATOM     27  H6  UNL     1      -7.258   2.154  17.966  1.00  0.00     0.153 HD
HETATM   28  C11 UNL     1      -5.021   1.241  15.927  1.00  0.00     0.160 C 
ENDBRANCH  16  22
ENDBRANCH  11  14
BRANCH  13  29
HETATM   29  N10 UNL     1      -4.174   4.178  10.137  1.00  0.00    -0.334 N 
ATOM     30 2H10 UNL     1      -4.795   4.857  10.576  1.00  0.00     0.177 HD
ATOM     31 1H10 UNL     1      -4.487   3.218   9.988  1.00  0.00     0.177 HD
ENDBRANCH  13  29
BRANCH   1  32
HETATM   32  O1  UNL     1      -3.844   5.783   7.921  1.00  0.00    -0.326 OA
HETATM   33  C1  UNL     1      -3.665   6.454   6.689  1.00  0.00     0.213 C 
ENDBRANCH   1  32
TORSDOF 4
ENDMDL
MODEL 2
REMARK VINA RESULT: -6.972945716      3.689      7.257
REMARK  4 active torsions:
REMARK  status: ('A' for Active; 'I' for Inactive)
REMARK    1  A    between atoms: O1_2  and  C2_3 
REMARK    2  A    between atoms: N3_13  and  C6_14 
REMARK    3  A    between atoms: C7_17  and  N5_18 
REMARK    4  A    between atoms: N9_30  and  N10_31 
ROOT
HETATM    1  C2  UNL     1      -3.982   3.849  13.772  1.00  0.00     0.249 A 
HETATM    2  N1  UNL     1      -4.559   2.657  13.535  1.00  0.00    -0.287 N 
ATOM      3  H1  UNL     1      -5.401   2.395  14.049  1.00  0.00     0.172 HD
HETATM    4  C3  UNL     1      -4.041   1.802  12.629  1.00  0.00     0.268 A 
HETATM    5  O2  UNL     1      -4.551   0.683  12.381  1.00  0.00    -0.267 OA
HETATM    6  C4  UNL     1      -2.904   2.171  11.945  1.00  0.00     0.149 A 
HETATM    7  C5  UNL     1      -2.157   1.527  10.980  1.00  0.00     0.280 A 
HETATM    8  O3  UNL     1      -2.323   0.399  10.454  1.00  0.00    -0.266 OA
HETATM    9  N2  UNL     1      -1.148   2.357  10.665  1.00  0.00    -0.242 N 
ATOM     10  H2  UNL     1      -0.420   2.162   9.977  1.00  0.00     0.191 HD
HETATM   11  N3  UNL     1      -1.243   3.470  11.388  1.00  0.00    -0.062 N 
HETATM   12  C12 UNL     1      -2.313   3.413  12.200  1.00  0.00     0.191 A 
HETATM   13  N9  UNL     1      -2.873   4.229  13.118  1.00  0.00    -0.205 N 
ENDROOT
BRANCH  11  14
HETATM   14  C6  UNL     1      -0.345   4.569  11.316  1.00  0.00     0.735 A 
HETATM   15  N4  UNL     1       0.803   4.776  12.005  1.00  0.00    -0.018 N 
HETATM   16  C7  UNL     1       1.370   5.930  11.660  1.00  0.00     0.710 A 
ATOM     17  H4  UNL     1       1.183   4.132  12.698  1.00  0.00     0.203 HD
HETATM   18  N7  UNL     1       0.549   6.461  10.724  1.00  0.00    -0.117 N 
HETATM   19  N8  UNL     1      -0.475   5.648  10.520  1.00  0.00    -0.115 N 
ATOM     20  H7  UNL     1       0.696   7.352  10.248  1.00  0.00     0.206 HD
ATOM     21  H8  UNL     1      -1.240   5.811   9.865  1.00  0.00     0.206 HD
BRANCH  16  22
HETATM   22  N5  UNL     1       2.579   6.479  12.168  1.00  0.00    -0.213 N 
HETATM   23  C8  UNL     1       2.649   7.906  12.371  1.00  0.00     0.160 C 
HETATM   24  C9  UNL     1       3.857   8.378  13.078  1.00  0.00     0.134 C 
HETATM   25  N6  UNL     1       4.949   7.484  13.147  1.00  0.00    -0.418 N 
HETATM   26  C10 UNL     1       4.953   6.411  12.219  1.00  0.00     0.134 C 
ATOM     27  H6  UNL     1       5.696   7.604  13.831  1.00  0.00     0.153 HD
HETATM   28  C11 UNL     1       3.684   5.587  12.461  1.00  0.00     0.160 C 
ENDBRANCH  16  22
ENDBRANCH  11  14
BRANCH  13  29
HETATM   29  N10 UNL     1      -2.288   5.456  13.368  1.00  0.00    -0.334 N 
ATOM     30 2H10 UNL     1      -1.790   5.595  14.248  1.00  0.00     0.177 HD
ATOM     31 1H10 UNL     1      -2.348   6.213  12.688  1.00  0.00     0.177 HD
ENDBRANCH  13  29
BRANCH   1  32
HETATM   32  O1  UNL     1      -4.563   4.698  14.726  1.00  0.00    -0.326 OA
HETATM   33  C1  UNL     1      -5.965   4.724  14.908  1.00  0.00     0.213 C 
ENDBRANCH   1  32
TORSDOF 4
ENDMDL
MODEL 3
REMARK VINA RESULT: -6.932561236      1.655      2.098
REMARK  4 active torsions:
REMARK  status: ('A' for Active; 'I' for Inactive)
REMARK    1  A    between atoms: O1_2  and  C2_3 
REMARK    2  A    between atoms: N3_13  and  C6_14 
REMARK    3  A    between atoms: C7_17  and  N5_18 
REMARK    4  A    between atoms: N9_30  and  N10_31 
ROOT
HETATM    1  C2  UNL     1      -4.616   6.052   9.704  1.00  0.00     0.249 A 
HETATM    2  N1  UNL     1      -3.860   5.966   8.594  1.00  0.00    -0.287 N 
ATOM      3  H1  UNL     1      -4.153   6.455   7.748  1.00  0.00     0.172 HD
HETATM    4  C3  UNL     1      -2.721   5.244   8.584  1.00  0.00     0.268 A 
HETATM    5  O2  UNL     1      -1.990   5.142   7.570  1.00  0.00    -0.267 OA
HETATM    6  C4  UNL     1      -2.340   4.590   9.734  1.00  0.00     0.149 A 
HETATM    7  C5  UNL     1      -1.253   3.793  10.027  1.00  0.00     0.280 A 
HETATM    8  O3  UNL     1      -0.293   3.442   9.298  1.00  0.00    -0.266 OA
HETATM    9  N2  UNL     1      -1.390   3.420  11.311  1.00  0.00    -0.242 N 
ATOM     10  H2  UNL     1      -0.740   2.823  11.823  1.00  0.00     0.191 HD
HETATM   11  N3  UNL     1      -2.503   3.950  11.813  1.00  0.00    -0.062 N 
HETATM   12  C12 UNL     1      -3.135   4.686  10.882  1.00  0.00     0.191 A 
HETATM   13  N9  UNL     1      -4.265   5.422  10.837  1.00  0.00    -0.205 N 
ENDROOT
BRANCH  11  14
HETATM   14  C6  UNL     1      -2.964   3.768  13.145  1.00  0.00     0.735 A 
HETATM   15  N4  UNL     1      -3.969   2.981  13.597  1.00  0.00    -0.018 N 
HETATM   16  C7  UNL     1      -4.101   3.080  14.919  1.00  0.00     0.710 A 
ATOM     17  H4  UNL     1      -4.549   2.389  13.003  1.00  0.00     0.203 HD
HETATM   18  N7  UNL     1      -3.146   3.960  15.304  1.00  0.00    -0.117 N 
HETATM   19  N8  UNL     1      -2.469   4.370  14.244  1.00  0.00    -0.115 N 
ATOM     20  H7  UNL     1      -2.975   4.260  16.264  1.00  0.00     0.206 HD
ATOM     21  H8  UNL     1      -1.695   5.035  14.256  1.00  0.00     0.206 HD
BRANCH  16  22
HETATM   22  N5  UNL     1      -5.043   2.404  15.741  1.00  0.00    -0.213 N 
HETATM   23  C8  UNL     1      -6.225   3.120  16.156  1.00  0.00     0.160 C 
HETATM   24  C9  UNL     1      -7.243   2.299  16.842  1.00  0.00     0.134 C 
HETATM   25  N6  UNL     1      -6.826   1.044  17.340  1.00  0.00    -0.418 N 
HETATM   26  C10 UNL     1      -5.429   0.856  17.502  1.00  0.00     0.134 C 
ATOM     27  H6  UNL     1      -7.496   0.311  17.571  1.00  0.00     0.153 HD
HETATM   28  C11 UNL     1      -4.778   1.031  16.125  1.00  0.00     0.160 C 
ENDBRANCH  16  22
ENDBRANCH  11  14
BRANCH  13  29
HETATM   29  N10 UNL     1      -5.048   5.516  11.972  1.00  0.00    -0.334 N 
ATOM     30 2H10 UNL     1      -5.795   4.835  12.114  1.00  0.00     0.177 HD
ATOM     31 1H10 UNL     1      -4.886   6.251  12.660  1.00  0.00     0.177 HD
ENDBRANCH  13  29
BRANCH   1  32
HETATM   32  O1  UNL     1      -5.791   6.817   9.658  1.00  0.00    -0.326 OA
HETATM   33  C1  UNL     1      -6.397   7.131   8.420  1.00  0.00     0.213 C 
ENDBRANCH   1  32
TORSDOF 4
ENDMDL
MODEL 4
REMARK VINA RESULT: -6.916721408      3.668      7.342
REMARK  4 active torsions:
REMARK  status: ('A' for Active; 'I' for Inactive)
REMARK    1  A    between atoms: O1_2  and  C2_3 
REMARK    2  A    between atoms: N3_13  and  C6_14 
REMARK    3  A    between atoms: C7_17  and  N5_18 
REMARK    4  A    between atoms: N9_30  and  N10_31 
ROOT
HETATM    1  C2  UNL     1      -3.961   3.854  13.829  1.00  0.00     0.249 A 
HETATM    2  N1  UNL     1      -4.561   2.673  13.594  1.00  0.00    -0.287 N 
ATOM      3  H1  UNL     1      -5.396   2.421  14.122  1.00  0.00     0.172 HD
HETATM    4  C3  UNL     1      -4.073   1.818  12.672  1.00  0.00     0.268 A 
HETATM    5  O2  UNL     1      -4.605   0.709  12.425  1.00  0.00    -0.267 OA
HETATM    6  C4  UNL     1      -2.944   2.174  11.969  1.00  0.00     0.149 A 
HETATM    7  C5  UNL     1      -2.226   1.526  10.984  1.00  0.00     0.280 A 
HETATM    8  O3  UNL     1      -2.420   0.405  10.453  1.00  0.00    -0.266 OA
HETATM    9  N2  UNL     1      -1.210   2.342  10.656  1.00  0.00    -0.242 N 
ATOM     10  H2  UNL     1      -0.499   2.142   9.953  1.00  0.00     0.191 HD
HETATM   11  N3  UNL     1      -1.274   3.451  11.389  1.00  0.00    -0.062 N 
HETATM   12  C12 UNL     1      -2.329   3.404  12.221  1.00  0.00     0.191 A 
HETATM   13  N9  UNL     1      -2.858   4.222  13.156  1.00  0.00    -0.205 N 
ENDROOT
BRANCH  11  14
HETATM   14  C6  UNL     1      -0.360   4.536  11.308  1.00  0.00     0.735 A 
HETATM   15  N4  UNL     1       0.868   4.658  11.867  1.00  0.00    -0.018 N 
HETATM   16  C7  UNL     1       1.422   5.830  11.561  1.00  0.00     0.710 A 
ATOM     17  H4  UNL     1       1.311   3.945  12.446  1.00  0.00     0.203 HD
HETATM   18  N7  UNL     1       0.509   6.461  10.786  1.00  0.00    -0.117 N 
HETATM   19  N8  UNL     1      -0.555   5.687  10.636  1.00  0.00    -0.115 N 
ATOM     20  H7  UNL     1       0.623   7.390  10.380  1.00  0.00     0.206 HD
ATOM     21  H8  UNL     1      -1.388   5.925  10.098  1.00  0.00     0.206 HD
BRANCH  16  22
HETATM   22  N5  UNL     1       2.698   6.308  11.965  1.00  0.00    -0.213 N 
HETATM   23  C8  UNL     1       3.783   5.362  12.059  1.00  0.00     0.160 C 
HETATM   24  C9  UNL     1       5.113   5.959  12.295  1.00  0.00     0.134 C 
HETATM   25  N6  UNL     1       5.144   7.292  12.760  1.00  0.00    -0.418 N 
HETATM   26  C10 UNL     1       3.948   7.794  13.335  1.00  0.00     0.134 C 
ATOM     27  H6  UNL     1       5.985   7.865  12.687  1.00  0.00     0.153 HD
HETATM   28  C11 UNL     1       2.855   7.719  12.262  1.00  0.00     0.160 C 
ENDBRANCH  16  22
ENDBRANCH  11  14
BRANCH  13  29
HETATM   29  N10 UNL     1      -2.249   5.437  13.404  1.00  0.00    -0.334 N 
ATOM     30 2H10 UNL     1      -1.371   5.655  12.933  1.00  0.00     0.177 HD
ATOM     31 1H10 UNL     1      -2.667   6.111  14.047  1.00  0.00     0.177 HD
ENDBRANCH  13  29
BRANCH   1  32
HETATM   32  O1  UNL     1      -4.510   4.705  14.800  1.00  0.00    -0.326 OA
HETATM   33  C1  UNL     1      -5.911   4.851  14.919  1.00  0.00     0.213 C 
ENDBRANCH   1  32
TORSDOF 4
ENDMDL
MODEL 5
REMARK VINA RESULT: -6.901683479      3.743      7.722
REMARK  4 active torsions:
REMARK  status: ('A' for Active; 'I' for Inactive)
REMARK    1  A    between atoms: O1_2  and  C2_3 
REMARK    2  A    between atoms: N3_13  and  C6_14 
REMARK    3  A    between atoms: C7_17  and  N5_18 
REMARK    4  A    between atoms: N9_30  and  N10_31 
ROOT
HETATM    1  C2  UNL     1      -3.101   0.925  11.241  1.00  0.00     0.249 A 
HETATM    2  N1  UNL     1      -4.428   1.138  11.296  1.00  0.00    -0.287 N 
ATOM      3  H1  UNL     1      -5.066   0.342  11.282  1.00  0.00     0.172 HD
HETATM    4  C3  UNL     1      -4.929   2.389  11.369  1.00  0.00     0.268 A 
HETATM    5  O2  UNL     1      -6.159   2.627  11.422  1.00  0.00    -0.267 OA
HETATM    6  C4  UNL     1      -4.054   3.453  11.387  1.00  0.00     0.149 A 
HETATM    7  C5  UNL     1      -4.259   4.816  11.456  1.00  0.00     0.280 A 
HETATM    8  O3  UNL     1      -5.330   5.466  11.522  1.00  0.00    -0.266 OA
HETATM    9  N2  UNL     1      -3.041   5.384  11.439  1.00  0.00    -0.242 N 
ATOM     10  H2  UNL     1      -2.859   6.387  11.478  1.00  0.00     0.191 HD
HETATM   11  N3  UNL     1      -2.108   4.437  11.365  1.00  0.00    -0.062 N 
HETATM   12  C12 UNL     1      -2.676   3.219  11.330  1.00  0.00     0.191 A 
HETATM   13  N9  UNL     1      -2.230   1.947  11.257  1.00  0.00    -0.205 N 
ENDROOT
BRANCH  11  14
HETATM   14  C6  UNL     1      -0.707   4.673  11.328  1.00  0.00     0.735 A 
HETATM   15  N4  UNL     1       0.134   4.638  10.267  1.00  0.00    -0.018 N 
HETATM   16  C7  UNL     1       1.384   4.917  10.634  1.00  0.00     0.710 A 
ATOM     17  H4  UNL     1      -0.152   4.427   9.312  1.00  0.00     0.203 HD
HETATM   18  N7  UNL     1       1.320   5.132  11.970  1.00  0.00    -0.117 N 
HETATM   19  N8  UNL     1       0.071   4.986  12.382  1.00  0.00    -0.115 N 
ATOM     20  H7  UNL     1       2.113   5.370  12.566  1.00  0.00     0.206 HD
ATOM     21  H8  UNL     1      -0.251   5.093  13.344  1.00  0.00     0.206 HD
BRANCH  16  22
HETATM   22  N5  UNL     1       2.532   4.974   9.798  1.00  0.00    -0.213 N 
HETATM   23  C8  UNL     1       2.509   4.242   8.555  1.00  0.00     0.160 C 
HETATM   24  C9  UNL     1       3.651   4.503   7.656  1.00  0.00     0.134 C 
HETATM   25  N6  UNL     1       4.788   5.118   8.226  1.00  0.00    -0.418 N 
HETATM   26  C10 UNL     1       4.901   5.063   9.639  1.00  0.00     0.134 C 
ATOM     27  H6  UNL     1       5.492   5.579   7.649  1.00  0.00     0.153 HD
HETATM   28  C11 UNL     1       3.670   5.764  10.227  1.00  0.00     0.160 C 
ENDBRANCH  16  22
ENDBRANCH  11  14
BRANCH  13  29
HETATM   29  N10 UNL     1      -0.868   1.718  11.201  1.00  0.00    -0.334 N 
ATOM     30 2H10 UNL     1      -0.484   0.904  11.680  1.00  0.00     0.177 HD
ATOM     31 1H10 UNL     1      -0.252   2.350  10.688  1.00  0.00     0.177 HD
ENDBRANCH  13  29
BRANCH   1  32
HETATM   32  O1  UNL     1      -2.636  -0.396  11.166  1.00  0.00    -0.326 OA
HETATM   33  C1  UNL     1      -3.475  -1.476  11.525  1.00  0.00     0.213 C 
ENDBRANCH   1  32
TORSDOF 4
ENDMDL
