MODEL 1
REMARK VINA RESULT: -9.753411656      0.000      0.000
REMARK  6 active torsions:
REMARK  status: ('A' for Active; 'I' for Inactive)
REMARK    1  A    between atoms: O1_2  and  C2_3 
REMARK    2  A    between atoms: C2_3  and  C3_5 
REMARK    3  A    between atoms: C6_13  and  N4_14 
REMARK       I    between atoms: N4_14  and  C7_16 
REMARK       I    between atoms: C7_16  and  N5_18 
REMARK    4  A    between atoms: N5_18  and  S1_20 
REMARK    5  A    between atoms: S1_20  and  C8_23 
REMARK    6  A    between atoms: C13_28  and  N6_29 
ROOT
HETATM    1  N4  UNL     1      16.393 -26.503  22.223  1.00  0.00    -0.293 N 
ATOM      2  H4  UNL     1      16.760 -27.387  22.575  1.00  0.00     0.172 HD
HETATM    3  C7  UNL     1      17.240 -25.557  21.550  1.00  0.00     0.335 C 
HETATM    4  O3  UNL     1      17.295 -25.589  20.300  1.00  0.00    -0.246 OA
HETATM    5  N5  UNL     1      18.006 -24.604  22.247  1.00  0.00    -0.232 N 
ATOM      6  H5  UNL     1      17.942 -24.603  23.266  1.00  0.00     0.183 HD
ENDROOT
BRANCH   1   7
HETATM    7  C6  UNL     1      15.158 -26.193  22.363  1.00  0.00     0.130 A 
HETATM    8  C3  UNL     1      14.753 -25.808  23.617  1.00  0.00     0.124 A 
HETATM    9  C4  UNL     1      13.424 -25.471  23.789  1.00  0.00     0.137 A 
HETATM   10  N1  UNL     1      12.988 -25.072  25.082  1.00  0.00    -0.081 NA
HETATM   11  N2  UNL     1      12.594 -25.535  22.729  1.00  0.00    -0.340 N 
HETATM   12  C5  UNL     1      12.998 -25.911  21.503  1.00  0.00     0.183 A 
ATOM     13  H2  UNL     1      11.615 -25.285  22.863  1.00  0.00     0.167 HD
HETATM   14  N3  UNL     1      14.286 -26.243  21.315  1.00  0.00    -0.338 N 
ATOM     15  H3  UNL     1      14.610 -26.531  20.392  1.00  0.00     0.168 HD
BRANCH   8  16
HETATM   16  C2  UNL     1      15.702 -25.760  24.722  1.00  0.00     0.300 C 
HETATM   17  O2  UNL     1      16.296 -24.714  25.009  1.00  0.00    -0.259 OA
BRANCH  16  18
HETATM   18  O1  UNL     1      15.934 -26.908  25.458  1.00  0.00    -0.322 OA
HETATM   19  C1  UNL     1      15.707 -27.031  26.834  1.00  0.00     0.213 C 
ENDBRANCH  16  18
ENDBRANCH   8  16
ENDBRANCH   1   7
BRANCH   5  20
HETATM   20  S1  UNL     1      19.027 -23.455  21.526  1.00  0.00     0.266 S 
HETATM   21  O4  UNL     1      20.009 -24.078  20.565  1.00  0.00    -0.200 OA
HETATM   22  O5  UNL     1      18.140 -22.504  20.728  1.00  0.00    -0.200 OA
BRANCH  20  23
HETATM   23  C8  UNL     1      19.960 -22.506  22.645  1.00  0.00     0.082 A 
HETATM   24  C9  UNL     1      19.343 -21.454  23.286  1.00  0.00     0.032 A 
HETATM   25  C10 UNL     1      20.019 -20.673  24.173  1.00  0.00    -0.058 A 
HETATM   26  C11 UNL     1      19.324 -19.540  24.849  1.00  0.00     0.048 C 
HETATM   27  C12 UNL     1      21.344 -20.942  24.434  1.00  0.00     0.043 A 
HETATM   28  C13 UNL     1      21.996 -22.000  23.801  1.00  0.00     0.104 A 
HETATM   29  C14 UNL     1      21.291 -22.770  22.912  1.00  0.00     0.061 A 
BRANCH  28  30
HETATM   30  N6  UNL     1      23.376 -22.256  24.097  1.00  0.00    -0.116 N 
HETATM   31  O6  UNL     1      23.976 -21.410  24.777  1.00  0.00    -0.532 OA
HETATM   32  O7  UNL     1      23.967 -23.402  23.624  1.00  0.00    -0.532 OA
ENDBRANCH  28  30
ENDBRANCH  20  23
ENDBRANCH   5  20
TORSDOF 6
ENDMDL
MODEL 2
REMARK VINA RESULT: -9.704437881      5.451      8.312
REMARK  6 active torsions:
REMARK  status: ('A' for Active; 'I' for Inactive)
REMARK    1  A    between atoms: O1_2  and  C2_3 
REMARK    2  A    between atoms: C2_3  and  C3_5 
REMARK    3  A    between atoms: C6_13  and  N4_14 
REMARK       I    between atoms: N4_14  and  C7_16 
REMARK       I    between atoms: C7_16  and  N5_18 
REMARK    4  A    between atoms: N5_18  and  S1_20 
REMARK    5  A    between atoms: S1_20  and  C8_23 
REMARK    6  A    between atoms: C13_28  and  N6_29 
ROOT
HETATM    1  N4  UNL     1      18.516 -17.721  29.783  1.00  0.00    -0.293 N 
ATOM      2  H4  UNL     1      18.000 -16.849  29.910  1.00  0.00     0.172 HD
HETATM    3  C7  UNL     1      19.667 -17.788  28.927  1.00  0.00     0.335 C 
HETATM    4  O3  UNL     1      20.801 -17.642  29.437  1.00  0.00    -0.246 OA
HETATM    5  N5  UNL     1      19.563 -18.011  27.541  1.00  0.00    -0.232 N 
ATOM      6  H5  UNL     1      18.626 -18.124  27.152  1.00  0.00     0.183 HD
ENDROOT
BRANCH   1   7
HETATM    7  C6  UNL     1      18.162 -18.796  30.381  1.00  0.00     0.130 A 
HETATM    8  C3  UNL     1      17.000 -19.391  29.954  1.00  0.00     0.124 A 
HETATM    9  C4  UNL     1      16.600 -20.551  30.588  1.00  0.00     0.137 A 
HETATM   10  N1  UNL     1      15.398 -21.178  30.159  1.00  0.00    -0.081 NA
HETATM   11  N2  UNL     1      17.360 -21.043  31.586  1.00  0.00    -0.340 N 
HETATM   12  C5  UNL     1      18.497 -20.456  31.999  1.00  0.00     0.183 A 
ATOM     13  H2  UNL     1      17.059 -21.900  32.050  1.00  0.00     0.167 HD
HETATM   14  N3  UNL     1      18.904 -19.327  31.396  1.00  0.00    -0.338 N 
ATOM     15  H3  UNL     1      19.764 -18.868  31.696  1.00  0.00     0.168 HD
BRANCH   8  16
HETATM   16  C2  UNL     1      16.224 -18.808  28.867  1.00  0.00     0.300 C 
HETATM   17  O2  UNL     1      15.241 -18.093  29.096  1.00  0.00    -0.259 OA
BRANCH  16  18
HETATM   18  O1  UNL     1      16.601 -19.063  27.561  1.00  0.00    -0.322 OA
HETATM   19  C1  UNL     1      16.015 -20.031  26.737  1.00  0.00     0.213 C 
ENDBRANCH  16  18
ENDBRANCH   8  16
ENDBRANCH   1   7
BRANCH   5  20
HETATM   20  S1  UNL     1      20.873 -18.106  26.465  1.00  0.00     0.266 S 
HETATM   21  O4  UNL     1      21.019 -16.864  25.622  1.00  0.00    -0.200 OA
HETATM   22  O5  UNL     1      22.137 -18.243  27.308  1.00  0.00    -0.200 OA
BRANCH  20  23
HETATM   23  C8  UNL     1      20.815 -19.450  25.364  1.00  0.00     0.082 A 
HETATM   24  C9  UNL     1      21.966 -20.179  25.157  1.00  0.00     0.032 A 
HETATM   25  C10 UNL     1      21.985 -21.243  24.307  1.00  0.00    -0.058 A 
HETATM   26  C11 UNL     1      23.247 -22.010  24.102  1.00  0.00     0.048 C 
HETATM   27  C12 UNL     1      20.831 -21.595  23.643  1.00  0.00     0.043 A 
HETATM   28  C13 UNL     1      19.650 -20.877  23.832  1.00  0.00     0.104 A 
HETATM   29  C14 UNL     1      19.660 -19.810  24.694  1.00  0.00     0.061 A 
BRANCH  28  30
HETATM   30  N6  UNL     1      18.465 -21.272  23.127  1.00  0.00    -0.116 N 
HETATM   31  O6  UNL     1      17.385 -20.825  23.541  1.00  0.00    -0.532 OA
HETATM   32  O7  UNL     1      18.571 -22.111  22.045  1.00  0.00    -0.532 OA
ENDBRANCH  28  30
ENDBRANCH  20  23
ENDBRANCH   5  20
TORSDOF 6
ENDMDL
MODEL 3
REMARK VINA RESULT: -9.689140146      5.475      8.006
REMARK  6 active torsions:
REMARK  status: ('A' for Active; 'I' for Inactive)
REMARK    1  A    between atoms: O1_2  and  C2_3 
REMARK    2  A    between atoms: C2_3  and  C3_5 
REMARK    3  A    between atoms: C6_13  and  N4_14 
REMARK       I    between atoms: N4_14  and  C7_16 
REMARK       I    between atoms: C7_16  and  N5_18 
REMARK    4  A    between atoms: N5_18  and  S1_20 
REMARK    5  A    between atoms: S1_20  and  C8_23 
REMARK    6  A    between atoms: C13_28  and  N6_29 
ROOT
HETATM    1  N4  UNL     1      18.627 -17.574  29.558  1.00  0.00    -0.293 N 
ATOM      2  H4  UNL     1      18.135 -16.681  29.595  1.00  0.00     0.172 HD
HETATM    3  C7  UNL     1      19.812 -17.741  28.762  1.00  0.00     0.335 C 
HETATM    4  O3  UNL     1      20.926 -17.588  29.312  1.00  0.00    -0.246 OA
HETATM    5  N5  UNL     1      19.760 -18.067  27.394  1.00  0.00    -0.232 N 
ATOM      6  H5  UNL     1      18.838 -18.183  26.973  1.00  0.00     0.183 HD
ENDROOT
BRANCH   1   7
HETATM    7  C6  UNL     1      18.213 -18.590  30.219  1.00  0.00     0.130 A 
HETATM    8  C3  UNL     1      17.096 -19.229  29.741  1.00  0.00     0.124 A 
HETATM    9  C4  UNL     1      16.633 -20.326  30.441  1.00  0.00     0.137 A 
HETATM   10  N1  UNL     1      15.476 -20.999  29.960  1.00  0.00    -0.081 NA
HETATM   11  N2  UNL     1      17.291 -20.715  31.551  1.00  0.00    -0.340 N 
HETATM   12  C5  UNL     1      18.385 -20.086  32.014  1.00  0.00     0.183 A 
ATOM     13  H2  UNL     1      16.944 -21.526  32.063  1.00  0.00     0.167 HD
HETATM   14  N3  UNL     1      18.852 -19.017  31.347  1.00  0.00    -0.338 N 
ATOM     15  H3  UNL     1      19.681 -18.526  31.684  1.00  0.00     0.168 HD
BRANCH   8  16
HETATM   16  C2  UNL     1      16.431 -18.758  28.533  1.00  0.00     0.300 C 
HETATM   17  O2  UNL     1      15.443 -18.017  28.596  1.00  0.00    -0.259 OA
BRANCH  16  18
HETATM   18  O1  UNL     1      16.921 -19.149  27.301  1.00  0.00    -0.322 OA
HETATM   19  C1  UNL     1      16.388 -20.186  26.525  1.00  0.00     0.213 C 
ENDBRANCH  16  18
ENDBRANCH   8  16
ENDBRANCH   1   7
BRANCH   5  20
HETATM   20  S1  UNL     1      21.112 -18.283  26.390  1.00  0.00     0.266 S 
HETATM   21  O4  UNL     1      21.434 -17.049  25.584  1.00  0.00    -0.200 OA
HETATM   22  O5  UNL     1      22.305 -18.567  27.297  1.00  0.00    -0.200 OA
BRANCH  20  23
HETATM   23  C8  UNL     1      20.975 -19.594  25.257  1.00  0.00     0.082 A 
HETATM   24  C9  UNL     1      19.753 -19.819  24.659  1.00  0.00     0.032 A 
HETATM   25  C10 UNL     1      19.581 -20.831  23.764  1.00  0.00    -0.058 A 
HETATM   26  C11 UNL     1      18.246 -21.050  23.136  1.00  0.00     0.048 C 
HETATM   27  C12 UNL     1      20.648 -21.642  23.451  1.00  0.00     0.043 A 
HETATM   28  C13 UNL     1      21.897 -21.440  24.039  1.00  0.00     0.104 A 
HETATM   29  C14 UNL     1      22.042 -20.414  24.937  1.00  0.00     0.061 A 
BRANCH  28  30
HETATM   30  N6  UNL     1      22.989 -22.301  23.689  1.00  0.00    -0.116 N 
HETATM   31  O6  UNL     1      22.809 -23.093  22.752  1.00  0.00    -0.532 OA
HETATM   32  O7  UNL     1      24.166 -22.218  24.391  1.00  0.00    -0.532 OA
ENDBRANCH  28  30
ENDBRANCH  20  23
ENDBRANCH   5  20
TORSDOF 6
ENDMDL
MODEL 4
REMARK VINA RESULT: -9.378707229      1.748      2.356
REMARK  6 active torsions:
REMARK  status: ('A' for Active; 'I' for Inactive)
REMARK    1  A    between atoms: O1_2  and  C2_3 
REMARK    2  A    between atoms: C2_3  and  C3_5 
REMARK    3  A    between atoms: C6_13  and  N4_14 
REMARK       I    between atoms: N4_14  and  C7_16 
REMARK       I    between atoms: C7_16  and  N5_18 
REMARK    4  A    between atoms: N5_18  and  S1_20 
REMARK    5  A    between atoms: S1_20  and  C8_23 
REMARK    6  A    between atoms: C13_28  and  N6_29 
ROOT
HETATM    1  N4  UNL     1      16.673 -26.402  22.252  1.00  0.00    -0.293 N 
ATOM      2  H4  UNL     1      17.075 -27.253  22.645  1.00  0.00     0.172 HD
HETATM    3  C7  UNL     1      17.497 -25.409  21.621  1.00  0.00     0.335 C 
HETATM    4  O3  UNL     1      17.640 -25.455  20.378  1.00  0.00    -0.246 OA
HETATM    5  N5  UNL     1      18.145 -24.394  22.350  1.00  0.00    -0.232 N 
ATOM      6  H5  UNL     1      18.012 -24.383  23.361  1.00  0.00     0.183 HD
ENDROOT
BRANCH   1   7
HETATM    7  C6  UNL     1      15.413 -26.177  22.302  1.00  0.00     0.130 A 
HETATM    8  C3  UNL     1      14.888 -25.855  23.529  1.00  0.00     0.124 A 
HETATM    9  C4  UNL     1      13.531 -25.611  23.605  1.00  0.00     0.137 A 
HETATM   10  N1  UNL     1      12.971 -25.277  24.869  1.00  0.00    -0.081 NA
HETATM   11  N2  UNL     1      12.790 -25.699  22.482  1.00  0.00    -0.340 N 
HETATM   12  C5  UNL     1      13.310 -26.014  21.284  1.00  0.00     0.183 A 
ATOM     13  H2  UNL     1      11.788 -25.518  22.545  1.00  0.00     0.167 HD
HETATM   14  N3  UNL     1      14.628 -26.256  21.189  1.00  0.00    -0.338 N 
ATOM     15  H3  UNL     1      15.041 -26.497  20.287  1.00  0.00     0.168 HD
BRANCH   8  16
HETATM   16  C2  UNL     1      15.745 -25.775  24.706  1.00  0.00     0.300 C 
HETATM   17  O2  UNL     1      16.292 -24.714  25.026  1.00  0.00    -0.259 OA
BRANCH  16  18
HETATM   18  O1  UNL     1      15.940 -26.910  25.471  1.00  0.00    -0.322 OA
HETATM   19  C1  UNL     1      15.563 -27.040  26.814  1.00  0.00     0.213 C 
ENDBRANCH  16  18
ENDBRANCH   8  16
ENDBRANCH   1   7
BRANCH   5  20
HETATM   20  S1  UNL     1      19.132 -23.187  21.677  1.00  0.00     0.266 S 
HETATM   21  O4  UNL     1      20.178 -23.748  20.748  1.00  0.00    -0.200 OA
HETATM   22  O5  UNL     1      18.227 -22.274  20.856  1.00  0.00    -0.200 OA
BRANCH  20  23
HETATM   23  C8  UNL     1      19.974 -22.204  22.839  1.00  0.00     0.082 A 
HETATM   24  C9  UNL     1      21.322 -22.419  23.024  1.00  0.00     0.032 A 
HETATM   25  C10 UNL     1      22.038 -21.684  23.919  1.00  0.00    -0.058 A 
HETATM   26  C11 UNL     1      23.496 -21.942  24.098  1.00  0.00     0.048 C 
HETATM   27  C12 UNL     1      21.400 -20.707  24.651  1.00  0.00     0.043 A 
HETATM   28  C13 UNL     1      20.036 -20.466  24.486  1.00  0.00     0.104 A 
HETATM   29  C14 UNL     1      19.340 -21.222  23.578  1.00  0.00     0.061 A 
BRANCH  28  30
HETATM   30  N6  UNL     1      19.403 -19.439  25.262  1.00  0.00    -0.116 N 
HETATM   31  O6  UNL     1      18.314 -19.717  25.786  1.00  0.00    -0.532 OA
HETATM   32  O7  UNL     1      20.014 -18.217  25.390  1.00  0.00    -0.532 OA
ENDBRANCH  28  30
ENDBRANCH  20  23
ENDBRANCH   5  20
TORSDOF 6
ENDMDL
MODEL 5
REMARK VINA RESULT: -9.185450374      5.950      8.070
REMARK  6 active torsions:
REMARK  status: ('A' for Active; 'I' for Inactive)
REMARK    1  A    between atoms: O1_2  and  C2_3 
REMARK    2  A    between atoms: C2_3  and  C3_5 
REMARK    3  A    between atoms: C6_13  and  N4_14 
REMARK       I    between atoms: N4_14  and  C7_16 
REMARK       I    between atoms: C7_16  and  N5_18 
REMARK    4  A    between atoms: N5_18  and  S1_20 
REMARK    5  A    between atoms: S1_20  and  C8_23 
REMARK    6  A    between atoms: C13_28  and  N6_29 
ROOT
HETATM    1  N4  UNL     1      17.349 -18.227  29.916  1.00  0.00    -0.293 N 
ATOM      2  H4  UNL     1      17.142 -17.464  30.561  1.00  0.00     0.172 HD
HETATM    3  C7  UNL     1      18.602 -18.293  29.217  1.00  0.00     0.335 C 
HETATM    4  O3  UNL     1      19.528 -18.974  29.713  1.00  0.00    -0.246 OA
HETATM    5  N5  UNL     1      18.822 -17.620  28.000  1.00  0.00    -0.232 N 
ATOM      6  H5  UNL     1      18.050 -17.070  27.621  1.00  0.00     0.183 HD
ENDROOT
BRANCH   1   7
HETATM    7  C6  UNL     1      16.503 -19.163  29.699  1.00  0.00     0.130 A 
HETATM    8  C3  UNL     1      16.235 -20.013  30.743  1.00  0.00     0.124 A 
HETATM    9  C4  UNL     1      15.327 -21.031  30.529  1.00  0.00     0.137 A 
HETATM   10  N1  UNL     1      15.040 -21.921  31.600  1.00  0.00    -0.081 NA
HETATM   11  N2  UNL     1      14.750 -21.143  29.316  1.00  0.00    -0.340 N 
HETATM   12  C5  UNL     1      15.016 -20.308  28.297  1.00  0.00     0.183 A 
ATOM     13  H2  UNL     1      14.080 -21.897  29.164  1.00  0.00     0.167 HD
HETATM   14  N3  UNL     1      15.896 -19.311  28.486  1.00  0.00    -0.338 N 
ATOM     15  H3  UNL     1      16.111 -18.667  27.724  1.00  0.00     0.168 HD
BRANCH   8  16
HETATM   16  C2  UNL     1      16.894 -19.837  32.032  1.00  0.00     0.300 C 
HETATM   17  O2  UNL     1      16.315 -19.284  32.974  1.00  0.00    -0.259 OA
BRANCH  16  18
HETATM   18  O1  UNL     1      18.186 -20.300  32.194  1.00  0.00    -0.322 OA
HETATM   19  C1  UNL     1      18.522 -21.585  32.637  1.00  0.00     0.213 C 
ENDBRANCH  16  18
ENDBRANCH   8  16
ENDBRANCH   1   7
BRANCH   5  20
HETATM   20  S1  UNL     1      20.271 -17.651  27.115  1.00  0.00     0.266 S 
HETATM   21  O4  UNL     1      20.503 -16.375  26.345  1.00  0.00    -0.200 OA
HETATM   22  O5  UNL     1      21.408 -17.799  28.119  1.00  0.00    -0.200 OA
BRANCH  20  23
HETATM   23  C8  UNL     1      20.394 -18.952  25.968  1.00  0.00     0.082 A 
HETATM   24  C9  UNL     1      21.613 -19.576  25.814  1.00  0.00     0.032 A 
HETATM   25  C10 UNL     1      21.775 -20.602  24.933  1.00  0.00    -0.058 A 
HETATM   26  C11 UNL     1      23.108 -21.256  24.787  1.00  0.00     0.048 C 
HETATM   27  C12 UNL     1      20.700 -21.021  24.182  1.00  0.00     0.043 A 
HETATM   28  C13 UNL     1      19.453 -20.410  24.316  1.00  0.00     0.104 A 
HETATM   29  C14 UNL     1      19.318 -19.380  25.211  1.00  0.00     0.061 A 
BRANCH  28  30
HETATM   30  N6  UNL     1      18.352 -20.872  23.522  1.00  0.00    -0.116 N 
HETATM   31  O6  UNL     1      17.213 -20.551  23.891  1.00  0.00    -0.532 OA
HETATM   32  O7  UNL     1      18.598 -21.637  22.408  1.00  0.00    -0.532 OA
ENDBRANCH  28  30
ENDBRANCH  20  23
ENDBRANCH   5  20
TORSDOF 6
ENDMDL
