MODEL 1
REMARK VINA RESULT: -5.991574290      0.000      0.000
REMARK  4 active torsions:
REMARK  status: ('A' for Active; 'I' for Inactive)
REMARK    1  A    between atoms: C2_2  and  C4_4 
REMARK    2  A    between atoms: C7_7  and  O1_9 
REMARK    3  A    between atoms: C9_11  and  C10_12 
REMARK    4  A    between atoms: C10_12  and  N1_13 
ROOT
HETATM    1  C4  UNL     1     -35.050 -13.126   6.744  1.00  0.00    -0.011 C 
HETATM    2  C5  UNL     1     -34.962 -14.329   5.805  1.00  0.00     0.008 C 
HETATM    3  C6  UNL     1     -36.070 -15.271   6.271  1.00  0.00     0.038 C 
HETATM    4  C7  UNL     1     -37.410 -14.645   6.216  1.00  0.00     0.059 C 
HETATM    5  C8  UNL     1     -38.202 -15.323   5.096  1.00  0.00     0.046 C 
HETATM    6  C9  UNL     1     -37.438 -13.183   5.970  1.00  0.00     0.045 C 
HETATM    7  C11 UNL     1     -36.336 -12.404   6.609  1.00  0.00     0.014 C 
ENDROOT
BRANCH   6   8
HETATM    8  C10 UNL     1     -38.766 -12.664   6.513  1.00  0.00     0.237 C 
BRANCH   8   9
HETATM    9  N1  UNL     1     -38.560 -11.698   7.572  1.00  0.00    -0.079 N 
ATOM     10  H13 UNL     1     -37.960 -12.072   8.306  1.00  0.00     0.274 HD
ATOM     11  H12 UNL     1     -37.969 -10.925   7.264  1.00  0.00     0.274 HD
ATOM     12  H11 UNL     1     -39.448 -11.365   7.947  1.00  0.00     0.274 HD
ENDBRANCH   8   9
ENDBRANCH   6   8
BRANCH   4  13
HETATM   13  O1  UNL     1     -38.102 -14.921   7.416  1.00  0.00    -0.390 OA
ATOM     14  H1  UNL     1     -39.009 -15.122   7.216  1.00  0.00     0.210 HD
ENDBRANCH   4  13
BRANCH   1  15
HETATM   15  C2  UNL     1     -33.829 -12.275   6.549  1.00  0.00    -0.019 C 
HETATM   16  C1  UNL     1     -34.090 -10.811   6.752  1.00  0.00     0.010 C 
HETATM   17  C3  UNL     1     -32.667 -12.783   7.359  1.00  0.00     0.010 C 
ENDBRANCH   1  15
TORSDOF 4
ENDMDL
MODEL 2
REMARK VINA RESULT: -5.808603383      2.828      4.140
REMARK  4 active torsions:
REMARK  status: ('A' for Active; 'I' for Inactive)
REMARK    1  A    between atoms: C2_2  and  C4_4 
REMARK    2  A    between atoms: C7_7  and  O1_9 
REMARK    3  A    between atoms: C9_11  and  C10_12 
REMARK    4  A    between atoms: C10_12  and  N1_13 
ROOT
HETATM    1  C4  UNL     1     -38.270 -14.229   5.709  1.00  0.00    -0.011 C 
HETATM    2  C5  UNL     1     -38.768 -15.159   6.814  1.00  0.00     0.008 C 
HETATM    3  C6  UNL     1     -40.284 -14.971   6.830  1.00  0.00     0.038 C 
HETATM    4  C7  UNL     1     -40.913 -15.297   5.530  1.00  0.00     0.059 C 
HETATM    5  C8  UNL     1     -41.727 -16.580   5.709  1.00  0.00     0.046 C 
HETATM    6  C9  UNL     1     -39.986 -15.503   4.391  1.00  0.00     0.045 C 
HETATM    7  C11 UNL     1     -38.783 -14.619   4.375  1.00  0.00     0.014 C 
ENDROOT
BRANCH   6   8
HETATM    8  C10 UNL     1     -40.783 -15.246   3.115  1.00  0.00     0.237 C 
BRANCH   8   9
HETATM    9  N1  UNL     1     -40.337 -14.040   2.451  1.00  0.00    -0.079 N 
ATOM     10  H13 UNL     1     -41.113 -13.403   2.271  1.00  0.00     0.274 HD
ATOM     11  H12 UNL     1     -39.790 -13.448   3.077  1.00  0.00     0.274 HD
ATOM     12  H11 UNL     1     -39.824 -14.256   1.596  1.00  0.00     0.274 HD
ENDBRANCH   8   9
ENDBRANCH   6   8
BRANCH   4  13
HETATM   13  O1  UNL     1     -41.836 -14.283   5.193  1.00  0.00    -0.390 OA
ATOM     14  H1  UNL     1     -42.576 -14.672   4.741  1.00  0.00     0.210 HD
ENDBRANCH   4  13
BRANCH   1  15
HETATM   15  C2  UNL     1     -36.775 -14.131   5.802  1.00  0.00    -0.019 C 
HETATM   16  C1  UNL     1     -36.303 -12.849   6.423  1.00  0.00     0.010 C 
HETATM   17  C3  UNL     1     -36.182 -15.352   6.452  1.00  0.00     0.010 C 
ENDBRANCH   1  15
TORSDOF 4
ENDMDL
MODEL 3
REMARK VINA RESULT: -5.679533381      0.360      1.039
REMARK  4 active torsions:
REMARK  status: ('A' for Active; 'I' for Inactive)
REMARK    1  A    between atoms: C2_2  and  C4_4 
REMARK    2  A    between atoms: C7_7  and  O1_9 
REMARK    3  A    between atoms: C9_11  and  C10_12 
REMARK    4  A    between atoms: C10_12  and  N1_13 
ROOT
HETATM    1  C4  UNL     1     -35.012 -13.039   7.084  1.00  0.00    -0.011 C 
HETATM    2  C5  UNL     1     -34.811 -14.147   6.052  1.00  0.00     0.008 C 
HETATM    3  C6  UNL     1     -35.944 -15.137   6.315  1.00  0.00     0.038 C 
HETATM    4  C7  UNL     1     -37.282 -14.519   6.184  1.00  0.00     0.059 C 
HETATM    5  C8  UNL     1     -37.948 -15.095   4.932  1.00  0.00     0.046 C 
HETATM    6  C9  UNL     1     -37.310 -13.040   6.072  1.00  0.00     0.045 C 
HETATM    7  C11 UNL     1     -36.290 -12.317   6.888  1.00  0.00     0.014 C 
ENDROOT
BRANCH   6   8
HETATM    8  C10 UNL     1     -38.694 -12.584   6.525  1.00  0.00     0.237 C 
BRANCH   8   9
HETATM    9  N1  UNL     1     -38.605 -11.664   7.639  1.00  0.00    -0.079 N 
ATOM     10  H13 UNL     1     -39.505 -11.554   8.106  1.00  0.00     0.274 HD
ATOM     11  H12 UNL     1     -38.075 -12.064   8.414  1.00  0.00     0.274 HD
ATOM     12  H11 UNL     1     -38.223 -10.765   7.348  1.00  0.00     0.274 HD
ENDBRANCH   8   9
ENDBRANCH   6   8
BRANCH   4  13
HETATM   13  O1  UNL     1     -38.085 -14.911   7.278  1.00  0.00    -0.390 OA
ATOM     14  H1  UNL     1     -37.896 -14.350   8.022  1.00  0.00     0.210 HD
ENDBRANCH   4  13
BRANCH   1  15
HETATM   15  C2  UNL     1     -33.792 -12.164   7.092  1.00  0.00    -0.019 C 
HETATM   16  C1  UNL     1     -32.564 -12.855   6.575  1.00  0.00     0.010 C 
HETATM   17  C3  UNL     1     -34.053 -10.846   6.413  1.00  0.00     0.010 C 
ENDBRANCH   1  15
TORSDOF 4
ENDMDL
MODEL 4
REMARK VINA RESULT: -5.530086002      3.619      5.250
REMARK  4 active torsions:
REMARK  status: ('A' for Active; 'I' for Inactive)
REMARK    1  A    between atoms: C2_2  and  C4_4 
REMARK    2  A    between atoms: C7_7  and  O1_9 
REMARK    3  A    between atoms: C9_11  and  C10_12 
REMARK    4  A    between atoms: C10_12  and  N1_13 
ROOT
HETATM    1  C4  UNL     1     -39.461 -14.470   5.400  1.00  0.00    -0.011 C 
HETATM    2  C5  UNL     1     -40.048 -15.322   6.524  1.00  0.00     0.008 C 
HETATM    3  C6  UNL     1     -41.541 -15.405   6.213  1.00  0.00     0.038 C 
HETATM    4  C7  UNL     1     -41.814 -16.004   4.887  1.00  0.00     0.059 C 
HETATM    5  C8  UNL     1     -42.450 -17.377   5.112  1.00  0.00     0.046 C 
HETATM    6  C9  UNL     1     -40.640 -16.188   4.000  1.00  0.00     0.045 C 
HETATM    7  C11 UNL     1     -39.605 -15.114   4.075  1.00  0.00     0.014 C 
ENDROOT
BRANCH   6   8
HETATM    8  C10 UNL     1     -41.166 -16.244   2.569  1.00  0.00     0.237 C 
BRANCH   8   9
HETATM    9  N1  UNL     1     -40.888 -15.015   1.858  1.00  0.00    -0.079 N 
ATOM     10  H13 UNL     1     -41.735 -14.466   1.713  1.00  0.00     0.274 HD
ATOM     11  H12 UNL     1     -40.371 -14.355   2.439  1.00  0.00     0.274 HD
ATOM     12  H11 UNL     1     -40.405 -15.197   0.978  1.00  0.00     0.274 HD
ENDBRANCH   8   9
ENDBRANCH   6   8
BRANCH   4  13
HETATM   13  O1  UNL     1     -42.779 -15.223   4.214  1.00  0.00    -0.390 OA
ATOM     14  H1  UNL     1     -42.423 -14.933   3.382  1.00  0.00     0.210 HD
ENDBRANCH   4  13
BRANCH   1  15
HETATM   15  C2  UNL     1     -38.053 -14.096   5.766  1.00  0.00    -0.019 C 
HETATM   16  C1  UNL     1     -37.969 -12.848   6.595  1.00  0.00     0.010 C 
HETATM   17  C3  UNL     1     -37.316 -15.257   6.376  1.00  0.00     0.010 C 
ENDBRANCH   1  15
TORSDOF 4
ENDMDL
MODEL 5
REMARK VINA RESULT: -5.408794767      3.489      5.067
REMARK  4 active torsions:
REMARK  status: ('A' for Active; 'I' for Inactive)
REMARK    1  A    between atoms: C2_2  and  C4_4 
REMARK    2  A    between atoms: C7_7  and  O1_9 
REMARK    3  A    between atoms: C9_11  and  C10_12 
REMARK    4  A    between atoms: C10_12  and  N1_13 
ROOT
HETATM    1  C4  UNL     1     -39.046 -15.241   5.159  1.00  0.00    -0.011 C 
HETATM    2  C5  UNL     1     -39.544 -14.611   3.859  1.00  0.00     0.008 C 
HETATM    3  C6  UNL     1     -40.567 -15.604   3.310  1.00  0.00     0.038 C 
HETATM    4  C7  UNL     1     -41.683 -15.851   4.250  1.00  0.00     0.059 C 
HETATM    5  C8  UNL     1     -42.946 -15.224   3.656  1.00  0.00     0.046 C 
HETATM    6  C9  UNL     1     -41.512 -15.314   5.622  1.00  0.00     0.045 C 
HETATM    7  C11 UNL     1     -40.123 -15.375   6.166  1.00  0.00     0.014 C 
ENDROOT
BRANCH   6   8
HETATM    8  C10 UNL     1     -42.420 -16.131   6.537  1.00  0.00     0.237 C 
BRANCH   8   9
HETATM    9  N1  UNL     1     -43.585 -15.371   6.936  1.00  0.00    -0.079 N 
ATOM     10  H13 UNL     1     -43.781 -14.615   6.280  1.00  0.00     0.274 HD
ATOM     11  H12 UNL     1     -44.443 -15.911   6.815  1.00  0.00     0.274 HD
ATOM     12  H11 UNL     1     -43.492 -15.023   7.890  1.00  0.00     0.274 HD
ENDBRANCH   8   9
ENDBRANCH   6   8
BRANCH   4  13
HETATM   13  O1  UNL     1     -41.926 -17.240   4.328  1.00  0.00    -0.390 OA
ATOM     14  H1  UNL     1     -41.698 -17.549   5.197  1.00  0.00     0.210 HD
ENDBRANCH   4  13
BRANCH   1  15
HETATM   15  C2  UNL     1     -37.840 -14.480   5.629  1.00  0.00    -0.019 C 
HETATM   16  C1  UNL     1     -38.185 -13.249   6.413  1.00  0.00     0.010 C 
HETATM   17  C3  UNL     1     -36.865 -15.378   6.343  1.00  0.00     0.010 C 
ENDBRANCH   1  15
TORSDOF 4
ENDMDL
