MODEL 1
REMARK VINA RESULT: -7.406463995      0.000      0.000
REMARK  5 active torsions:
REMARK  status: ('A' for Active; 'I' for Inactive)
REMARK    1  A    between atoms: C2_2  and  C5_5 
REMARK    2  A    between atoms: C5_5  and  N1_6 
REMARK    3  A    between atoms: C5_5  and  N2_10 
REMARK    4  A    between atoms: N2_10  and  C6_13 
REMARK    5  A    between atoms: C6_13  and  C7_14 
ROOT
HETATM    1  N2  UNL     1     -36.305 -14.066   5.551  1.00  0.00    -0.045 N 
ATOM      2  H21 UNL     1     -36.627 -13.113   5.715  1.00  0.00     0.279 HD
ATOM      3  H22 UNL     1     -36.067 -13.971   4.563  1.00  0.00     0.279 HD
ENDROOT
BRANCH   1   4
HETATM    4  C5  UNL     1     -37.336 -15.031   5.769  1.00  0.00     0.387 C 
BRANCH   4   5
HETATM    5  C2  UNL     1     -38.711 -14.444   5.887  1.00  0.00     0.003 C 
HETATM    6  C1  UNL     1     -39.351 -14.381   4.519  1.00  0.00     0.018 C 
HETATM    7  C3  UNL     1     -38.565 -13.016   6.390  1.00  0.00     0.018 C 
HETATM    8  C4  UNL     1     -39.610 -15.187   6.811  1.00  0.00     0.018 C 
ENDBRANCH   4   5
BRANCH   4   9
HETATM    9  N1  UNL     1     -37.039 -15.781   6.975  1.00  0.00    -0.050 N 
ATOM     10  H13 UNL     1     -36.056 -15.718   7.239  1.00  0.00     0.276 HD
ATOM     11  H12 UNL     1     -37.438 -15.349   7.810  1.00  0.00     0.276 HD
ATOM     12  H11 UNL     1     -37.349 -16.745   6.851  1.00  0.00     0.276 HD
ENDBRANCH   4   9
ENDBRANCH   1   4
BRANCH   1  13
HETATM   13  C6  UNL     1     -35.164 -14.401   6.355  1.00  0.00     0.239 C 
BRANCH  13  14
HETATM   14  C7  UNL     1     -34.469 -13.184   6.931  1.00  0.00     0.011 C 
HETATM   15  C8  UNL     1     -35.027 -11.970   6.223  1.00  0.00     0.006 C 
HETATM   16  C9  UNL     1     -34.243 -10.725   6.467  1.00  0.00     0.000 C 
HETATM   17  C10 UNL     1     -33.039 -10.916   7.340  1.00  0.00     0.000 C 
HETATM   18  C11 UNL     1     -32.203 -12.099   6.923  1.00  0.00     0.000 C 
HETATM   19  C12 UNL     1     -33.006 -13.296   6.554  1.00  0.00     0.006 C 
ENDBRANCH  13  14
ENDBRANCH   1  13
TORSDOF 5
ENDMDL
MODEL 2
REMARK VINA RESULT: -7.396037185      0.443      1.375
REMARK  5 active torsions:
REMARK  status: ('A' for Active; 'I' for Inactive)
REMARK    1  A    between atoms: C2_2  and  C5_5 
REMARK    2  A    between atoms: C5_5  and  N1_6 
REMARK    3  A    between atoms: C5_5  and  N2_10 
REMARK    4  A    between atoms: N2_10  and  C6_13 
REMARK    5  A    between atoms: C6_13  and  C7_14 
ROOT
HETATM    1  N2  UNL     1     -36.440 -14.179   5.395  1.00  0.00    -0.045 N 
ATOM      2  H21 UNL     1     -36.803 -13.227   5.342  1.00  0.00     0.279 HD
ATOM      3  H22 UNL     1     -36.176 -14.287   4.415  1.00  0.00     0.279 HD
ENDROOT
BRANCH   1   4
HETATM    4  C5  UNL     1     -37.442 -15.117   5.793  1.00  0.00     0.387 C 
BRANCH   4   5
HETATM    5  C2  UNL     1     -38.820 -14.536   5.898  1.00  0.00     0.003 C 
HETATM    6  C1  UNL     1     -39.467 -14.524   4.532  1.00  0.00     0.018 C 
HETATM    7  C3  UNL     1     -38.682 -13.091   6.352  1.00  0.00     0.018 C 
HETATM    8  C4  UNL     1     -39.710 -15.254   6.852  1.00  0.00     0.018 C 
ENDBRANCH   4   5
BRANCH   4   9
HETATM    9  N1  UNL     1     -37.074 -15.691   7.074  1.00  0.00    -0.050 N 
ATOM     10  H13 UNL     1     -37.657 -15.346   7.836  1.00  0.00     0.276 HD
ATOM     11  H12 UNL     1     -37.319 -16.679   7.143  1.00  0.00     0.276 HD
ATOM     12  H11 UNL     1     -36.080 -15.524   7.238  1.00  0.00     0.276 HD
ENDBRANCH   4   9
ENDBRANCH   1   4
BRANCH   1  13
HETATM   13  C6  UNL     1     -35.313 -14.284   6.277  1.00  0.00     0.239 C 
BRANCH  13  14
HETATM   14  C7  UNL     1     -34.377 -13.096   6.184  1.00  0.00     0.011 C 
HETATM   15  C8  UNL     1     -33.385 -13.216   7.319  1.00  0.00     0.006 C 
HETATM   16  C9  UNL     1     -32.581 -11.979   7.540  1.00  0.00     0.000 C 
HETATM   17  C10 UNL     1     -32.927 -10.847   6.621  1.00  0.00     0.000 C 
HETATM   18  C11 UNL     1     -34.412 -10.608   6.528  1.00  0.00     0.000 C 
HETATM   19  C12 UNL     1     -35.213 -11.859   6.441  1.00  0.00     0.006 C 
ENDBRANCH  13  14
ENDBRANCH   1  13
TORSDOF 5
ENDMDL
MODEL 3
REMARK VINA RESULT: -7.395602379      0.050      1.133
REMARK  5 active torsions:
REMARK  status: ('A' for Active; 'I' for Inactive)
REMARK    1  A    between atoms: C2_2  and  C5_5 
REMARK    2  A    between atoms: C5_5  and  N1_6 
REMARK    3  A    between atoms: C5_5  and  N2_10 
REMARK    4  A    between atoms: N2_10  and  C6_13 
REMARK    5  A    between atoms: C6_13  and  C7_14 
ROOT
HETATM    1  N2  UNL     1     -36.255 -14.089   5.505  1.00  0.00    -0.045 N 
ATOM      2  H21 UNL     1     -36.548 -13.117   5.603  1.00  0.00     0.279 HD
ATOM      3  H22 UNL     1     -35.985 -14.061   4.522  1.00  0.00     0.279 HD
ENDROOT
BRANCH   1   4
HETATM    4  C5  UNL     1     -37.327 -15.003   5.747  1.00  0.00     0.387 C 
BRANCH   4   5
HETATM    5  C2  UNL     1     -38.668 -14.350   5.900  1.00  0.00     0.003 C 
HETATM    6  C1  UNL     1     -39.528 -15.176   6.828  1.00  0.00     0.018 C 
HETATM    7  C3  UNL     1     -39.341 -14.345   4.537  1.00  0.00     0.018 C 
HETATM    8  C4  UNL     1     -38.607 -12.952   6.408  1.00  0.00     0.018 C 
ENDBRANCH   4   5
BRANCH   4   9
HETATM    9  N1  UNL     1     -37.037 -15.769   6.946  1.00  0.00    -0.050 N 
ATOM     10  H13 UNL     1     -37.746 -15.642   7.668  1.00  0.00     0.276 HD
ATOM     11  H12 UNL     1     -37.155 -16.772   6.805  1.00  0.00     0.276 HD
ATOM     12  H11 UNL     1     -36.101 -15.529   7.273  1.00  0.00     0.276 HD
ENDBRANCH   4   9
ENDBRANCH   1   4
BRANCH   1  13
HETATM   13  C6  UNL     1     -35.150 -14.414   6.363  1.00  0.00     0.239 C 
BRANCH  13  14
HETATM   14  C7  UNL     1     -34.465 -13.189   6.933  1.00  0.00     0.011 C 
HETATM   15  C8  UNL     1     -35.035 -11.982   6.223  1.00  0.00     0.006 C 
HETATM   16  C9  UNL     1     -34.261 -10.730   6.463  1.00  0.00     0.000 C 
HETATM   17  C10 UNL     1     -33.054 -10.909   7.333  1.00  0.00     0.000 C 
HETATM   18  C11 UNL     1     -32.208 -12.085   6.918  1.00  0.00     0.000 C 
HETATM   19  C12 UNL     1     -33.001 -13.290   6.554  1.00  0.00     0.006 C 
ENDBRANCH  13  14
ENDBRANCH   1  13
TORSDOF 5
ENDMDL
MODEL 4
REMARK VINA RESULT: -7.373062753      0.460      1.782
REMARK  5 active torsions:
REMARK  status: ('A' for Active; 'I' for Inactive)
REMARK    1  A    between atoms: C2_2  and  C5_5 
REMARK    2  A    between atoms: C5_5  and  N1_6 
REMARK    3  A    between atoms: C5_5  and  N2_10 
REMARK    4  A    between atoms: N2_10  and  C6_13 
REMARK    5  A    between atoms: C6_13  and  C7_14 
ROOT
HETATM    1  N2  UNL     1     -36.371 -14.221   5.362  1.00  0.00    -0.045 N 
ATOM      2  H21 UNL     1     -36.696 -13.262   5.238  1.00  0.00     0.279 HD
ATOM      3  H22 UNL     1     -36.085 -14.403   4.401  1.00  0.00     0.279 HD
ENDROOT
BRANCH   1   4
HETATM    4  C5  UNL     1     -37.418 -15.095   5.791  1.00  0.00     0.387 C 
BRANCH   4   5
HETATM    5  C2  UNL     1     -38.755 -14.429   5.928  1.00  0.00     0.003 C 
HETATM    6  C1  UNL     1     -39.618 -15.224   6.881  1.00  0.00     0.018 C 
HETATM    7  C3  UNL     1     -39.431 -14.457   4.567  1.00  0.00     0.018 C 
HETATM    8  C4  UNL     1     -38.685 -13.018   6.398  1.00  0.00     0.018 C 
ENDBRANCH   4   5
BRANCH   4   9
HETATM    9  N1  UNL     1     -37.053 -15.684   7.066  1.00  0.00    -0.050 N 
ATOM     10  H13 UNL     1     -37.722 -15.462   7.803  1.00  0.00     0.276 HD
ATOM     11  H12 UNL     1     -37.167 -16.698   7.072  1.00  0.00     0.276 HD
ATOM     12  H11 UNL     1     -36.103 -15.398   7.303  1.00  0.00     0.276 HD
ENDBRANCH   4   9
ENDBRANCH   1   4
BRANCH   1  13
HETATM   13  C6  UNL     1     -35.273 -14.308   6.282  1.00  0.00     0.239 C 
BRANCH  13  14
HETATM   14  C7  UNL     1     -34.346 -13.113   6.212  1.00  0.00     0.011 C 
HETATM   15  C8  UNL     1     -33.430 -13.181   7.413  1.00  0.00     0.006 C 
HETATM   16  C9  UNL     1     -32.656 -11.928   7.645  1.00  0.00     0.000 C 
HETATM   17  C10 UNL     1     -32.952 -10.831   6.666  1.00  0.00     0.000 C 
HETATM   18  C11 UNL     1     -34.431 -10.615   6.468  1.00  0.00     0.000 C 
HETATM   19  C12 UNL     1     -35.210 -11.878   6.371  1.00  0.00     0.006 C 
ENDBRANCH  13  14
ENDBRANCH   1  13
TORSDOF 5
ENDMDL
MODEL 5
REMARK VINA RESULT: -7.284371415      0.456      1.770
REMARK  5 active torsions:
REMARK  status: ('A' for Active; 'I' for Inactive)
REMARK    1  A    between atoms: C2_2  and  C5_5 
REMARK    2  A    between atoms: C5_5  and  N1_6 
REMARK    3  A    between atoms: C5_5  and  N2_10 
REMARK    4  A    between atoms: N2_10  and  C6_13 
REMARK    5  A    between atoms: C6_13  and  C7_14 
ROOT
HETATM    1  N2  UNL     1     -36.408 -14.183   5.359  1.00  0.00    -0.045 N 
ATOM      2  H21 UNL     1     -36.744 -13.224   5.273  1.00  0.00     0.279 HD
ATOM      3  H22 UNL     1     -36.126 -14.325   4.389  1.00  0.00     0.279 HD
ENDROOT
BRANCH   1   4
HETATM    4  C5  UNL     1     -37.442 -15.085   5.759  1.00  0.00     0.387 C 
BRANCH   4   5
HETATM    5  C2  UNL     1     -38.802 -14.459   5.846  1.00  0.00     0.003 C 
HETATM    6  C1  UNL     1     -38.673 -13.046   6.366  1.00  0.00     0.018 C 
HETATM    7  C3  UNL     1     -39.613 -15.248   6.862  1.00  0.00     0.018 C 
HETATM    8  C4  UNL     1     -39.543 -14.437   4.556  1.00  0.00     0.018 C 
ENDBRANCH   4   5
BRANCH   4   9
HETATM    9  N1  UNL     1     -37.102 -15.654   7.050  1.00  0.00    -0.050 N 
ATOM     10  H13 UNL     1     -37.665 -16.476   7.273  1.00  0.00     0.276 HD
ATOM     11  H12 UNL     1     -36.187 -16.105   7.049  1.00  0.00     0.276 HD
ATOM     12  H11 UNL     1     -37.176 -14.927   7.763  1.00  0.00     0.276 HD
ENDBRANCH   4   9
ENDBRANCH   1   4
BRANCH   1  13
HETATM   13  C6  UNL     1     -35.303 -14.293   6.268  1.00  0.00     0.239 C 
BRANCH  13  14
HETATM   14  C7  UNL     1     -34.362 -13.108   6.201  1.00  0.00     0.011 C 
HETATM   15  C8  UNL     1     -33.427 -13.207   7.386  1.00  0.00     0.006 C 
HETATM   16  C9  UNL     1     -32.634 -11.968   7.625  1.00  0.00     0.000 C 
HETATM   17  C10 UNL     1     -32.932 -10.852   6.669  1.00  0.00     0.000 C 
HETATM   18  C11 UNL     1     -34.411 -10.614   6.498  1.00  0.00     0.000 C 
HETATM   19  C12 UNL     1     -35.207 -11.866   6.394  1.00  0.00     0.006 C 
ENDBRANCH  13  14
ENDBRANCH   1  13
TORSDOF 5
ENDMDL
