MODEL 1
REMARK VINA RESULT: -5.882204130      0.000      0.000
REMARK  7 active torsions:
REMARK  status: ('A' for Active; 'I' for Inactive)
REMARK    1  A    between atoms: O1_2  and  C2_3 
REMARK    2  A    between atoms: C4_5  and  C5_6 
REMARK    3  A    between atoms: N1_7  and  N2_9 
REMARK    4  A    between atoms: N2_9  and  C6_11 
REMARK    5  A    between atoms: C13_18  and  O2_19 
REMARK    6  A    between atoms: C15_21  and  N3_22 
REMARK    7  A    between atoms: C19_26  and  N4_27 
ROOT
HETATM    1  C2  UNL     1      -4.665   1.855   8.594  1.00  0.00     0.098 A 
HETATM    2  C3  UNL     1      -3.479   2.420   8.149  1.00  0.00     0.052 A 
HETATM    3  C4  UNL     1      -3.481   3.235   7.052  1.00  0.00    -0.014 A 
HETATM    4  C12 UNL     1      -4.665   3.490   6.396  1.00  0.00     0.052 A 
HETATM    5  C13 UNL     1      -5.849   2.912   6.862  1.00  0.00     0.098 A 
HETATM    6  C15 UNL     1      -5.890   2.082   7.967  1.00  0.00     0.099 A 
ENDROOT
BRANCH   3   7
HETATM    7  C5  UNL     1      -2.210   3.825   6.597  1.00  0.00     0.118 C 
HETATM    8  N1  UNL     1      -1.135   3.130   6.652  1.00  0.00    -0.311 N 
ATOM      9  H1  UNL     1      -1.193   2.178   7.014  1.00  0.00     0.186 HD
BRANCH   8  10
HETATM   10  N2  UNL     1       0.106   3.603   6.246  1.00  0.00    -0.301 N 
ATOM     11  H2  UNL     1       0.206   4.214   5.436  1.00  0.00     0.187 HD
BRANCH  10  12
HETATM   12  C6  UNL     1       1.235   3.191   7.019  1.00  0.00     0.048 A 
HETATM   13  C7  UNL     1       2.187   4.105   7.419  1.00  0.00     0.031 A 
HETATM   14  C8  UNL     1       3.284   3.730   8.168  1.00  0.00     0.002 A 
HETATM   15  C9  UNL     1       3.390   2.390   8.505  1.00  0.00     0.000 A 
HETATM   16  C10 UNL     1       2.439   1.470   8.108  1.00  0.00     0.002 A 
HETATM   17  C11 UNL     1       1.350   1.847   7.362  1.00  0.00     0.031 A 
ENDBRANCH  10  12
ENDBRANCH   8  10
ENDBRANCH   3   7
BRANCH   1  18
HETATM   18  O1  UNL     1      -4.625   1.038   9.705  1.00  0.00    -0.354 OA
HETATM   19  C1  UNL     1      -4.705   1.602  10.990  1.00  0.00     0.210 C 
ENDBRANCH   1  18
BRANCH   5  20
HETATM   20  O2  UNL     1      -6.971   3.225   6.144  1.00  0.00    -0.354 OA
HETATM   21  C14 UNL     1      -7.359   2.591   4.945  1.00  0.00     0.210 C 
ENDBRANCH   5  20
BRANCH   6  22
HETATM   22  N3  UNL     1      -7.111   1.497   8.423  1.00  0.00    -0.349 N 
HETATM   23  C16 UNL     1      -7.985   2.140   9.383  1.00  0.00     0.125 C 
HETATM   24  C17 UNL     1      -9.118   1.197   9.695  1.00  0.00     0.024 C 
HETATM   25  C18 UNL     1      -9.121   0.293   8.505  1.00  0.00     0.056 C 
HETATM   26  C19 UNL     1      -7.674   0.235   8.032  1.00  0.00     0.284 C 
BRANCH  26  27
HETATM   27  N4  UNL     1      -7.033  -0.810   8.805  1.00  0.00    -0.058 N 
ATOM     28  H43 UNL     1      -6.541  -0.448   9.621  1.00  0.00     0.276 HD
ATOM     29  H42 UNL     1      -7.703  -1.401   9.297  1.00  0.00     0.276 HD
ATOM     30  H41 UNL     1      -6.425  -1.343   8.183  1.00  0.00     0.276 HD
ENDBRANCH  26  27
ENDBRANCH   6  22
TORSDOF 7
ENDMDL
MODEL 2
REMARK VINA RESULT: -5.831581210      2.637      8.375
REMARK  7 active torsions:
REMARK  status: ('A' for Active; 'I' for Inactive)
REMARK    1  A    between atoms: O1_2  and  C2_3 
REMARK    2  A    between atoms: C4_5  and  C5_6 
REMARK    3  A    between atoms: N1_7  and  N2_9 
REMARK    4  A    between atoms: N2_9  and  C6_11 
REMARK    5  A    between atoms: C13_18  and  O2_19 
REMARK    6  A    between atoms: C15_21  and  N3_22 
REMARK    7  A    between atoms: C19_26  and  N4_27 
ROOT
HETATM    1  C2  UNL     1      -2.777   3.923   6.172  1.00  0.00     0.098 A 
HETATM    2  C3  UNL     1      -3.514   3.274   7.150  1.00  0.00     0.052 A 
HETATM    3  C4  UNL     1      -2.908   2.369   7.975  1.00  0.00    -0.014 A 
HETATM    4  C12 UNL     1      -1.563   2.110   7.828  1.00  0.00     0.052 A 
HETATM    5  C13 UNL     1      -0.837   2.776   6.837  1.00  0.00     0.098 A 
HETATM    6  C15 UNL     1      -1.414   3.697   5.982  1.00  0.00     0.099 A 
ENDROOT
BRANCH   3   7
HETATM    7  C5  UNL     1      -3.710   1.692   9.008  1.00  0.00     0.118 C 
HETATM    8  N1  UNL     1      -4.981   1.606   8.866  1.00  0.00    -0.311 N 
ATOM      9  H1  UNL     1      -5.402   2.015   8.032  1.00  0.00     0.186 HD
BRANCH   8  10
HETATM   10  N2  UNL     1      -5.816   0.987   9.786  1.00  0.00    -0.301 N 
ATOM     11  H2  UNL     1      -5.868   1.299  10.756  1.00  0.00     0.187 HD
BRANCH  10  12
HETATM   12  C6  UNL     1      -6.599  -0.108   9.309  1.00  0.00     0.048 A 
HETATM   13  C7  UNL     1      -7.361  -0.862  10.176  1.00  0.00     0.031 A 
HETATM   14  C8  UNL     1      -8.126  -1.923   9.736  1.00  0.00     0.002 A 
HETATM   15  C9  UNL     1      -8.099  -2.202   8.378  1.00  0.00     0.000 A 
HETATM   16  C10 UNL     1      -7.338  -1.450   7.505  1.00  0.00     0.002 A 
HETATM   17  C11 UNL     1      -6.577  -0.396   7.947  1.00  0.00     0.031 A 
ENDBRANCH  10  12
ENDBRANCH   8  10
ENDBRANCH   3   7
BRANCH   1  18
HETATM   18  O1  UNL     1      -3.423   4.831   5.357  1.00  0.00    -0.354 OA
HETATM   19  C1  UNL     1      -4.275   4.371   4.338  1.00  0.00     0.210 C 
ENDBRANCH   1  18
BRANCH   5  20
HETATM   20  O2  UNL     1       0.490   2.450   6.770  1.00  0.00    -0.354 OA
HETATM   21  C14 UNL     1       1.202   1.771   7.781  1.00  0.00     0.210 C 
ENDBRANCH   5  20
BRANCH   6  22
HETATM   22  N3  UNL     1      -0.654   4.363   4.972  1.00  0.00    -0.349 N 
HETATM   23  C16 UNL     1      -0.556   3.880   3.608  1.00  0.00     0.125 C 
HETATM   24  C17 UNL     1       0.396   4.775   2.859  1.00  0.00     0.024 C 
HETATM   25  C18 UNL     1       0.377   6.025   3.679  1.00  0.00     0.056 C 
HETATM   26  C19 UNL     1       0.110   5.572   5.108  1.00  0.00     0.284 C 
BRANCH  26  27
HETATM   27  N4  UNL     1       1.399   5.236   5.679  1.00  0.00    -0.058 N 
ATOM     28  H43 UNL     1       1.990   4.713   5.032  1.00  0.00     0.276 HD
ATOM     29  H42 UNL     1       2.002   6.051   5.790  1.00  0.00     0.276 HD
ATOM     30  H41 UNL     1       1.244   4.741   6.556  1.00  0.00     0.276 HD
ENDBRANCH  26  27
ENDBRANCH   6  22
TORSDOF 7
ENDMDL
MODEL 3
REMARK VINA RESULT: -5.802191486      2.012      3.467
REMARK  7 active torsions:
REMARK  status: ('A' for Active; 'I' for Inactive)
REMARK    1  A    between atoms: O1_2  and  C2_3 
REMARK    2  A    between atoms: C4_5  and  C5_6 
REMARK    3  A    between atoms: N1_7  and  N2_9 
REMARK    4  A    between atoms: N2_9  and  C6_11 
REMARK    5  A    between atoms: C13_18  and  O2_19 
REMARK    6  A    between atoms: C15_21  and  N3_22 
REMARK    7  A    between atoms: C19_26  and  N4_27 
ROOT
HETATM    1  C2  UNL     1      -4.095   3.441   7.088  1.00  0.00     0.098 A 
HETATM    2  C3  UNL     1      -2.814   2.977   7.342  1.00  0.00     0.052 A 
HETATM    3  C4  UNL     1      -2.624   1.929   8.198  1.00  0.00    -0.014 A 
HETATM    4  C12 UNL     1      -3.713   1.339   8.802  1.00  0.00     0.052 A 
HETATM    5  C13 UNL     1      -4.996   1.821   8.531  1.00  0.00     0.098 A 
HETATM    6  C15 UNL     1      -5.230   2.880   7.672  1.00  0.00     0.099 A 
ENDROOT
BRANCH   3   7
HETATM    7  C5  UNL     1      -1.254   1.452   8.453  1.00  0.00     0.118 C 
HETATM    8  N1  UNL     1      -0.288   1.888   7.733  1.00  0.00    -0.311 N 
ATOM      9  H1  UNL     1      -0.501   2.560   6.996  1.00  0.00     0.186 HD
BRANCH   8  10
HETATM   10  N2  UNL     1       1.032   1.495   7.901  1.00  0.00    -0.301 N 
ATOM     11  H2  UNL     1       1.283   0.520   8.065  1.00  0.00     0.187 HD
BRANCH  10  12
HETATM   12  C6  UNL     1       2.022   2.523   7.833  1.00  0.00     0.048 A 
HETATM   13  C7  UNL     1       3.163   2.456   8.605  1.00  0.00     0.031 A 
HETATM   14  C8  UNL     1       4.133   3.437   8.553  1.00  0.00     0.002 A 
HETATM   15  C9  UNL     1       3.914   4.497   7.688  1.00  0.00     0.000 A 
HETATM   16  C10 UNL     1       2.774   4.569   6.912  1.00  0.00     0.002 A 
HETATM   17  C11 UNL     1       1.810   3.592   6.967  1.00  0.00     0.031 A 
ENDBRANCH  10  12
ENDBRANCH   8  10
ENDBRANCH   3   7
BRANCH   1  18
HETATM   18  O1  UNL     1      -4.248   4.502   6.217  1.00  0.00    -0.354 OA
HETATM   19  C1  UNL     1      -3.450   5.649   6.368  1.00  0.00     0.210 C 
ENDBRANCH   1  18
BRANCH   5  20
HETATM   20  O2  UNL     1      -6.011   1.171   9.179  1.00  0.00    -0.354 OA
HETATM   21  C14 UNL     1      -5.970   0.765  10.529  1.00  0.00     0.210 C 
ENDBRANCH   5  20
BRANCH   6  22
HETATM   22  N3  UNL     1      -6.550   3.360   7.414  1.00  0.00    -0.349 N 
HETATM   23  C16 UNL     1      -7.378   2.857   6.335  1.00  0.00     0.125 C 
HETATM   24  C17 UNL     1      -8.655   3.655   6.309  1.00  0.00     0.024 C 
HETATM   25  C18 UNL     1      -8.718   4.207   7.697  1.00  0.00     0.056 C 
HETATM   26  C19 UNL     1      -7.269   4.371   8.138  1.00  0.00     0.284 C 
BRANCH  26  27
HETATM   27  N4  UNL     1      -6.840   5.669   7.658  1.00  0.00    -0.058 N 
ATOM     28  H43 UNL     1      -7.390   5.994   6.862  1.00  0.00     0.276 HD
ATOM     29  H42 UNL     1      -7.072   6.423   8.304  1.00  0.00     0.276 HD
ATOM     30  H41 UNL     1      -5.842   5.623   7.452  1.00  0.00     0.276 HD
ENDBRANCH  26  27
ENDBRANCH   6  22
TORSDOF 7
ENDMDL
MODEL 4
REMARK VINA RESULT: -5.785184534      2.645      8.052
REMARK  7 active torsions:
REMARK  status: ('A' for Active; 'I' for Inactive)
REMARK    1  A    between atoms: O1_2  and  C2_3 
REMARK    2  A    between atoms: C4_5  and  C5_6 
REMARK    3  A    between atoms: N1_7  and  N2_9 
REMARK    4  A    between atoms: N2_9  and  C6_11 
REMARK    5  A    between atoms: C13_18  and  O2_19 
REMARK    6  A    between atoms: C15_21  and  N3_22 
REMARK    7  A    between atoms: C19_26  and  N4_27 
ROOT
HETATM    1  C2  UNL     1      -0.860   2.762   6.842  1.00  0.00     0.098 A 
HETATM    2  C3  UNL     1      -1.603   2.120   7.820  1.00  0.00     0.052 A 
HETATM    3  C4  UNL     1      -2.935   2.393   7.956  1.00  0.00    -0.014 A 
HETATM    4  C12 UNL     1      -3.530   3.308   7.116  1.00  0.00     0.052 A 
HETATM    5  C13 UNL     1      -2.764   3.944   6.135  1.00  0.00     0.098 A 
HETATM    6  C15 UNL     1      -1.414   3.696   5.966  1.00  0.00     0.099 A 
ENDROOT
BRANCH   3   7
HETATM    7  C5  UNL     1      -3.705   1.698   9.001  1.00  0.00     0.118 C 
HETATM    8  N1  UNL     1      -4.977   1.585   8.880  1.00  0.00    -0.311 N 
ATOM      9  H1  UNL     1      -5.420   1.985   8.054  1.00  0.00     0.186 HD
BRANCH   8  10
HETATM   10  N2  UNL     1      -5.782   0.947   9.814  1.00  0.00    -0.301 N 
ATOM     11  H2  UNL     1      -5.804   1.240  10.790  1.00  0.00     0.187 HD
BRANCH  10  12
HETATM   12  C6  UNL     1      -6.579  -0.139   9.339  1.00  0.00     0.048 A 
HETATM   13  C7  UNL     1      -7.313  -0.911  10.215  1.00  0.00     0.031 A 
HETATM   14  C8  UNL     1      -8.091  -1.964   9.778  1.00  0.00     0.002 A 
HETATM   15  C9  UNL     1      -8.106  -2.216   8.415  1.00  0.00     0.000 A 
HETATM   16  C10 UNL     1      -7.373  -1.446   7.533  1.00  0.00     0.002 A 
HETATM   17  C11 UNL     1      -6.599  -0.400   7.972  1.00  0.00     0.031 A 
ENDBRANCH  10  12
ENDBRANCH   8  10
ENDBRANCH   3   7
BRANCH   1  18
HETATM   18  O1  UNL     1       0.483   2.460   6.734  1.00  0.00    -0.354 OA
HETATM   19  C1  UNL     1       1.138   1.804   7.790  1.00  0.00     0.210 C 
ENDBRANCH   1  18
BRANCH   5  20
HETATM   20  O2  UNL     1      -3.444   4.835   5.352  1.00  0.00    -0.354 OA
HETATM   21  C14 UNL     1      -4.353   4.477   4.334  1.00  0.00     0.210 C 
ENDBRANCH   5  20
BRANCH   6  22
HETATM   22  N3  UNL     1      -0.648   4.361   4.960  1.00  0.00    -0.349 N 
HETATM   23  C16 UNL     1      -0.558   3.889   3.593  1.00  0.00     0.125 C 
HETATM   24  C17 UNL     1       0.403   4.779   2.849  1.00  0.00     0.024 C 
HETATM   25  C18 UNL     1       0.399   6.023   3.679  1.00  0.00     0.056 C 
HETATM   26  C19 UNL     1       0.128   5.561   5.105  1.00  0.00     0.284 C 
BRANCH  26  27
HETATM   27  N4  UNL     1       1.415   5.208   5.671  1.00  0.00    -0.058 N 
ATOM     28  H43 UNL     1       1.933   4.551   5.087  1.00  0.00     0.276 HD
ATOM     29  H42 UNL     1       2.082   5.978   5.640  1.00  0.00     0.276 HD
ATOM     30  H41 UNL     1       1.265   4.857   6.617  1.00  0.00     0.276 HD
ENDBRANCH  26  27
ENDBRANCH   6  22
TORSDOF 7
ENDMDL
MODEL 5
REMARK VINA RESULT: -5.746462259      1.054      2.866
REMARK  7 active torsions:
REMARK  status: ('A' for Active; 'I' for Inactive)
REMARK    1  A    between atoms: O1_2  and  C2_3 
REMARK    2  A    between atoms: C4_5  and  C5_6 
REMARK    3  A    between atoms: N1_7  and  N2_9 
REMARK    4  A    between atoms: N2_9  and  C6_11 
REMARK    5  A    between atoms: C13_18  and  O2_19 
REMARK    6  A    between atoms: C15_21  and  N3_22 
REMARK    7  A    between atoms: C19_26  and  N4_27 
ROOT
HETATM    1  C2  UNL     1      -6.004   1.962   7.464  1.00  0.00     0.098 A 
HETATM    2  C3  UNL     1      -4.908   2.615   6.924  1.00  0.00     0.052 A 
HETATM    3  C4  UNL     1      -3.736   2.677   7.625  1.00  0.00    -0.014 A 
HETATM    4  C12 UNL     1      -3.655   2.087   8.867  1.00  0.00     0.052 A 
HETATM    5  C13 UNL     1      -4.772   1.432   9.393  1.00  0.00     0.098 A 
HETATM    6  C15 UNL     1      -5.975   1.348   8.716  1.00  0.00     0.099 A 
ENDROOT
BRANCH   3   7
HETATM    7  C5  UNL     1      -2.583   3.375   7.032  1.00  0.00     0.118 C 
HETATM    8  N1  UNL     1      -1.429   2.817   7.046  1.00  0.00    -0.311 N 
ATOM      9  H1  UNL     1      -1.345   1.895   7.474  1.00  0.00     0.186 HD
BRANCH   8  10
HETATM   10  N2  UNL     1      -0.288   3.399   6.512  1.00  0.00    -0.301 N 
ATOM     11  H2  UNL     1      -0.333   4.018   5.702  1.00  0.00     0.187 HD
BRANCH  10  12
HETATM   12  C6  UNL     1       0.951   3.088   7.150  1.00  0.00     0.048 A 
HETATM   13  C7  UNL     1       1.908   4.061   7.345  1.00  0.00     0.031 A 
HETATM   14  C8  UNL     1       3.112   3.784   7.962  1.00  0.00     0.002 A 
HETATM   15  C9  UNL     1       3.321   2.479   8.381  1.00  0.00     0.000 A 
HETATM   16  C10 UNL     1       2.365   1.500   8.190  1.00  0.00     0.002 A 
HETATM   17  C11 UNL     1       1.169   1.780   7.575  1.00  0.00     0.031 A 
ENDBRANCH  10  12
ENDBRANCH   8  10
ENDBRANCH   3   7
BRANCH   1  18
HETATM   18  O1  UNL     1      -7.171   1.918   6.727  1.00  0.00    -0.354 OA
HETATM   19  C1  UNL     1      -7.266   1.055   5.622  1.00  0.00     0.210 C 
ENDBRANCH   1  18
BRANCH   5  20
HETATM   20  O2  UNL     1      -4.593   0.879  10.632  1.00  0.00    -0.354 OA
HETATM   21  C14 UNL     1      -4.698   1.586  11.849  1.00  0.00     0.210 C 
ENDBRANCH   5  20
BRANCH   6  22
HETATM   22  N3  UNL     1      -7.106   0.678   9.275  1.00  0.00    -0.349 N 
HETATM   23  C16 UNL     1      -7.349  -0.741   9.105  1.00  0.00     0.125 C 
HETATM   24  C17 UNL     1      -8.671  -1.073   9.746  1.00  0.00     0.024 C 
HETATM   25  C18 UNL     1      -8.857   0.057  10.706  1.00  0.00     0.056 C 
HETATM   26  C19 UNL     1      -8.155   1.251  10.072  1.00  0.00     0.284 C 
BRANCH  26  27
HETATM   27  N4  UNL     1      -9.119   1.868   9.183  1.00  0.00    -0.058 N 
ATOM     28  H43 UNL     1     -10.081   1.615   9.412  1.00  0.00     0.276 HD
ATOM     29  H42 UNL     1      -9.201   2.873   9.331  1.00  0.00     0.276 HD
ATOM     30  H41 UNL     1      -8.869   1.632   8.223  1.00  0.00     0.276 HD
ENDBRANCH  26  27
ENDBRANCH   6  22
TORSDOF 7
ENDMDL
