MODEL 1
REMARK VINA RESULT: -9.822470383      0.000      0.000
REMARK  5 active torsions:
REMARK  status: ('A' for Active; 'I' for Inactive)
REMARK    1  A    between atoms: C3_4  and  C4_5 
REMARK    2  A    between atoms: C4_5  and  N1_6 
REMARK    3  A    between atoms: N2_9  and  C7_10 
REMARK    4  A    between atoms: N5_19  and  C12_20 
REMARK    5  A    between atoms: C12_20  and  C13_21 
ROOT
HETATM    1  C7  UNL     1      14.686  12.960   5.788  1.00  0.00     0.116 A 
HETATM    2  N3  UNL     1      14.929  14.100   5.068  1.00  0.00    -0.338 N 
ATOM      3  H3  UNL     1      14.724  14.993   5.515  1.00  0.00     0.168 HD
HETATM    4  C8  UNL     1      15.412  14.127   3.829  1.00  0.00     0.183 A 
HETATM    5  N4  UNL     1      15.695  12.973   3.207  1.00  0.00    -0.332 N 
ATOM      6  H4  UNL     1      16.068  12.968   2.258  1.00  0.00     0.168 HD
HETATM    7  C9  UNL     1      15.478  11.830   3.864  1.00  0.00     0.155 A 
HETATM    8  C10 UNL     1      14.966  11.762   5.172  1.00  0.00     0.065 A 
HETATM    9  C11 UNL     1      14.617  10.633   6.002  1.00  0.00     0.319 C 
HETATM   10  N5  UNL     1      15.422   9.412   5.836  1.00  0.00     0.095 N 
HETATM   11  C21 UNL     1      16.614   9.664   5.138  1.00  0.00     0.299 C 
HETATM   12  C22 UNL     1      16.432   9.478   3.608  1.00  0.00     0.207 C 
HETATM   13  O2  UNL     1      15.800  10.661   3.151  1.00  0.00    -0.333 OA
ENDROOT
BRANCH   1  14
HETATM   14  N2  UNL     1      14.217  13.130   7.114  1.00  0.00    -0.363 N 
HETATM   15  C6  UNL     1      14.069  14.394   7.780  1.00  0.00     0.154 C 
HETATM   16  C5  UNL     1      13.316  14.088   9.092  1.00  0.00     0.292 C 
HETATM   17  N1  UNL     1      12.110  13.383   8.700  1.00  0.00     0.097 N 
HETATM   18  C24 UNL     1      12.369  12.071   8.200  1.00  0.00     0.292 C 
HETATM   19  C23 UNL     1      13.858  11.945   7.863  1.00  0.00     0.154 C 
BRANCH  17  20
HETATM   20  C4  UNL     1      11.130  13.431   9.764  1.00  0.00     0.337 C 
BRANCH  20  21
HETATM   21  C3  UNL     1      11.629  12.560  10.868  1.00  0.00     0.080 A 
HETATM   22  O1  UNL     1      12.211  13.050  11.955  1.00  0.00    -0.325 OA
HETATM   23  C2  UNL     1      12.558  12.096  12.769  1.00  0.00     0.142 A 
HETATM   24  C1  UNL     1      12.195  10.888  12.210  1.00  0.00     0.027 A 
HETATM   25  C25 UNL     1      11.606  11.189  11.002  1.00  0.00     0.036 A 
ENDBRANCH  20  21
ENDBRANCH  17  20
ENDBRANCH   1  14
BRANCH  10  26
HETATM   26  C12 UNL     1      15.608   8.819   7.124  1.00  0.00     0.277 C 
BRANCH  26  27
HETATM   27  C13 UNL     1      16.865   8.114   7.410  1.00  0.00     0.018 C 
HETATM   28  C14 UNL     1      17.404   8.049   8.787  1.00  0.00     0.011 C 
HETATM   29  C15 UNL     1      18.448   6.907   8.820  1.00  0.00    -0.014 C 
HETATM   30  C16 UNL     1      19.182   6.930   7.509  1.00  0.00     0.005 C 
HETATM   31  C20 UNL     1      17.684   5.574   8.866  1.00  0.00     0.005 C 
HETATM   32  C17 UNL     1      18.256   6.346   6.448  1.00  0.00     0.005 C 
HETATM   33  C18 UNL     1      16.813   6.671   6.862  1.00  0.00    -0.009 C 
HETATM   34  C19 UNL     1      16.419   5.795   8.033  1.00  0.00     0.005 C 
ENDBRANCH  26  27
ENDBRANCH  10  26
TORSDOF 5
ENDMDL
MODEL 2
REMARK VINA RESULT: -9.428987330      2.887      6.566
REMARK  5 active torsions:
REMARK  status: ('A' for Active; 'I' for Inactive)
REMARK    1  A    between atoms: C3_4  and  C4_5 
REMARK    2  A    between atoms: C4_5  and  N1_6 
REMARK    3  A    between atoms: N2_9  and  C7_10 
REMARK    4  A    between atoms: N5_19  and  C12_20 
REMARK    5  A    between atoms: C12_20  and  C13_21 
ROOT
HETATM    1  C7  UNL     1      15.630  11.404   3.672  1.00  0.00     0.116 A 
HETATM    2  N3  UNL     1      15.264  12.328   2.730  1.00  0.00    -0.338 N 
ATOM      3  H3  UNL     1      15.193  12.014   1.763  1.00  0.00     0.168 HD
HETATM    4  C8  UNL     1      14.995  13.606   2.985  1.00  0.00     0.183 A 
HETATM    5  N4  UNL     1      15.076  14.057   4.245  1.00  0.00    -0.332 N 
ATOM      6  H4  UNL     1      14.873  15.032   4.465  1.00  0.00     0.168 HD
HETATM    7  C9  UNL     1      15.429  13.197   5.204  1.00  0.00     0.155 A 
HETATM    8  C10 UNL     1      15.724  11.842   4.973  1.00  0.00     0.065 A 
HETATM    9  C11 UNL     1      16.172  10.798   5.865  1.00  0.00     0.319 C 
HETATM   10  N5  UNL     1      15.692  10.859   7.254  1.00  0.00     0.095 N 
HETATM   11  C21 UNL     1      14.603  11.736   7.393  1.00  0.00     0.299 C 
HETATM   12  C22 UNL     1      15.068  13.177   7.729  1.00  0.00     0.207 C 
HETATM   13  O2  UNL     1      15.491  13.741   6.500  1.00  0.00    -0.333 OA
ENDROOT
BRANCH   1  14
HETATM   14  N2  UNL     1      15.829  10.075   3.220  1.00  0.00    -0.363 N 
HETATM   15  C6  UNL     1      15.100   8.929   3.686  1.00  0.00     0.154 C 
HETATM   16  C5  UNL     1      15.499   7.772   2.745  1.00  0.00     0.292 C 
HETATM   17  N1  UNL     1      15.232   8.245   1.400  1.00  0.00     0.097 N 
HETATM   18  C24 UNL     1      16.125   9.279   0.985  1.00  0.00     0.292 C 
HETATM   19  C23 UNL     1      16.843   9.847   2.213  1.00  0.00     0.154 C 
BRANCH  17  20
HETATM   20  C4  UNL     1      15.145   7.130   0.482  1.00  0.00     0.337 C 
BRANCH  20  21
HETATM   21  C3  UNL     1      13.959   6.317   0.881  1.00  0.00     0.080 A 
HETATM   22  O1  UNL     1      12.728   6.812   0.898  1.00  0.00    -0.325 OA
HETATM   23  C2  UNL     1      11.868   5.913   1.280  1.00  0.00     0.142 A 
HETATM   24  C1  UNL     1      12.546   4.739   1.538  1.00  0.00     0.027 A 
HETATM   25  C25 UNL     1      13.873   5.002   1.284  1.00  0.00     0.036 A 
ENDBRANCH  20  21
ENDBRANCH  17  20
ENDBRANCH   1  14
BRANCH  10  26
HETATM   26  C12 UNL     1      15.434   9.525   7.699  1.00  0.00     0.277 C 
BRANCH  26  27
HETATM   27  C13 UNL     1      16.550   8.573   7.783  1.00  0.00     0.018 C 
HETATM   28  C14 UNL     1      16.987   8.028   9.088  1.00  0.00     0.011 C 
HETATM   29  C15 UNL     1      17.842   6.771   8.799  1.00  0.00    -0.014 C 
HETATM   30  C16 UNL     1      18.650   7.050   7.563  1.00  0.00     0.005 C 
HETATM   31  C20 UNL     1      16.883   5.624   8.440  1.00  0.00     0.005 C 
HETATM   32  C17 UNL     1      17.713   6.954   6.364  1.00  0.00     0.005 C 
HETATM   33  C18 UNL     1      16.313   7.377   6.835  1.00  0.00    -0.009 C 
HETATM   34  C19 UNL     1      15.720   6.277   7.691  1.00  0.00     0.005 C 
ENDBRANCH  26  27
ENDBRANCH  10  26
TORSDOF 5
ENDMDL
MODEL 3
REMARK VINA RESULT: -9.416466014      1.802      3.107
REMARK  5 active torsions:
REMARK  status: ('A' for Active; 'I' for Inactive)
REMARK    1  A    between atoms: C3_4  and  C4_5 
REMARK    2  A    between atoms: C4_5  and  N1_6 
REMARK    3  A    between atoms: N2_9  and  C7_10 
REMARK    4  A    between atoms: N5_19  and  C12_20 
REMARK    5  A    between atoms: C12_20  and  C13_21 
ROOT
HETATM    1  C7  UNL     1      16.514  11.855   2.870  1.00  0.00     0.116 A 
HETATM    2  N3  UNL     1      17.168  12.282   1.745  1.00  0.00    -0.338 N 
ATOM      3  H3  UNL     1      17.384  13.276   1.673  1.00  0.00     0.168 HD
HETATM    4  C8  UNL     1      17.542  11.495   0.740  1.00  0.00     0.183 A 
HETATM    5  N4  UNL     1      17.278  10.182   0.798  1.00  0.00    -0.332 N 
ATOM      6  H4  UNL     1      17.555   9.559   0.040  1.00  0.00     0.168 HD
HETATM    7  C9  UNL     1      16.641   9.712   1.873  1.00  0.00     0.155 A 
HETATM    8  C10 UNL     1      16.228  10.512   2.953  1.00  0.00     0.065 A 
HETATM    9  C11 UNL     1      15.488  10.190   4.151  1.00  0.00     0.319 C 
HETATM   10  N5  UNL     1      15.696   8.848   4.720  1.00  0.00     0.095 N 
HETATM   11  C21 UNL     1      16.839   8.228   4.190  1.00  0.00     0.299 C 
HETATM   12  C22 UNL     1      16.504   7.392   2.927  1.00  0.00     0.207 C 
HETATM   13  O2  UNL     1      16.400   8.326   1.866  1.00  0.00    -0.333 OA
ENDROOT
BRANCH   1  14
HETATM   14  N2  UNL     1      16.240  12.832   3.859  1.00  0.00    -0.363 N 
HETATM   15  C6  UNL     1      15.021  13.586   3.957  1.00  0.00     0.154 C 
HETATM   16  C5  UNL     1      15.101  14.332   5.306  1.00  0.00     0.292 C 
HETATM   17  N1  UNL     1      15.349  13.312   6.308  1.00  0.00     0.097 N 
HETATM   18  C24 UNL     1      16.656  12.744   6.212  1.00  0.00     0.292 C 
HETATM   19  C23 UNL     1      17.261  13.098   4.850  1.00  0.00     0.154 C 
BRANCH  17  20
HETATM   20  C4  UNL     1      15.011  13.807   7.625  1.00  0.00     0.337 C 
BRANCH  20  21
HETATM   21  C3  UNL     1      13.780  13.089   8.067  1.00  0.00     0.080 A 
HETATM   22  O1  UNL     1      12.905  13.627   8.906  1.00  0.00    -0.325 OA
HETATM   23  C2  UNL     1      11.919  12.810   9.140  1.00  0.00     0.142 A 
HETATM   24  C1  UNL     1      12.130  11.651   8.421  1.00  0.00     0.027 A 
HETATM   25  C25 UNL     1      13.314  11.834   7.742  1.00  0.00     0.036 A 
ENDBRANCH  20  21
ENDBRANCH  17  20
ENDBRANCH   1  14
BRANCH  10  26
HETATM   26  C12 UNL     1      15.693   8.960   6.145  1.00  0.00     0.277 C 
BRANCH  26  27
HETATM   27  C13 UNL     1      16.767   8.314   6.913  1.00  0.00     0.018 C 
HETATM   28  C14 UNL     1      16.991   8.651   8.337  1.00  0.00     0.011 C 
HETATM   29  C15 UNL     1      17.858   7.523   8.947  1.00  0.00    -0.014 C 
HETATM   30  C16 UNL     1      18.849   7.102   7.899  1.00  0.00     0.005 C 
HETATM   31  C20 UNL     1      16.946   6.311   9.193  1.00  0.00     0.005 C 
HETATM   32  C17 UNL     1      18.104   6.266   6.864  1.00  0.00     0.005 C 
HETATM   33  C18 UNL     1      16.657   6.777   6.810  1.00  0.00    -0.009 C 
HETATM   34  C19 UNL     1      15.921   6.327   8.056  1.00  0.00     0.005 C 
ENDBRANCH  26  27
ENDBRANCH  10  26
TORSDOF 5
ENDMDL
MODEL 4
REMARK VINA RESULT: -9.324755989      3.166      6.586
REMARK  5 active torsions:
REMARK  status: ('A' for Active; 'I' for Inactive)
REMARK    1  A    between atoms: C3_4  and  C4_5 
REMARK    2  A    between atoms: C4_5  and  N1_6 
REMARK    3  A    between atoms: N2_9  and  C7_10 
REMARK    4  A    between atoms: N5_19  and  C12_20 
REMARK    5  A    between atoms: C12_20  and  C13_21 
ROOT
HETATM    1  C7  UNL     1      15.697  12.425   3.030  1.00  0.00     0.116 A 
HETATM    2  N3  UNL     1      15.448  13.569   2.319  1.00  0.00    -0.338 N 
ATOM      3  H3  UNL     1      15.238  13.472   1.326  1.00  0.00     0.168 HD
HETATM    4  C8  UNL     1      15.459  14.797   2.830  1.00  0.00     0.183 A 
HETATM    5  N4  UNL     1      15.728  14.967   4.132  1.00  0.00    -0.332 N 
ATOM      6  H4  UNL     1      15.742  15.899   4.547  1.00  0.00     0.168 HD
HETATM    7  C9  UNL     1      15.979  13.884   4.873  1.00  0.00     0.155 A 
HETATM    8  C10 UNL     1      15.979  12.571   4.369  1.00  0.00     0.065 A 
HETATM    9  C11 UNL     1      16.281  11.307   4.999  1.00  0.00     0.319 C 
HETATM   10  N5  UNL     1      15.935  11.176   6.423  1.00  0.00     0.095 N 
HETATM   11  C21 UNL     1      15.057  12.188   6.843  1.00  0.00     0.299 C 
HETATM   12  C22 UNL     1      15.824  13.426   7.378  1.00  0.00     0.207 C 
HETATM   13  O2  UNL     1      16.251  14.138   6.229  1.00  0.00    -0.333 OA
ENDROOT
BRANCH   1  14
HETATM   14  N2  UNL     1      15.591  11.200   2.325  1.00  0.00    -0.363 N 
HETATM   15  C6  UNL     1      16.670  10.550   1.637  1.00  0.00     0.154 C 
HETATM   16  C5  UNL     1      16.132   9.159   1.238  1.00  0.00     0.292 C 
HETATM   17  N1  UNL     1      15.650   8.555   2.466  1.00  0.00     0.097 N 
HETATM   18  C24 UNL     1      14.475   9.187   2.974  1.00  0.00     0.292 C 
HETATM   19  C23 UNL     1      14.299  10.547   2.292  1.00  0.00     0.154 C 
BRANCH  17  20
HETATM   20  C4  UNL     1      15.534   7.121   2.311  1.00  0.00     0.337 C 
BRANCH  20  21
HETATM   21  C3  UNL     1      16.918   6.566   2.259  1.00  0.00     0.080 A 
HETATM   22  O1  UNL     1      17.293   5.671   1.354  1.00  0.00    -0.325 OA
HETATM   23  C2  UNL     1      18.542   5.341   1.513  1.00  0.00     0.142 A 
HETATM   24  C1  UNL     1      19.049   6.048   2.584  1.00  0.00     0.027 A 
HETATM   25  C25 UNL     1      18.013   6.824   3.054  1.00  0.00     0.036 A 
ENDBRANCH  20  21
ENDBRANCH  17  20
ENDBRANCH   1  14
BRANCH  10  26
HETATM   26  C12 UNL     1      15.453   9.849   6.647  1.00  0.00     0.277 C 
BRANCH  26  27
HETATM   27  C13 UNL     1      16.343   8.864   7.278  1.00  0.00     0.018 C 
HETATM   28  C14 UNL     1      16.079   8.369   8.648  1.00  0.00     0.011 C 
HETATM   29  C15 UNL     1      16.900   7.070   8.835  1.00  0.00    -0.014 C 
HETATM   30  C16 UNL     1      18.211   7.260   8.126  1.00  0.00     0.005 C 
HETATM   31  C20 UNL     1      16.166   5.941   8.095  1.00  0.00     0.005 C 
HETATM   32  C17 UNL     1      17.951   7.138   6.628  1.00  0.00     0.005 C 
HETATM   33  C18 UNL     1      16.520   7.631   6.364  1.00  0.00    -0.009 C 
HETATM   34  C19 UNL     1      15.534   6.596   6.864  1.00  0.00     0.005 C 
ENDBRANCH  26  27
ENDBRANCH  10  26
TORSDOF 5
ENDMDL
MODEL 5
REMARK VINA RESULT: -9.304387422      1.349      1.922
REMARK  5 active torsions:
REMARK  status: ('A' for Active; 'I' for Inactive)
REMARK    1  A    between atoms: C3_4  and  C4_5 
REMARK    2  A    between atoms: C4_5  and  N1_6 
REMARK    3  A    between atoms: N2_9  and  C7_10 
REMARK    4  A    between atoms: N5_19  and  C12_20 
REMARK    5  A    between atoms: C12_20  and  C13_21 
ROOT
HETATM    1  C7  UNL     1      14.358  13.159   6.921  1.00  0.00     0.116 A 
HETATM    2  N3  UNL     1      14.685  14.456   7.215  1.00  0.00    -0.338 N 
ATOM      3  H3  UNL     1      14.183  14.908   7.978  1.00  0.00     0.168 HD
HETATM    4  C8  UNL     1      15.608  15.169   6.576  1.00  0.00     0.183 A 
HETATM    5  N4  UNL     1      16.291  14.610   5.567  1.00  0.00    -0.332 N 
ATOM      6  H4  UNL     1      17.005  15.136   5.063  1.00  0.00     0.168 HD
HETATM    7  C9  UNL     1      16.012  13.345   5.238  1.00  0.00     0.155 A 
HETATM    8  C10 UNL     1      15.042  12.562   5.887  1.00  0.00     0.065 A 
HETATM    9  C11 UNL     1      14.574  11.219   5.632  1.00  0.00     0.319 C 
HETATM   10  N5  UNL     1      15.559  10.261   5.107  1.00  0.00     0.095 N 
HETATM   11  C21 UNL     1      16.875  10.726   5.261  1.00  0.00     0.299 C 
HETATM   12  C22 UNL     1      17.344  11.538   4.026  1.00  0.00     0.207 C 
HETATM   13  O2  UNL     1      16.769  12.825   4.172  1.00  0.00    -0.333 OA
ENDROOT
BRANCH   1  14
HETATM   14  N2  UNL     1      13.382  12.544   7.744  1.00  0.00    -0.363 N 
HETATM   15  C6  UNL     1      13.544  11.284   8.413  1.00  0.00     0.154 C 
HETATM   16  C5  UNL     1      12.330  11.155   9.358  1.00  0.00     0.292 C 
HETATM   17  N1  UNL     1      12.332  12.358  10.170  1.00  0.00     0.097 N 
HETATM   18  C24 UNL     1      11.999  13.531   9.427  1.00  0.00     0.292 C 
HETATM   19  C23 UNL     1      12.121  13.232   7.929  1.00  0.00     0.154 C 
BRANCH  17  20
HETATM   20  C4  UNL     1      11.535  12.163  11.361  1.00  0.00     0.337 C 
BRANCH  20  21
HETATM   21  C3  UNL     1      12.474  12.104  12.519  1.00  0.00     0.080 A 
HETATM   22  O1  UNL     1      12.869  13.189  13.173  1.00  0.00    -0.325 OA
HETATM   23  C2  UNL     1      13.684  12.881  14.139  1.00  0.00     0.142 A 
HETATM   24  C1  UNL     1      13.856  11.511  14.149  1.00  0.00     0.027 A 
HETATM   25  C25 UNL     1      13.086  11.024  13.117  1.00  0.00     0.036 A 
ENDBRANCH  20  21
ENDBRANCH  17  20
ENDBRANCH   1  14
BRANCH  10  26
HETATM   26  C12 UNL     1      15.310   8.987   5.707  1.00  0.00     0.277 C 
BRANCH  26  27
HETATM   27  C13 UNL     1      16.280   8.451   6.671  1.00  0.00     0.018 C 
HETATM   28  C14 UNL     1      16.065   8.600   8.128  1.00  0.00     0.011 C 
HETATM   29  C15 UNL     1      16.989   7.582   8.838  1.00  0.00    -0.014 C 
HETATM   30  C16 UNL     1      18.277   7.529   8.065  1.00  0.00     0.005 C 
HETATM   31  C20 UNL     1      16.346   6.192   8.705  1.00  0.00     0.005 C 
HETATM   32  C17 UNL     1      18.020   6.735   6.788  1.00  0.00     0.005 C 
HETATM   33  C18 UNL     1      16.552   6.957   6.392  1.00  0.00    -0.009 C 
HETATM   34  C19 UNL     1      15.657   6.186   7.339  1.00  0.00     0.005 C 
ENDBRANCH  26  27
ENDBRANCH  10  26
TORSDOF 5
ENDMDL
