MODEL 1
REMARK VINA RESULT: -6.340134869      0.000      0.000
REMARK  7 active torsions:
REMARK  status: ('A' for Active; 'I' for Inactive)
REMARK    1  A    between atoms: C2_2  and  C3_3 
REMARK    2  A    between atoms: C3_3  and  O2_5 
REMARK    3  A    between atoms: O2_5  and  C4_6 
REMARK    4  A    between atoms: C6_8  and  O3_9 
REMARK    5  A    between atoms: N1_16  and  C12_17 
REMARK    6  A    between atoms: C12_17  and  C13_18 
REMARK    7  A    between atoms: N2_21  and  O4_22 
ROOT
HETATM    1  C4  UNL     1     -11.950  22.697  -6.328  1.00  0.00     0.143 C 
HETATM    2  C5  UNL     1     -10.868  23.661  -6.616  1.00  0.00     0.066 C 
HETATM    3  C6  UNL     1     -10.636  23.710  -8.072  1.00  0.00     0.129 C 
HETATM    4  C7  UNL     1     -10.243  22.270  -8.494  1.00  0.00    -0.008 C 
HETATM    5  C8  UNL     1      -9.319  21.820  -7.366  1.00  0.00     0.018 C 
HETATM    6  C9  UNL     1      -9.258  22.419  -9.554  1.00  0.00     0.014 C 
HETATM    7  C10 UNL     1      -9.470  22.528 -10.980  1.00  0.00     0.029 C 
HETATM    8  C11 UNL     1      -9.019  21.277 -11.798  1.00  0.00     0.122 C 
HETATM    9  N1  UNL     1      -9.378  21.567 -13.169  1.00  0.00    -0.272 N 
HETATM   10  N2  UNL     1     -10.673  21.318 -13.708  1.00  0.00    -0.173 N 
HETATM   11  C16 UNL     1     -11.797  21.009 -13.113  1.00  0.00     0.144 C 
HETATM   12  C17 UNL     1     -11.891  20.856 -11.644  1.00  0.00     0.026 C 
HETATM   13  C18 UNL     1     -10.958  20.424 -10.790  1.00  0.00    -0.059 C 
HETATM   14  C19 UNL     1      -9.608  20.006 -11.283  1.00  0.00    -0.001 C 
HETATM   15  C20 UNL     1      -9.787  18.957 -12.408  1.00  0.00     0.022 C 
HETATM   16  C21 UNL     1      -8.818  19.262 -10.250  1.00  0.00     0.022 C 
HETATM   17  C22 UNL     1     -11.780  20.562  -9.579  1.00  0.00    -0.010 A 
HETATM   18  C23 UNL     1     -12.403  19.220  -9.399  1.00  0.00     0.021 C 
HETATM   19  C24 UNL     1     -12.514  21.834  -9.654  1.00  0.00     0.027 A 
HETATM   20  C25 UNL     1     -11.509  21.556  -8.589  1.00  0.00    -0.009 A 
HETATM   21  C26 UNL     1     -12.224  21.563  -7.234  1.00  0.00    -0.011 C 
HETATM   22  C27 UNL     1     -13.741  21.619  -7.350  1.00  0.00     0.018 C 
HETATM   23  C28 UNL     1     -11.983  20.215  -6.522  1.00  0.00     0.018 C 
ENDROOT
BRANCH   1  24
HETATM   24  O2  UNL     1     -13.083  23.482  -5.935  1.00  0.00    -0.312 OA
BRANCH  24  25
HETATM   25  C3  UNL     1     -13.122  24.287  -4.817  1.00  0.00     0.282 C 
HETATM   26  O1  UNL     1     -12.902  25.532  -5.009  1.00  0.00    -0.260 OA
BRANCH  25  27
HETATM   27  C2  UNL     1     -13.392  23.795  -3.488  1.00  0.00     0.072 C 
HETATM   28  C1  UNL     1     -14.614  23.782  -3.015  1.00  0.00     0.017 C 
ENDBRANCH  25  27
ENDBRANCH  24  25
ENDBRANCH   1  24
BRANCH   3  29
HETATM   29  O3  UNL     1     -11.720  24.213  -8.698  1.00  0.00    -0.395 OA
ATOM     30  H3  UNL     1     -12.228  23.510  -9.086  1.00  0.00     0.210 HD
ENDBRANCH   3  29
BRANCH   9  31
HETATM   31  C12 UNL     1      -8.474  22.145 -14.074  1.00  0.00     0.115 C 
BRANCH  31  32
HETATM   32  C13 UNL     1      -7.169  22.670 -13.703  1.00  0.00    -0.070 C 
HETATM   33  C14 UNL     1      -6.033  21.708 -13.511  1.00  0.00     0.044 C 
HETATM   34  C15 UNL     1      -6.650  23.866 -14.460  1.00  0.00     0.044 C 
ENDBRANCH  31  32
ENDBRANCH   9  31
BRANCH  10  35
HETATM   35  O4  UNL     1     -10.723  21.430 -15.073  1.00  0.00    -0.268 OA
ATOM     36  H4  UNL     1     -10.580  22.316 -15.383  1.00  0.00     0.247 HD
ENDBRANCH  10  35
TORSDOF 7
ENDMDL
MODEL 2
REMARK VINA RESULT: -5.903607306      3.559      7.007
REMARK  7 active torsions:
REMARK  status: ('A' for Active; 'I' for Inactive)
REMARK    1  A    between atoms: C2_2  and  C3_3 
REMARK    2  A    between atoms: C3_3  and  O2_5 
REMARK    3  A    between atoms: O2_5  and  C4_6 
REMARK    4  A    between atoms: C6_8  and  O3_9 
REMARK    5  A    between atoms: N1_16  and  C12_17 
REMARK    6  A    between atoms: C12_17  and  C13_18 
REMARK    7  A    between atoms: N2_21  and  O4_22 
ROOT
HETATM    1  C4  UNL     1     -15.817  19.078 -11.585  1.00  0.00     0.143 C 
HETATM    2  C5  UNL     1     -16.569  19.856 -10.579  1.00  0.00     0.066 C 
HETATM    3  C6  UNL     1     -15.683  20.881  -9.997  1.00  0.00     0.129 C 
HETATM    4  C7  UNL     1     -14.499  20.113  -9.354  1.00  0.00    -0.008 C 
HETATM    5  C8  UNL     1     -15.181  18.915  -8.698  1.00  0.00     0.018 C 
HETATM    6  C9  UNL     1     -14.140  20.859  -8.158  1.00  0.00     0.014 C 
HETATM    7  C10 UNL     1     -13.203  21.951  -8.017  1.00  0.00     0.029 C 
HETATM    8  C11 UNL     1     -11.898  21.586  -7.240  1.00  0.00     0.122 C 
HETATM    9  N1  UNL     1     -11.087  22.783  -7.275  1.00  0.00    -0.272 N 
HETATM   10  N2  UNL     1     -10.221  23.110  -8.358  1.00  0.00    -0.173 N 
HETATM   11  C16 UNL     1     -10.120  22.588  -9.554  1.00  0.00     0.144 C 
HETATM   12  C17 UNL     1     -10.978  21.466  -9.995  1.00  0.00     0.026 C 
HETATM   13  C18 UNL     1     -11.490  20.470  -9.264  1.00  0.00    -0.059 C 
HETATM   14  C19 UNL     1     -11.211  20.383  -7.795  1.00  0.00    -0.001 C 
HETATM   15  C20 UNL     1      -9.681  20.438  -7.570  1.00  0.00     0.022 C 
HETATM   16  C21 UNL     1     -11.591  19.056  -7.212  1.00  0.00     0.022 C 
HETATM   17  C22 UNL     1     -12.191  19.808 -10.373  1.00  0.00    -0.010 A 
HETATM   18  C23 UNL     1     -11.221  18.790 -10.869  1.00  0.00     0.021 C 
HETATM   19  C24 UNL     1     -12.838  20.837 -11.201  1.00  0.00     0.027 A 
HETATM   20  C25 UNL     1     -13.617  19.798 -10.470  1.00  0.00    -0.009 A 
HETATM   21  C26 UNL     1     -14.351  18.930 -11.497  1.00  0.00    -0.011 C 
HETATM   22  C27 UNL     1     -13.925  19.202 -12.933  1.00  0.00     0.018 C 
HETATM   23  C28 UNL     1     -13.954  17.453 -11.294  1.00  0.00     0.018 C 
ENDROOT
BRANCH   1  24
HETATM   24  O2  UNL     1     -16.338  19.475 -12.860  1.00  0.00    -0.312 OA
BRANCH  24  25
HETATM   25  C3  UNL     1     -17.682  19.580 -13.153  1.00  0.00     0.282 C 
HETATM   26  O1  UNL     1     -18.356  18.494 -13.105  1.00  0.00    -0.260 OA
BRANCH  25  27
HETATM   27  C2  UNL     1     -18.329  20.821 -13.499  1.00  0.00     0.072 C 
HETATM   28  C1  UNL     1     -17.641  21.934 -13.584  1.00  0.00     0.017 C 
ENDBRANCH  25  27
ENDBRANCH  24  25
ENDBRANCH   1  24
BRANCH   3  29
HETATM   29  O3  UNL     1     -15.335  21.783 -10.938  1.00  0.00    -0.395 OA
ATOM     30  H3  UNL     1     -14.389  21.857 -10.986  1.00  0.00     0.210 HD
ENDBRANCH   3  29
BRANCH   9  31
HETATM   31  C12 UNL     1     -11.109  23.734  -6.243  1.00  0.00     0.115 C 
BRANCH  31  32
HETATM   32  C13 UNL     1     -12.313  24.139  -5.532  1.00  0.00    -0.070 C 
HETATM   33  C14 UNL     1     -12.622  23.495  -4.212  1.00  0.00     0.044 C 
HETATM   34  C15 UNL     1     -12.597  25.615  -5.413  1.00  0.00     0.044 C 
ENDBRANCH  31  32
ENDBRANCH   9  31
BRANCH  10  35
HETATM   35  O4  UNL     1      -9.368  24.145  -8.077  1.00  0.00    -0.268 OA
ATOM     36  H4  UNL     1      -8.704  24.277  -8.743  1.00  0.00     0.247 HD
ENDBRANCH  10  35
TORSDOF 7
ENDMDL
MODEL 3
REMARK VINA RESULT: -5.541877877     10.404     13.801
REMARK  7 active torsions:
REMARK  status: ('A' for Active; 'I' for Inactive)
REMARK    1  A    between atoms: C2_2  and  C3_3 
REMARK    2  A    between atoms: C3_3  and  O2_5 
REMARK    3  A    between atoms: O2_5  and  C4_6 
REMARK    4  A    between atoms: C6_8  and  O3_9 
REMARK    5  A    between atoms: N1_16  and  C12_17 
REMARK    6  A    between atoms: C12_17  and  C13_18 
REMARK    7  A    between atoms: N2_21  and  O4_22 
ROOT
HETATM    1  C4  UNL     1      -6.277  34.443  -7.231  1.00  0.00     0.143 C 
HETATM    2  C5  UNL     1      -7.566  33.868  -7.669  1.00  0.00     0.066 C 
HETATM    3  C6  UNL     1      -8.235  33.241  -6.512  1.00  0.00     0.129 C 
HETATM    4  C7  UNL     1      -7.268  32.145  -5.996  1.00  0.00    -0.008 C 
HETATM    5  C8  UNL     1      -6.738  31.519  -7.284  1.00  0.00     0.018 C 
HETATM    6  C9  UNL     1      -8.110  31.051  -5.537  1.00  0.00     0.014 C 
HETATM    7  C10 UNL     1      -8.681  30.835  -4.226  1.00  0.00     0.029 C 
HETATM    8  C11 UNL     1      -8.046  29.650  -3.432  1.00  0.00     0.122 C 
HETATM    9  N1  UNL     1      -8.706  29.655  -2.146  1.00  0.00    -0.272 N 
HETATM   10  N2  UNL     1      -8.287  30.469  -1.054  1.00  0.00    -0.173 N 
HETATM   11  C16 UNL     1      -7.437  31.463  -1.012  1.00  0.00     0.144 C 
HETATM   12  C17 UNL     1      -6.717  31.932  -2.216  1.00  0.00     0.026 C 
HETATM   13  C18 UNL     1      -6.309  31.220  -3.273  1.00  0.00    -0.059 C 
HETATM   14  C19 UNL     1      -6.559  29.746  -3.340  1.00  0.00    -0.001 C 
HETATM   15  C20 UNL     1      -6.018  29.085  -2.049  1.00  0.00     0.022 C 
HETATM   16  C21 UNL     1      -5.768  29.073  -4.421  1.00  0.00     0.022 C 
HETATM   17  C22 UNL     1      -5.710  32.350  -3.999  1.00  0.00    -0.010 A 
HETATM   18  C23 UNL     1      -4.279  32.339  -3.584  1.00  0.00     0.021 C 
HETATM   19  C24 UNL     1      -6.614  33.506  -3.895  1.00  0.00     0.027 A 
HETATM   20  C25 UNL     1      -6.284  32.867  -5.201  1.00  0.00    -0.009 A 
HETATM   21  C26 UNL     1      -5.550  33.893  -6.070  1.00  0.00    -0.011 C 
HETATM   22  C27 UNL     1      -5.164  35.159  -5.318  1.00  0.00     0.018 C 
HETATM   23  C28 UNL     1      -4.182  33.317  -6.495  1.00  0.00     0.018 C 
ENDROOT
BRANCH   1  24
HETATM   24  O2  UNL     1      -6.454  35.865  -7.252  1.00  0.00    -0.312 OA
BRANCH  24  25
HETATM   25  C3  UNL     1      -5.734  36.727  -8.053  1.00  0.00     0.282 C 
HETATM   26  O1  UNL     1      -5.942  37.976  -7.869  1.00  0.00    -0.260 OA
BRANCH  25  27
HETATM   27  C2  UNL     1      -4.792  36.288  -9.052  1.00  0.00     0.072 C 
HETATM   28  C1  UNL     1      -5.084  36.363 -10.328  1.00  0.00     0.017 C 
ENDBRANCH  25  27
ENDBRANCH  24  25
ENDBRANCH   1  24
BRANCH   3  29
HETATM   29  O3  UNL     1      -8.570  34.182  -5.604  1.00  0.00    -0.395 OA
ATOM     30  H3  UNL     1      -9.515  34.268  -5.557  1.00  0.00     0.210 HD
ENDBRANCH   3  29
BRANCH   9  31
HETATM   31  C12 UNL     1      -9.838  28.868  -1.881  1.00  0.00     0.115 C 
BRANCH  31  32
HETATM   32  C13 UNL     1     -10.571  28.124  -2.895  1.00  0.00    -0.070 C 
HETATM   33  C14 UNL     1     -10.396  26.635  -2.964  1.00  0.00     0.044 C 
HETATM   34  C15 UNL     1     -12.035  28.436  -3.074  1.00  0.00     0.044 C 
ENDBRANCH  31  32
ENDBRANCH   9  31
BRANCH  10  35
HETATM   35  O4  UNL     1      -8.887  30.137   0.132  1.00  0.00    -0.268 OA
ATOM     36  H4  UNL     1      -8.677  30.733   0.840  1.00  0.00     0.247 HD
ENDBRANCH  10  35
TORSDOF 7
ENDMDL
MODEL 4
REMARK VINA RESULT: -5.406190449      0.878      1.161
REMARK  7 active torsions:
REMARK  status: ('A' for Active; 'I' for Inactive)
REMARK    1  A    between atoms: C2_2  and  C3_3 
REMARK    2  A    between atoms: C3_3  and  O2_5 
REMARK    3  A    between atoms: O2_5  and  C4_6 
REMARK    4  A    between atoms: C6_8  and  O3_9 
REMARK    5  A    between atoms: N1_16  and  C12_17 
REMARK    6  A    between atoms: C12_17  and  C13_18 
REMARK    7  A    between atoms: N2_21  and  O4_22 
ROOT
HETATM    1  C4  UNL     1     -11.806  22.971  -6.461  1.00  0.00     0.143 C 
HETATM    2  C5  UNL     1     -10.717  23.819  -6.986  1.00  0.00     0.066 C 
HETATM    3  C6  UNL     1     -10.661  23.685  -8.454  1.00  0.00     0.129 C 
HETATM    4  C7  UNL     1     -10.403  22.183  -8.741  1.00  0.00    -0.008 C 
HETATM    5  C8  UNL     1      -9.374  21.802  -7.679  1.00  0.00     0.018 C 
HETATM    6  C9  UNL     1      -9.547  22.141  -9.917  1.00  0.00     0.014 C 
HETATM    7  C10 UNL     1      -9.925  22.102 -11.312  1.00  0.00     0.029 C 
HETATM    8  C11 UNL     1      -9.647  20.738 -12.018  1.00  0.00     0.122 C 
HETATM    9  N1  UNL     1     -10.154  20.894 -13.363  1.00  0.00    -0.272 N 
HETATM   10  N2  UNL     1     -11.517  20.675 -13.717  1.00  0.00    -0.173 N 
HETATM   11  C16 UNL     1     -12.575  20.514 -12.964  1.00  0.00     0.144 C 
HETATM   12  C17 UNL     1     -12.497  20.537 -11.486  1.00  0.00     0.026 C 
HETATM   13  C18 UNL     1     -11.493  20.141 -10.698  1.00  0.00    -0.059 C 
HETATM   14  C19 UNL     1     -10.238  19.577 -11.289  1.00  0.00    -0.001 C 
HETATM   15  C20 UNL     1     -10.610  18.422 -12.249  1.00  0.00     0.022 C 
HETATM   16  C21 UNL     1      -9.370  18.903 -10.270  1.00  0.00     0.022 C 
HETATM   17  C22 UNL     1     -12.152  20.473  -9.427  1.00  0.00    -0.010 A 
HETATM   18  C23 UNL     1     -12.822  19.206  -9.015  1.00  0.00     0.021 C 
HETATM   19  C24 UNL     1     -12.819  21.776  -9.571  1.00  0.00     0.027 A 
HETATM   20  C25 UNL     1     -11.708  21.552  -8.602  1.00  0.00    -0.009 A 
HETATM   21  C26 UNL     1     -12.251  21.763  -7.185  1.00  0.00    -0.011 C 
HETATM   22  C27 UNL     1     -13.766  21.910  -7.133  1.00  0.00     0.018 C 
HETATM   23  C28 UNL     1     -12.000  20.491  -6.348  1.00  0.00     0.018 C 
ENDROOT
BRANCH   1  24
HETATM   24  O2  UNL     1     -12.839  23.872  -6.040  1.00  0.00    -0.312 OA
BRANCH  24  25
HETATM   25  C3  UNL     1     -12.933  24.408  -4.773  1.00  0.00     0.282 C 
HETATM   26  O1  UNL     1     -12.604  25.639  -4.654  1.00  0.00    -0.260 OA
BRANCH  25  27
HETATM   27  C2  UNL     1     -13.374  23.661  -3.621  1.00  0.00     0.072 C 
HETATM   28  C1  UNL     1     -14.467  24.000  -2.982  1.00  0.00     0.017 C 
ENDBRANCH  25  27
ENDBRANCH  24  25
ENDBRANCH   1  24
BRANCH   3  29
HETATM   29  O3  UNL     1     -11.784  24.188  -9.009  1.00  0.00    -0.395 OA
ATOM     30  H3  UNL     1     -12.192  24.808  -8.415  1.00  0.00     0.210 HD
ENDBRANCH   3  29
BRANCH   9  31
HETATM   31  C12 UNL     1      -9.337  21.301 -14.430  1.00  0.00     0.115 C 
BRANCH  31  32
HETATM   32  C13 UNL     1      -8.109  20.625 -14.823  1.00  0.00    -0.070 C 
HETATM   33  C14 UNL     1      -6.828  21.002 -14.139  1.00  0.00     0.044 C 
HETATM   34  C15 UNL     1      -8.146  19.124 -14.962  1.00  0.00     0.044 C 
ENDBRANCH  31  32
ENDBRANCH   9  31
BRANCH  10  35
HETATM   35  O4  UNL     1     -11.726  20.634 -15.070  1.00  0.00    -0.268 OA
ATOM     36  H4  UNL     1     -10.950  20.836 -15.578  1.00  0.00     0.247 HD
ENDBRANCH  10  35
TORSDOF 7
ENDMDL
MODEL 5
REMARK VINA RESULT: -5.403809954      1.561      2.075
REMARK  7 active torsions:
REMARK  status: ('A' for Active; 'I' for Inactive)
REMARK    1  A    between atoms: C2_2  and  C3_3 
REMARK    2  A    between atoms: C3_3  and  O2_5 
REMARK    3  A    between atoms: O2_5  and  C4_6 
REMARK    4  A    between atoms: C6_8  and  O3_9 
REMARK    5  A    between atoms: N1_16  and  C12_17 
REMARK    6  A    between atoms: C12_17  and  C13_18 
REMARK    7  A    between atoms: N2_21  and  O4_22 
ROOT
HETATM    1  C4  UNL     1     -11.633  22.628  -6.975  1.00  0.00     0.143 C 
HETATM    2  C5  UNL     1     -10.207  22.355  -6.705  1.00  0.00     0.066 C 
HETATM    3  C6  UNL     1      -9.510  22.103  -7.981  1.00  0.00     0.129 C 
HETATM    4  C7  UNL     1     -10.214  20.878  -8.621  1.00  0.00    -0.008 C 
HETATM    5  C8  UNL     1     -10.448  19.953  -7.429  1.00  0.00     0.018 C 
HETATM    6  C9  UNL     1      -9.169  20.124  -9.297  1.00  0.00     0.014 C 
HETATM    7  C10 UNL     1      -8.686  20.260 -10.653  1.00  0.00     0.029 C 
HETATM    8  C11 UNL     1      -9.072  19.079 -11.598  1.00  0.00     0.122 C 
HETATM    9  N1  UNL     1      -8.555  19.445 -12.898  1.00  0.00    -0.272 N 
HETATM   10  N2  UNL     1      -9.264  20.270 -13.818  1.00  0.00    -0.173 N 
HETATM   11  C16 UNL     1     -10.337  21.001 -13.652  1.00  0.00     0.144 C 
HETATM   12  C17 UNL     1     -11.038  21.082 -12.352  1.00  0.00     0.026 C 
HETATM   13  C18 UNL     1     -11.155  20.143 -11.408  1.00  0.00    -0.059 C 
HETATM   14  C19 UNL     1     -10.537  18.792 -11.597  1.00  0.00    -0.001 C 
HETATM   15  C20 UNL     1     -11.011  18.208 -12.951  1.00  0.00     0.022 C 
HETATM   16  C21 UNL     1     -11.031  17.784 -10.604  1.00  0.00     0.022 C 
HETATM   17  C22 UNL     1     -11.949  20.956 -10.476  1.00  0.00    -0.010 A 
HETATM   18  C23 UNL     1     -13.364  20.629 -10.813  1.00  0.00     0.021 C 
HETATM   19  C24 UNL     1     -11.379  22.311 -10.433  1.00  0.00     0.027 A 
HETATM   20  C25 UNL     1     -11.417  21.424  -9.235  1.00  0.00    -0.009 A 
HETATM   21  C26 UNL     1     -12.302  22.082  -8.172  1.00  0.00    -0.011 C 
HETATM   22  C27 UNL     1     -13.061  23.299  -8.685  1.00  0.00     0.018 C 
HETATM   23  C28 UNL     1     -13.435  21.111  -7.779  1.00  0.00     0.018 C 
ENDROOT
BRANCH   1  24
HETATM   24  O2  UNL     1     -11.819  24.029  -6.729  1.00  0.00    -0.312 OA
BRANCH  24  25
HETATM   25  C3  UNL     1     -12.376  24.549  -5.580  1.00  0.00     0.282 C 
HETATM   26  O1  UNL     1     -12.735  25.776  -5.632  1.00  0.00    -0.260 OA
BRANCH  25  27
HETATM   27  C2  UNL     1     -12.562  23.789  -4.369  1.00  0.00     0.072 C 
HETATM   28  C1  UNL     1     -13.719  23.785  -3.752  1.00  0.00     0.017 C 
ENDBRANCH  25  27
ENDBRANCH  24  25
ENDBRANCH   1  24
BRANCH   3  29
HETATM   29  O3  UNL     1      -9.508  23.220  -8.738  1.00  0.00    -0.395 OA
ATOM     30  H3  UNL     1      -9.478  23.990  -8.182  1.00  0.00     0.210 HD
ENDBRANCH   3  29
BRANCH   9  31
HETATM   31  C12 UNL     1      -7.291  19.031 -13.346  1.00  0.00     0.115 C 
BRANCH  31  32
HETATM   32  C13 UNL     1      -6.039  19.660 -12.955  1.00  0.00    -0.070 C 
HETATM   33  C14 UNL     1      -5.976  21.158 -12.885  1.00  0.00     0.044 C 
HETATM   34  C15 UNL     1      -5.314  19.101 -11.757  1.00  0.00     0.044 C 
ENDBRANCH  31  32
ENDBRANCH   9  31
BRANCH  10  35
HETATM   35  O4  UNL     1      -8.711  20.285 -15.071  1.00  0.00    -0.268 OA
ATOM     36  H4  UNL     1      -7.924  20.812 -15.129  1.00  0.00     0.247 HD
ENDBRANCH  10  35
TORSDOF 7
ENDMDL
