MODEL 1
REMARK VINA RESULT: -7.546967450      0.000      0.000
REMARK  8 active torsions:
REMARK  status: ('A' for Active; 'I' for Inactive)
REMARK    1  A    between atoms: C1_2  and  O2_3 
REMARK    2  A    between atoms: C1_2  and  C12_21 
REMARK    3  A    between atoms: O2_3  and  C2_4 
REMARK    4  A    between atoms: C3_6  and  S1_7 
REMARK    5  A    between atoms: S1_7  and  C4_8 
REMARK    6  A    between atoms: C10_15  and  O4_16 
REMARK    7  A    between atoms: C11_18  and  O5_19 
REMARK    8  A    between atoms: C15_24  and  N1_25 
ROOT
HETATM    1  C2  UNL     1     -30.302 -10.368 -13.770  1.00  0.00     0.302 C 
HETATM    2  O3  UNL     1     -31.006  -9.426 -14.520  1.00  0.00    -0.340 OA
HETATM    3  C3  UNL     1     -30.083  -8.770 -15.311  1.00  0.00     0.222 C 
HETATM    4  C10 UNL     1     -28.932  -9.700 -15.538  1.00  0.00     0.191 C 
HETATM    5  C11 UNL     1     -29.374 -10.947 -14.812  1.00  0.00     0.206 C 
ENDROOT
BRANCH   1   6
HETATM    6  O2  UNL     1     -31.155 -11.314 -13.202  1.00  0.00    -0.283 OA
BRANCH   6   7
HETATM    7  C1  UNL     1     -32.492 -11.454 -13.500  1.00  0.00     0.295 C 
HETATM    8  O1  UNL     1     -33.325 -10.818 -12.807  1.00  0.00    -0.259 OA
BRANCH   7   9
HETATM    9  C12 UNL     1     -32.964 -12.318 -14.592  1.00  0.00     0.042 A 
HETATM   10  C13 UNL     1     -34.221 -12.165 -15.139  1.00  0.00     0.020 A 
HETATM   11  C14 UNL     1     -34.613 -13.005 -16.167  1.00  0.00     0.040 A 
HETATM   12  C15 UNL     1     -33.780 -13.994 -16.661  1.00  0.00     0.141 A 
HETATM   13  C16 UNL     1     -32.536 -14.137 -16.111  1.00  0.00     0.150 A 
HETATM   14  F1  UNL     1     -31.643 -15.071 -16.519  1.00  0.00    -0.203 F 
HETATM   15  C17 UNL     1     -32.139 -13.304 -15.088  1.00  0.00     0.062 A 
BRANCH  12  16
HETATM   16  N1  UNL     1     -34.173 -14.855 -17.709  1.00  0.00    -0.113 N 
HETATM   17  O6  UNL     1     -33.659 -14.689 -18.853  1.00  0.00    -0.532 OA
HETATM   18  O7  UNL     1     -35.091 -15.843 -17.466  1.00  0.00    -0.532 OA
ENDBRANCH  12  16
ENDBRANCH   7   9
ENDBRANCH   6   7
ENDBRANCH   1   6
BRANCH   5  19
HETATM   19  O5  UNL     1     -28.317 -11.647 -14.253  1.00  0.00    -0.388 OA
ATOM     20  H5  UNL     1     -28.586 -12.195 -13.525  1.00  0.00     0.210 HD
ENDBRANCH   5  19
BRANCH   3  21
HETATM   21  S1  UNL     1     -30.893  -8.259 -16.846  1.00  0.00    -0.095 SA
BRANCH  21  22
HETATM   22  C4  UNL     1     -30.974  -9.643 -18.001  1.00  0.00     0.003 A 
HETATM   23  C5  UNL     1     -30.221  -9.579 -19.154  1.00  0.00     0.020 A 
HETATM   24  C6  UNL     1     -30.242 -10.608 -20.076  1.00  0.00     0.025 A 
HETATM   25  C7  UNL     1     -31.044 -11.695 -19.798  1.00  0.00     0.034 A 
HETATM   26 CL1  UNL     1     -31.107 -13.027 -20.937  1.00  0.00    -0.084 Cl
HETATM   27  C8  UNL     1     -31.799 -11.775 -18.660  1.00  0.00     0.025 A 
HETATM   28  C9  UNL     1     -31.766 -10.741 -17.751  1.00  0.00     0.020 A 
ENDBRANCH  21  22
ENDBRANCH   3  21
BRANCH   4  29
HETATM   29  O4  UNL     1     -27.804  -9.141 -14.912  1.00  0.00    -0.389 OA
ATOM     30  H4  UNL     1     -27.146  -9.824 -14.841  1.00  0.00     0.210 HD
ENDBRANCH   4  29
TORSDOF 8
ENDMDL
MODEL 2
REMARK VINA RESULT: -7.439958432      2.723      4.669
REMARK  8 active torsions:
REMARK  status: ('A' for Active; 'I' for Inactive)
REMARK    1  A    between atoms: C1_2  and  O2_3 
REMARK    2  A    between atoms: C1_2  and  C12_21 
REMARK    3  A    between atoms: O2_3  and  C2_4 
REMARK    4  A    between atoms: C3_6  and  S1_7 
REMARK    5  A    between atoms: S1_7  and  C4_8 
REMARK    6  A    between atoms: C10_15  and  O4_16 
REMARK    7  A    between atoms: C11_18  and  O5_19 
REMARK    8  A    between atoms: C15_24  and  N1_25 
ROOT
HETATM    1  C2  UNL     1     -28.761  -9.520 -14.656  1.00  0.00     0.302 C 
HETATM    2  O3  UNL     1     -29.677 -10.531 -14.370  1.00  0.00    -0.340 OA
HETATM    3  C3  UNL     1     -29.655 -10.718 -13.001  1.00  0.00     0.222 C 
HETATM    4  C10 UNL     1     -29.223  -9.431 -12.370  1.00  0.00     0.191 C 
HETATM    5  C11 UNL     1     -29.064  -8.522 -13.564  1.00  0.00     0.206 C 
ENDROOT
BRANCH   1   6
HETATM    6  O2  UNL     1     -28.945  -9.008 -15.941  1.00  0.00    -0.283 OA
BRANCH   6   7
HETATM    7  C1  UNL     1     -30.142  -8.988 -16.620  1.00  0.00     0.295 C 
HETATM    8  O1  UNL     1     -31.005  -8.141 -16.280  1.00  0.00    -0.259 OA
BRANCH   7   9
HETATM    9  C12 UNL     1     -30.434  -9.921 -17.719  1.00  0.00     0.042 A 
HETATM   10  C13 UNL     1     -31.090 -11.113 -17.497  1.00  0.00     0.020 A 
HETATM   11  C14 UNL     1     -31.339 -11.953 -18.568  1.00  0.00     0.040 A 
HETATM   12  C15 UNL     1     -30.948 -11.630 -19.856  1.00  0.00     0.141 A 
HETATM   13  C16 UNL     1     -30.297 -10.445 -20.065  1.00  0.00     0.150 A 
HETATM   14  F1  UNL     1     -29.871 -10.033 -21.284  1.00  0.00    -0.203 F 
HETATM   15  C17 UNL     1     -30.046  -9.605 -19.004  1.00  0.00     0.062 A 
BRANCH  12  16
HETATM   16  N1  UNL     1     -31.198 -12.481 -20.955  1.00  0.00    -0.113 N 
HETATM   17  O6  UNL     1     -30.305 -12.599 -21.845  1.00  0.00    -0.532 OA
HETATM   18  O7  UNL     1     -32.388 -13.154 -21.034  1.00  0.00    -0.532 OA
ENDBRANCH  12  16
ENDBRANCH   7   9
ENDBRANCH   6   7
ENDBRANCH   1   6
BRANCH   5  19
HETATM   19  O5  UNL     1     -28.053  -7.590 -13.398  1.00  0.00    -0.388 OA
ATOM     20  H5  UNL     1     -28.169  -7.060 -12.619  1.00  0.00     0.210 HD
ENDBRANCH   5  19
BRANCH   3  21
HETATM   21  S1  UNL     1     -31.296 -11.256 -12.462  1.00  0.00    -0.095 SA
BRANCH  21  22
HETATM   22  C4  UNL     1     -32.154 -12.093 -13.811  1.00  0.00     0.003 A 
HETATM   23  C5  UNL     1     -31.619 -13.265 -14.301  1.00  0.00     0.020 A 
HETATM   24  C6  UNL     1     -32.230 -13.951 -15.332  1.00  0.00     0.025 A 
HETATM   25  C7  UNL     1     -33.391 -13.418 -15.850  1.00  0.00     0.034 A 
HETATM   26 CL1  UNL     1     -34.207 -14.249 -17.161  1.00  0.00    -0.084 Cl
HETATM   27  C8  UNL     1     -33.937 -12.256 -15.377  1.00  0.00     0.025 A 
HETATM   28  C9  UNL     1     -33.315 -11.585 -14.348  1.00  0.00     0.020 A 
ENDBRANCH  21  22
ENDBRANCH   3  21
BRANCH   4  29
HETATM   29  O4  UNL     1     -27.979  -9.656 -11.754  1.00  0.00    -0.389 OA
ATOM     30  H4  UNL     1     -27.501  -8.835 -11.766  1.00  0.00     0.210 HD
ENDBRANCH   4  29
TORSDOF 8
ENDMDL
MODEL 3
REMARK VINA RESULT: -7.390601262      3.210      5.395
REMARK  8 active torsions:
REMARK  status: ('A' for Active; 'I' for Inactive)
REMARK    1  A    between atoms: C1_2  and  O2_3 
REMARK    2  A    between atoms: C1_2  and  C12_21 
REMARK    3  A    between atoms: O2_3  and  C2_4 
REMARK    4  A    between atoms: C3_6  and  S1_7 
REMARK    5  A    between atoms: S1_7  and  C4_8 
REMARK    6  A    between atoms: C10_15  and  O4_16 
REMARK    7  A    between atoms: C11_18  and  O5_19 
REMARK    8  A    between atoms: C15_24  and  N1_25 
ROOT
HETATM    1  C2  UNL     1     -33.269 -13.500 -15.090  1.00  0.00     0.302 C 
HETATM    2  O3  UNL     1     -33.092 -12.506 -14.129  1.00  0.00    -0.340 OA
HETATM    3  C3  UNL     1     -32.230 -13.015 -13.178  1.00  0.00     0.222 C 
HETATM    4  C10 UNL     1     -31.375 -14.051 -13.841  1.00  0.00     0.191 C 
HETATM    5  C11 UNL     1     -31.855 -13.998 -15.272  1.00  0.00     0.206 C 
ENDROOT
BRANCH   1   6
HETATM    6  O2  UNL     1     -33.830 -12.990 -16.261  1.00  0.00    -0.283 OA
BRANCH   6   7
HETATM    7  C1  UNL     1     -33.400 -13.282 -17.536  1.00  0.00     0.295 C 
HETATM    8  O1  UNL     1     -33.855 -14.310 -18.096  1.00  0.00    -0.259 OA
BRANCH   7   9
HETATM    9  C12 UNL     1     -32.435 -12.433 -18.250  1.00  0.00     0.042 A 
HETATM   10  C13 UNL     1     -32.046 -11.208 -17.751  1.00  0.00     0.020 A 
HETATM   11  C14 UNL     1     -31.133 -10.450 -18.464  1.00  0.00     0.040 A 
HETATM   12  C15 UNL     1     -30.602 -10.886 -19.666  1.00  0.00     0.141 A 
HETATM   13  C16 UNL     1     -30.996 -12.103 -20.153  1.00  0.00     0.150 A 
HETATM   14  F1  UNL     1     -30.538 -12.624 -21.317  1.00  0.00    -0.203 F 
HETATM   15  C17 UNL     1     -31.903 -12.862 -19.447  1.00  0.00     0.062 A 
BRANCH  12  16
HETATM   16  N1  UNL     1     -29.671 -10.120 -20.400  1.00  0.00    -0.113 N 
HETATM   17  O6  UNL     1     -28.564  -9.830 -19.860  1.00  0.00    -0.532 OA
HETATM   18  O7  UNL     1     -29.983  -9.711 -21.671  1.00  0.00    -0.532 OA
ENDBRANCH  12  16
ENDBRANCH   7   9
ENDBRANCH   6   7
ENDBRANCH   1   6
BRANCH   5  19
HETATM   19  O5  UNL     1     -31.800 -15.230 -15.902  1.00  0.00    -0.388 OA
ATOM     20  H5  UNL     1     -31.156 -15.811 -15.513  1.00  0.00     0.210 HD
ENDBRANCH   5  19
BRANCH   3  21
HETATM   21  S1  UNL     1     -31.271 -11.652 -12.474  1.00  0.00    -0.095 SA
BRANCH  21  22
HETATM   22  C4  UNL     1     -30.623 -10.599 -13.788  1.00  0.00     0.003 A 
HETATM   23  C5  UNL     1     -31.287  -9.425 -14.075  1.00  0.00     0.020 A 
HETATM   24  C6  UNL     1     -30.840  -8.578 -15.070  1.00  0.00     0.025 A 
HETATM   25  C7  UNL     1     -29.708  -8.954 -15.763  1.00  0.00     0.034 A 
HETATM   26 CL1  UNL     1     -29.098  -7.915 -17.038  1.00  0.00    -0.084 Cl
HETATM   27  C8  UNL     1     -29.036 -10.115 -15.494  1.00  0.00     0.025 A 
HETATM   28  C9  UNL     1     -29.496 -10.948 -14.497  1.00  0.00     0.020 A 
ENDBRANCH  21  22
ENDBRANCH   3  21
BRANCH   4  29
HETATM   29  O4  UNL     1     -31.689 -15.294 -13.264  1.00  0.00    -0.389 OA
ATOM     30  H4  UNL     1     -31.119 -15.414 -12.513  1.00  0.00     0.210 HD
ENDBRANCH   4  29
TORSDOF 8
ENDMDL
MODEL 4
REMARK VINA RESULT: -7.362514625      2.693      4.652
REMARK  8 active torsions:
REMARK  status: ('A' for Active; 'I' for Inactive)
REMARK    1  A    between atoms: C1_2  and  O2_3 
REMARK    2  A    between atoms: C1_2  and  C12_21 
REMARK    3  A    between atoms: O2_3  and  C2_4 
REMARK    4  A    between atoms: C3_6  and  S1_7 
REMARK    5  A    between atoms: S1_7  and  C4_8 
REMARK    6  A    between atoms: C10_15  and  O4_16 
REMARK    7  A    between atoms: C11_18  and  O5_19 
REMARK    8  A    between atoms: C15_24  and  N1_25 
ROOT
HETATM    1  C2  UNL     1     -28.730  -9.467 -14.461  1.00  0.00     0.302 C 
HETATM    2  O3  UNL     1     -29.669 -10.422 -14.073  1.00  0.00    -0.340 OA
HETATM    3  C3  UNL     1     -29.561 -10.560 -12.703  1.00  0.00     0.222 C 
HETATM    4  C10 UNL     1     -29.028  -9.274 -12.153  1.00  0.00     0.191 C 
HETATM    5  C11 UNL     1     -28.911  -8.417 -13.391  1.00  0.00     0.206 C 
ENDROOT
BRANCH   1   6
HETATM    6  O2  UNL     1     -28.978  -8.993 -15.749  1.00  0.00    -0.283 OA
BRANCH   6   7
HETATM    7  C1  UNL     1     -30.217  -8.941 -16.347  1.00  0.00     0.295 C 
HETATM    8  O1  UNL     1     -30.997  -8.012 -16.019  1.00  0.00    -0.259 OA
BRANCH   7   9
HETATM    9  C12 UNL     1     -30.646  -9.931 -17.346  1.00  0.00     0.042 A 
HETATM   10  C13 UNL     1     -31.453 -10.995 -17.004  1.00  0.00     0.020 A 
HETATM   11  C14 UNL     1     -31.828 -11.897 -17.985  1.00  0.00     0.040 A 
HETATM   12  C15 UNL     1     -31.415 -11.761 -19.299  1.00  0.00     0.141 A 
HETATM   13  C16 UNL     1     -30.614 -10.701 -19.627  1.00  0.00     0.150 A 
HETATM   14  F1  UNL     1     -30.154 -10.474 -20.881  1.00  0.00    -0.203 F 
HETATM   15  C17 UNL     1     -30.238  -9.800 -18.656  1.00  0.00     0.062 A 
BRANCH  12  16
HETATM   16  N1  UNL     1     -31.792 -12.676 -20.306  1.00  0.00    -0.113 N 
HETATM   17  O6  UNL     1     -33.020 -12.798 -20.584  1.00  0.00    -0.532 OA
HETATM   18  O7  UNL     1     -30.829 -13.404 -20.955  1.00  0.00    -0.532 OA
ENDBRANCH  12  16
ENDBRANCH   7   9
ENDBRANCH   6   7
ENDBRANCH   1   6
BRANCH   5  19
HETATM   19  O5  UNL     1     -27.849  -7.530 -13.330  1.00  0.00    -0.388 OA
ATOM     20  H5  UNL     1     -27.425  -7.525 -12.480  1.00  0.00     0.210 HD
ENDBRANCH   5  19
BRANCH   3  21
HETATM   21  S1  UNL     1     -31.184 -10.998 -12.034  1.00  0.00    -0.095 SA
BRANCH  21  22
HETATM   22  C4  UNL     1     -32.120 -11.957 -13.242  1.00  0.00     0.003 A 
HETATM   23  C5  UNL     1     -33.297 -11.429 -13.730  1.00  0.00     0.020 A 
HETATM   24  C6  UNL     1     -34.057 -12.116 -14.656  1.00  0.00     0.025 A 
HETATM   25  C7  UNL     1     -33.594 -13.348 -15.070  1.00  0.00     0.034 A 
HETATM   26 CL1  UNL     1     -34.522 -14.262 -16.244  1.00  0.00    -0.084 Cl
HETATM   27  C8  UNL     1     -32.430 -13.889 -14.597  1.00  0.00     0.025 A 
HETATM   28  C9  UNL     1     -31.684 -13.189 -13.674  1.00  0.00     0.020 A 
ENDBRANCH  21  22
ENDBRANCH   3  21
BRANCH   4  29
HETATM   29  O4  UNL     1     -27.756  -9.536 -11.615  1.00  0.00    -0.389 OA
ATOM     30  H4  UNL     1     -27.249  -8.735 -11.673  1.00  0.00     0.210 HD
ENDBRANCH   4  29
TORSDOF 8
ENDMDL
MODEL 5
REMARK VINA RESULT: -7.317559084      2.407      4.461
REMARK  8 active torsions:
REMARK  status: ('A' for Active; 'I' for Inactive)
REMARK    1  A    between atoms: C1_2  and  O2_3 
REMARK    2  A    between atoms: C1_2  and  C12_21 
REMARK    3  A    between atoms: O2_3  and  C2_4 
REMARK    4  A    between atoms: C3_6  and  S1_7 
REMARK    5  A    between atoms: S1_7  and  C4_8 
REMARK    6  A    between atoms: C10_15  and  O4_16 
REMARK    7  A    between atoms: C11_18  and  O5_19 
REMARK    8  A    between atoms: C15_24  and  N1_25 
ROOT
HETATM    1  C2  UNL     1     -28.635  -9.606 -14.361  1.00  0.00     0.302 C 
HETATM    2  O3  UNL     1     -29.496 -10.631 -13.972  1.00  0.00    -0.340 OA
HETATM    3  C3  UNL     1     -29.423 -10.717 -12.596  1.00  0.00     0.222 C 
HETATM    4  C10 UNL     1     -29.031  -9.370 -12.073  1.00  0.00     0.191 C 
HETATM    5  C11 UNL     1     -28.949  -8.544 -13.334  1.00  0.00     0.206 C 
ENDROOT
BRANCH   1   6
HETATM    6  O2  UNL     1     -28.881  -9.197 -15.672  1.00  0.00    -0.283 OA
BRANCH   6   7
HETATM    7  C1  UNL     1     -30.123  -9.139 -16.262  1.00  0.00     0.295 C 
HETATM    8  O1  UNL     1     -30.953  -8.306 -15.820  1.00  0.00    -0.259 OA
BRANCH   7   9
HETATM    9  C12 UNL     1     -30.499 -10.014 -17.383  1.00  0.00     0.042 A 
HETATM   10  C13 UNL     1     -30.573  -9.538 -18.675  1.00  0.00     0.020 A 
HETATM   11  C14 UNL     1     -30.931 -10.406 -19.691  1.00  0.00     0.040 A 
HETATM   12  C15 UNL     1     -31.217 -11.738 -19.448  1.00  0.00     0.141 A 
HETATM   13  C16 UNL     1     -31.141 -12.200 -18.162  1.00  0.00     0.150 A 
HETATM   14  F1  UNL     1     -31.401 -13.484 -17.814  1.00  0.00    -0.203 F 
HETATM   15  C17 UNL     1     -30.785 -11.341 -17.146  1.00  0.00     0.062 A 
BRANCH  12  16
HETATM   16  N1  UNL     1     -31.583 -12.631 -20.479  1.00  0.00    -0.113 N 
HETATM   17  O6  UNL     1     -30.734 -12.898 -21.379  1.00  0.00    -0.532 OA
HETATM   18  O7  UNL     1     -32.837 -13.185 -20.483  1.00  0.00    -0.532 OA
ENDBRANCH  12  16
ENDBRANCH   7   9
ENDBRANCH   6   7
ENDBRANCH   1   6
BRANCH   5  19
HETATM   19  O5  UNL     1     -27.975  -7.561 -13.269  1.00  0.00    -0.388 OA
ATOM     20  H5  UNL     1     -27.154  -7.834 -13.660  1.00  0.00     0.210 HD
ENDBRANCH   5  19
BRANCH   3  21
HETATM   21  S1  UNL     1     -31.022 -11.282 -11.964  1.00  0.00    -0.095 SA
BRANCH  21  22
HETATM   22  C4  UNL     1     -31.964 -12.087 -13.277  1.00  0.00     0.003 A 
HETATM   23  C5  UNL     1     -32.982 -11.380 -13.881  1.00  0.00     0.020 A 
HETATM   24  C6  UNL     1     -33.737 -11.942 -14.891  1.00  0.00     0.025 A 
HETATM   25  C7  UNL     1     -33.434 -13.234 -15.268  1.00  0.00     0.034 A 
HETATM   26 CL1  UNL     1     -34.364 -13.996 -16.545  1.00  0.00    -0.084 Cl
HETATM   27  C8  UNL     1     -32.428 -13.951 -14.680  1.00  0.00     0.025 A 
HETATM   28  C9  UNL     1     -31.684 -13.375 -13.674  1.00  0.00     0.020 A 
ENDBRANCH  21  22
ENDBRANCH   3  21
BRANCH   4  29
HETATM   29  O4  UNL     1     -27.759  -9.496 -11.485  1.00  0.00    -0.389 OA
ATOM     30  H4  UNL     1     -27.679 -10.387 -11.163  1.00  0.00     0.210 HD
ENDBRANCH   4  29
TORSDOF 8
ENDMDL
