MODEL 1
REMARK VINA RESULT: -7.132722195      0.000      0.000
REMARK  7 active torsions:
REMARK  status: ('A' for Active; 'I' for Inactive)
REMARK    1  A    between atoms: C5_5  and  C6_6 
REMARK    2  A    between atoms: N1_7  and  N2_9 
REMARK    3  A    between atoms: N2_9  and  C7_11 
REMARK    4  A    between atoms: C8_14  and  N4_15 
REMARK    5  A    between atoms: N4_15  and  N5_17 
REMARK    6  A    between atoms: C10_24  and  S1_25 
REMARK    7  A    between atoms: S1_25  and  C11_26 
ROOT
HETATM    1  C11 UNL     1     -31.203 -11.195 -10.829  1.00  0.00     0.204 C 
HETATM    2  C12 UNL     1     -32.283 -10.501 -11.526  1.00  0.00     0.069 C 
HETATM    3  N7  UNL     1     -33.142  -9.930 -12.077  1.00  0.00    -0.197 NA
ENDROOT
BRANCH   1   4
HETATM    4  S1  UNL     1     -30.026 -11.830 -12.032  1.00  0.00    -0.096 SA
BRANCH   4   5
HETATM    5  C10 UNL     1     -29.465 -10.485 -13.073  1.00  0.00     0.108 A 
HETATM    6  N6  UNL     1     -28.666  -9.532 -12.583  1.00  0.00    -0.183 N 
HETATM    7  C8  UNL     1     -28.284  -8.550 -13.430  1.00  0.00     0.699 A 
ATOM      8  H6  UNL     1     -28.357  -9.546 -11.611  1.00  0.00     0.185 HD
HETATM    9  N3  UNL     1     -28.703  -8.547 -14.719  1.00  0.00    -0.172 N 
HETATM   10  C7  UNL     1     -29.506  -9.501 -15.219  1.00  0.00     0.156 A 
ATOM     11  H3  UNL     1     -28.397  -7.791 -15.334  1.00  0.00     0.186 HD
HETATM   12  C13 UNL     1     -29.907 -10.504 -14.390  1.00  0.00     0.091 A 
HETATM   13  S2  UNL     1     -30.980 -11.813 -14.986  1.00  0.00    -0.045 SA
BRANCH   7  14
HETATM   14  N4  UNL     1     -27.516  -7.642 -12.943  1.00  0.00    -0.130 N 
ATOM     15  H4  UNL     1     -27.953  -6.844 -12.482  1.00  0.00     0.205 HD
BRANCH  14  16
HETATM   16  N5  UNL     1     -26.124  -7.679 -13.006  1.00  0.00    -0.266 N 
HETATM   17  C9  UNL     1     -25.423  -7.676 -11.937  1.00  0.00     0.190 C 
HETATM   18 CL1  UNL     1     -23.663  -7.722 -12.010  1.00  0.00    -0.050 Cl
HETATM   19 CL2  UNL     1     -26.198  -7.628 -10.385  1.00  0.00    -0.050 Cl
ATOM     20  H5  UNL     1     -25.660  -7.708 -13.914  1.00  0.00     0.189 HD
ENDBRANCH  14  16
ENDBRANCH   7  14
BRANCH  10  21
HETATM   21  N2  UNL     1     -29.875  -9.451 -16.450  1.00  0.00    -0.284 N 
ATOM     22  H2  UNL     1     -29.531 -10.133 -17.126  1.00  0.00     0.188 HD
BRANCH  21  23
HETATM   23  N1  UNL     1     -30.752  -8.450 -16.837  1.00  0.00    -0.309 N 
HETATM   24  C6  UNL     1     -31.412  -8.550 -17.919  1.00  0.00     0.126 C 
ATOM     25  H1  UNL     1     -30.869  -7.624 -16.249  1.00  0.00     0.186 HD
BRANCH  24  26
HETATM   26  C5  UNL     1     -31.226  -9.755 -18.753  1.00  0.00     0.022 A 
HETATM   27  C4  UNL     1     -30.339  -9.926 -19.786  1.00  0.00     0.021 A 
HETATM   28  C3  UNL     1     -30.343 -11.117 -20.408  1.00  0.00     0.015 A 
HETATM   29  C2  UNL     1     -31.223 -12.056 -19.968  1.00  0.00    -0.021 A 
HETATM   30  C1  UNL     1     -31.435 -13.452 -20.478  1.00  0.00     0.056 C 
HETATM   31  S3  UNL     1     -32.029 -11.263 -18.694  1.00  0.00    -0.094 SA
ENDBRANCH  24  26
ENDBRANCH  21  23
ENDBRANCH  10  21
ENDBRANCH   4   5
ENDBRANCH   1   4
TORSDOF 7
ENDMDL
MODEL 2
REMARK VINA RESULT: -6.976978650      1.326      1.724
REMARK  7 active torsions:
REMARK  status: ('A' for Active; 'I' for Inactive)
REMARK    1  A    between atoms: C5_5  and  C6_6 
REMARK    2  A    between atoms: N1_7  and  N2_9 
REMARK    3  A    between atoms: N2_9  and  C7_11 
REMARK    4  A    between atoms: C8_14  and  N4_15 
REMARK    5  A    between atoms: N4_15  and  N5_17 
REMARK    6  A    between atoms: C10_24  and  S1_25 
REMARK    7  A    between atoms: S1_25  and  C11_26 
ROOT
HETATM    1  C11 UNL     1     -31.286 -11.398 -11.036  1.00  0.00     0.204 C 
HETATM    2  C12 UNL     1     -32.425 -10.702 -11.630  1.00  0.00     0.069 C 
HETATM    3  N7  UNL     1     -33.329 -10.130 -12.102  1.00  0.00    -0.197 NA
ENDROOT
BRANCH   1   4
HETATM    4  S1  UNL     1     -30.481 -12.406 -12.290  1.00  0.00    -0.096 SA
BRANCH   4   5
HETATM    5  C10 UNL     1     -29.817 -11.339 -13.566  1.00  0.00     0.108 A 
HETATM    6  N6  UNL     1     -29.155 -10.223 -13.244  1.00  0.00    -0.183 N 
HETATM    7  C8  UNL     1     -28.683  -9.469 -14.262  1.00  0.00     0.699 A 
ATOM      8  H6  UNL     1     -29.012  -9.952 -12.271  1.00  0.00     0.185 HD
HETATM    9  N3  UNL     1     -28.881  -9.843 -15.550  1.00  0.00    -0.172 N 
HETATM   10  C7  UNL     1     -29.545 -10.963 -15.881  1.00  0.00     0.156 A 
ATOM     11  H3  UNL     1     -28.513  -9.252 -16.296  1.00  0.00     0.186 HD
HETATM   12  C13 UNL     1     -30.033 -11.744 -14.878  1.00  0.00     0.091 A 
HETATM   13  S2  UNL     1     -30.931 -13.254 -15.243  1.00  0.00    -0.045 SA
BRANCH   7  14
HETATM   14  N4  UNL     1     -28.049  -8.400 -13.936  1.00  0.00    -0.130 N 
ATOM     15  H4  UNL     1     -28.563  -7.519 -13.943  1.00  0.00     0.205 HD
BRANCH  14  16
HETATM   16  N5  UNL     1     -26.704  -8.368 -13.572  1.00  0.00    -0.266 N 
HETATM   17  C9  UNL     1     -26.353  -7.973 -12.407  1.00  0.00     0.190 C 
HETATM   18 CL1  UNL     1     -24.654  -7.931 -11.942  1.00  0.00    -0.050 Cl
HETATM   19 CL2  UNL     1     -27.551  -7.468 -11.259  1.00  0.00    -0.050 Cl
ATOM     20  H5  UNL     1     -25.993  -8.664 -14.240  1.00  0.00     0.189 HD
ENDBRANCH  14  16
ENDBRANCH   7  14
BRANCH  10  21
HETATM   21  N2  UNL     1     -29.707 -11.273 -17.119  1.00  0.00    -0.284 N 
ATOM     22  H2  UNL     1     -29.760 -12.249 -17.410  1.00  0.00     0.188 HD
BRANCH  21  23
HETATM   23  N1  UNL     1     -29.807 -10.249 -18.049  1.00  0.00    -0.309 N 
HETATM   24  C6  UNL     1     -30.534 -10.383 -19.083  1.00  0.00     0.126 C 
ATOM     25  H1  UNL     1     -29.292  -9.381 -17.902  1.00  0.00     0.186 HD
BRANCH  24  26
HETATM   26  C5  UNL     1     -31.270 -11.650 -19.272  1.00  0.00     0.022 A 
HETATM   27  C4  UNL     1     -30.967 -12.670 -20.138  1.00  0.00     0.021 A 
HETATM   28  C3  UNL     1     -31.782 -13.738 -20.140  1.00  0.00     0.015 A 
HETATM   29  C2  UNL     1     -32.841 -13.724 -19.286  1.00  0.00    -0.021 A 
HETATM   30  C1  UNL     1     -33.895 -14.775 -19.085  1.00  0.00     0.056 C 
HETATM   31  S3  UNL     1     -32.681 -12.225 -18.494  1.00  0.00    -0.094 SA
ENDBRANCH  24  26
ENDBRANCH  21  23
ENDBRANCH  10  21
ENDBRANCH   4   5
ENDBRANCH   1   4
TORSDOF 7
ENDMDL
MODEL 3
REMARK VINA RESULT: -6.826397829      4.500      7.859
REMARK  7 active torsions:
REMARK  status: ('A' for Active; 'I' for Inactive)
REMARK    1  A    between atoms: C5_5  and  C6_6 
REMARK    2  A    between atoms: N1_7  and  N2_9 
REMARK    3  A    between atoms: N2_9  and  C7_11 
REMARK    4  A    between atoms: C8_14  and  N4_15 
REMARK    5  A    between atoms: N4_15  and  N5_17 
REMARK    6  A    between atoms: C10_24  and  S1_25 
REMARK    7  A    between atoms: S1_25  and  C11_26 
ROOT
HETATM    1  C11 UNL     1     -32.300 -12.120 -19.100  1.00  0.00     0.204 C 
HETATM    2  C12 UNL     1     -31.769 -12.560 -20.387  1.00  0.00     0.069 C 
HETATM    3  N7  UNL     1     -31.355 -12.902 -21.426  1.00  0.00    -0.197 NA
ENDROOT
BRANCH   1   4
HETATM    4  S1  UNL     1     -31.022 -11.231 -18.198  1.00  0.00    -0.096 SA
BRANCH   4   5
HETATM    5  C10 UNL     1     -30.821 -11.971 -16.580  1.00  0.00     0.108 A 
HETATM    6  N6  UNL     1     -31.496 -13.076 -16.248  1.00  0.00    -0.183 N 
HETATM    7  C8  UNL     1     -31.292 -13.577 -15.009  1.00  0.00     0.699 A 
ATOM      8  H6  UNL     1     -32.138 -13.523 -16.903  1.00  0.00     0.185 HD
HETATM    9  N3  UNL     1     -30.434 -12.970 -14.151  1.00  0.00    -0.172 N 
HETATM   10  C7  UNL     1     -29.753 -11.860 -14.478  1.00  0.00     0.156 A 
ATOM     11  H3  UNL     1     -30.301 -13.373 -13.223  1.00  0.00     0.186 HD
HETATM   12  C13 UNL     1     -29.937 -11.332 -15.719  1.00  0.00     0.091 A 
HETATM   13  S2  UNL     1     -29.062  -9.850 -16.226  1.00  0.00    -0.045 SA
BRANCH   7  14
HETATM   14  N4  UNL     1     -31.948 -14.639 -14.706  1.00  0.00    -0.130 N 
ATOM     15  H4  UNL     1     -31.914 -15.424 -15.357  1.00  0.00     0.205 HD
BRANCH  14  16
HETATM   16  N5  UNL     1     -32.702 -14.787 -13.543  1.00  0.00    -0.266 N 
HETATM   17  C9  UNL     1     -33.935 -14.449 -13.519  1.00  0.00     0.190 C 
HETATM   18 CL1  UNL     1     -34.894 -14.634 -12.052  1.00  0.00    -0.050 Cl
HETATM   19 CL2  UNL     1     -34.690 -13.798 -14.939  1.00  0.00    -0.050 Cl
ATOM     20  H5  UNL     1     -32.267 -15.170 -12.704  1.00  0.00     0.189 HD
ENDBRANCH  14  16
ENDBRANCH   7  14
BRANCH  10  21
HETATM   21  N2  UNL     1     -28.951 -11.324 -13.626  1.00  0.00    -0.284 N 
ATOM     22  H2  UNL     1     -28.328 -10.564 -13.902  1.00  0.00     0.188 HD
BRANCH  21  23
HETATM   23  N1  UNL     1     -28.953 -11.801 -12.325  1.00  0.00    -0.309 N 
HETATM   24  C6  UNL     1     -29.460 -11.113 -11.384  1.00  0.00     0.126 C 
ATOM     25  H1  UNL     1     -28.545 -12.713 -12.120  1.00  0.00     0.186 HD
BRANCH  24  26
HETATM   26  C5  UNL     1     -30.045  -9.795 -11.707  1.00  0.00     0.022 A 
HETATM   27  C4  UNL     1     -29.414  -8.577 -11.703  1.00  0.00     0.021 A 
HETATM   28  C3  UNL     1     -30.149  -7.502 -12.033  1.00  0.00     0.015 A 
HETATM   29  C2  UNL     1     -31.458  -7.705 -12.344  1.00  0.00    -0.021 A 
HETATM   30  C1  UNL     1     -32.493  -6.693 -12.745  1.00  0.00     0.056 C 
HETATM   31  S3  UNL     1     -31.640  -9.390 -12.172  1.00  0.00    -0.094 SA
ENDBRANCH  24  26
ENDBRANCH  21  23
ENDBRANCH  10  21
ENDBRANCH   4   5
ENDBRANCH   1   4
TORSDOF 7
ENDMDL
MODEL 4
REMARK VINA RESULT: -6.785978119      4.585      6.080
REMARK  7 active torsions:
REMARK  status: ('A' for Active; 'I' for Inactive)
REMARK    1  A    between atoms: C5_5  and  C6_6 
REMARK    2  A    between atoms: N1_7  and  N2_9 
REMARK    3  A    between atoms: N2_9  and  C7_11 
REMARK    4  A    between atoms: C8_14  and  N4_15 
REMARK    5  A    between atoms: N4_15  and  N5_17 
REMARK    6  A    between atoms: C10_24  and  S1_25 
REMARK    7  A    between atoms: S1_25  and  C11_26 
ROOT
HETATM    1  C11 UNL     1     -31.062  -9.687 -13.056  1.00  0.00     0.204 C 
HETATM    2  C12 UNL     1     -32.219 -10.168 -12.304  1.00  0.00     0.069 C 
HETATM    3  N7  UNL     1     -33.154 -10.554 -11.716  1.00  0.00    -0.197 NA
ENDROOT
BRANCH   1   4
HETATM    4  S1  UNL     1     -29.774 -10.943 -13.039  1.00  0.00    -0.096 SA
BRANCH   4   5
HETATM    5  C10 UNL     1     -30.518 -12.553 -13.284  1.00  0.00     0.108 A 
HETATM    6  N6  UNL     1     -30.786 -13.345 -12.242  1.00  0.00    -0.183 N 
HETATM    7  C8  UNL     1     -31.348 -14.546 -12.505  1.00  0.00     0.699 A 
ATOM      8  H6  UNL     1     -30.576 -13.055 -11.286  1.00  0.00     0.185 HD
HETATM    9  N3  UNL     1     -31.621 -14.915 -13.781  1.00  0.00    -0.172 N 
HETATM   10  C7  UNL     1     -31.355 -14.125 -14.834  1.00  0.00     0.156 A 
ATOM     11  H3  UNL     1     -32.046 -15.829 -13.948  1.00  0.00     0.186 HD
HETATM   12  C13 UNL     1     -30.789 -12.909 -14.600  1.00  0.00     0.091 A 
HETATM   13  S2  UNL     1     -30.403 -11.799 -15.956  1.00  0.00    -0.045 SA
BRANCH   7  14
HETATM   14  N4  UNL     1     -31.600 -15.295 -11.492  1.00  0.00    -0.130 N 
ATOM     15  H4  UNL     1     -30.810 -15.659 -10.960  1.00  0.00     0.205 HD
BRANCH  14  16
HETATM   16  N5  UNL     1     -32.884 -15.640 -11.075  1.00  0.00    -0.266 N 
HETATM   17  C9  UNL     1     -33.408 -15.083 -10.050  1.00  0.00     0.190 C 
HETATM   18 CL1  UNL     1     -35.031 -15.516  -9.517  1.00  0.00    -0.050 Cl
HETATM   19 CL2  UNL     1     -32.524 -13.884  -9.160  1.00  0.00    -0.050 Cl
ATOM     20  H5  UNL     1     -33.411 -16.344 -11.592  1.00  0.00     0.189 HD
ENDBRANCH  14  16
ENDBRANCH   7  14
BRANCH  10  21
HETATM   21  N2  UNL     1     -31.634 -14.524 -16.025  1.00  0.00    -0.284 N 
ATOM     22  H2  UNL     1     -30.932 -14.490 -16.765  1.00  0.00     0.188 HD
BRANCH  21  23
HETATM   23  N1  UNL     1     -32.910 -15.002 -16.280  1.00  0.00    -0.309 N 
HETATM   24  C6  UNL     1     -33.526 -14.669 -17.340  1.00  0.00     0.126 C 
ATOM     25  H1  UNL     1     -33.358 -15.628 -15.610  1.00  0.00     0.186 HD
BRANCH  24  26
HETATM   26  C5  UNL     1     -32.854 -13.763 -18.294  1.00  0.00     0.022 A 
HETATM   27  C4  UNL     1     -33.030 -12.409 -18.425  1.00  0.00     0.021 A 
HETATM   28  C3  UNL     1     -32.306 -11.783 -19.368  1.00  0.00     0.015 A 
HETATM   29  C2  UNL     1     -31.458 -12.538 -20.117  1.00  0.00    -0.021 A 
HETATM   30  C1  UNL     1     -30.543 -12.099 -21.224  1.00  0.00     0.056 C 
HETATM   31  S3  UNL     1     -31.684 -14.107 -19.493  1.00  0.00    -0.094 SA
ENDBRANCH  24  26
ENDBRANCH  21  23
ENDBRANCH  10  21
ENDBRANCH   4   5
ENDBRANCH   1   4
TORSDOF 7
ENDMDL
MODEL 5
REMARK VINA RESULT: -6.756949379      5.077      7.194
REMARK  7 active torsions:
REMARK  status: ('A' for Active; 'I' for Inactive)
REMARK    1  A    between atoms: C5_5  and  C6_6 
REMARK    2  A    between atoms: N1_7  and  N2_9 
REMARK    3  A    between atoms: N2_9  and  C7_11 
REMARK    4  A    between atoms: C8_14  and  N4_15 
REMARK    5  A    between atoms: N4_15  and  N5_17 
REMARK    6  A    between atoms: C10_24  and  S1_25 
REMARK    7  A    between atoms: S1_25  and  C11_26 
ROOT
HETATM    1  C11 UNL     1     -35.070 -13.060 -11.911  1.00  0.00     0.204 C 
HETATM    2  C12 UNL     1     -34.784 -11.653 -12.181  1.00  0.00     0.069 C 
HETATM    3  N7  UNL     1     -34.566 -10.522 -12.384  1.00  0.00    -0.197 NA
ENDROOT
BRANCH   1   4
HETATM    4  S1  UNL     1     -33.553 -13.895 -11.423  1.00  0.00    -0.096 SA
BRANCH   4   5
HETATM    5  C10 UNL     1     -32.333 -13.706 -12.720  1.00  0.00     0.108 A 
HETATM    6  N6  UNL     1     -32.462 -14.365 -13.876  1.00  0.00    -0.183 N 
HETATM    7  C8  UNL     1     -31.502 -14.171 -14.808  1.00  0.00     0.699 A 
ATOM      8  H6  UNL     1     -33.252 -14.987 -14.048  1.00  0.00     0.185 HD
HETATM    9  N3  UNL     1     -30.459 -13.340 -14.563  1.00  0.00    -0.172 N 
HETATM   10  C7  UNL     1     -30.323 -12.676 -13.404  1.00  0.00     0.156 A 
ATOM     11  H3  UNL     1     -29.750 -13.215 -15.287  1.00  0.00     0.186 HD
HETATM   12  C13 UNL     1     -31.274 -12.850 -12.446  1.00  0.00     0.091 A 
HETATM   13  S2  UNL     1     -31.159 -11.995 -10.872  1.00  0.00    -0.045 SA
BRANCH   7  14
HETATM   14  N4  UNL     1     -31.640 -14.811 -15.914  1.00  0.00    -0.130 N 
ATOM     15  H4  UNL     1     -31.691 -15.829 -15.873  1.00  0.00     0.205 HD
BRANCH  14  16
HETATM   16  N5  UNL     1     -31.726 -14.202 -17.165  1.00  0.00    -0.266 N 
HETATM   17  C9  UNL     1     -32.849 -14.114 -17.771  1.00  0.00     0.190 C 
HETATM   18 CL1  UNL     1     -32.963 -13.345 -19.352  1.00  0.00    -0.050 Cl
HETATM   19 CL2  UNL     1     -34.287 -14.753 -17.041  1.00  0.00    -0.050 Cl
ATOM     20  H5  UNL     1     -30.886 -13.823 -17.601  1.00  0.00     0.189 HD
ENDBRANCH  14  16
ENDBRANCH   7  14
BRANCH  10  21
HETATM   21  N2  UNL     1     -29.313 -11.899 -13.223  1.00  0.00    -0.284 N 
ATOM     22  H2  UNL     1     -29.023 -11.632 -12.282  1.00  0.00     0.188 HD
BRANCH  21  23
HETATM   23  N1  UNL     1     -28.628 -11.434 -14.335  1.00  0.00    -0.309 N 
HETATM   24  C6  UNL     1     -28.720 -10.217 -14.689  1.00  0.00     0.126 C 
ATOM     25  H1  UNL     1     -28.044 -12.075 -14.873  1.00  0.00     0.186 HD
BRANCH  24  26
HETATM   26  C5  UNL     1     -29.571  -9.310 -13.893  1.00  0.00     0.022 A 
HETATM   27  C4  UNL     1     -30.881  -8.976 -14.125  1.00  0.00     0.021 A 
HETATM   28  C3  UNL     1     -31.461  -8.125 -13.261  1.00  0.00     0.015 A 
HETATM   29  C2  UNL     1     -30.706  -7.663 -12.228  1.00  0.00    -0.021 A 
HETATM   30  C1  UNL     1     -31.100  -6.716 -11.131  1.00  0.00     0.056 C 
HETATM   31  S3  UNL     1     -29.202  -8.423 -12.477  1.00  0.00    -0.094 SA
ENDBRANCH  24  26
ENDBRANCH  21  23
ENDBRANCH  10  21
ENDBRANCH   4   5
ENDBRANCH   1   4
TORSDOF 7
ENDMDL
