MODEL 1
REMARK VINA RESULT: -4.486870392      0.000      0.000
REMARK  1 active torsions:
REMARK  status: ('A' for Active; 'I' for Inactive)
REMARK    1  A    between atoms: C2_2  and  N1_3 
ROOT
HETATM    1  N1  UNL     1      31.340  -4.037  -9.992  1.00  0.00    -0.162 N 
HETATM    2  C3  UNL     1      30.378  -3.855  -9.051  1.00  0.00     0.052 A 
HETATM    3  C4  UNL     1      30.538  -2.992  -7.861  1.00  0.00     0.071 C 
HETATM    4  C5  UNL     1      29.282  -4.573  -9.371  1.00  0.00     0.046 A 
HETATM    5  C6  UNL     1      27.974  -4.681  -8.626  1.00  0.00     0.071 C 
HETATM    6  N2  UNL     1      29.543  -5.204 -10.501  1.00  0.00    -0.194 N 
ATOM      7  H2  UNL     1      28.906  -5.827 -10.997  1.00  0.00     0.184 HD
HETATM    8  C7  UNL     1      30.796  -4.883 -10.889  1.00  0.00     0.682 A 
HETATM    9  N3  UNL     1      31.357  -5.332 -11.954  1.00  0.00    -0.234 N 
ATOM     10  H31 UNL     1      30.944  -5.973 -12.632  1.00  0.00     0.174 HD
ATOM     11  H32 UNL     1      32.303  -5.089 -12.247  1.00  0.00     0.174 HD
ENDROOT
BRANCH   1  12
HETATM   12  C2  UNL     1      32.637  -3.430  -9.978  1.00  0.00     0.105 C 
HETATM   13  C1  UNL     1      32.973  -2.330 -10.566  1.00  0.00     0.031 C 
ENDBRANCH   1  12
TORSDOF 1
ENDMDL
MODEL 2
REMARK VINA RESULT: -4.315597041      1.239      1.337
REMARK  1 active torsions:
REMARK  status: ('A' for Active; 'I' for Inactive)
REMARK    1  A    between atoms: C2_2  and  N1_3 
ROOT
HETATM    1  N1  UNL     1      31.445  -2.997 -10.246  1.00  0.00    -0.162 N 
HETATM    2  C3  UNL     1      30.546  -3.555  -9.395  1.00  0.00     0.052 A 
HETATM    3  C4  UNL     1      30.313  -3.084  -8.013  1.00  0.00     0.071 C 
HETATM    4  C5  UNL     1      29.918  -4.582 -10.002  1.00  0.00     0.046 A 
HETATM    5  C6  UNL     1      28.846  -5.492  -9.451  1.00  0.00     0.071 C 
HETATM    6  N2  UNL     1      30.410  -4.676 -11.223  1.00  0.00    -0.194 N 
ATOM      7  H2  UNL     1      30.133  -5.361 -11.927  1.00  0.00     0.184 HD
HETATM    8  C7  UNL     1      31.342  -3.713 -11.382  1.00  0.00     0.682 A 
HETATM    9  N3  UNL     1      32.014  -3.533 -12.463  1.00  0.00    -0.234 N 
ATOM     10  H31 UNL     1      31.936  -4.076 -13.323  1.00  0.00     0.174 HD
ATOM     11  H32 UNL     1      32.718  -2.805 -12.583  1.00  0.00     0.174 HD
ENDROOT
BRANCH   1  12
HETATM   12  C2  UNL     1      32.293  -1.884  -9.940  1.00  0.00     0.105 C 
HETATM   13  C1  UNL     1      32.113  -0.660 -10.313  1.00  0.00     0.031 C 
ENDBRANCH   1  12
TORSDOF 1
ENDMDL
MODEL 3
REMARK VINA RESULT: -4.174258608      1.480      3.323
REMARK  1 active torsions:
REMARK  status: ('A' for Active; 'I' for Inactive)
REMARK    1  A    between atoms: C2_2  and  N1_3 
ROOT
HETATM    1  N1  UNL     1      30.007  -3.947  -9.627  1.00  0.00    -0.162 N 
HETATM    2  C3  UNL     1      30.897  -3.262 -10.390  1.00  0.00     0.052 A 
HETATM    3  C4  UNL     1      31.412  -1.917 -10.053  1.00  0.00     0.071 C 
HETATM    4  C5  UNL     1      31.224  -3.989 -11.477  1.00  0.00     0.046 A 
HETATM    5  C6  UNL     1      32.170  -3.637 -12.599  1.00  0.00     0.071 C 
HETATM    6  N2  UNL     1      30.551  -5.123 -11.406  1.00  0.00    -0.194 N 
ATOM      7  H2  UNL     1      30.588  -5.882 -12.086  1.00  0.00     0.184 HD
HETATM    8  C7  UNL     1      29.806  -5.107 -10.281  1.00  0.00     0.682 A 
HETATM    9  N3  UNL     1      29.032  -6.066  -9.916  1.00  0.00    -0.234 N 
ATOM     10  H31 UNL     1      28.880  -6.944 -10.412  1.00  0.00     0.174 HD
ATOM     11  H32 UNL     1      28.470  -6.054  -9.065  1.00  0.00     0.174 HD
ENDROOT
BRANCH   1  12
HETATM   12  C2  UNL     1      29.440  -3.480  -8.397  1.00  0.00     0.105 C 
HETATM   13  C1  UNL     1      28.185  -3.458  -8.092  1.00  0.00     0.031 C 
ENDBRANCH   1  12
TORSDOF 1
ENDMDL
MODEL 4
REMARK VINA RESULT: -4.155655679      1.400      2.554
REMARK  1 active torsions:
REMARK  status: ('A' for Active; 'I' for Inactive)
REMARK    1  A    between atoms: C2_2  and  N1_3 
ROOT
HETATM    1  N1  UNL     1      31.106  -4.225 -10.341  1.00  0.00    -0.162 N 
HETATM    2  C3  UNL     1      29.968  -4.516  -9.661  1.00  0.00     0.052 A 
HETATM    3  C4  UNL     1      29.106  -5.682  -9.953  1.00  0.00     0.071 C 
HETATM    4  C5  UNL     1      29.758  -3.593  -8.702  1.00  0.00     0.046 A 
HETATM    5  C6  UNL     1      28.627  -3.506  -7.706  1.00  0.00     0.071 C 
HETATM    6  N2  UNL     1      30.750  -2.724  -8.771  1.00  0.00    -0.194 N 
ATOM      7  H2  UNL     1      30.870  -1.908  -8.172  1.00  0.00     0.184 HD
HETATM    8  C7  UNL     1      31.578  -3.102  -9.767  1.00  0.00     0.682 A 
HETATM    9  N3  UNL     1      32.646  -2.466 -10.096  1.00  0.00    -0.234 N 
ATOM     10  H31 UNL     1      33.003  -1.615  -9.661  1.00  0.00     0.174 HD
ATOM     11  H32 UNL     1      33.272  -2.751 -10.848  1.00  0.00     0.174 HD
ENDROOT
BRANCH   1  12
HETATM   12  C2  UNL     1      31.639  -4.990 -11.428  1.00  0.00     0.105 C 
HETATM   13  C1  UNL     1      31.641  -4.651 -12.675  1.00  0.00     0.031 C 
ENDBRANCH   1  12
TORSDOF 1
ENDMDL
MODEL 5
REMARK VINA RESULT: -4.069495768      1.750      2.104
REMARK  1 active torsions:
REMARK  status: ('A' for Active; 'I' for Inactive)
REMARK    1  A    between atoms: C2_2  and  N1_3 
ROOT
HETATM    1  N1  UNL     1      31.740  -3.604 -11.996  1.00  0.00    -0.162 N 
HETATM    2  C3  UNL     1      31.004  -3.342 -10.886  1.00  0.00     0.052 A 
HETATM    3  C4  UNL     1      31.001  -2.041 -10.184  1.00  0.00     0.071 C 
HETATM    4  C5  UNL     1      30.295  -4.435 -10.537  1.00  0.00     0.046 A 
HETATM    5  C6  UNL     1      29.343  -4.613  -9.380  1.00  0.00     0.071 C 
HETATM    6  N2  UNL     1      30.576  -5.380 -11.415  1.00  0.00    -0.194 N 
ATOM      7  H2  UNL     1      30.193  -6.325 -11.417  1.00  0.00     0.184 HD
HETATM    8  C7  UNL     1      31.457  -4.883 -12.309  1.00  0.00     0.682 A 
HETATM    9  N3  UNL     1      31.935  -5.552 -13.297  1.00  0.00    -0.234 N 
ATOM     10  H31 UNL     1      31.719  -6.521 -13.534  1.00  0.00     0.174 HD
ATOM     11  H32 UNL     1      32.599  -5.177 -13.973  1.00  0.00     0.174 HD
ENDROOT
BRANCH   1  12
HETATM   12  C2  UNL     1      32.613  -2.675 -12.648  1.00  0.00     0.105 C 
HETATM   13  C1  UNL     1      32.328  -1.951 -13.679  1.00  0.00     0.031 C 
ENDBRANCH   1  12
TORSDOF 1
ENDMDL
