MODEL 1
REMARK VINA RESULT: -7.856873908      0.000      0.000
REMARK  11 active torsions:
REMARK  status: ('A' for Active; 'I' for Inactive)
REMARK    1  A    between atoms: C2_3  and  N2_4 
REMARK    2  A    between atoms: C5_12  and  N5_13 
REMARK    3  A    between atoms: C8_20  and  N7_21 
REMARK    4  A    between atoms: N8_24  and  C9_25 
REMARK    5  A    between atoms: C9_25  and  C10_26 
REMARK    6  A    between atoms: C10_26  and  O3_28 
REMARK    7  A    between atoms: O3_28  and  C11_29 
REMARK    8  A    between atoms: C11_29  and  C12_30 
REMARK    9  A    between atoms: C11_29  and  C13_33 
REMARK   10  A    between atoms: C13_33  and  O6_34 
REMARK   11  A    between atoms: C13_33  and  O7_36 
ROOT
HETATM    1  N1  UNL     1      -6.710 -33.211  20.863  1.00  0.00    -0.196 NA
HETATM    2  C1  UNL     1      -6.807 -34.105  21.589  1.00  0.00     0.079 C 
HETATM    3  C2  UNL     1      -6.963 -35.225  22.514  1.00  0.00     0.256 C 
ENDROOT
BRANCH   3   4
HETATM    4  N2  UNL     1      -6.449 -36.432  21.923  1.00  0.00    -0.302 N 
HETATM    5  C3  UNL     1      -7.203 -37.310  21.234  1.00  0.00     0.130 A 
HETATM    6  N3  UNL     1      -8.497 -37.307  20.903  1.00  0.00    -0.293 N 
HETATM    7  C6  UNL     1      -6.427 -38.373  20.832  1.00  0.00     0.083 A 
HETATM    8  C4  UNL     1      -9.053 -38.324  20.186  1.00  0.00     0.327 A 
ATOM      9  H3  UNL     1      -9.083 -36.524  21.193  1.00  0.00     0.172 HD
HETATM   10  O1  UNL     1     -10.272 -38.333  19.867  1.00  0.00    -0.247 OA
HETATM   11  N4  UNL     1      -8.308 -39.386  19.778  1.00  0.00    -0.294 N 
HETATM   12  C5  UNL     1      -7.003 -39.394  20.108  1.00  0.00     0.119 A 
ATOM     13  H4  UNL     1      -8.723 -40.148  19.241  1.00  0.00     0.172 HD
HETATM   14  C7  UNL     1      -5.172 -38.085  21.317  1.00  0.00     0.112 A 
HETATM   15  N6  UNL     1      -3.914 -38.560  21.387  1.00  0.00    -0.187 N 
HETATM   16  C14 UNL     1      -5.176 -36.873  22.000  1.00  0.00     0.157 A 
HETATM   17  C8  UNL     1      -3.169 -37.685  22.079  1.00  0.00     0.680 A 
ATOM     18  H6  UNL     1      -3.584 -39.436  20.982  1.00  0.00     0.184 HD
HETATM   19  N8  UNL     1      -3.935 -36.648  22.457  1.00  0.00    -0.157 N 
BRANCH  12  20
HETATM   20  N5  UNL     1      -6.285 -40.392  19.729  1.00  0.00    -0.385 N 
ATOM     21  H52 UNL     1      -6.348 -40.725  18.767  1.00  0.00     0.157 HD
ATOM     22  H51 UNL     1      -5.665 -40.827  20.412  1.00  0.00     0.157 HD
ENDBRANCH  12  20
BRANCH  17  23
HETATM   23  N7  UNL     1      -1.929 -37.829  22.334  1.00  0.00    -0.234 N 
ATOM     24  H72 UNL     1      -1.165 -37.727  21.666  1.00  0.00     0.174 HD
ATOM     25  H71 UNL     1      -1.547 -38.064  23.250  1.00  0.00     0.174 HD
ENDBRANCH  17  23
BRANCH  19  26
HETATM   26  C9  UNL     1      -3.456 -35.541  23.231  1.00  0.00     0.260 C 
BRANCH  26  27
HETATM   27  C10 UNL     1      -2.942 -34.410  22.438  1.00  0.00     0.278 C 
HETATM   28  O2  UNL     1      -3.386 -33.261  22.630  1.00  0.00    -0.263 OA
BRANCH  27  29
HETATM   29  O3  UNL     1      -1.968 -34.601  21.486  1.00  0.00    -0.299 OA
BRANCH  29  30
HETATM   30  C11 UNL     1      -2.197 -34.542  20.097  1.00  0.00     0.286 C 
BRANCH  30  31
HETATM   31  C12 UNL     1      -1.520 -33.254  19.655  1.00  0.00     0.208 C 
HETATM   32  O4  UNL     1      -2.270 -32.355  19.177  1.00  0.00    -0.646 OA
HETATM   33  O5  UNL     1      -0.176 -33.037  19.753  1.00  0.00    -0.646 OA
ENDBRANCH  30  31
BRANCH  30  34
HETATM   34  C13 UNL     1      -1.559 -35.614  19.285  1.00  0.00     0.293 C 
BRANCH  34  35
HETATM   35  O6  UNL     1      -2.242 -36.790  19.168  1.00  0.00    -0.368 OA
ATOM     36  H6  UNL     1      -2.982 -36.799  18.573  1.00  0.00     0.212 HD
ENDBRANCH  34  35
BRANCH  34  37
HETATM   37  O7  UNL     1      -1.341 -35.053  18.000  1.00  0.00    -0.368 OA
ATOM     38  H7  UNL     1      -0.522 -35.420  17.690  1.00  0.00     0.212 HD
ENDBRANCH  34  37
ENDBRANCH  30  34
ENDBRANCH  29  30
ENDBRANCH  27  29
ENDBRANCH  26  27
ENDBRANCH  19  26
ENDBRANCH   3   4
TORSDOF 11
ENDMDL
MODEL 2
REMARK VINA RESULT: -7.803038356      0.944      1.092
REMARK  11 active torsions:
REMARK  status: ('A' for Active; 'I' for Inactive)
REMARK    1  A    between atoms: C2_3  and  N2_4 
REMARK    2  A    between atoms: C5_12  and  N5_13 
REMARK    3  A    between atoms: C8_20  and  N7_21 
REMARK    4  A    between atoms: N8_24  and  C9_25 
REMARK    5  A    between atoms: C9_25  and  C10_26 
REMARK    6  A    between atoms: C10_26  and  O3_28 
REMARK    7  A    between atoms: O3_28  and  C11_29 
REMARK    8  A    between atoms: C11_29  and  C12_30 
REMARK    9  A    between atoms: C11_29  and  C13_33 
REMARK   10  A    between atoms: C13_33  and  O6_34 
REMARK   11  A    between atoms: C13_33  and  O7_36 
ROOT
HETATM    1  N1  UNL     1      -6.656 -33.045  20.776  1.00  0.00    -0.196 NA
HETATM    2  C1  UNL     1      -6.573 -33.920  21.527  1.00  0.00     0.079 C 
HETATM    3  C2  UNL     1      -6.501 -35.017  22.488  1.00  0.00     0.256 C 
ENDROOT
BRANCH   3   4
HETATM    4  N2  UNL     1      -5.969 -36.195  21.856  1.00  0.00    -0.302 N 
HETATM    5  C3  UNL     1      -6.714 -37.076  21.162  1.00  0.00     0.130 A 
HETATM    6  N3  UNL     1      -8.016 -37.099  20.858  1.00  0.00    -0.293 N 
HETATM    7  C6  UNL     1      -5.921 -38.108  20.717  1.00  0.00     0.083 A 
HETATM    8  C4  UNL     1      -8.560 -38.112  20.128  1.00  0.00     0.327 A 
ATOM      9  H3  UNL     1      -8.615 -36.340  21.181  1.00  0.00     0.172 HD
HETATM   10  O1  UNL     1      -9.786 -38.147  19.835  1.00  0.00    -0.247 OA
HETATM   11  N4  UNL     1      -7.798 -39.144  19.678  1.00  0.00    -0.294 N 
HETATM   12  C5  UNL     1      -6.485 -39.126  19.980  1.00  0.00     0.119 A 
ATOM     13  H4  UNL     1      -8.204 -39.904  19.131  1.00  0.00     0.172 HD
HETATM   14  C7  UNL     1      -4.664 -37.799  21.183  1.00  0.00     0.112 A 
HETATM   15  N6  UNL     1      -3.392 -38.241  21.213  1.00  0.00    -0.187 N 
HETATM   16  C14 UNL     1      -4.684 -36.604  21.895  1.00  0.00     0.157 A 
HETATM   17  C8  UNL     1      -2.655 -37.365  21.911  1.00  0.00     0.680 A 
ATOM     18  H6  UNL     1      -3.048 -39.098  20.780  1.00  0.00     0.184 HD
HETATM   19  N8  UNL     1      -3.439 -36.358  22.332  1.00  0.00    -0.157 N 
BRANCH  12  20
HETATM   20  N5  UNL     1      -5.751 -40.095  19.561  1.00  0.00    -0.385 N 
ATOM     21  H52 UNL     1      -5.617 -40.234  18.559  1.00  0.00     0.157 HD
ATOM     22  H51 UNL     1      -5.316 -40.705  20.253  1.00  0.00     0.157 HD
ENDBRANCH  12  20
BRANCH  17  23
HETATM   23  N7  UNL     1      -1.406 -37.482  22.136  1.00  0.00    -0.234 N 
ATOM     24  H72 UNL     1      -0.980 -38.083  22.841  1.00  0.00     0.174 HD
ATOM     25  H71 UNL     1      -0.674 -36.983  21.630  1.00  0.00     0.174 HD
ENDBRANCH  17  23
BRANCH  19  26
HETATM   26  C9  UNL     1      -2.972 -35.258  23.123  1.00  0.00     0.260 C 
BRANCH  26  27
HETATM   27  C10 UNL     1      -2.499 -34.098  22.347  1.00  0.00     0.278 C 
HETATM   28  O2  UNL     1      -3.152 -33.036  22.351  1.00  0.00    -0.263 OA
BRANCH  27  29
HETATM   29  O3  UNL     1      -1.335 -34.164  21.617  1.00  0.00    -0.299 OA
BRANCH  29  30
HETATM   30  C11 UNL     1      -1.268 -34.003  20.219  1.00  0.00     0.286 C 
BRANCH  30  31
HETATM   31  C12 UNL     1       0.100 -33.386  19.974  1.00  0.00     0.208 C 
HETATM   32  O4  UNL     1       0.563 -32.649  20.891  1.00  0.00    -0.646 OA
HETATM   33  O5  UNL     1       0.827 -33.592  18.836  1.00  0.00    -0.646 OA
ENDBRANCH  30  31
BRANCH  30  34
HETATM   34  C13 UNL     1      -1.277 -35.257  19.418  1.00  0.00     0.293 C 
BRANCH  34  35
HETATM   35  O6  UNL     1      -1.349 -35.122  18.061  1.00  0.00    -0.368 OA
ATOM     36  H6  UNL     1      -2.183 -35.324  17.653  1.00  0.00     0.212 HD
ENDBRANCH  34  35
BRANCH  34  37
HETATM   37  O7  UNL     1      -0.092 -35.954  19.769  1.00  0.00    -0.368 OA
ATOM     38  H7  UNL     1       0.120 -36.502  19.023  1.00  0.00     0.212 HD
ENDBRANCH  34  37
ENDBRANCH  30  34
ENDBRANCH  29  30
ENDBRANCH  27  29
ENDBRANCH  26  27
ENDBRANCH  19  26
ENDBRANCH   3   4
TORSDOF 11
ENDMDL
MODEL 3
REMARK VINA RESULT: -7.624363160      0.913      1.776
REMARK  11 active torsions:
REMARK  status: ('A' for Active; 'I' for Inactive)
REMARK    1  A    between atoms: C2_3  and  N2_4 
REMARK    2  A    between atoms: C5_12  and  N5_13 
REMARK    3  A    between atoms: C8_20  and  N7_21 
REMARK    4  A    between atoms: N8_24  and  C9_25 
REMARK    5  A    between atoms: C9_25  and  C10_26 
REMARK    6  A    between atoms: C10_26  and  O3_28 
REMARK    7  A    between atoms: O3_28  and  C11_29 
REMARK    8  A    between atoms: C11_29  and  C12_30 
REMARK    9  A    between atoms: C11_29  and  C13_33 
REMARK   10  A    between atoms: C13_33  and  O6_34 
REMARK   11  A    between atoms: C13_33  and  O7_36 
ROOT
HETATM    1  N1  UNL     1      -6.484 -32.967  20.757  1.00  0.00    -0.196 NA
HETATM    2  C1  UNL     1      -6.576 -33.889  21.449  1.00  0.00     0.079 C 
HETATM    3  C2  UNL     1      -6.725 -35.043  22.331  1.00  0.00     0.256 C 
ENDROOT
BRANCH   3   4
HETATM    4  N2  UNL     1      -6.225 -36.228  21.686  1.00  0.00    -0.302 N 
HETATM    5  C3  UNL     1      -7.008 -37.131  21.066  1.00  0.00     0.130 A 
HETATM    6  N3  UNL     1      -8.327 -37.175  20.857  1.00  0.00    -0.293 N 
HETATM    7  C6  UNL     1      -6.235 -38.164  20.585  1.00  0.00     0.083 A 
HETATM    8  C4  UNL     1      -8.910 -38.210  20.189  1.00  0.00     0.327 A 
ATOM      9  H3  UNL     1      -8.911 -36.416  21.207  1.00  0.00     0.172 HD
HETATM   10  O1  UNL     1     -10.153 -38.263  19.986  1.00  0.00    -0.247 OA
HETATM   11  N4  UNL     1      -8.168 -39.242  19.706  1.00  0.00    -0.294 N 
HETATM   12  C5  UNL     1      -6.838 -39.203  19.912  1.00  0.00     0.119 A 
ATOM     13  H4  UNL     1      -8.604 -40.018  19.205  1.00  0.00     0.172 HD
HETATM   14  C7  UNL     1      -4.951 -37.831  20.953  1.00  0.00     0.112 A 
HETATM   15  N6  UNL     1      -3.676 -38.258  20.901  1.00  0.00    -0.187 N 
HETATM   16  C14 UNL     1      -4.935 -36.622  21.641  1.00  0.00     0.157 A 
HETATM   17  C8  UNL     1      -2.901 -37.359  21.526  1.00  0.00     0.680 A 
ATOM     18  H6  UNL     1      -3.353 -39.120  20.461  1.00  0.00     0.184 HD
HETATM   19  N8  UNL     1      -3.666 -36.353  21.981  1.00  0.00    -0.157 N 
BRANCH  12  20
HETATM   20  N5  UNL     1      -6.123 -40.172  19.460  1.00  0.00    -0.385 N 
ATOM     21  H52 UNL     1      -6.399 -40.649  18.602  1.00  0.00     0.157 HD
ATOM     22  H51 UNL     1      -5.289 -40.440  19.982  1.00  0.00     0.157 HD
ENDBRANCH  12  20
BRANCH  17  23
HETATM   23  N7  UNL     1      -1.638 -37.457  21.663  1.00  0.00    -0.234 N 
ATOM     24  H72 UNL     1      -1.153 -37.831  22.478  1.00  0.00     0.174 HD
ATOM     25  H71 UNL     1      -0.953 -37.173  20.962  1.00  0.00     0.174 HD
ENDBRANCH  17  23
BRANCH  19  26
HETATM   26  C9  UNL     1      -3.157 -35.231  22.714  1.00  0.00     0.260 C 
BRANCH  26  27
HETATM   27  C10 UNL     1      -2.794 -34.067  21.887  1.00  0.00     0.278 C 
HETATM   28  O2  UNL     1      -3.055 -32.914  22.283  1.00  0.00    -0.263 OA
BRANCH  27  29
HETATM   29  O3  UNL     1      -2.160 -34.231  20.677  1.00  0.00    -0.299 OA
BRANCH  29  30
HETATM   30  C11 UNL     1      -0.768 -34.391  20.530  1.00  0.00     0.286 C 
BRANCH  30  31
HETATM   31  C12 UNL     1      -0.616 -35.277  19.303  1.00  0.00     0.208 C 
HETATM   32  O4  UNL     1       0.174 -36.258  19.408  1.00  0.00    -0.646 OA
HETATM   33  O5  UNL     1      -1.280 -35.062  18.130  1.00  0.00    -0.646 OA
ENDBRANCH  30  31
BRANCH  30  34
HETATM   34  C13 UNL     1      -0.000 -33.156  20.213  1.00  0.00     0.293 C 
BRANCH  34  35
HETATM   35  O6  UNL     1       0.601 -32.516  21.259  1.00  0.00    -0.368 OA
ATOM     36  H6  UNL     1       0.086 -31.861  21.715  1.00  0.00     0.212 HD
ENDBRANCH  34  35
BRANCH  34  37
HETATM   37  O7  UNL     1       0.977 -33.537  19.257  1.00  0.00    -0.368 OA
ATOM     38  H7  UNL     1       0.758 -33.071  18.459  1.00  0.00     0.212 HD
ENDBRANCH  34  37
ENDBRANCH  30  34
ENDBRANCH  29  30
ENDBRANCH  27  29
ENDBRANCH  26  27
ENDBRANCH  19  26
ENDBRANCH   3   4
TORSDOF 11
ENDMDL
MODEL 4
REMARK VINA RESULT: -7.469451833      1.641      3.351
REMARK  11 active torsions:
REMARK  status: ('A' for Active; 'I' for Inactive)
REMARK    1  A    between atoms: C2_3  and  N2_4 
REMARK    2  A    between atoms: C5_12  and  N5_13 
REMARK    3  A    between atoms: C8_20  and  N7_21 
REMARK    4  A    between atoms: N8_24  and  C9_25 
REMARK    5  A    between atoms: C9_25  and  C10_26 
REMARK    6  A    between atoms: C10_26  and  O3_28 
REMARK    7  A    between atoms: O3_28  and  C11_29 
REMARK    8  A    between atoms: C11_29  and  C12_30 
REMARK    9  A    between atoms: C11_29  and  C13_33 
REMARK   10  A    between atoms: C13_33  and  O6_34 
REMARK   11  A    between atoms: C13_33  and  O7_36 
ROOT
HETATM    1  N1  UNL     1      -2.595 -38.446  23.342  1.00  0.00    -0.196 NA
HETATM    2  C1  UNL     1      -2.930 -38.200  22.264  1.00  0.00     0.079 C 
HETATM    3  C2  UNL     1      -3.336 -37.917  20.890  1.00  0.00     0.256 C 
ENDROOT
BRANCH   3   4
HETATM    4  N2  UNL     1      -4.714 -37.505  20.855  1.00  0.00    -0.302 N 
HETATM    5  C3  UNL     1      -5.719 -38.282  20.407  1.00  0.00     0.130 A 
HETATM    6  N3  UNL     1      -5.739 -39.536  19.946  1.00  0.00    -0.293 N 
HETATM    7  C6  UNL     1      -6.906 -37.589  20.469  1.00  0.00     0.083 A 
HETATM    8  C4  UNL     1      -6.897 -40.129  19.541  1.00  0.00     0.327 A 
ATOM      9  H3  UNL     1      -4.867 -40.062  19.895  1.00  0.00     0.172 HD
HETATM   10  O1  UNL     1      -6.930 -41.310  19.103  1.00  0.00    -0.247 OA
HETATM   11  N4  UNL     1      -8.082 -39.465  19.591  1.00  0.00    -0.294 N 
HETATM   12  C5  UNL     1      -8.068 -38.201  20.056  1.00  0.00     0.119 A 
ATOM     13  H4  UNL     1      -8.951 -39.907  19.288  1.00  0.00     0.172 HD
HETATM   14  C7  UNL     1      -6.558 -36.358  20.975  1.00  0.00     0.112 A 
HETATM   15  N6  UNL     1      -7.063 -35.158  21.320  1.00  0.00    -0.187 N 
HETATM   16  C14 UNL     1      -5.190 -36.296  21.221  1.00  0.00     0.157 A 
HETATM   17  C8  UNL     1      -6.058 -34.385  21.759  1.00  0.00     0.680 A 
ATOM     18  H6  UNL     1      -8.043 -34.883  21.257  1.00  0.00     0.184 HD
HETATM   19  N8  UNL     1      -4.907 -35.076  21.702  1.00  0.00    -0.157 N 
BRANCH  12  20
HETATM   20  N5  UNL     1      -9.183 -37.560  20.110  1.00  0.00    -0.385 N 
ATOM     21  H52 UNL     1     -10.056 -38.071  20.242  1.00  0.00     0.157 HD
ATOM     22  H51 UNL     1      -9.159 -36.544  20.018  1.00  0.00     0.157 HD
ENDBRANCH  12  20
BRANCH  17  23
HETATM   23  N7  UNL     1      -6.187 -33.183  22.162  1.00  0.00    -0.234 N 
ATOM     24  H72 UNL     1      -6.710 -32.447  21.687  1.00  0.00     0.174 HD
ATOM     25  H71 UNL     1      -5.780 -32.810  23.019  1.00  0.00     0.174 HD
ENDBRANCH  17  23
BRANCH  19  26
HETATM   26  C9  UNL     1      -3.633 -34.540  22.081  1.00  0.00     0.260 C 
BRANCH  26  27
HETATM   27  C10 UNL     1      -2.902 -33.861  20.997  1.00  0.00     0.278 C 
HETATM   28  O2  UNL     1      -3.493 -33.045  20.262  1.00  0.00    -0.263 OA
BRANCH  27  29
HETATM   29  O3  UNL     1      -1.566 -34.109  20.783  1.00  0.00    -0.299 OA
BRANCH  29  30
HETATM   30  C11 UNL     1      -1.073 -35.203  20.045  1.00  0.00     0.286 C 
BRANCH  30  31
HETATM   31  C12 UNL     1      -0.308 -34.571  18.893  1.00  0.00     0.208 C 
HETATM   32  O4  UNL     1      -0.381 -33.313  18.787  1.00  0.00    -0.646 OA
HETATM   33  O5  UNL     1       0.433 -35.286  17.997  1.00  0.00    -0.646 OA
ENDBRANCH  30  31
BRANCH  30  34
HETATM   34  C13 UNL     1      -0.080 -36.065  20.743  1.00  0.00     0.293 C 
BRANCH  34  35
HETATM   35  O6  UNL     1       0.407 -37.134  20.048  1.00  0.00    -0.368 OA
ATOM     36  H6  UNL     1       1.320 -37.357  20.185  1.00  0.00     0.212 HD
ENDBRANCH  34  35
BRANCH  34  37
HETATM   37  O7  UNL     1       0.988 -35.207  21.116  1.00  0.00    -0.368 OA
ATOM     38  H7  UNL     1       1.756 -35.761  21.186  1.00  0.00     0.212 HD
ENDBRANCH  34  37
ENDBRANCH  30  34
ENDBRANCH  29  30
ENDBRANCH  27  29
ENDBRANCH  26  27
ENDBRANCH  19  26
ENDBRANCH   3   4
TORSDOF 11
ENDMDL
MODEL 5
REMARK VINA RESULT: -7.384710435      2.755      6.471
REMARK  11 active torsions:
REMARK  status: ('A' for Active; 'I' for Inactive)
REMARK    1  A    between atoms: C2_3  and  N2_4 
REMARK    2  A    between atoms: C5_12  and  N5_13 
REMARK    3  A    between atoms: C8_20  and  N7_21 
REMARK    4  A    between atoms: N8_24  and  C9_25 
REMARK    5  A    between atoms: C9_25  and  C10_26 
REMARK    6  A    between atoms: C10_26  and  O3_28 
REMARK    7  A    between atoms: O3_28  and  C11_29 
REMARK    8  A    between atoms: C11_29  and  C12_30 
REMARK    9  A    between atoms: C11_29  and  C13_33 
REMARK   10  A    between atoms: C13_33  and  O6_34 
REMARK   11  A    between atoms: C13_33  and  O7_36 
ROOT
HETATM    1  N1  UNL     1      -3.367 -36.497  24.920  1.00  0.00    -0.196 NA
HETATM    2  C1  UNL     1      -3.418 -35.753  24.037  1.00  0.00     0.079 C 
HETATM    3  C2  UNL     1      -3.477 -34.785  22.945  1.00  0.00     0.256 C 
ENDROOT
BRANCH   3   4
HETATM    4  N2  UNL     1      -2.753 -35.280  21.804  1.00  0.00    -0.302 N 
HETATM    5  C3  UNL     1      -1.633 -34.708  21.321  1.00  0.00     0.130 A 
HETATM    6  N3  UNL     1      -0.923 -33.652  21.728  1.00  0.00    -0.293 N 
HETATM    7  C6  UNL     1      -1.205 -35.394  20.207  1.00  0.00     0.083 A 
HETATM    8  C4  UNL     1       0.199 -33.249  21.069  1.00  0.00     0.327 A 
ATOM      9  H3  UNL     1      -1.229 -33.135  22.553  1.00  0.00     0.172 HD
HETATM   10  O1  UNL     1       0.877 -32.255  21.442  1.00  0.00    -0.247 OA
HETATM   11  N4  UNL     1       0.642 -33.909  19.966  1.00  0.00    -0.294 N 
HETATM   12  C5  UNL     1      -0.069 -34.975  19.551  1.00  0.00     0.119 A 
ATOM     13  H4  UNL     1       1.482 -33.608  19.471  1.00  0.00     0.172 HD
HETATM   14  C7  UNL     1      -2.127 -36.403  20.050  1.00  0.00     0.112 A 
HETATM   15  N6  UNL     1      -2.451 -37.448  19.265  1.00  0.00    -0.187 N 
HETATM   16  C14 UNL     1      -3.098 -36.341  21.045  1.00  0.00     0.157 A 
HETATM   17  C8  UNL     1      -3.569 -38.011  19.747  1.00  0.00     0.680 A 
ATOM     18  H6  UNL     1      -1.933 -37.759  18.443  1.00  0.00     0.184 HD
HETATM   19  N8  UNL     1      -3.971 -37.338  20.838  1.00  0.00    -0.157 N 
BRANCH  12  20
HETATM   20  N5  UNL     1       0.338 -35.610  18.509  1.00  0.00    -0.385 N 
ATOM     21  H52 UNL     1       1.207 -35.332  18.053  1.00  0.00     0.157 HD
ATOM     22  H51 UNL     1      -0.229 -36.385  18.164  1.00  0.00     0.157 HD
ENDBRANCH  12  20
BRANCH  17  23
HETATM   23  N7  UNL     1      -4.152 -39.023  19.238  1.00  0.00    -0.234 N 
ATOM     24  H72 UNL     1      -3.829 -39.989  19.292  1.00  0.00     0.174 HD
ATOM     25  H71 UNL     1      -5.024 -38.987  18.710  1.00  0.00     0.174 HD
ENDBRANCH  17  23
BRANCH  19  26
HETATM   26  C9  UNL     1      -5.147 -37.664  21.590  1.00  0.00     0.260 C 
BRANCH  26  27
HETATM   27  C10 UNL     1      -6.370 -36.964  21.157  1.00  0.00     0.278 C 
HETATM   28  O2  UNL     1      -7.387 -37.616  20.849  1.00  0.00    -0.263 OA
BRANCH  27  29
HETATM   29  O3  UNL     1      -6.412 -35.590  21.092  1.00  0.00    -0.299 OA
BRANCH  29  30
HETATM   30  C11 UNL     1      -7.001 -34.770  22.075  1.00  0.00     0.286 C 
BRANCH  30  31
HETATM   31  C12 UNL     1      -6.698 -33.352  21.617  1.00  0.00     0.208 C 
HETATM   32  O4  UNL     1      -6.662 -33.155  20.368  1.00  0.00    -0.646 OA
HETATM   33  O5  UNL     1      -6.473 -32.315  22.476  1.00  0.00    -0.646 OA
ENDBRANCH  30  31
BRANCH  30  34
HETATM   34  C13 UNL     1      -8.484 -34.837  22.175  1.00  0.00     0.293 C 
BRANCH  34  35
HETATM   35  O6  UNL     1      -9.180 -34.912  21.003  1.00  0.00    -0.368 OA
ATOM     36  H6  UNL     1      -8.784 -34.507  20.241  1.00  0.00     0.212 HD
ENDBRANCH  34  35
BRANCH  34  37
HETATM   37  O7  UNL     1      -8.771 -35.971  22.978  1.00  0.00    -0.368 OA
ATOM     38  H7  UNL     1      -8.095 -35.997  23.645  1.00  0.00     0.212 HD
ENDBRANCH  34  37
ENDBRANCH  30  34
ENDBRANCH  29  30
ENDBRANCH  27  29
ENDBRANCH  26  27
ENDBRANCH  19  26
ENDBRANCH   3   4
TORSDOF 11
ENDMDL
