MODEL 1
REMARK VINA RESULT: -9.180370316      0.000      0.000
REMARK  14 active torsions:
REMARK  status: ('A' for Active; 'I' for Inactive)
REMARK       I    between atoms: C2_2  and  N1_4 
REMARK    1  A    between atoms: N1_4  and  C3_6 
REMARK    2  A    between atoms: C3_6  and  C5_9 
REMARK    3  A    between atoms: C5_9  and  O2_10 
REMARK    4  A    between atoms: C5_9  and  C6_12 
REMARK    5  A    between atoms: C6_12  and  O3_13 
REMARK    6  A    between atoms: C6_12  and  C7_15 
REMARK    7  A    between atoms: C7_15  and  O4_16 
REMARK    8  A    between atoms: C7_15  and  C8_18 
REMARK    9  A    between atoms: C8_18  and  O5_19 
REMARK   10  A    between atoms: O5_19  and  N3_20 
REMARK   11  A    between atoms: C11_24  and  O6_25 
REMARK   12  A    between atoms: C18_37  and  N8_38 
REMARK   13  A    between atoms: C19_42  and  N9_43 
REMARK   14  A    between atoms: N9_43  and  O7_44 
ROOT
HETATM    1  C3  UNL     1      -0.775 -35.470  19.649  1.00  0.00     0.223 C 
HETATM    2  C4  UNL     1      -0.131 -35.225  18.351  1.00  0.00     0.087 C 
HETATM    3  N2  UNL     1       0.364 -35.026  17.313  1.00  0.00    -0.195 NA
ENDROOT
BRANCH   1   4
HETATM    4  N1  UNL     1       0.266 -35.809  20.568  1.00  0.00    -0.342 N 
HETATM    5  C2  UNL     1       0.211 -36.722  21.627  1.00  0.00     0.214 C 
HETATM    6  C1  UNL     1       1.381 -36.975  22.516  1.00  0.00     0.117 C 
HETATM    7  O1  UNL     1      -0.832 -37.372  21.880  1.00  0.00    -0.274 OA
ATOM      8  H1  UNL     1       1.156 -35.328  20.436  1.00  0.00     0.163 HD
ENDBRANCH   1   4
BRANCH   1   9
HETATM    9  C5  UNL     1      -1.599 -34.273  20.077  1.00  0.00     0.186 C 
BRANCH   9  10
HETATM   10  O2  UNL     1      -1.311 -33.225  19.227  1.00  0.00    -0.390 OA
ATOM     11  H2  UNL     1      -0.481 -32.846  19.494  1.00  0.00     0.210 HD
ENDBRANCH   9  10
BRANCH   9  12
HETATM   12  C6  UNL     1      -3.068 -34.560  20.068  1.00  0.00     0.180 C 
BRANCH  12  13
HETATM   13  O3  UNL     1      -3.725 -33.611  19.227  1.00  0.00    -0.390 OA
ATOM     14  H3  UNL     1      -4.409 -33.176  19.722  1.00  0.00     0.210 HD
ENDBRANCH  12  13
BRANCH  12  15
HETATM   15  C7  UNL     1      -3.669 -34.435  21.440  1.00  0.00     0.175 C 
BRANCH  15  16
HETATM   16  O4  UNL     1      -4.766 -33.494  21.285  1.00  0.00    -0.391 OA
ATOM     17  H4  UNL     1      -4.867 -33.092  22.140  1.00  0.00     0.210 HD
ENDBRANCH  15  16
BRANCH  15  18
HETATM   18  C8  UNL     1      -4.260 -35.735  21.902  1.00  0.00     0.228 C 
BRANCH  18  19
HETATM   19  O5  UNL     1      -5.661 -35.505  21.962  1.00  0.00    -0.298 OA
BRANCH  19  20
HETATM   20  N3  UNL     1      -6.295 -36.158  20.995  1.00  0.00    -0.155 NA
HETATM   21  C9  UNL     1      -5.782 -37.493  20.802  1.00  0.00     0.249 C 
HETATM   22  N4  UNL     1      -6.673 -38.544  21.209  1.00  0.00    -0.339 N 
HETATM   23  C10 UNL     1      -6.900 -39.894  20.737  1.00  0.00     0.096 A 
HETATM   24  C17 UNL     1      -7.609 -38.400  22.293  1.00  0.00     0.219 C 
HETATM   25  C11 UNL     1      -6.121 -40.754  19.999  1.00  0.00     0.102 A 
HETATM   26  C16 UNL     1      -8.155 -40.317  21.126  1.00  0.00     0.086 A 
HETATM   27  C12 UNL     1      -6.596 -42.030  19.650  1.00  0.00    -0.000 A 
HETATM   28  C13 UNL     1      -5.719 -42.924  18.849  1.00  0.00     0.053 C 
HETATM   29  C14 UNL     1      -7.843 -42.443  20.037  1.00  0.00     0.081 A 
HETATM   30  N5  UNL     1      -8.343 -43.746  19.687  1.00  0.00    -0.100 NA
HETATM   31  C15 UNL     1      -8.613 -41.579  20.775  1.00  0.00     0.100 A 
HETATM   32  N6  UNL     1      -9.906 -41.978  21.189  1.00  0.00    -0.098 NA
HETATM   33  N7  UNL     1      -8.724 -39.248  21.883  1.00  0.00    -0.363 N 
ATOM     34  H7  UNL     1      -9.711 -39.106  22.096  1.00  0.00     0.162 HD
HETATM   35  C18 UNL     1      -8.116 -37.008  22.364  1.00  0.00     0.263 C 
HETATM   36  C19 UNL     1      -7.717 -36.184  21.154  1.00  0.00     0.242 C 
BRANCH  25  37
HETATM   37  O6  UNL     1      -4.869 -40.359  19.604  1.00  0.00    -0.358 OA
ATOM     38  H6  UNL     1      -4.398 -40.873  18.959  1.00  0.00     0.217 HD
ENDBRANCH  25  37
BRANCH  35  39
HETATM   39  N8  UNL     1      -9.541 -36.999  22.489  1.00  0.00    -0.068 N 
ATOM     40  H83 UNL     1      -9.951 -37.895  22.224  1.00  0.00     0.275 HD
ATOM     41  H82 UNL     1      -9.837 -36.979  23.465  1.00  0.00     0.275 HD
ATOM     42  H81 UNL     1      -9.942 -36.228  21.955  1.00  0.00     0.275 HD
ENDBRANCH  35  39
BRANCH  36  43
HETATM   43  N9  UNL     1      -8.214 -34.836  21.264  1.00  0.00    -0.079 NA
BRANCH  43  44
HETATM   44  O7  UNL     1      -7.444 -33.910  20.681  1.00  0.00    -0.294 OA
ATOM     45  H7  UNL     1      -7.696 -33.013  20.867  1.00  0.00     0.238 HD
ENDBRANCH  43  44
ENDBRANCH  36  43
ENDBRANCH  19  20
ENDBRANCH  18  19
ENDBRANCH  15  18
ENDBRANCH  12  15
ENDBRANCH   9  12
ENDBRANCH   1   9
TORSDOF 14
ENDMDL
MODEL 2
REMARK VINA RESULT: -9.064407635      1.076      1.101
REMARK  14 active torsions:
REMARK  status: ('A' for Active; 'I' for Inactive)
REMARK       I    between atoms: C2_2  and  N1_4 
REMARK    1  A    between atoms: N1_4  and  C3_6 
REMARK    2  A    between atoms: C3_6  and  C5_9 
REMARK    3  A    between atoms: C5_9  and  O2_10 
REMARK    4  A    between atoms: C5_9  and  C6_12 
REMARK    5  A    between atoms: C6_12  and  O3_13 
REMARK    6  A    between atoms: C6_12  and  C7_15 
REMARK    7  A    between atoms: C7_15  and  O4_16 
REMARK    8  A    between atoms: C7_15  and  C8_18 
REMARK    9  A    between atoms: C8_18  and  O5_19 
REMARK   10  A    between atoms: O5_19  and  N3_20 
REMARK   11  A    between atoms: C11_24  and  O6_25 
REMARK   12  A    between atoms: C18_37  and  N8_38 
REMARK   13  A    between atoms: C19_42  and  N9_43 
REMARK   14  A    between atoms: N9_43  and  O7_44 
ROOT
HETATM    1  C3  UNL     1      -0.652 -35.159  19.843  1.00  0.00     0.223 C 
HETATM    2  C4  UNL     1      -0.076 -35.111  18.492  1.00  0.00     0.087 C 
HETATM    3  N2  UNL     1       0.364 -35.072  17.412  1.00  0.00    -0.195 NA
ENDROOT
BRANCH   1   4
HETATM    4  N1  UNL     1       0.446 -35.140  20.759  1.00  0.00    -0.342 N 
HETATM    5  C2  UNL     1       1.151 -34.027  21.231  1.00  0.00     0.214 C 
HETATM    6  C1  UNL     1       2.287 -34.157  22.188  1.00  0.00     0.117 C 
HETATM    7  O1  UNL     1       0.859 -32.863  20.868  1.00  0.00    -0.274 OA
ATOM      8  H1  UNL     1       0.752 -36.048  21.112  1.00  0.00     0.163 HD
ENDBRANCH   1   4
BRANCH   1   9
HETATM    9  C5  UNL     1      -1.636 -34.027  20.051  1.00  0.00     0.186 C 
BRANCH   9  10
HETATM   10  O2  UNL     1      -1.472 -33.118  19.026  1.00  0.00    -0.390 OA
ATOM     11  H2  UNL     1      -1.516 -32.243  19.394  1.00  0.00     0.210 HD
ENDBRANCH   9  10
BRANCH   9  12
HETATM   12  C6  UNL     1      -3.054 -34.506  20.097  1.00  0.00     0.180 C 
BRANCH  12  13
HETATM   13  O3  UNL     1      -3.867 -33.638  19.307  1.00  0.00    -0.390 OA
ATOM     14  H3  UNL     1      -3.307 -33.046  18.817  1.00  0.00     0.210 HD
ENDBRANCH  12  13
BRANCH  12  15
HETATM   15  C7  UNL     1      -3.604 -34.487  21.496  1.00  0.00     0.175 C 
BRANCH  15  16
HETATM   16  O4  UNL     1      -4.664 -33.493  21.469  1.00  0.00    -0.391 OA
ATOM     17  H4  UNL     1      -4.286 -32.720  21.870  1.00  0.00     0.210 HD
ENDBRANCH  15  16
BRANCH  15  18
HETATM   18  C8  UNL     1      -4.235 -35.800  21.856  1.00  0.00     0.228 C 
BRANCH  18  19
HETATM   19  O5  UNL     1      -5.628 -35.535  21.927  1.00  0.00    -0.298 OA
BRANCH  19  20
HETATM   20  N3  UNL     1      -6.287 -36.173  20.966  1.00  0.00    -0.155 NA
HETATM   21  C9  UNL     1      -5.789 -37.510  20.750  1.00  0.00     0.249 C 
HETATM   22  N4  UNL     1      -6.680 -38.558  21.164  1.00  0.00    -0.339 N 
HETATM   23  C10 UNL     1      -6.928 -39.900  20.683  1.00  0.00     0.096 A 
HETATM   24  C17 UNL     1      -7.594 -38.418  22.267  1.00  0.00     0.219 C 
HETATM   25  C11 UNL     1      -6.170 -40.760  19.920  1.00  0.00     0.102 A 
HETATM   26  C16 UNL     1      -8.179 -40.317  21.091  1.00  0.00     0.086 A 
HETATM   27  C12 UNL     1      -6.663 -42.028  19.568  1.00  0.00    -0.000 A 
HETATM   28  C13 UNL     1      -5.809 -42.921  18.741  1.00  0.00     0.053 C 
HETATM   29  C14 UNL     1      -7.905 -42.435  19.976  1.00  0.00     0.081 A 
HETATM   30  N5  UNL     1      -8.423 -43.730  19.622  1.00  0.00    -0.100 NA
HETATM   31  C15 UNL     1      -8.654 -41.572  20.737  1.00  0.00     0.100 A 
HETATM   32  N6  UNL     1      -9.942 -41.965  21.172  1.00  0.00    -0.098 NA
HETATM   33  N7  UNL     1      -8.723 -39.252  21.871  1.00  0.00    -0.363 N 
ATOM     34  H7  UNL     1      -9.706 -39.104  22.103  1.00  0.00     0.162 HD
HETATM   35  C18 UNL     1      -8.088 -37.022  22.362  1.00  0.00     0.263 C 
HETATM   36  C19 UNL     1      -7.705 -36.189  21.153  1.00  0.00     0.242 C 
BRANCH  25  37
HETATM   37  O6  UNL     1      -4.923 -40.370  19.506  1.00  0.00    -0.358 OA
ATOM     38  H6  UNL     1      -4.840 -39.776  18.769  1.00  0.00     0.217 HD
ENDBRANCH  25  37
BRANCH  35  39
HETATM   39  N8  UNL     1      -9.510 -37.003  22.514  1.00  0.00    -0.068 N 
ATOM     40  H83 UNL     1      -9.979 -36.690  21.664  1.00  0.00     0.275 HD
ATOM     41  H82 UNL     1      -9.899 -37.945  22.564  1.00  0.00     0.275 HD
ATOM     42  H81 UNL     1      -9.776 -36.440  23.322  1.00  0.00     0.275 HD
ENDBRANCH  35  39
BRANCH  36  43
HETATM   43  N9  UNL     1      -8.189 -34.838  21.286  1.00  0.00    -0.079 NA
BRANCH  43  44
HETATM   44  O7  UNL     1      -7.425 -33.913  20.695  1.00  0.00    -0.294 OA
ATOM     45  H7  UNL     1      -7.530 -33.857  19.753  1.00  0.00     0.238 HD
ENDBRANCH  43  44
ENDBRANCH  36  43
ENDBRANCH  19  20
ENDBRANCH  18  19
ENDBRANCH  15  18
ENDBRANCH  12  15
ENDBRANCH   9  12
ENDBRANCH   1   9
TORSDOF 14
ENDMDL
MODEL 3
REMARK VINA RESULT: -8.940605873      1.392      2.341
REMARK  14 active torsions:
REMARK  status: ('A' for Active; 'I' for Inactive)
REMARK       I    between atoms: C2_2  and  N1_4 
REMARK    1  A    between atoms: N1_4  and  C3_6 
REMARK    2  A    between atoms: C3_6  and  C5_9 
REMARK    3  A    between atoms: C5_9  and  O2_10 
REMARK    4  A    between atoms: C5_9  and  C6_12 
REMARK    5  A    between atoms: C6_12  and  O3_13 
REMARK    6  A    between atoms: C6_12  and  C7_15 
REMARK    7  A    between atoms: C7_15  and  O4_16 
REMARK    8  A    between atoms: C7_15  and  C8_18 
REMARK    9  A    between atoms: C8_18  and  O5_19 
REMARK   10  A    between atoms: O5_19  and  N3_20 
REMARK   11  A    between atoms: C11_24  and  O6_25 
REMARK   12  A    between atoms: C18_37  and  N8_38 
REMARK   13  A    between atoms: C19_42  and  N9_43 
REMARK   14  A    between atoms: N9_43  and  O7_44 
ROOT
HETATM    1  C3  UNL     1      -0.337 -35.813  21.456  1.00  0.00     0.223 C 
HETATM    2  C4  UNL     1       0.017 -36.597  22.647  1.00  0.00     0.087 C 
HETATM    3  N2  UNL     1       0.284 -37.230  23.591  1.00  0.00    -0.195 NA
ENDROOT
BRANCH   1   4
HETATM    4  N1  UNL     1       0.781 -34.968  21.172  1.00  0.00    -0.342 N 
HETATM    5  C2  UNL     1       0.773 -33.717  20.546  1.00  0.00     0.214 C 
HETATM    6  C1  UNL     1       2.025 -32.943  20.307  1.00  0.00     0.117 C 
HETATM    7  O1  UNL     1      -0.294 -33.185  20.154  1.00  0.00    -0.274 OA
ATOM      8  H1  UNL     1       1.694 -35.320  21.459  1.00  0.00     0.163 HD
ENDBRANCH   1   4
BRANCH   1   9
HETATM    9  C5  UNL     1      -0.722 -36.720  20.307  1.00  0.00     0.186 C 
BRANCH   9  10
HETATM   10  O2  UNL     1      -0.846 -38.005  20.794  1.00  0.00    -0.390 OA
ATOM     11  H2  UNL     1      -1.771 -38.211  20.858  1.00  0.00     0.210 HD
ENDBRANCH   9  10
BRANCH   9  12
HETATM   12  C6  UNL     1      -1.995 -36.292  19.645  1.00  0.00     0.180 C 
BRANCH  12  13
HETATM   13  O3  UNL     1      -1.689 -35.381  18.588  1.00  0.00    -0.390 OA
ATOM     14  H3  UNL     1      -1.340 -34.579  18.959  1.00  0.00     0.210 HD
ENDBRANCH  12  13
BRANCH  12  15
HETATM   15  C7  UNL     1      -2.909 -35.578  20.602  1.00  0.00     0.175 C 
BRANCH  15  16
HETATM   16  O4  UNL     1      -3.620 -34.607  19.789  1.00  0.00    -0.391 OA
ATOM     17  H4  UNL     1      -3.598 -33.801  20.292  1.00  0.00     0.210 HD
ENDBRANCH  15  16
BRANCH  15  18
HETATM   18  C8  UNL     1      -3.933 -36.508  21.182  1.00  0.00     0.228 C 
BRANCH  18  19
HETATM   19  O5  UNL     1      -5.150 -35.776  21.168  1.00  0.00    -0.298 OA
BRANCH  19  20
HETATM   20  N3  UNL     1      -6.062 -36.376  20.412  1.00  0.00    -0.155 NA
HETATM   21  C9  UNL     1      -5.616 -37.659  19.924  1.00  0.00     0.249 C 
HETATM   22  N4  UNL     1      -6.291 -38.789  20.500  1.00  0.00    -0.339 N 
HETATM   23  C10 UNL     1      -6.636 -40.103  20.000  1.00  0.00     0.096 A 
HETATM   24  C17 UNL     1      -6.804 -38.792  21.845  1.00  0.00     0.219 C 
HETATM   25  C11 UNL     1      -6.137 -40.852  18.959  1.00  0.00     0.102 A 
HETATM   26  C16 UNL     1      -7.673 -40.626  20.745  1.00  0.00     0.086 A 
HETATM   27  C12 UNL     1      -6.674 -42.116  18.665  1.00  0.00    -0.000 A 
HETATM   28  C13 UNL     1      -6.104 -42.888  17.529  1.00  0.00     0.053 C 
HETATM   29  C14 UNL     1      -7.704 -42.630  19.407  1.00  0.00     0.081 A 
HETATM   30  N5  UNL     1      -8.265 -43.923  19.118  1.00  0.00    -0.100 NA
HETATM   31  C15 UNL     1      -8.196 -41.877  20.444  1.00  0.00     0.100 A 
HETATM   32  N6  UNL     1      -9.260 -42.381  21.229  1.00  0.00    -0.098 NA
HETATM   33  N7  UNL     1      -7.972 -39.661  21.753  1.00  0.00    -0.363 N 
ATOM     34  H7  UNL     1      -8.831 -39.592  22.300  1.00  0.00     0.162 HD
HETATM   35  C18 UNL     1      -7.286 -37.441  22.223  1.00  0.00     0.263 C 
HETATM   36  C19 UNL     1      -7.343 -36.494  21.038  1.00  0.00     0.242 C 
BRANCH  25  37
HETATM   37  O6  UNL     1      -5.104 -40.355  18.207  1.00  0.00    -0.358 OA
ATOM     38  H6  UNL     1      -4.567 -40.952  17.697  1.00  0.00     0.217 HD
ENDBRANCH  25  37
BRANCH  35  39
HETATM   39  N8  UNL     1      -8.583 -37.521  22.821  1.00  0.00    -0.068 N 
ATOM     40  H83 UNL     1      -9.298 -37.084  22.239  1.00  0.00     0.275 HD
ATOM     41  H82 UNL     1      -8.945 -38.475  22.815  1.00  0.00     0.275 HD
ATOM     42  H81 UNL     1      -8.568 -37.127  23.762  1.00  0.00     0.275 HD
ENDBRANCH  35  39
BRANCH  36  43
HETATM   43  N9  UNL     1      -7.802 -35.190  21.444  1.00  0.00    -0.079 NA
BRANCH  43  44
HETATM   44  O7  UNL     1      -7.562 -34.215  20.560  1.00  0.00    -0.294 OA
ATOM     45  H7  UNL     1      -8.337 -33.760  20.253  1.00  0.00     0.238 HD
ENDBRANCH  43  44
ENDBRANCH  36  43
ENDBRANCH  19  20
ENDBRANCH  18  19
ENDBRANCH  15  18
ENDBRANCH  12  15
ENDBRANCH   9  12
ENDBRANCH   1   9
TORSDOF 14
ENDMDL
MODEL 4
REMARK VINA RESULT: -8.910987475      1.558      2.580
REMARK  14 active torsions:
REMARK  status: ('A' for Active; 'I' for Inactive)
REMARK       I    between atoms: C2_2  and  N1_4 
REMARK    1  A    between atoms: N1_4  and  C3_6 
REMARK    2  A    between atoms: C3_6  and  C5_9 
REMARK    3  A    between atoms: C5_9  and  O2_10 
REMARK    4  A    between atoms: C5_9  and  C6_12 
REMARK    5  A    between atoms: C6_12  and  O3_13 
REMARK    6  A    between atoms: C6_12  and  C7_15 
REMARK    7  A    between atoms: C7_15  and  O4_16 
REMARK    8  A    between atoms: C7_15  and  C8_18 
REMARK    9  A    between atoms: C8_18  and  O5_19 
REMARK   10  A    between atoms: O5_19  and  N3_20 
REMARK   11  A    between atoms: C11_24  and  O6_25 
REMARK   12  A    between atoms: C18_37  and  N8_38 
REMARK   13  A    between atoms: C19_42  and  N9_43 
REMARK   14  A    between atoms: N9_43  and  O7_44 
ROOT
HETATM    1  C3  UNL     1      -0.436 -35.890  21.431  1.00  0.00     0.223 C 
HETATM    2  C4  UNL     1      -0.072 -36.649  22.635  1.00  0.00     0.087 C 
HETATM    3  N2  UNL     1       0.203 -37.262  23.589  1.00  0.00    -0.195 NA
ENDROOT
BRANCH   1   4
HETATM    4  N1  UNL     1       0.661 -35.018  21.146  1.00  0.00    -0.342 N 
HETATM    5  C2  UNL     1       0.621 -33.764  20.525  1.00  0.00     0.214 C 
HETATM    6  C1  UNL     1       1.853 -32.960  20.285  1.00  0.00     0.117 C 
HETATM    7  O1  UNL     1      -0.460 -33.257  20.139  1.00  0.00    -0.274 OA
ATOM      8  H1  UNL     1       1.583 -35.350  21.429  1.00  0.00     0.163 HD
ENDBRANCH   1   4
BRANCH   1   9
HETATM    9  C5  UNL     1      -0.785 -36.822  20.290  1.00  0.00     0.186 C 
BRANCH   9  10
HETATM   10  O2  UNL     1      -0.943 -38.093  20.803  1.00  0.00    -0.390 OA
ATOM     11  H2  UNL     1      -1.130 -38.683  20.082  1.00  0.00     0.210 HD
ENDBRANCH   9  10
BRANCH   9  12
HETATM   12  C6  UNL     1      -2.025 -36.397  19.566  1.00  0.00     0.180 C 
BRANCH  12  13
HETATM   13  O3  UNL     1      -1.664 -35.536  18.485  1.00  0.00    -0.390 OA
ATOM     14  H3  UNL     1      -1.518 -34.659  18.820  1.00  0.00     0.210 HD
ENDBRANCH  12  13
BRANCH  12  15
HETATM   15  C7  UNL     1      -2.957 -35.627  20.461  1.00  0.00     0.175 C 
BRANCH  15  16
HETATM   16  O4  UNL     1      -3.483 -34.560  19.626  1.00  0.00    -0.391 OA
ATOM     17  H4  UNL     1      -4.318 -34.332  20.016  1.00  0.00     0.210 HD
ENDBRANCH  15  16
BRANCH  15  18
HETATM   18  C8  UNL     1      -4.122 -36.468  20.894  1.00  0.00     0.228 C 
BRANCH  18  19
HETATM   19  O5  UNL     1      -5.228 -35.577  20.932  1.00  0.00    -0.298 OA
BRANCH  19  20
HETATM   20  N3  UNL     1      -6.322 -36.150  20.443  1.00  0.00    -0.155 NA
HETATM   21  C9  UNL     1      -6.218 -37.588  20.399  1.00  0.00     0.249 C 
HETATM   22  N4  UNL     1      -7.059 -38.281  21.336  1.00  0.00    -0.339 N 
HETATM   23  C10 UNL     1      -7.732 -39.563  21.310  1.00  0.00     0.096 A 
HETATM   24  C17 UNL     1      -7.418 -37.734  22.618  1.00  0.00     0.219 C 
HETATM   25  C11 UNL     1      -7.517 -40.700  20.565  1.00  0.00     0.102 A 
HETATM   26  C16 UNL     1      -8.775 -39.559  22.213  1.00  0.00     0.086 A 
HETATM   27  C12 UNL     1      -8.345 -41.825  20.723  1.00  0.00    -0.000 A 
HETATM   28  C13 UNL     1      -8.077 -43.030  19.894  1.00  0.00     0.053 C 
HETATM   29  C14 UNL     1      -9.379 -41.814  21.620  1.00  0.00     0.081 A 
HETATM   30  N5  UNL     1     -10.235 -42.958  21.792  1.00  0.00    -0.100 NA
HETATM   31  C15 UNL     1      -9.585 -40.676  22.360  1.00  0.00     0.100 A 
HETATM   32  N6  UNL     1     -10.646 -40.635  23.295  1.00  0.00    -0.098 NA
HETATM   33  N7  UNL     1      -8.751 -38.281  22.850  1.00  0.00    -0.363 N 
ATOM     34  H7  UNL     1      -9.513 -37.839  23.365  1.00  0.00     0.162 HD
HETATM   35  C18 UNL     1      -7.554 -36.259  22.537  1.00  0.00     0.263 C 
HETATM   36  C19 UNL     1      -7.526 -35.752  21.106  1.00  0.00     0.242 C 
BRANCH  25  37
HETATM   37  O6  UNL     1      -6.485 -40.730  19.664  1.00  0.00    -0.358 OA
ATOM     38  H6  UNL     1      -6.578 -41.234  18.863  1.00  0.00     0.217 HD
ENDBRANCH  25  37
BRANCH  35  39
HETATM   39  N8  UNL     1      -8.769 -35.832  23.161  1.00  0.00    -0.068 N 
ATOM     40  H83 UNL     1      -8.988 -34.861  22.941  1.00  0.00     0.275 HD
ATOM     41  H82 UNL     1      -9.587 -36.273  22.740  1.00  0.00     0.275 HD
ATOM     42  H81 UNL     1      -8.728 -35.993  24.168  1.00  0.00     0.275 HD
ENDBRANCH  35  39
BRANCH  36  43
HETATM   43  N9  UNL     1      -7.646 -34.317  21.067  1.00  0.00    -0.079 NA
BRANCH  43  44
HETATM   44  O7  UNL     1      -7.199 -33.691  22.161  1.00  0.00    -0.294 OA
ATOM     45  H7  UNL     1      -7.866 -33.228  22.652  1.00  0.00     0.238 HD
ENDBRANCH  43  44
ENDBRANCH  36  43
ENDBRANCH  19  20
ENDBRANCH  18  19
ENDBRANCH  15  18
ENDBRANCH  12  15
ENDBRANCH   9  12
ENDBRANCH   1   9
TORSDOF 14
ENDMDL
MODEL 5
REMARK VINA RESULT: -8.630564208      1.465      1.838
REMARK  14 active torsions:
REMARK  status: ('A' for Active; 'I' for Inactive)
REMARK       I    between atoms: C2_2  and  N1_4 
REMARK    1  A    between atoms: N1_4  and  C3_6 
REMARK    2  A    between atoms: C3_6  and  C5_9 
REMARK    3  A    between atoms: C5_9  and  O2_10 
REMARK    4  A    between atoms: C5_9  and  C6_12 
REMARK    5  A    between atoms: C6_12  and  O3_13 
REMARK    6  A    between atoms: C6_12  and  C7_15 
REMARK    7  A    between atoms: C7_15  and  O4_16 
REMARK    8  A    between atoms: C7_15  and  C8_18 
REMARK    9  A    between atoms: C8_18  and  O5_19 
REMARK   10  A    between atoms: O5_19  and  N3_20 
REMARK   11  A    between atoms: C11_24  and  O6_25 
REMARK   12  A    between atoms: C18_37  and  N8_38 
REMARK   13  A    between atoms: C19_42  and  N9_43 
REMARK   14  A    between atoms: N9_43  and  O7_44 
ROOT
HETATM    1  C3  UNL     1      -0.835 -35.254  19.974  1.00  0.00     0.223 C 
HETATM    2  C4  UNL     1      -0.348 -35.163  18.591  1.00  0.00     0.087 C 
HETATM    3  N2  UNL     1       0.022 -35.089  17.486  1.00  0.00    -0.195 NA
ENDROOT
BRANCH   1   4
HETATM    4  N1  UNL     1       0.320 -35.294  20.816  1.00  0.00    -0.342 N 
HETATM    5  C2  UNL     1       0.560 -36.143  21.903  1.00  0.00     0.214 C 
HETATM    6  C1  UNL     1       1.818 -36.070  22.701  1.00  0.00     0.117 C 
HETATM    7  O1  UNL     1      -0.276 -37.008  22.258  1.00  0.00    -0.274 OA
ATOM      8  H1  UNL     1       1.058 -34.624  20.598  1.00  0.00     0.163 HD
ENDBRANCH   1   4
BRANCH   1   9
HETATM    9  C5  UNL     1      -1.779 -34.112  20.290  1.00  0.00     0.186 C 
BRANCH   9  10
HETATM   10  O2  UNL     1      -1.767 -33.235  19.226  1.00  0.00    -0.390 OA
ATOM     11  H2  UNL     1      -2.645 -32.889  19.117  1.00  0.00     0.210 HD
ENDBRANCH   9  10
BRANCH   9  12
HETATM   12  C6  UNL     1      -3.174 -34.584  20.558  1.00  0.00     0.180 C 
BRANCH  12  13
HETATM   13  O3  UNL     1      -3.767 -33.749  21.553  1.00  0.00    -0.390 OA
ATOM     14  H3  UNL     1      -4.613 -34.108  21.797  1.00  0.00     0.210 HD
ENDBRANCH  12  13
BRANCH  12  15
HETATM   15  C7  UNL     1      -3.195 -35.993  21.084  1.00  0.00     0.175 C 
BRANCH  15  16
HETATM   16  O4  UNL     1      -3.233 -35.854  22.530  1.00  0.00    -0.391 OA
ATOM     17  H4  UNL     1      -2.787 -35.035  22.710  1.00  0.00     0.210 HD
ENDBRANCH  15  16
BRANCH  15  18
HETATM   18  C8  UNL     1      -4.445 -36.714  20.673  1.00  0.00     0.228 C 
BRANCH  18  19
HETATM   19  O5  UNL     1      -5.481 -35.748  20.774  1.00  0.00    -0.298 OA
BRANCH  19  20
HETATM   20  N3  UNL     1      -6.658 -36.273  20.456  1.00  0.00    -0.155 NA
HETATM   21  C9  UNL     1      -6.638 -37.716  20.461  1.00  0.00     0.249 C 
HETATM   22  N4  UNL     1      -7.384 -38.323  21.528  1.00  0.00    -0.339 N 
HETATM   23  C10 UNL     1      -8.121 -39.564  21.646  1.00  0.00     0.096 A 
HETATM   24  C17 UNL     1      -7.541 -37.710  22.821  1.00  0.00     0.219 C 
HETATM   25  C11 UNL     1      -8.068 -40.738  20.930  1.00  0.00     0.102 A 
HETATM   26  C16 UNL     1      -9.034 -39.466  22.676  1.00  0.00     0.086 A 
HETATM   27  C12 UNL     1      -8.926 -41.806  21.243  1.00  0.00    -0.000 A 
HETATM   28  C13 UNL     1      -8.834 -43.054  20.439  1.00  0.00     0.053 C 
HETATM   29  C14 UNL     1      -9.830 -41.702  22.265  1.00  0.00     0.081 A 
HETATM   30  N5  UNL     1     -10.715 -42.787  22.596  1.00  0.00    -0.100 NA
HETATM   31  C15 UNL     1      -9.876 -40.528  22.975  1.00  0.00     0.100 A 
HETATM   32  N6  UNL     1     -10.801 -40.391  24.037  1.00  0.00    -0.098 NA
HETATM   33  N7  UNL     1      -8.859 -38.170  23.248  1.00  0.00    -0.363 N 
ATOM     34  H7  UNL     1      -9.522 -37.665  23.837  1.00  0.00     0.162 HD
HETATM   35  C18 UNL     1      -7.608 -36.234  22.694  1.00  0.00     0.263 C 
HETATM   36  C19 UNL     1      -7.742 -35.782  21.251  1.00  0.00     0.242 C 
BRANCH  25  37
HETATM   37  O6  UNL     1      -7.166 -40.861  19.904  1.00  0.00    -0.358 OA
ATOM     38  H6  UNL     1      -6.290 -41.178  20.088  1.00  0.00     0.217 HD
ENDBRANCH  25  37
BRANCH  35  39
HETATM   39  N8  UNL     1      -8.705 -35.715  23.452  1.00  0.00    -0.068 N 
ATOM     40  H83 UNL     1      -9.559 -35.661  22.896  1.00  0.00     0.275 HD
ATOM     41  H82 UNL     1      -9.025 -36.377  24.158  1.00  0.00     0.275 HD
ATOM     42  H81 UNL     1      -8.462 -34.812  23.861  1.00  0.00     0.275 HD
ENDBRANCH  35  39
BRANCH  36  43
HETATM   43  N9  UNL     1      -7.790 -34.345  21.165  1.00  0.00    -0.079 NA
BRANCH  43  44
HETATM   44  O7  UNL     1      -7.013 -33.708  22.049  1.00  0.00    -0.294 OA
ATOM     45  H7  UNL     1      -7.345 -32.864  22.331  1.00  0.00     0.238 HD
ENDBRANCH  43  44
ENDBRANCH  36  43
ENDBRANCH  19  20
ENDBRANCH  18  19
ENDBRANCH  15  18
ENDBRANCH  12  15
ENDBRANCH   9  12
ENDBRANCH   1   9
TORSDOF 14
ENDMDL
