MODEL 1
REMARK VINA RESULT: -9.531088348      0.000      0.000
REMARK  11 active torsions:
REMARK  status: ('A' for Active; 'I' for Inactive)
REMARK    1  A    between atoms: N1_1  and  C1_4 
REMARK    2  A    between atoms: C2_7  and  C3_8 
REMARK    3  A    between atoms: C3_8  and  C4_10 
REMARK    4  A    between atoms: C4_10  and  O2_11 
REMARK    5  A    between atoms: C4_10  and  N3_13 
REMARK    6  A    between atoms: N3_13  and  C5_15 
REMARK    7  A    between atoms: C7_19  and  C8_20 
REMARK    8  A    between atoms: C10_30  and  C11_31 
REMARK       I    between atoms: C11_31  and  N9_33 
REMARK    9  A    between atoms: N9_33  and  C12_35 
REMARK   10  A    between atoms: C12_35  and  O4_39 
REMARK   11  A    between atoms: N12_43  and  S1_44 
ROOT
HETATM    1  C5  UNL     1       2.324 -33.180  21.447  1.00  0.00     0.119 A 
HETATM    2  N4  UNL     1       2.553 -31.907  21.017  1.00  0.00    -0.351 N 
ATOM      3  H4  UNL     1       2.432 -31.706  20.024  1.00  0.00     0.166 HD
HETATM    4  C6  UNL     1       2.925 -30.913  21.815  1.00  0.00     0.105 A 
HETATM    5  C7  UNL     1       3.088 -31.183  23.157  1.00  0.00     0.027 A 
HETATM    6  C9  UNL     1       2.876 -32.456  23.668  1.00  0.00     0.037 A 
HETATM    7  C10 UNL     1       2.488 -33.452  22.767  1.00  0.00     0.077 A 
ENDROOT
BRANCH   1   8
HETATM    8  N3  UNL     1       1.914 -34.083  20.463  1.00  0.00    -0.343 N 
ATOM      9  H3  UNL     1       2.389 -34.980  20.362  1.00  0.00     0.164 HD
BRANCH   8  10
HETATM   10  C4  UNL     1       0.773 -33.731  19.557  1.00  0.00     0.297 C 
BRANCH  10  11
HETATM   11  C3  UNL     1       0.307 -34.998  18.970  1.00  0.00     0.227 C 
HETATM   12  O1  UNL     1       0.787 -35.366  17.882  1.00  0.00    -0.286 OA
BRANCH  11  13
HETATM   13  C2  UNL     1      -0.693 -35.784  19.666  1.00  0.00     0.142 A 
HETATM   14  N2  UNL     1      -0.534 -37.015  20.226  1.00  0.00    -0.184 N 
HETATM   15  C1  UNL     1      -1.704 -37.420  20.768  1.00  0.00     0.696 A 
ATOM     16  H2  UNL     1       0.335 -37.549  20.234  1.00  0.00     0.184 HD
HETATM   17  N12 UNL     1      -2.636 -36.471  20.576  1.00  0.00    -0.037 N 
HETATM   18  C13 UNL     1      -2.030 -35.468  19.907  1.00  0.00     0.184 A 
HETATM   19  N11 UNL     1      -2.674 -34.271  19.495  1.00  0.00    -0.078 NA
BRANCH  15  20
HETATM   20  N1  UNL     1      -1.943 -38.550  21.387  1.00  0.00    -0.233 N 
ATOM     21  H12 UNL     1      -1.561 -39.447  21.084  1.00  0.00     0.174 HD
ATOM     22  H11 UNL     1      -2.512 -38.690  22.221  1.00  0.00     0.174 HD
ENDBRANCH  15  20
BRANCH  17  23
HETATM   23  S1  UNL     1      -4.301 -36.507  21.073  1.00  0.00     0.231 S 
HETATM   24  O5  UNL     1      -5.203 -36.499  19.849  1.00  0.00    -0.577 OA
HETATM   25  O6  UNL     1      -4.636 -37.693  21.904  1.00  0.00    -0.577 OA
HETATM   26  O7  UNL     1      -4.654 -35.042  21.861  1.00  0.00    -0.577 OA
ENDBRANCH  17  23
ENDBRANCH  11  13
ENDBRANCH  10  11
BRANCH  10  27
HETATM   27  O2  UNL     1      -0.164 -33.153  20.395  1.00  0.00    -0.369 OA
ATOM     28  H2  UNL     1      -0.755 -33.788  20.779  1.00  0.00     0.212 HD
ENDBRANCH  10  27
ENDBRANCH   8  10
ENDBRANCH   1   8
BRANCH   7  29
HETATM   29  C11 UNL     1       2.345 -34.819  23.257  1.00  0.00     0.262 C 
HETATM   30  O3  UNL     1       3.331 -35.544  23.528  1.00  0.00    -0.267 OA
HETATM   31  N9  UNL     1       1.044 -35.355  23.426  1.00  0.00    -0.289 N 
ATOM     32  H9  UNL     1       0.307 -34.694  23.182  1.00  0.00     0.172 HD
BRANCH  31  33
HETATM   33  C12 UNL     1       0.561 -36.558  23.843  1.00  0.00     0.217 C 
HETATM   34  N10 UNL     1       0.094 -37.729  24.245  1.00  0.00    -0.365 N 
ATOM     35 2H10 UNL     1      -0.370 -37.261  25.023  1.00  0.00     0.159 HD
ATOM     36 1H10 UNL     1      -0.267 -38.630  24.558  1.00  0.00     0.159 HD
BRANCH  33  37
HETATM   37  O4  UNL     1       1.306 -37.311  22.592  1.00  0.00    -0.333 OA
ATOM     38  H4  UNL     1       1.192 -38.154  23.016  1.00  0.00     0.220 HD
ENDBRANCH  33  37
ENDBRANCH  31  33
ENDBRANCH   7  29
BRANCH   5  39
HETATM   39  C8  UNL     1       3.490 -30.111  24.078  1.00  0.00     0.148 A 
HETATM   40  N5  UNL     1       2.814 -29.016  24.417  1.00  0.00    -0.268 N 
HETATM   41  N6  UNL     1       3.549 -28.300  25.272  1.00  0.00    -0.227 N 
ATOM     42  H5  UNL     1       1.885 -28.764  24.079  1.00  0.00     0.190 HD
HETATM   43  N7  UNL     1       4.680 -28.943  25.466  1.00  0.00    -0.227 N 
ATOM     44  H6  UNL     1       3.281 -27.413  25.699  1.00  0.00     0.210 HD
HETATM   45  N8  UNL     1       4.662 -30.058  24.742  1.00  0.00    -0.268 N 
ATOM     46  H7  UNL     1       5.443 -28.638  26.070  1.00  0.00     0.210 HD
ATOM     47  H8  UNL     1       5.407 -30.754  24.697  1.00  0.00     0.190 HD
ENDBRANCH   5  39
TORSDOF 11
ENDMDL
MODEL 2
REMARK VINA RESULT: -9.411498258      1.318      1.883
REMARK  11 active torsions:
REMARK  status: ('A' for Active; 'I' for Inactive)
REMARK    1  A    between atoms: N1_1  and  C1_4 
REMARK    2  A    between atoms: C2_7  and  C3_8 
REMARK    3  A    between atoms: C3_8  and  C4_10 
REMARK    4  A    between atoms: C4_10  and  O2_11 
REMARK    5  A    between atoms: C4_10  and  N3_13 
REMARK    6  A    between atoms: N3_13  and  C5_15 
REMARK    7  A    between atoms: C7_19  and  C8_20 
REMARK    8  A    between atoms: C10_30  and  C11_31 
REMARK       I    between atoms: C11_31  and  N9_33 
REMARK    9  A    between atoms: N9_33  and  C12_35 
REMARK   10  A    between atoms: C12_35  and  O4_39 
REMARK   11  A    between atoms: N12_43  and  S1_44 
ROOT
HETATM    1  C5  UNL     1       2.259 -33.240  21.442  1.00  0.00     0.119 A 
HETATM    2  N4  UNL     1       2.468 -31.968  21.000  1.00  0.00    -0.351 N 
ATOM      3  H4  UNL     1       2.333 -31.777  20.006  1.00  0.00     0.166 HD
HETATM    4  C6  UNL     1       2.836 -30.963  21.785  1.00  0.00     0.105 A 
HETATM    5  C7  UNL     1       3.017 -31.220  23.127  1.00  0.00     0.027 A 
HETATM    6  C9  UNL     1       2.827 -32.491  23.652  1.00  0.00     0.037 A 
HETATM    7  C10 UNL     1       2.442 -33.499  22.763  1.00  0.00     0.077 A 
ENDROOT
BRANCH   1   8
HETATM    8  N3  UNL     1       1.850 -34.156  20.471  1.00  0.00    -0.343 N 
ATOM      9  H3  UNL     1       2.313 -35.062  20.394  1.00  0.00     0.164 HD
BRANCH   8  10
HETATM   10  C4  UNL     1       0.727 -33.806  19.542  1.00  0.00     0.297 C 
BRANCH  10  11
HETATM   11  C3  UNL     1       0.311 -35.066  18.906  1.00  0.00     0.227 C 
HETATM   12  O1  UNL     1       0.889 -35.433  17.867  1.00  0.00    -0.286 OA
BRANCH  11  13
HETATM   13  C2  UNL     1      -0.758 -35.848  19.498  1.00  0.00     0.142 A 
HETATM   14  N2  UNL     1      -2.081 -35.817  19.174  1.00  0.00    -0.184 N 
HETATM   15  C1  UNL     1      -2.759 -36.681  19.961  1.00  0.00     0.696 A 
ATOM     16  H2  UNL     1      -2.495 -35.232  18.449  1.00  0.00     0.184 HD
HETATM   17  N12 UNL     1      -1.902 -37.286  20.801  1.00  0.00    -0.037 N 
HETATM   18  C13 UNL     1      -0.679 -36.786  20.526  1.00  0.00     0.184 A 
HETATM   19  N11 UNL     1       0.513 -37.157  21.203  1.00  0.00    -0.078 NA
BRANCH  15  20
HETATM   20  N1  UNL     1      -4.047 -36.922  19.950  1.00  0.00    -0.233 N 
ATOM     21  H12 UNL     1      -4.722 -36.343  19.448  1.00  0.00     0.174 HD
ATOM     22  H11 UNL     1      -4.537 -37.687  20.413  1.00  0.00     0.174 HD
ENDBRANCH  15  20
BRANCH  17  23
HETATM   23  S1  UNL     1      -2.270 -38.471  22.018  1.00  0.00     0.231 S 
HETATM   24  O5  UNL     1      -2.971 -39.661  21.381  1.00  0.00    -0.577 OA
HETATM   25  O6  UNL     1      -1.068 -38.957  22.743  1.00  0.00    -0.577 OA
HETATM   26  O7  UNL     1      -3.437 -37.813  23.066  1.00  0.00    -0.577 OA
ENDBRANCH  17  23
ENDBRANCH  11  13
ENDBRANCH  10  11
BRANCH  10  27
HETATM   27  O2  UNL     1      -0.248 -33.276  20.367  1.00  0.00    -0.369 OA
ATOM     28  H2  UNL     1       0.030 -32.475  20.797  1.00  0.00     0.212 HD
ENDBRANCH  10  27
ENDBRANCH   8  10
ENDBRANCH   1   8
BRANCH   7  29
HETATM   29  C11 UNL     1       2.321 -34.864  23.266  1.00  0.00     0.262 C 
HETATM   30  O3  UNL     1       3.256 -35.695  23.188  1.00  0.00    -0.267 OA
HETATM   31  N9  UNL     1       1.099 -35.271  23.857  1.00  0.00    -0.289 N 
ATOM     32  H9  UNL     1       0.400 -34.530  23.876  1.00  0.00     0.172 HD
BRANCH  31  33
HETATM   33  C12 UNL     1       0.654 -36.436  24.405  1.00  0.00     0.217 C 
HETATM   34  N10 UNL     1       0.218 -37.566  24.937  1.00  0.00    -0.365 N 
ATOM     35 2H10 UNL     1       1.169 -37.775  25.240  1.00  0.00     0.159 HD
ATOM     36 1H10 UNL     1      -0.115 -38.439  25.348  1.00  0.00     0.159 HD
BRANCH  33  37
HETATM   37  O4  UNL     1      -0.876 -36.102  23.920  1.00  0.00    -0.333 OA
ATOM     38  H4  UNL     1      -1.196 -36.887  24.348  1.00  0.00     0.220 HD
ENDBRANCH  33  37
ENDBRANCH  31  33
ENDBRANCH   7  29
BRANCH   5  39
HETATM   39  C8  UNL     1       3.415 -30.135  24.035  1.00  0.00     0.148 A 
HETATM   40  N5  UNL     1       4.570 -29.975  24.677  1.00  0.00    -0.268 N 
HETATM   41  N6  UNL     1       4.508 -28.859  25.408  1.00  0.00    -0.227 N 
ATOM     42  H5  UNL     1       5.372 -30.602  24.619  1.00  0.00     0.190 HD
HETATM   43  N7  UNL     1       3.320 -28.324  25.226  1.00  0.00    -0.227 N 
ATOM     44  H6  UNL     1       5.250 -28.488  26.002  1.00  0.00     0.210 HD
HETATM   45  N8  UNL     1       2.635 -29.092  24.385  1.00  0.00    -0.268 N 
ATOM     46  H7  UNL     1       2.981 -27.465  25.658  1.00  0.00     0.210 HD
ATOM     47  H8  UNL     1       1.682 -28.922  24.061  1.00  0.00     0.190 HD
ENDBRANCH   5  39
TORSDOF 11
ENDMDL
MODEL 3
REMARK VINA RESULT: -9.343415925      2.544      5.287
REMARK  11 active torsions:
REMARK  status: ('A' for Active; 'I' for Inactive)
REMARK    1  A    between atoms: N1_1  and  C1_4 
REMARK    2  A    between atoms: C2_7  and  C3_8 
REMARK    3  A    between atoms: C3_8  and  C4_10 
REMARK    4  A    between atoms: C4_10  and  O2_11 
REMARK    5  A    between atoms: C4_10  and  N3_13 
REMARK    6  A    between atoms: N3_13  and  C5_15 
REMARK    7  A    between atoms: C7_19  and  C8_20 
REMARK    8  A    between atoms: C10_30  and  C11_31 
REMARK       I    between atoms: C11_31  and  N9_33 
REMARK    9  A    between atoms: N9_33  and  C12_35 
REMARK   10  A    between atoms: C12_35  and  O4_39 
REMARK   11  A    between atoms: N12_43  and  S1_44 
ROOT
HETATM    1  C5  UNL     1       1.425 -36.902  21.846  1.00  0.00     0.119 A 
HETATM    2  N4  UNL     1       1.114 -38.167  22.246  1.00  0.00    -0.351 N 
ATOM      3  H4  UNL     1       0.576 -38.754  21.607  1.00  0.00     0.166 HD
HETATM    4  C6  UNL     1       1.468 -38.681  23.417  1.00  0.00     0.105 A 
HETATM    5  C7  UNL     1       2.195 -37.889  24.281  1.00  0.00     0.027 A 
HETATM    6  C9  UNL     1       2.548 -36.589  23.945  1.00  0.00     0.037 A 
HETATM    7  C10 UNL     1       2.137 -36.117  22.695  1.00  0.00     0.077 A 
ENDROOT
BRANCH   1   8
HETATM    8  N3  UNL     1       0.988 -36.550  20.567  1.00  0.00    -0.343 N 
ATOM      9  H3  UNL     1       1.653 -36.195  19.879  1.00  0.00     0.164 HD
BRANCH   8  10
HETATM   10  C4  UNL     1      -0.459 -36.693  20.208  1.00  0.00     0.297 C 
BRANCH  10  11
HETATM   11  C3  UNL     1      -1.136 -35.496  20.732  1.00  0.00     0.227 C 
HETATM   12  O1  UNL     1      -0.520 -34.414  20.737  1.00  0.00    -0.286 OA
BRANCH  11  13
HETATM   13  C2  UNL     1      -2.494 -35.601  21.229  1.00  0.00     0.142 A 
HETATM   14  N2  UNL     1      -3.015 -36.590  22.006  1.00  0.00    -0.184 N 
HETATM   15  C1  UNL     1      -4.321 -36.337  22.247  1.00  0.00     0.696 A 
ATOM     16  H2  UNL     1      -2.499 -37.398  22.354  1.00  0.00     0.184 HD
HETATM   17  N12 UNL     1      -4.671 -35.189  21.639  1.00  0.00    -0.037 N 
HETATM   18  C13 UNL     1      -3.564 -34.732  21.017  1.00  0.00     0.184 A 
HETATM   19  N11 UNL     1      -3.509 -33.541  20.246  1.00  0.00    -0.078 NA
BRANCH  15  20
HETATM   20  N1  UNL     1      -5.155 -37.065  22.948  1.00  0.00    -0.233 N 
ATOM     21  H12 UNL     1      -4.910 -37.972  23.345  1.00  0.00     0.174 HD
ATOM     22  H11 UNL     1      -6.120 -36.839  23.189  1.00  0.00     0.174 HD
ENDBRANCH  15  20
BRANCH  17  23
HETATM   23  S1  UNL     1      -6.234 -34.430  21.632  1.00  0.00     0.231 S 
HETATM   24  O5  UNL     1      -6.691 -34.207  20.200  1.00  0.00    -0.577 OA
HETATM   25  O6  UNL     1      -7.269 -35.221  22.346  1.00  0.00    -0.577 OA
HETATM   26  O7  UNL     1      -6.066 -32.860  22.265  1.00  0.00    -0.577 OA
ENDBRANCH  17  23
ENDBRANCH  11  13
ENDBRANCH  10  11
BRANCH  10  27
HETATM   27  O2  UNL     1      -0.465 -36.749  18.826  1.00  0.00    -0.369 OA
ATOM     28  H2  UNL     1       0.059 -37.464  18.484  1.00  0.00     0.212 HD
ENDBRANCH  10  27
ENDBRANCH   8  10
ENDBRANCH   1   8
BRANCH   7  29
HETATM   29  C11 UNL     1       2.414 -34.726  22.350  1.00  0.00     0.262 C 
HETATM   30  O3  UNL     1       2.919 -34.392  21.253  1.00  0.00    -0.267 OA
HETATM   31  N9  UNL     1       2.110 -33.712  23.293  1.00  0.00    -0.289 N 
ATOM     32  H9  UNL     1       1.703 -34.078  24.153  1.00  0.00     0.172 HD
BRANCH  31  33
HETATM   33  C12 UNL     1       2.242 -32.357  23.302  1.00  0.00     0.217 C 
HETATM   34  N10 UNL     1       2.368 -31.039  23.307  1.00  0.00    -0.365 N 
ATOM     35 2H10 UNL     1       2.975 -31.115  24.123  1.00  0.00     0.159 HD
ATOM     36 1H10 UNL     1       2.466 -30.024  23.315  1.00  0.00     0.159 HD
BRANCH  33  37
HETATM   37  O4  UNL     1       1.265 -32.234  21.990  1.00  0.00    -0.333 OA
ATOM     38  H4  UNL     1       1.330 -31.287  22.016  1.00  0.00     0.220 HD
ENDBRANCH  33  37
ENDBRANCH  31  33
ENDBRANCH   7  29
BRANCH   5  39
HETATM   39  C8  UNL     1       2.617 -38.420  25.584  1.00  0.00     0.148 A 
HETATM   40  N5  UNL     1       1.856 -38.795  26.610  1.00  0.00    -0.268 N 
HETATM   41  N6  UNL     1       2.644 -39.206  27.607  1.00  0.00    -0.227 N 
ATOM     42  H5  UNL     1       0.836 -38.774  26.631  1.00  0.00     0.190 HD
HETATM   43  N7  UNL     1       3.892 -39.086  27.208  1.00  0.00    -0.227 N 
ATOM     44  H6  UNL     1       2.334 -39.550  28.516  1.00  0.00     0.210 HD
HETATM   45  N8  UNL     1       3.896 -38.606  25.968  1.00  0.00    -0.268 N 
ATOM     46  H7  UNL     1       4.719 -39.322  27.758  1.00  0.00     0.210 HD
ATOM     47  H8  UNL     1       4.724 -38.413  25.404  1.00  0.00     0.190 HD
ENDBRANCH   5  39
TORSDOF 11
ENDMDL
MODEL 4
REMARK VINA RESULT: -9.265418814      1.428      1.894
REMARK  11 active torsions:
REMARK  status: ('A' for Active; 'I' for Inactive)
REMARK    1  A    between atoms: N1_1  and  C1_4 
REMARK    2  A    between atoms: C2_7  and  C3_8 
REMARK    3  A    between atoms: C3_8  and  C4_10 
REMARK    4  A    between atoms: C4_10  and  O2_11 
REMARK    5  A    between atoms: C4_10  and  N3_13 
REMARK    6  A    between atoms: N3_13  and  C5_15 
REMARK    7  A    between atoms: C7_19  and  C8_20 
REMARK    8  A    between atoms: C10_30  and  C11_31 
REMARK       I    between atoms: C11_31  and  N9_33 
REMARK    9  A    between atoms: N9_33  and  C12_35 
REMARK   10  A    between atoms: C12_35  and  O4_39 
REMARK   11  A    between atoms: N12_43  and  S1_44 
ROOT
HETATM    1  C5  UNL     1       1.879 -33.622  21.323  1.00  0.00     0.119 A 
HETATM    2  N4  UNL     1       2.201 -32.361  20.919  1.00  0.00    -0.351 N 
ATOM      3  H4  UNL     1       2.026 -32.109  19.945  1.00  0.00     0.166 HD
HETATM    4  C6  UNL     1       2.730 -31.441  21.716  1.00  0.00     0.105 A 
HETATM    5  C7  UNL     1       2.967 -31.780  23.031  1.00  0.00     0.027 A 
HETATM    6  C9  UNL     1       2.668 -33.046  23.516  1.00  0.00     0.037 A 
HETATM    7  C10 UNL     1       2.115 -33.962  22.616  1.00  0.00     0.077 A 
ENDROOT
BRANCH   1   8
HETATM    8  N3  UNL     1       1.307 -34.440  20.346  1.00  0.00    -0.343 N 
ATOM      9  H3  UNL     1       1.846 -35.206  19.940  1.00  0.00     0.164 HD
BRANCH   8  10
HETATM   10  C4  UNL     1      -0.100 -34.191  19.895  1.00  0.00     0.297 C 
BRANCH  10  11
HETATM   11  C3  UNL     1      -0.808 -35.475  20.024  1.00  0.00     0.227 C 
HETATM   12  O1  UNL     1      -0.277 -36.501  19.562  1.00  0.00    -0.286 OA
BRANCH  11  13
HETATM   13  C2  UNL     1      -2.100 -35.517  20.681  1.00  0.00     0.142 A 
HETATM   14  N2  UNL     1      -2.540 -36.443  21.578  1.00  0.00    -0.184 N 
HETATM   15  C1  UNL     1      -3.805 -36.145  21.952  1.00  0.00     0.696 A 
ATOM     16  H2  UNL     1      -2.000 -37.239  21.916  1.00  0.00     0.184 HD
HETATM   17  N12 UNL     1      -4.206 -35.031  21.315  1.00  0.00    -0.037 N 
HETATM   18  C13 UNL     1      -3.173 -34.640  20.539  1.00  0.00     0.184 A 
HETATM   19  N11 UNL     1      -3.192 -33.502  19.689  1.00  0.00    -0.078 NA
BRANCH  15  20
HETATM   20  N1  UNL     1      -4.561 -36.808  22.791  1.00  0.00    -0.233 N 
ATOM     21  H12 UNL     1      -4.221 -37.581  23.363  1.00  0.00     0.174 HD
ATOM     22  H11 UNL     1      -5.550 -36.651  22.988  1.00  0.00     0.174 HD
ENDBRANCH  15  20
BRANCH  17  23
HETATM   23  S1  UNL     1      -5.748 -34.238  21.440  1.00  0.00     0.231 S 
HETATM   24  O5  UNL     1      -5.579 -32.887  22.114  1.00  0.00    -0.577 OA
HETATM   25  O6  UNL     1      -6.408 -34.037  20.124  1.00  0.00    -0.577 OA
HETATM   26  O7  UNL     1      -6.716 -35.125  22.521  1.00  0.00    -0.577 OA
ENDBRANCH  17  23
ENDBRANCH  11  13
ENDBRANCH  10  11
BRANCH  10  27
HETATM   27  O2  UNL     1      -0.574 -33.229  20.768  1.00  0.00    -0.369 OA
ATOM     28  H2  UNL     1       0.069 -32.556  20.960  1.00  0.00     0.212 HD
ENDBRANCH  10  27
ENDBRANCH   8  10
ENDBRANCH   1   8
BRANCH   7  29
HETATM   29  C11 UNL     1       1.874 -35.328  23.071  1.00  0.00     0.262 C 
HETATM   30  O3  UNL     1       2.762 -36.211  23.051  1.00  0.00    -0.267 OA
HETATM   31  N9  UNL     1       0.584 -35.674  23.546  1.00  0.00    -0.289 N 
ATOM     32  H9  UNL     1      -0.071 -34.893  23.525  1.00  0.00     0.172 HD
BRANCH  31  33
HETATM   33  C12 UNL     1       0.027 -36.822  24.024  1.00  0.00     0.217 C 
HETATM   34  N10 UNL     1      -0.514 -37.938  24.484  1.00  0.00    -0.365 N 
ATOM     35 2H10 UNL     1      -0.605 -37.499  25.400  1.00  0.00     0.159 HD
ATOM     36 1H10 UNL     1      -0.931 -38.797  24.842  1.00  0.00     0.159 HD
BRANCH  33  37
HETATM   37  O4  UNL     1       0.173 -37.528  22.551  1.00  0.00    -0.333 OA
ATOM     38  H4  UNL     1      -0.756 -37.409  22.389  1.00  0.00     0.220 HD
ENDBRANCH  33  37
ENDBRANCH  31  33
ENDBRANCH   7  29
BRANCH   5  39
HETATM   39  C8  UNL     1       3.543 -30.790  23.952  1.00  0.00     0.148 A 
HETATM   40  N5  UNL     1       4.648 -30.887  24.687  1.00  0.00    -0.268 N 
HETATM   41  N6  UNL     1       4.800 -29.764  25.393  1.00  0.00    -0.227 N 
ATOM     42  H5  UNL     1       5.277 -31.690  24.707  1.00  0.00     0.190 HD
HETATM   43  N7  UNL     1       3.794 -28.968  25.103  1.00  0.00    -0.227 N 
ATOM     44  H6  UNL     1       5.560 -29.560  26.042  1.00  0.00     0.210 HD
HETATM   45  N8  UNL     1       3.011 -29.580  24.219  1.00  0.00    -0.268 N 
ATOM     46  H7  UNL     1       3.639 -28.037  25.491  1.00  0.00     0.210 HD
ATOM     47  H8  UNL     1       2.156 -29.199  23.813  1.00  0.00     0.190 HD
ENDBRANCH   5  39
TORSDOF 11
ENDMDL
MODEL 5
REMARK VINA RESULT: -9.197536380      1.369      1.953
REMARK  11 active torsions:
REMARK  status: ('A' for Active; 'I' for Inactive)
REMARK    1  A    between atoms: N1_1  and  C1_4 
REMARK    2  A    between atoms: C2_7  and  C3_8 
REMARK    3  A    between atoms: C3_8  and  C4_10 
REMARK    4  A    between atoms: C4_10  and  O2_11 
REMARK    5  A    between atoms: C4_10  and  N3_13 
REMARK    6  A    between atoms: N3_13  and  C5_15 
REMARK    7  A    between atoms: C7_19  and  C8_20 
REMARK    8  A    between atoms: C10_30  and  C11_31 
REMARK       I    between atoms: C11_31  and  N9_33 
REMARK    9  A    between atoms: N9_33  and  C12_35 
REMARK   10  A    between atoms: C12_35  and  O4_39 
REMARK   11  A    between atoms: N12_43  and  S1_44 
ROOT
HETATM    1  C5  UNL     1       2.481 -33.305  21.153  1.00  0.00     0.119 A 
HETATM    2  N4  UNL     1       2.506 -31.966  20.901  1.00  0.00    -0.351 N 
ATOM      3  H4  UNL     1       2.204 -31.645  19.981  1.00  0.00     0.166 HD
HETATM    4  C6  UNL     1       2.902 -31.056  21.782  1.00  0.00     0.105 A 
HETATM    5  C7  UNL     1       3.310 -31.489  23.026  1.00  0.00     0.027 A 
HETATM    6  C9  UNL     1       3.315 -32.837  23.355  1.00  0.00     0.037 A 
HETATM    7  C10 UNL     1       2.887 -33.737  22.375  1.00  0.00     0.077 A 
ENDROOT
BRANCH   1   8
HETATM    8  N3  UNL     1       2.008 -34.105  20.111  1.00  0.00    -0.343 N 
ATOM      9  H3  UNL     1       2.565 -34.892  19.776  1.00  0.00     0.164 HD
BRANCH   8  10
HETATM   10  C4  UNL     1       0.679 -33.807  19.485  1.00  0.00     0.297 C 
BRANCH  10  11
HETATM   11  C3  UNL     1       0.125 -35.101  19.056  1.00  0.00     0.227 C 
HETATM   12  O1  UNL     1       0.672 -35.704  18.114  1.00  0.00    -0.286 OA
BRANCH  11  13
HETATM   13  C2  UNL     1      -1.037 -35.642  19.734  1.00  0.00     0.142 A 
HETATM   14  N2  UNL     1      -2.250 -35.935  19.187  1.00  0.00    -0.184 N 
HETATM   15  C1  UNL     1      -3.076 -36.408  20.147  1.00  0.00     0.696 A 
ATOM     16  H2  UNL     1      -2.497 -35.816  18.205  1.00  0.00     0.184 HD
HETATM   17  N12 UNL     1      -2.424 -36.434  21.323  1.00  0.00    -0.037 N 
HETATM   18  C13 UNL     1      -1.180 -35.970  21.081  1.00  0.00     0.184 A 
HETATM   19  N11 UNL     1      -0.170 -35.826  22.069  1.00  0.00    -0.078 NA
BRANCH  15  20
HETATM   20  N1  UNL     1      -4.322 -36.787  20.005  1.00  0.00    -0.233 N 
ATOM     21  H12 UNL     1      -4.692 -37.189  19.144  1.00  0.00     0.174 HD
ATOM     22  H11 UNL     1      -5.065 -36.741  20.702  1.00  0.00     0.174 HD
ENDBRANCH  15  20
BRANCH  17  23
HETATM   23  S1  UNL     1      -3.042 -36.947  22.864  1.00  0.00     0.231 S 
HETATM   24  O5  UNL     1      -2.642 -35.947  23.937  1.00  0.00    -0.577 OA
HETATM   25  O6  UNL     1      -4.520 -37.097  22.878  1.00  0.00    -0.577 OA
HETATM   26  O7  UNL     1      -2.240 -38.379  23.309  1.00  0.00    -0.577 OA
ENDBRANCH  17  23
ENDBRANCH  11  13
ENDBRANCH  10  11
BRANCH  10  27
HETATM   27  O2  UNL     1      -0.054 -33.222  20.502  1.00  0.00    -0.369 OA
ATOM     28  H2  UNL     1       0.059 -32.280  20.541  1.00  0.00     0.212 HD
ENDBRANCH  10  27
ENDBRANCH   8  10
ENDBRANCH   1   8
BRANCH   7  29
HETATM   29  C11 UNL     1       2.966 -35.167  22.659  1.00  0.00     0.262 C 
HETATM   30  O3  UNL     1       3.586 -35.967  21.921  1.00  0.00    -0.267 OA
HETATM   31  N9  UNL     1       2.308 -35.675  23.807  1.00  0.00    -0.289 N 
ATOM     32  H9  UNL     1       1.830 -34.952  24.345  1.00  0.00     0.172 HD
BRANCH  31  33
HETATM   33  C12 UNL     1       2.173 -36.917  24.349  1.00  0.00     0.217 C 
HETATM   34  N10 UNL     1       2.046 -38.124  24.877  1.00  0.00    -0.365 N 
ATOM     35 2H10 UNL     1       1.070 -38.135  24.581  1.00  0.00     0.159 HD
ATOM     36 1H10 UNL     1       1.945 -39.054  25.284  1.00  0.00     0.159 HD
BRANCH  33  37
HETATM   37  O4  UNL     1       3.742 -36.900  24.826  1.00  0.00    -0.333 OA
ATOM     38  H4  UNL     1       3.822 -37.827  24.634  1.00  0.00     0.220 HD
ENDBRANCH  33  37
ENDBRANCH  31  33
ENDBRANCH   7  29
BRANCH   5  39
HETATM   39  C8  UNL     1       3.747 -30.514  24.035  1.00  0.00     0.148 A 
HETATM   40  N5  UNL     1       4.762 -30.608  24.890  1.00  0.00    -0.268 N 
HETATM   41  N6  UNL     1       4.800 -29.504  25.641  1.00  0.00    -0.227 N 
ATOM     42  H5  UNL     1       5.408 -31.395  24.960  1.00  0.00     0.190 HD
HETATM   43  N7  UNL     1       3.811 -28.724  25.259  1.00  0.00    -0.227 N 
ATOM     44  H6  UNL     1       5.474 -29.302  26.380  1.00  0.00     0.210 HD
HETATM   45  N8  UNL     1       3.154 -29.327  24.273  1.00  0.00    -0.268 N 
ATOM     46  H7  UNL     1       3.586 -27.811  25.654  1.00  0.00     0.210 HD
ATOM     47  H8  UNL     1       2.341 -28.955  23.782  1.00  0.00     0.190 HD
ENDBRANCH   5  39
TORSDOF 11
ENDMDL
