MODEL 1
REMARK VINA RESULT: -8.443889622      0.000      0.000
REMARK  12 active torsions:
REMARK  status: ('A' for Active; 'I' for Inactive)
REMARK       I    between atoms: N1_2  and  C2_4 
REMARK       I    between atoms: C2_4  and  N2_5 
REMARK    1  A    between atoms: N3_7  and  N4_9 
REMARK    2  A    between atoms: N4_9  and  O1_10 
REMARK    3  A    between atoms: N5_12  and  C3_14 
REMARK    4  A    between atoms: C4_17  and  N7_18 
REMARK    5  A    between atoms: C6_24  and  N9_25 
REMARK    6  A    between atoms: N9_25  and  C7_27 
REMARK    7  A    between atoms: C7_27  and  N10_28 
REMARK    8  A    between atoms: C7_27  and  C10_39 
REMARK    9  A    between atoms: N10_28  and  N11_30 
REMARK       I    between atoms: N11_30  and  C8_32 
REMARK   10  A    between atoms: C8_32  and  C9_34 
REMARK   11  A    between atoms: C9_34  and  N12_35 
REMARK   12  A    between atoms: C11_42  and  N14_43 
REMARK       I    between atoms: N15_46  and  C12_47 
ROOT
HETATM    1  C1  UNL     1       2.042 -31.673  22.727  1.00  0.00     0.165 C 
HETATM    2  N1  UNL     1       1.804 -33.097  22.643  1.00  0.00    -0.228 N 
ATOM      3  H1  UNL     1       1.680 -33.619  23.510  1.00  0.00     0.177 HD
HETATM    4  C2  UNL     1       1.735 -33.804  21.418  1.00  0.00     0.702 C 
HETATM    5  N2  UNL     1       1.537 -35.207  21.416  1.00  0.00    -0.114 N 
ATOM      6  H2  UNL     1       2.077 -35.809  20.795  1.00  0.00     0.207 HD
HETATM    7  N3  UNL     1       0.682 -35.693  22.198  1.00  0.00    -0.186 N 
ATOM      8  H3  UNL     1       0.174 -35.040  22.794  1.00  0.00     0.213 HD
HETATM    9  N17 UNL     1       1.848 -33.173  20.307  1.00  0.00    -0.125 N 
ATOM     10  H17 UNL     1       1.986 -32.163  20.349  1.00  0.00     0.197 HD
HETATM   11  C13 UNL     1       1.795 -33.762  19.049  1.00  0.00     0.196 C 
HETATM   12  N18 UNL     1       1.737 -34.244  18.000  1.00  0.00    -0.171 NA
ENDROOT
BRANCH   7  13
HETATM   13  N4  UNL     1       0.370 -37.035  22.319  1.00  0.00    -0.078 N 
HETATM   14  N5  UNL     1      -0.587 -37.451  23.024  1.00  0.00    -0.240 N 
ATOM     15  H5  UNL     1      -1.184 -36.808  23.544  1.00  0.00     0.193 HD
BRANCH  13  16
HETATM   16  O1  UNL     1       1.139 -37.946  21.636  1.00  0.00    -0.252 OA
ATOM     17  H1  UNL     1       0.958 -38.871  21.760  1.00  0.00     0.248 HD
ENDBRANCH  13  16
BRANCH  14  18
HETATM   18  C3  UNL     1      -0.802 -38.872  23.065  1.00  0.00     0.166 A 
HETATM   19  N6  UNL     1       0.060 -39.717  23.611  1.00  0.00    -0.173 N 
HETATM   20  C4  UNL     1      -0.186 -41.056  23.653  1.00  0.00     0.677 A 
ATOM     21  H6  UNL     1       0.927 -39.356  24.010  1.00  0.00     0.186 HD
HETATM   22  N8  UNL     1      -1.330 -41.511  23.125  1.00  0.00    -0.200 N 
HETATM   23  C5  UNL     1      -2.254 -40.695  22.550  1.00  0.00     0.139 A 
ATOM     24  H8  UNL     1      -1.515 -42.514  23.155  1.00  0.00     0.183 HD
HETATM   25  C6  UNL     1      -1.992 -39.351  22.516  1.00  0.00     0.092 A 
BRANCH  20  26
HETATM   26  N7  UNL     1       0.692 -41.839  24.202  1.00  0.00    -0.234 N 
ATOM     27  H72 UNL     1       1.513 -42.179  23.702  1.00  0.00     0.174 HD
ATOM     28  H71 UNL     1       0.558 -42.129  25.171  1.00  0.00     0.174 HD
ENDBRANCH  20  26
BRANCH  25  29
HETATM   29  N9  UNL     1      -2.894 -38.446  21.912  1.00  0.00    -0.357 N 
ATOM     30  H9  UNL     1      -3.183 -37.643  22.471  1.00  0.00     0.162 HD
BRANCH  29  31
HETATM   31  C7  UNL     1      -3.441 -38.543  20.600  1.00  0.00     0.276 C 
BRANCH  31  32
HETATM   32  N10 UNL     1      -2.787 -37.824  19.563  1.00  0.00    -0.303 N 
ATOM     33  H10 UNL     1      -2.385 -38.322  18.770  1.00  0.00     0.183 HD
BRANCH  32  34
HETATM   34  N11 UNL     1      -2.700 -36.477  19.635  1.00  0.00    -0.271 N 
HETATM   35  C8  UNL     1      -1.544 -35.704  19.556  1.00  0.00     0.261 C 
HETATM   36  O2  UNL     1      -0.381 -36.140  19.406  1.00  0.00    -0.270 OA
ATOM     37  H11 UNL     1      -3.578 -35.971  19.759  1.00  0.00     0.189 HD
BRANCH  35  38
HETATM   38  C9  UNL     1      -1.701 -34.203  19.661  1.00  0.00     0.333 C 
BRANCH  38  39
HETATM   39  N12 UNL     1      -2.593 -33.893  20.753  1.00  0.00    -0.071 N 
ATOM     40 3H12 UNL     1      -3.492 -34.365  20.663  1.00  0.00     0.274 HD
ATOM     41 2H12 UNL     1      -2.294 -34.318  21.630  1.00  0.00     0.274 HD
ATOM     42 1H12 UNL     1      -2.693 -32.881  20.828  1.00  0.00     0.274 HD
ENDBRANCH  38  39
ENDBRANCH  35  38
ENDBRANCH  32  34
ENDBRANCH  31  32
BRANCH  31  43
HETATM   43  C10 UNL     1      -4.866 -37.999  20.640  1.00  0.00     0.206 A 
HETATM   44  N13 UNL     1      -5.991 -38.673  20.335  1.00  0.00    -0.166 N 
HETATM   45  C11 UNL     1      -7.040 -37.841  20.499  1.00  0.00     0.709 A 
ATOM     46  H13 UNL     1      -6.040 -39.646  20.032  1.00  0.00     0.186 HD
HETATM   47  N15 UNL     1      -6.547 -36.666  20.902  1.00  0.00     0.010 N 
HETATM   48  C12 UNL     1      -7.312 -35.507  21.196  1.00  0.00     0.375 C 
HETATM   49  O4  UNL     1      -5.243 -36.792  20.977  1.00  0.00    -0.195 OA
HETATM   50  N16 UNL     1      -6.768 -34.271  21.629  1.00  0.00    -0.037 NA
HETATM   51  O3  UNL     1      -8.586 -35.567  21.066  1.00  0.00    -0.248 OA
BRANCH  45  52
HETATM   52  N14 UNL     1      -8.297 -38.151  20.295  1.00  0.00    -0.232 N 
ATOM     53 2H14 UNL     1      -9.074 -37.511  20.127  1.00  0.00     0.174 HD
ATOM     54 1H14 UNL     1      -8.679 -39.097  20.275  1.00  0.00     0.174 HD
ENDBRANCH  45  52
ENDBRANCH  31  43
ENDBRANCH  29  31
ENDBRANCH  25  29
ENDBRANCH  14  18
ENDBRANCH   7  13
TORSDOF 12
ENDMDL
MODEL 2
REMARK VINA RESULT: -8.232557552      2.471      5.594
REMARK  12 active torsions:
REMARK  status: ('A' for Active; 'I' for Inactive)
REMARK       I    between atoms: N1_2  and  C2_4 
REMARK       I    between atoms: C2_4  and  N2_5 
REMARK    1  A    between atoms: N3_7  and  N4_9 
REMARK    2  A    between atoms: N4_9  and  O1_10 
REMARK    3  A    between atoms: N5_12  and  C3_14 
REMARK    4  A    between atoms: C4_17  and  N7_18 
REMARK    5  A    between atoms: C6_24  and  N9_25 
REMARK    6  A    between atoms: N9_25  and  C7_27 
REMARK    7  A    between atoms: C7_27  and  N10_28 
REMARK    8  A    between atoms: C7_27  and  C10_39 
REMARK    9  A    between atoms: N10_28  and  N11_30 
REMARK       I    between atoms: N11_30  and  C8_32 
REMARK   10  A    between atoms: C8_32  and  C9_34 
REMARK   11  A    between atoms: C9_34  and  N12_35 
REMARK   12  A    between atoms: C11_42  and  N14_43 
REMARK       I    between atoms: N15_46  and  C12_47 
ROOT
HETATM    1  C1  UNL     1      -8.281 -36.781  23.962  1.00  0.00     0.165 C 
HETATM    2  N1  UNL     1      -6.868 -36.869  23.666  1.00  0.00    -0.228 N 
ATOM      3  H1  UNL     1      -6.363 -36.008  23.459  1.00  0.00     0.177 HD
HETATM    4  C2  UNL     1      -6.150 -38.089  23.649  1.00  0.00     0.702 C 
HETATM    5  N2  UNL     1      -4.774 -38.101  23.311  1.00  0.00    -0.114 N 
ATOM      6  H2  UNL     1      -4.397 -38.812  22.685  1.00  0.00     0.207 HD
HETATM    7  N3  UNL     1      -4.030 -37.216  23.800  1.00  0.00    -0.186 N 
ATOM      8  H3  UNL     1      -4.464 -36.533  24.419  1.00  0.00     0.213 HD
HETATM    9  N17 UNL     1      -6.745 -39.187  23.943  1.00  0.00    -0.125 N 
ATOM     10  H17 UNL     1      -7.735 -39.137  24.184  1.00  0.00     0.197 HD
HETATM   11  C13 UNL     1      -6.142 -40.439  23.960  1.00  0.00     0.196 C 
HETATM   12  N18 UNL     1      -5.642 -41.481  23.989  1.00  0.00    -0.171 NA
ENDROOT
BRANCH   7  13
HETATM   13  N4  UNL     1      -2.671 -37.086  23.571  1.00  0.00    -0.078 N 
HETATM   14  N5  UNL     1      -1.978 -38.000  23.050  1.00  0.00    -0.240 N 
ATOM     15  H5  UNL     1      -2.393 -38.888  22.769  1.00  0.00     0.193 HD
BRANCH  13  16
HETATM   16  O1  UNL     1      -2.061 -35.908  23.926  1.00  0.00    -0.252 OA
ATOM     17  H1  UNL     1      -2.168 -35.156  23.355  1.00  0.00     0.248 HD
ENDBRANCH  13  16
BRANCH  14  18
HETATM   18  C3  UNL     1      -0.575 -37.737  22.870  1.00  0.00     0.166 A 
HETATM   19  N6  UNL     1       0.328 -37.958  23.813  1.00  0.00    -0.173 N 
HETATM   20  C4  UNL     1       1.651 -37.719  23.600  1.00  0.00     0.677 A 
ATOM     21  H6  UNL     1       0.025 -38.317  24.719  1.00  0.00     0.186 HD
HETATM   22  N8  UNL     1       2.031 -37.249  22.405  1.00  0.00    -0.200 N 
HETATM   23  C5  UNL     1       1.151 -37.000  21.396  1.00  0.00     0.139 A 
ATOM     24  H8  UNL     1       3.022 -37.069  22.244  1.00  0.00     0.183 HD
HETATM   25  C6  UNL     1      -0.177 -37.246  21.626  1.00  0.00     0.092 A 
BRANCH  20  26
HETATM   26  N7  UNL     1       2.495 -37.955  24.558  1.00  0.00    -0.234 N 
ATOM     27  H72 UNL     1       2.334 -37.653  25.519  1.00  0.00     0.174 HD
ATOM     28  H71 UNL     1       3.354 -38.462  24.346  1.00  0.00     0.174 HD
ENDBRANCH  20  26
BRANCH  25  29
HETATM   29  N9  UNL     1      -1.150 -36.988  20.634  1.00  0.00    -0.357 N 
ATOM     30  H9  UNL     1      -1.535 -37.797  20.147  1.00  0.00     0.162 HD
BRANCH  29  31
HETATM   31  C7  UNL     1      -1.645 -35.710  20.246  1.00  0.00     0.276 C 
BRANCH  31  32
HETATM   32  N10 UNL     1      -1.191 -34.582  20.980  1.00  0.00    -0.303 N 
ATOM     33  H10 UNL     1      -1.677 -34.293  21.829  1.00  0.00     0.183 HD
BRANCH  32  34
HETATM   34  N11 UNL     1      -0.112 -33.892  20.547  1.00  0.00    -0.271 N 
HETATM   35  C8  UNL     1       1.039 -33.591  21.272  1.00  0.00     0.261 C 
HETATM   36  O2  UNL     1       1.262 -33.915  22.459  1.00  0.00    -0.270 OA
ATOM     37  H11 UNL     1      -0.143 -33.554  19.585  1.00  0.00     0.189 HD
BRANCH  35  38
HETATM   38  C9  UNL     1       2.120 -32.801  20.567  1.00  0.00     0.333 C 
BRANCH  38  39
HETATM   39  N12 UNL     1       3.263 -33.654  20.343  1.00  0.00    -0.071 N 
ATOM     40 3H12 UNL     1       3.850 -33.739  21.173  1.00  0.00     0.274 HD
ATOM     41 2H12 UNL     1       3.001 -34.635  20.250  1.00  0.00     0.274 HD
ATOM     42 1H12 UNL     1       3.782 -33.314  19.534  1.00  0.00     0.274 HD
ENDBRANCH  38  39
ENDBRANCH  35  38
ENDBRANCH  32  34
ENDBRANCH  31  32
BRANCH  31  43
HETATM   43  C10 UNL     1      -3.162 -35.722  20.411  1.00  0.00     0.206 A 
HETATM   44  N13 UNL     1      -4.000 -36.714  20.055  1.00  0.00    -0.166 N 
HETATM   45  C11 UNL     1      -5.257 -36.339  20.370  1.00  0.00     0.709 A 
ATOM     46  H13 UNL     1      -3.730 -37.597  19.622  1.00  0.00     0.186 HD
HETATM   47  N15 UNL     1      -5.176 -35.121  20.915  1.00  0.00     0.010 N 
HETATM   48  C12 UNL     1      -6.272 -34.356  21.394  1.00  0.00     0.375 C 
HETATM   49  O4  UNL     1      -3.910 -34.778  20.926  1.00  0.00    -0.195 OA
HETATM   50  N16 UNL     1      -6.162 -33.067  21.975  1.00  0.00    -0.037 NA
HETATM   51  O3  UNL     1      -7.450 -34.852  21.302  1.00  0.00    -0.248 OA
BRANCH  45  52
HETATM   52  N14 UNL     1      -6.338 -37.052  20.170  1.00  0.00    -0.232 N 
ATOM     53 2H14 UNL     1      -6.435 -38.065  20.241  1.00  0.00     0.174 HD
ATOM     54 1H14 UNL     1      -7.253 -36.682  19.908  1.00  0.00     0.174 HD
ENDBRANCH  45  52
ENDBRANCH  31  43
ENDBRANCH  29  31
ENDBRANCH  25  29
ENDBRANCH  14  18
ENDBRANCH   7  13
TORSDOF 12
ENDMDL
MODEL 3
REMARK VINA RESULT: -8.169932845      2.850      6.352
REMARK  12 active torsions:
REMARK  status: ('A' for Active; 'I' for Inactive)
REMARK       I    between atoms: N1_2  and  C2_4 
REMARK       I    between atoms: C2_4  and  N2_5 
REMARK    1  A    between atoms: N3_7  and  N4_9 
REMARK    2  A    between atoms: N4_9  and  O1_10 
REMARK    3  A    between atoms: N5_12  and  C3_14 
REMARK    4  A    between atoms: C4_17  and  N7_18 
REMARK    5  A    between atoms: C6_24  and  N9_25 
REMARK    6  A    between atoms: N9_25  and  C7_27 
REMARK    7  A    between atoms: C7_27  and  N10_28 
REMARK    8  A    between atoms: C7_27  and  C10_39 
REMARK    9  A    between atoms: N10_28  and  N11_30 
REMARK       I    between atoms: N11_30  and  C8_32 
REMARK   10  A    between atoms: C8_32  and  C9_34 
REMARK   11  A    between atoms: C9_34  and  N12_35 
REMARK   12  A    between atoms: C11_42  and  N14_43 
REMARK       I    between atoms: N15_46  and  C12_47 
ROOT
HETATM    1  C1  UNL     1      -6.339 -35.432  21.288  1.00  0.00     0.165 C 
HETATM    2  N1  UNL     1      -5.026 -35.724  21.819  1.00  0.00    -0.228 N 
ATOM      3  H1  UNL     1      -4.938 -36.463  22.516  1.00  0.00     0.177 HD
HETATM    4  C2  UNL     1      -3.853 -35.035  21.420  1.00  0.00     0.702 C 
HETATM    5  N2  UNL     1      -2.606 -35.350  22.014  1.00  0.00    -0.114 N 
ATOM      6  H2  UNL     1      -1.963 -34.612  22.298  1.00  0.00     0.207 HD
HETATM    7  N3  UNL     1      -2.312 -36.559  22.183  1.00  0.00    -0.186 N 
ATOM      8  H3  UNL     1      -2.995 -37.252  21.878  1.00  0.00     0.213 HD
HETATM    9  N17 UNL     1      -3.920 -34.126  20.517  1.00  0.00    -0.125 N 
ATOM     10  H17 UNL     1      -4.836 -33.930  20.112  1.00  0.00     0.197 HD
HETATM   11  C13 UNL     1      -2.839 -33.389  20.049  1.00  0.00     0.196 C 
HETATM   12  N18 UNL     1      -1.941 -32.783  19.646  1.00  0.00    -0.171 NA
ENDROOT
BRANCH   7  13
HETATM   13  N4  UNL     1      -1.140 -37.034  22.746  1.00  0.00    -0.078 N 
HETATM   14  N5  UNL     1      -0.617 -36.516  23.768  1.00  0.00    -0.240 N 
ATOM     15  H5  UNL     1      -1.039 -35.713  24.233  1.00  0.00     0.193 HD
BRANCH  13  16
HETATM   16  O1  UNL     1      -0.530 -38.118  22.162  1.00  0.00    -0.252 OA
ATOM     17  H1  UNL     1       0.018 -38.672  22.705  1.00  0.00     0.248 HD
ENDBRANCH  13  16
BRANCH  14  18
HETATM   18  C3  UNL     1       0.603 -37.106  24.250  1.00  0.00     0.166 A 
HETATM   19  N6  UNL     1       0.650 -38.298  24.826  1.00  0.00    -0.173 N 
HETATM   20  C4  UNL     1       1.826 -38.837  25.251  1.00  0.00     0.677 A 
ATOM     21  H6  UNL     1      -0.215 -38.824  24.953  1.00  0.00     0.186 HD
HETATM   22  N8  UNL     1       2.951 -38.131  25.076  1.00  0.00    -0.200 N 
HETATM   23  C5  UNL     1       2.968 -36.901  24.492  1.00  0.00     0.139 A 
ATOM     24  H8  UNL     1       3.833 -38.533  25.394  1.00  0.00     0.183 HD
HETATM   25  C6  UNL     1       1.777 -36.374  24.070  1.00  0.00     0.092 A 
BRANCH  20  26
HETATM   26  N7  UNL     1       1.815 -40.009  25.807  1.00  0.00    -0.234 N 
ATOM     27  H72 UNL     1       1.436 -40.834  25.343  1.00  0.00     0.174 HD
ATOM     28  H71 UNL     1       2.200 -40.115  26.746  1.00  0.00     0.174 HD
ENDBRANCH  20  26
BRANCH  25  29
HETATM   29  N9  UNL     1       1.715 -35.092  23.478  1.00  0.00    -0.357 N 
ATOM     30  H9  UNL     1       1.023 -34.444  23.856  1.00  0.00     0.162 HD
BRANCH  29  31
HETATM   31  C7  UNL     1       2.522 -34.614  22.406  1.00  0.00     0.276 C 
BRANCH  31  32
HETATM   32  N10 UNL     1       2.957 -33.262  22.467  1.00  0.00    -0.303 N 
ATOM     33  H10 UNL     1       3.528 -32.874  21.716  1.00  0.00     0.183 HD
BRANCH  32  34
HETATM   34  N11 UNL     1       2.613 -32.494  23.524  1.00  0.00    -0.271 N 
HETATM   35  C8  UNL     1       2.498 -31.106  23.552  1.00  0.00     0.261 C 
HETATM   36  O2  UNL     1       2.701 -30.335  22.588  1.00  0.00    -0.270 OA
ATOM     37  H11 UNL     1       2.414 -32.984  24.397  1.00  0.00     0.189 HD
BRANCH  35  38
HETATM   38  C9  UNL     1       2.094 -30.467  24.862  1.00  0.00     0.333 C 
BRANCH  38  39
HETATM   39  N12 UNL     1       1.577 -29.144  24.607  1.00  0.00    -0.071 N 
ATOM     40 3H12 UNL     1       2.091 -28.424  25.114  1.00  0.00     0.274 HD
ATOM     41 2H12 UNL     1       1.780 -28.825  23.659  1.00  0.00     0.274 HD
ATOM     42 1H12 UNL     1       0.579 -29.126  24.815  1.00  0.00     0.274 HD
ENDBRANCH  38  39
ENDBRANCH  35  38
ENDBRANCH  32  34
ENDBRANCH  31  32
BRANCH  31  43
HETATM   43  C10 UNL     1       1.712 -34.725  21.118  1.00  0.00     0.206 A 
HETATM   44  N13 UNL     1       1.804 -33.922  20.041  1.00  0.00    -0.166 N 
HETATM   45  C11 UNL     1       0.923 -34.355  19.115  1.00  0.00     0.709 A 
ATOM     46  H13 UNL     1       2.432 -33.124  19.943  1.00  0.00     0.186 HD
HETATM   47  N15 UNL     1       0.301 -35.417  19.634  1.00  0.00     0.010 N 
HETATM   48  C12 UNL     1      -0.704 -36.183  18.988  1.00  0.00     0.375 C 
HETATM   49  O4  UNL     1       0.795 -35.615  20.834  1.00  0.00    -0.195 OA
HETATM   50  N16 UNL     1      -1.346 -37.313  19.555  1.00  0.00    -0.037 NA
HETATM   51  O3  UNL     1      -1.066 -35.843  17.806  1.00  0.00    -0.248 OA
BRANCH  45  52
HETATM   52  N14 UNL     1       0.732 -33.817  17.935  1.00  0.00    -0.232 N 
ATOM     53 2H14 UNL     1       1.272 -33.979  17.085  1.00  0.00     0.174 HD
ATOM     54 1H14 UNL     1       0.001 -33.146  17.701  1.00  0.00     0.174 HD
ENDBRANCH  45  52
ENDBRANCH  31  43
ENDBRANCH  29  31
ENDBRANCH  25  29
ENDBRANCH  14  18
ENDBRANCH   7  13
TORSDOF 12
ENDMDL
MODEL 4
REMARK VINA RESULT: -8.133846766      2.808      7.064
REMARK  12 active torsions:
REMARK  status: ('A' for Active; 'I' for Inactive)
REMARK       I    between atoms: N1_2  and  C2_4 
REMARK       I    between atoms: C2_4  and  N2_5 
REMARK    1  A    between atoms: N3_7  and  N4_9 
REMARK    2  A    between atoms: N4_9  and  O1_10 
REMARK    3  A    between atoms: N5_12  and  C3_14 
REMARK    4  A    between atoms: C4_17  and  N7_18 
REMARK    5  A    between atoms: C6_24  and  N9_25 
REMARK    6  A    between atoms: N9_25  and  C7_27 
REMARK    7  A    between atoms: C7_27  and  N10_28 
REMARK    8  A    between atoms: C7_27  and  C10_39 
REMARK    9  A    between atoms: N10_28  and  N11_30 
REMARK       I    between atoms: N11_30  and  C8_32 
REMARK   10  A    between atoms: C8_32  and  C9_34 
REMARK   11  A    between atoms: C9_34  and  N12_35 
REMARK   12  A    between atoms: C11_42  and  N14_43 
REMARK       I    between atoms: N15_46  and  C12_47 
ROOT
HETATM    1  C1  UNL     1      -6.185 -34.225  21.096  1.00  0.00     0.165 C 
HETATM    2  N1  UNL     1      -4.961 -34.920  21.425  1.00  0.00    -0.228 N 
ATOM      3  H1  UNL     1      -4.076 -34.512  21.122  1.00  0.00     0.177 HD
HETATM    4  C2  UNL     1      -4.925 -36.139  22.147  1.00  0.00     0.702 C 
HETATM    5  N2  UNL     1      -3.688 -36.782  22.398  1.00  0.00    -0.114 N 
ATOM      6  H2  UNL     1      -3.592 -37.791  22.283  1.00  0.00     0.207 HD
HETATM    7  N3  UNL     1      -2.712 -36.082  22.765  1.00  0.00    -0.186 N 
ATOM      8  H3  UNL     1      -2.870 -35.079  22.862  1.00  0.00     0.213 HD
HETATM    9  N17 UNL     1      -6.016 -36.660  22.577  1.00  0.00    -0.125 N 
ATOM     10  H17 UNL     1      -6.886 -36.165  22.378  1.00  0.00     0.197 HD
HETATM   11  C13 UNL     1      -6.100 -37.848  23.294  1.00  0.00     0.196 C 
HETATM   12  N18 UNL     1      -6.176 -38.827  23.903  1.00  0.00    -0.171 NA
ENDROOT
BRANCH   7  13
HETATM   13  N4  UNL     1      -1.443 -36.552  23.048  1.00  0.00    -0.078 N 
HETATM   14  N5  UNL     1      -0.777 -36.161  24.044  1.00  0.00    -0.240 N 
ATOM     15  H5  UNL     1      -1.151 -35.471  24.695  1.00  0.00     0.193 HD
BRANCH  13  16
HETATM   16  O1  UNL     1      -0.892 -37.488  22.206  1.00  0.00    -0.252 OA
ATOM     17  H1  UNL     1      -0.155 -37.229  21.666  1.00  0.00     0.248 HD
ENDBRANCH  13  16
BRANCH  14  18
HETATM   18  C3  UNL     1       0.532 -36.729  24.222  1.00  0.00     0.166 A 
HETATM   19  N6  UNL     1       0.728 -37.986  24.591  1.00  0.00    -0.173 N 
HETATM   20  C4  UNL     1       1.982 -38.499  24.730  1.00  0.00     0.677 A 
ATOM     21  H6  UNL     1      -0.078 -38.583  24.776  1.00  0.00     0.186 HD
HETATM   22  N8  UNL     1       3.029 -37.700  24.483  1.00  0.00    -0.200 N 
HETATM   23  C5  UNL     1       2.892 -36.400  24.102  1.00  0.00     0.139 A 
ATOM     24  H8  UNL     1       3.969 -38.082  24.586  1.00  0.00     0.183 HD
HETATM   25  C6  UNL     1       1.624 -35.900  23.967  1.00  0.00     0.092 A 
BRANCH  20  26
HETATM   26  N7  UNL     1       2.118 -39.738  25.092  1.00  0.00    -0.234 N 
ATOM     27  H72 UNL     1       1.914 -40.518  24.468  1.00  0.00     0.174 HD
ATOM     28  H71 UNL     1       2.442 -39.944  26.037  1.00  0.00     0.174 HD
ENDBRANCH  20  26
BRANCH  25  29
HETATM   29  N9  UNL     1       1.406 -34.553  23.599  1.00  0.00    -0.357 N 
ATOM     30  H9  UNL     1       0.684 -34.048  24.113  1.00  0.00     0.162 HD
BRANCH  29  31
HETATM   31  C7  UNL     1       2.094 -33.831  22.582  1.00  0.00     0.276 C 
BRANCH  31  32
HETATM   32  N10 UNL     1       2.072 -32.412  22.658  1.00  0.00    -0.303 N 
ATOM     33  H10 UNL     1       1.278 -31.892  22.285  1.00  0.00     0.183 HD
BRANCH  32  34
HETATM   34  N11 UNL     1       3.108 -31.755  23.225  1.00  0.00    -0.271 N 
HETATM   35  C8  UNL     1       3.107 -31.073  24.439  1.00  0.00     0.261 C 
HETATM   36  O2  UNL     1       2.131 -30.956  25.212  1.00  0.00    -0.270 OA
ATOM     37  H11 UNL     1       3.987 -31.760  22.707  1.00  0.00     0.189 HD
BRANCH  35  38
HETATM   38  C9  UNL     1       4.398 -30.412  24.868  1.00  0.00     0.333 C 
BRANCH  38  39
HETATM   39  N12 UNL     1       4.154 -29.014  25.128  1.00  0.00    -0.071 N 
ATOM     40 3H12 UNL     1       4.263 -28.779  26.114  1.00  0.00     0.274 HD
ATOM     41 2H12 UNL     1       4.892 -28.416  24.755  1.00  0.00     0.274 HD
ATOM     42 1H12 UNL     1       3.233 -28.761  24.769  1.00  0.00     0.274 HD
ENDBRANCH  38  39
ENDBRANCH  35  38
ENDBRANCH  32  34
ENDBRANCH  31  32
BRANCH  31  43
HETATM   43  C10 UNL     1       1.455 -34.179  21.241  1.00  0.00     0.206 A 
HETATM   44  N13 UNL     1       1.961 -33.920  20.020  1.00  0.00    -0.166 N 
HETATM   45  C11 UNL     1       1.096 -34.387  19.096  1.00  0.00     0.709 A 
ATOM     46  H13 UNL     1       2.846 -33.451  19.828  1.00  0.00     0.186 HD
HETATM   47  N15 UNL     1       0.070 -34.927  19.760  1.00  0.00     0.010 N 
HETATM   48  C12 UNL     1      -1.065 -35.541  19.168  1.00  0.00     0.375 C 
HETATM   49  O4  UNL     1       0.313 -34.787  21.042  1.00  0.00    -0.195 OA
HETATM   50  N16 UNL     1      -2.141 -36.114  19.893  1.00  0.00    -0.037 NA
HETATM   51  O3  UNL     1      -1.137 -35.589  17.889  1.00  0.00    -0.248 OA
BRANCH  45  52
HETATM   52  N14 UNL     1       1.256 -34.314  17.797  1.00  0.00    -0.232 N 
ATOM     53 2H14 UNL     1       1.796 -33.624  17.277  1.00  0.00     0.174 HD
ATOM     54 1H14 UNL     1       0.851 -34.954  17.113  1.00  0.00     0.174 HD
ENDBRANCH  45  52
ENDBRANCH  31  43
ENDBRANCH  29  31
ENDBRANCH  25  29
ENDBRANCH  14  18
ENDBRANCH   7  13
TORSDOF 12
ENDMDL
MODEL 5
REMARK VINA RESULT: -8.082126127      1.629      1.986
REMARK  12 active torsions:
REMARK  status: ('A' for Active; 'I' for Inactive)
REMARK       I    between atoms: N1_2  and  C2_4 
REMARK       I    between atoms: C2_4  and  N2_5 
REMARK    1  A    between atoms: N3_7  and  N4_9 
REMARK    2  A    between atoms: N4_9  and  O1_10 
REMARK    3  A    between atoms: N5_12  and  C3_14 
REMARK    4  A    between atoms: C4_17  and  N7_18 
REMARK    5  A    between atoms: C6_24  and  N9_25 
REMARK    6  A    between atoms: N9_25  and  C7_27 
REMARK    7  A    between atoms: C7_27  and  N10_28 
REMARK    8  A    between atoms: C7_27  and  C10_39 
REMARK    9  A    between atoms: N10_28  and  N11_30 
REMARK       I    between atoms: N11_30  and  C8_32 
REMARK   10  A    between atoms: C8_32  and  C9_34 
REMARK   11  A    between atoms: C9_34  and  N12_35 
REMARK   12  A    between atoms: C11_42  and  N14_43 
REMARK       I    between atoms: N15_46  and  C12_47 
ROOT
HETATM    1  C1  UNL     1       2.464 -30.930  24.427  1.00  0.00     0.165 C 
HETATM    2  N1  UNL     1       2.260 -32.342  24.188  1.00  0.00    -0.228 N 
ATOM      3  H1  UNL     1       1.939 -32.922  24.963  1.00  0.00     0.177 HD
HETATM    4  C2  UNL     1       2.484 -32.961  22.934  1.00  0.00     0.702 C 
HETATM    5  N2  UNL     1       2.300 -34.358  22.786  1.00  0.00    -0.114 N 
ATOM      6  H2  UNL     1       2.974 -34.921  22.268  1.00  0.00     0.207 HD
HETATM    7  N3  UNL     1       1.288 -34.887  23.309  1.00  0.00    -0.186 N 
ATOM      8  H3  UNL     1       0.651 -34.273  23.815  1.00  0.00     0.213 HD
HETATM    9  N17 UNL     1       2.850 -32.254  21.928  1.00  0.00    -0.125 N 
ATOM     10  H17 UNL     1       2.969 -31.251  22.073  1.00  0.00     0.197 HD
HETATM   11  C13 UNL     1       3.097 -32.753  20.654  1.00  0.00     0.196 C 
HETATM   12  N18 UNL     1       3.289 -33.159  19.589  1.00  0.00    -0.171 NA
ENDROOT
BRANCH   7  13
HETATM   13  N4  UNL     1       0.964 -36.231  23.259  1.00  0.00    -0.078 N 
HETATM   14  N5  UNL     1       0.259 -36.796  24.137  1.00  0.00    -0.240 N 
ATOM     15  H5  UNL     1      -0.109 -36.280  24.936  1.00  0.00     0.193 HD
BRANCH  13  16
HETATM   16  O1  UNL     1       1.430 -36.974  22.201  1.00  0.00    -0.252 OA
ATOM     17  H1  UNL     1       1.614 -36.526  21.383  1.00  0.00     0.248 HD
ENDBRANCH  13  16
BRANCH  14  18
HETATM   18  C3  UNL     1      -0.003 -38.200  23.966  1.00  0.00     0.166 A 
HETATM   19  N6  UNL     1       0.858 -39.143  24.318  1.00  0.00    -0.173 N 
HETATM   20  C4  UNL     1       0.569 -40.464  24.162  1.00  0.00     0.677 A 
ATOM     21  H6  UNL     1       1.758 -38.873  24.716  1.00  0.00     0.186 HD
HETATM   22  N8  UNL     1      -0.618 -40.799  23.638  1.00  0.00    -0.200 N 
HETATM   23  C5  UNL     1      -1.543 -39.878  23.256  1.00  0.00     0.139 A 
ATOM     24  H8  UNL     1      -0.837 -41.789  23.520  1.00  0.00     0.183 HD
HETATM   25  C6  UNL     1      -1.237 -38.553  23.420  1.00  0.00     0.092 A 
BRANCH  20  26
HETATM   26  N7  UNL     1       1.447 -41.347  24.526  1.00  0.00    -0.234 N 
ATOM     27  H72 UNL     1       1.515 -41.692  25.483  1.00  0.00     0.174 HD
ATOM     28  H71 UNL     1       2.098 -41.713  23.831  1.00  0.00     0.174 HD
ENDBRANCH  20  26
BRANCH  25  29
HETATM   29  N9  UNL     1      -2.139 -37.540  23.022  1.00  0.00    -0.357 N 
ATOM     30  H9  UNL     1      -2.821 -37.234  23.716  1.00  0.00     0.162 HD
BRANCH  29  31
HETATM   31  C7  UNL     1      -2.191 -36.904  21.749  1.00  0.00     0.276 C 
BRANCH  31  32
HETATM   32  N10 UNL     1      -1.468 -35.691  21.593  1.00  0.00    -0.303 N 
ATOM     33  H10 UNL     1      -1.356 -35.056  22.384  1.00  0.00     0.183 HD
BRANCH  32  34
HETATM   34  N11 UNL     1      -0.929 -35.381  20.393  1.00  0.00    -0.271 N 
HETATM   35  C8  UNL     1      -0.279 -34.200  20.043  1.00  0.00     0.261 C 
HETATM   36  O2  UNL     1      -0.087 -33.220  20.796  1.00  0.00    -0.270 OA
ATOM     37  H11 UNL     1      -1.007 -36.090  19.663  1.00  0.00     0.189 HD
BRANCH  35  38
HETATM   38  C9  UNL     1       0.244 -34.085  18.629  1.00  0.00     0.333 C 
BRANCH  38  39
HETATM   39  N12 UNL     1       1.112 -35.204  18.349  1.00  0.00    -0.071 N 
ATOM     40 3H12 UNL     1       1.601 -35.532  19.182  1.00  0.00     0.274 HD
ATOM     41 2H12 UNL     1       0.590 -36.056  18.143  1.00  0.00     0.274 HD
ATOM     42 1H12 UNL     1       1.754 -34.952  17.597  1.00  0.00     0.274 HD
ENDBRANCH  38  39
ENDBRANCH  35  38
ENDBRANCH  32  34
ENDBRANCH  31  32
BRANCH  31  43
HETATM   43  C10 UNL     1      -3.646 -36.553  21.455  1.00  0.00     0.206 A 
HETATM   44  N13 UNL     1      -4.558 -37.347  20.862  1.00  0.00    -0.166 N 
HETATM   45  C11 UNL     1      -5.723 -36.670  20.789  1.00  0.00     0.709 A 
ATOM     46  H13 UNL     1      -4.396 -38.296  20.526  1.00  0.00     0.186 HD
HETATM   47  N15 UNL     1      -5.513 -35.470  21.338  1.00  0.00     0.010 N 
HETATM   48  C12 UNL     1      -6.482 -34.442  21.471  1.00  0.00     0.375 C 
HETATM   49  O4  UNL     1      -4.261 -35.430  21.727  1.00  0.00    -0.195 OA
HETATM   50  N16 UNL     1      -6.239 -33.177  22.063  1.00  0.00    -0.037 NA
HETATM   51  O3  UNL     1      -7.667 -34.658  21.031  1.00  0.00    -0.248 OA
BRANCH  45  52
HETATM   52  N14 UNL     1      -6.839 -37.127  20.273  1.00  0.00    -0.232 N 
ATOM     53 2H14 UNL     1      -7.724 -36.630  20.171  1.00  0.00     0.174 HD
ATOM     54 1H14 UNL     1      -6.977 -38.064  19.894  1.00  0.00     0.174 HD
ENDBRANCH  45  52
ENDBRANCH  31  43
ENDBRANCH  29  31
ENDBRANCH  25  29
ENDBRANCH  14  18
ENDBRANCH   7  13
TORSDOF 12
ENDMDL
