MODEL 1
REMARK VINA RESULT: -10.115505244      0.000      0.000
REMARK  8 active torsions:
REMARK  status: ('A' for Active; 'I' for Inactive)
REMARK    1  A    between atoms: N1_1  and  C1_4 
REMARK       I    between atoms: N5_15  and  C5_17 
REMARK       I    between atoms: C5_17  and  N6_19 
REMARK    2  A    between atoms: N6_19  and  C6_21 
REMARK    3  A    between atoms: C6_21  and  C7_22 
REMARK    4  A    between atoms: C8_26  and  N10_27 
REMARK    5  A    between atoms: C9_32  and  C10_33 
REMARK    6  A    between atoms: C10_33  and  O3_34 
REMARK    7  A    between atoms: O3_34  and  N13_35 
REMARK    8  A    between atoms: C11_37  and  C12_38 
ROOT
HETATM    1  C7  UNL     1      -4.095 -34.184  21.525  1.00  0.00     0.253 C 
HETATM    2  N7  UNL     1      -3.792 -34.282  20.119  1.00  0.00    -0.096 NA
HETATM    3  N8  UNL     1      -3.466 -32.998  19.658  1.00  0.00    -0.033 NA
HETATM    4  N9  UNL     1      -2.429 -32.444  20.413  1.00  0.00    -0.075 NA
HETATM    5  C8  UNL     1      -2.010 -33.298  21.489  1.00  0.00     0.364 C 
HETATM    6  O4  UNL     1      -3.041 -33.706  22.272  1.00  0.00    -0.325 OA
ENDROOT
BRANCH   1   7
HETATM    7  C6  UNL     1      -4.628 -35.491  22.070  1.00  0.00     0.175 C 
BRANCH   7   8
HETATM    8  N6  UNL     1      -5.089 -36.313  20.995  1.00  0.00    -0.339 N 
HETATM    9  C5  UNL     1      -6.048 -37.350  21.064  1.00  0.00     0.321 C 
HETATM   10  N5  UNL     1      -6.382 -38.065  19.904  1.00  0.00    -0.292 N 
HETATM   11  O2  UNL     1      -6.612 -37.639  22.177  1.00  0.00    -0.247 OA
HETATM   12  C4  UNL     1      -6.029 -39.265  19.685  1.00  0.00     0.157 A 
ATOM     13  H5  UNL     1      -6.942 -37.592  19.194  1.00  0.00     0.172 HD
HETATM   14  C3  UNL     1      -5.282 -40.013  20.548  1.00  0.00     0.147 A 
HETATM   15  N17 UNL     1      -6.403 -39.879  18.516  1.00  0.00    -0.174 N 
HETATM   16  C2  UNL     1      -4.915 -41.404  20.204  1.00  0.00     0.175 A 
HETATM   17  N4  UNL     1      -4.727 -39.825  21.744  1.00  0.00    -0.234 N 
HETATM   18  N2  UNL     1      -5.325 -41.902  19.052  1.00  0.00    -0.173 N 
HETATM   19  N3  UNL     1      -4.189 -41.835  21.264  1.00  0.00    -0.223 N 
HETATM   20  C1  UNL     1      -6.060 -41.137  18.228  1.00  0.00     0.679 A 
ATOM     21  H2  UNL     1      -5.086 -42.858  18.790  1.00  0.00     0.186 HD
HETATM   22  O1  UNL     1      -4.102 -40.884  22.142  1.00  0.00    -0.155 OA
ATOM     23  H3  UNL     1      -3.776 -42.763  21.357  1.00  0.00     0.198 HD
ATOM     24  H4  UNL     1      -4.786 -38.958  22.277  1.00  0.00     0.197 HD
ATOM     25  H17 UNL     1      -6.963 -39.356  17.843  1.00  0.00     0.186 HD
ATOM     26  H6  UNL     1      -4.682 -36.131  20.078  1.00  0.00     0.164 HD
BRANCH  20  27
HETATM   27  N1  UNL     1      -6.450 -41.640  17.095  1.00  0.00    -0.234 N 
ATOM     28  H12 UNL     1      -5.746 -41.830  16.381  1.00  0.00     0.174 HD
ATOM     29  H11 UNL     1      -7.443 -41.832  16.962  1.00  0.00     0.174 HD
ENDBRANCH  20  27
ENDBRANCH   7   8
ENDBRANCH   1   7
BRANCH   5  30
HETATM   30  N10 UNL     1      -1.187 -34.392  21.001  1.00  0.00    -0.217 N 
HETATM   31  N11 UNL     1      -0.859 -34.568  19.708  1.00  0.00    -0.235 N 
HETATM   32  N12 UNL     1      -0.113 -35.647  19.619  1.00  0.00    -0.285 N 
ATOM     33  H11 UNL     1      -1.139 -33.967  18.932  1.00  0.00     0.208 HD
HETATM   34  C9  UNL     1       0.059 -36.194  20.831  1.00  0.00     0.096 A 
ATOM     35  H12 UNL     1       0.277 -36.015  18.751  1.00  0.00     0.188 HD
HETATM   36  C15 UNL     1      -0.631 -35.383  21.707  1.00  0.00     0.164 A 
HETATM   37  N16 UNL     1      -0.735 -35.552  23.110  1.00  0.00    -0.079 NA
BRANCH  34  38
HETATM   38  C10 UNL     1       0.842 -37.442  21.198  1.00  0.00     0.263 C 
BRANCH  38  39
HETATM   39  O3  UNL     1       2.023 -37.056  21.744  1.00  0.00    -0.275 OA
BRANCH  39  40
HETATM   40  N13 UNL     1       2.573 -36.425  22.705  1.00  0.00    -0.275 N 
HETATM   41  C11 UNL     1       2.826 -35.247  23.000  1.00  0.00     0.144 C 
ATOM     42  H13 UNL     1       2.894 -37.064  23.431  1.00  0.00     0.193 HD
BRANCH  41  43
HETATM   43  C12 UNL     1       2.551 -34.033  22.271  1.00  0.00     0.066 A 
HETATM   44  C13 UNL     1       2.152 -32.826  22.861  1.00  0.00     0.119 A 
HETATM   45  N14 UNL     1       1.982 -31.886  21.915  1.00  0.00    -0.360 N 
HETATM   46  C14 UNL     1       2.261 -32.451  20.730  1.00  0.00     0.180 A 
ATOM     47  H14 UNL     1       1.695 -30.920  22.070  1.00  0.00     0.166 HD
HETATM   48  N15 UNL     1       2.599 -33.738  20.967  1.00  0.00    -0.350 N 
ATOM     49  H15 UNL     1       2.859 -34.404  20.239  1.00  0.00     0.166 HD
ENDBRANCH  41  43
ENDBRANCH  39  40
ENDBRANCH  38  39
ENDBRANCH  34  38
ENDBRANCH   5  30
TORSDOF 8
ENDMDL
MODEL 2
REMARK VINA RESULT: -9.897924517      2.018      3.064
REMARK  8 active torsions:
REMARK  status: ('A' for Active; 'I' for Inactive)
REMARK    1  A    between atoms: N1_1  and  C1_4 
REMARK       I    between atoms: N5_15  and  C5_17 
REMARK       I    between atoms: C5_17  and  N6_19 
REMARK    2  A    between atoms: N6_19  and  C6_21 
REMARK    3  A    between atoms: C6_21  and  C7_22 
REMARK    4  A    between atoms: C8_26  and  N10_27 
REMARK    5  A    between atoms: C9_32  and  C10_33 
REMARK    6  A    between atoms: C10_33  and  O3_34 
REMARK    7  A    between atoms: O3_34  and  N13_35 
REMARK    8  A    between atoms: C11_37  and  C12_38 
ROOT
HETATM    1  C7  UNL     1      -4.357 -37.303  21.787  1.00  0.00     0.253 C 
HETATM    2  N7  UNL     1      -3.628 -36.183  22.328  1.00  0.00    -0.096 NA
HETATM    3  N8  UNL     1      -2.605 -36.688  23.145  1.00  0.00    -0.033 NA
HETATM    4  N9  UNL     1      -1.801 -37.586  22.439  1.00  0.00    -0.075 NA
HETATM    5  C8  UNL     1      -2.257 -37.802  21.095  1.00  0.00     0.364 C 
HETATM    6  O4  UNL     1      -3.570 -38.144  21.031  1.00  0.00    -0.325 OA
ENDROOT
BRANCH   1   7
HETATM    7  C6  UNL     1      -5.589 -36.852  21.034  1.00  0.00     0.175 C 
BRANCH   7   8
HETATM    8  N6  UNL     1      -5.818 -37.716  19.917  1.00  0.00    -0.339 N 
HETATM    9  C5  UNL     1      -6.592 -38.899  19.897  1.00  0.00     0.321 C 
HETATM   10  N5  UNL     1      -6.708 -39.634  18.708  1.00  0.00    -0.292 N 
HETATM   11  O2  UNL     1      -7.188 -39.302  20.957  1.00  0.00    -0.247 OA
HETATM   12  C4  UNL     1      -6.143 -40.753  18.508  1.00  0.00     0.157 A 
ATOM     13  H5  UNL     1      -7.280 -39.244  17.957  1.00  0.00     0.172 HD
HETATM   14  C3  UNL     1      -5.353 -41.385  19.424  1.00  0.00     0.147 A 
HETATM   15  N17 UNL     1      -6.313 -41.394  17.307  1.00  0.00    -0.174 N 
HETATM   16  C2  UNL     1      -4.733 -42.688  19.100  1.00  0.00     0.175 A 
HETATM   17  N4  UNL     1      -4.935 -41.135  20.664  1.00  0.00    -0.234 N 
HETATM   18  N2  UNL     1      -4.959 -43.222  17.914  1.00  0.00    -0.173 N 
HETATM   19  N3  UNL     1      -4.032 -43.017  20.213  1.00  0.00    -0.223 N 
HETATM   20  C1  UNL     1      -5.743 -42.571  17.038  1.00  0.00     0.679 A 
ATOM     21  H2  UNL     1      -4.543 -44.119  17.665  1.00  0.00     0.186 HD
HETATM   22  O1  UNL     1      -4.176 -42.084  21.103  1.00  0.00    -0.155 OA
ATOM     23  H3  UNL     1      -3.478 -43.865  20.332  1.00  0.00     0.198 HD
ATOM     24  H4  UNL     1      -5.181 -40.302  21.197  1.00  0.00     0.197 HD
ATOM     25  H17 UNL     1      -6.897 -40.957  16.594  1.00  0.00     0.186 HD
ATOM     26  H6  UNL     1      -5.374 -37.449  19.038  1.00  0.00     0.164 HD
BRANCH  20  27
HETATM   27  N1  UNL     1      -5.951 -43.107  15.872  1.00  0.00    -0.234 N 
ATOM     28  H12 UNL     1      -5.229 -43.713  15.482  1.00  0.00     0.174 HD
ATOM     29  H11 UNL     1      -6.829 -42.907  15.393  1.00  0.00     0.174 HD
ENDBRANCH  20  27
ENDBRANCH   7   8
ENDBRANCH   1   7
BRANCH   5  30
HETATM   30  N10 UNL     1      -1.911 -36.681  20.236  1.00  0.00    -0.217 N 
HETATM   31  N11 UNL     1      -2.740 -35.656  19.967  1.00  0.00    -0.235 N 
HETATM   32  N12 UNL     1      -2.115 -34.825  19.162  1.00  0.00    -0.285 N 
ATOM     33  H11 UNL     1      -3.688 -35.543  20.325  1.00  0.00     0.208 HD
HETATM   34  C9  UNL     1      -0.883 -35.281  18.890  1.00  0.00     0.096 A 
ATOM     35  H12 UNL     1      -2.510 -33.959  18.797  1.00  0.00     0.188 HD
HETATM   36  C15 UNL     1      -0.764 -36.468  19.583  1.00  0.00     0.164 A 
HETATM   37  N16 UNL     1       0.370 -37.317  19.613  1.00  0.00    -0.079 NA
BRANCH  34  38
HETATM   38  C10 UNL     1       0.181 -34.650  18.009  1.00  0.00     0.263 C 
BRANCH  38  39
HETATM   39  O3  UNL     1       1.082 -34.030  18.812  1.00  0.00    -0.275 OA
BRANCH  39  40
HETATM   40  N13 UNL     1       1.230 -33.277  19.830  1.00  0.00    -0.275 N 
HETATM   41  C11 UNL     1       1.333 -33.411  21.059  1.00  0.00     0.144 C 
ATOM     42  H13 UNL     1       1.278 -32.295  19.560  1.00  0.00     0.193 HD
BRANCH  41  43
HETATM   43  C12 UNL     1       1.319 -34.609  21.862  1.00  0.00     0.066 A 
HETATM   44  C13 UNL     1       0.362 -34.892  22.847  1.00  0.00     0.119 A 
HETATM   45  N14 UNL     1       0.621 -36.085  23.410  1.00  0.00    -0.360 N 
HETATM   46  C14 UNL     1       1.718 -36.582  22.816  1.00  0.00     0.180 A 
ATOM     47  H14 UNL     1       0.083 -36.532  24.152  1.00  0.00     0.166 HD
HETATM   48  N15 UNL     1       2.119 -35.680  21.892  1.00  0.00    -0.350 N 
ATOM     49  H15 UNL     1       2.934 -35.802  21.291  1.00  0.00     0.166 HD
ENDBRANCH  41  43
ENDBRANCH  39  40
ENDBRANCH  38  39
ENDBRANCH  34  38
ENDBRANCH   5  30
TORSDOF 8
ENDMDL
MODEL 3
REMARK VINA RESULT: -9.485928885      2.516      6.828
REMARK  8 active torsions:
REMARK  status: ('A' for Active; 'I' for Inactive)
REMARK    1  A    between atoms: N1_1  and  C1_4 
REMARK       I    between atoms: N5_15  and  C5_17 
REMARK       I    between atoms: C5_17  and  N6_19 
REMARK    2  A    between atoms: N6_19  and  C6_21 
REMARK    3  A    between atoms: C6_21  and  C7_22 
REMARK    4  A    between atoms: C8_26  and  N10_27 
REMARK    5  A    between atoms: C9_32  and  C10_33 
REMARK    6  A    between atoms: C10_33  and  O3_34 
REMARK    7  A    between atoms: O3_34  and  N13_35 
REMARK    8  A    between atoms: C11_37  and  C12_38 
ROOT
HETATM    1  C7  UNL     1       2.720 -33.890  22.267  1.00  0.00     0.253 C 
HETATM    2  N7  UNL     1       1.992 -33.025  23.161  1.00  0.00    -0.096 NA
HETATM    3  N8  UNL     1       2.043 -31.724  22.640  1.00  0.00    -0.033 NA
HETATM    4  N9  UNL     1       1.567 -31.694  21.326  1.00  0.00    -0.075 NA
HETATM    5  C8  UNL     1       1.207 -32.995  20.837  1.00  0.00     0.364 C 
HETATM    6  O4  UNL     1       2.198 -33.910  20.993  1.00  0.00    -0.325 OA
ENDROOT
BRANCH   1   7
HETATM    7  C6  UNL     1       2.868 -35.282  22.840  1.00  0.00     0.175 C 
BRANCH   7   8
HETATM    8  N6  UNL     1       1.614 -35.968  22.780  1.00  0.00    -0.339 N 
HETATM    9  C5  UNL     1       1.280 -37.065  21.952  1.00  0.00     0.321 C 
HETATM   10  N5  UNL     1      -0.008 -37.617  22.018  1.00  0.00    -0.292 N 
HETATM   11  O2  UNL     1       2.145 -37.555  21.146  1.00  0.00    -0.247 OA
HETATM   12  C4  UNL     1      -0.886 -37.478  21.112  1.00  0.00     0.157 A 
ATOM     13  H5  UNL     1      -0.254 -38.163  22.845  1.00  0.00     0.172 HD
HETATM   14  C3  UNL     1      -0.690 -36.775  19.958  1.00  0.00     0.147 A 
HETATM   15  N17 UNL     1      -2.121 -38.054  21.270  1.00  0.00    -0.174 N 
HETATM   16  C2  UNL     1      -1.776 -36.664  18.960  1.00  0.00     0.175 A 
HETATM   17  N4  UNL     1       0.310 -36.083  19.416  1.00  0.00    -0.234 N 
HETATM   18  N2  UNL     1      -2.930 -37.256  19.208  1.00  0.00    -0.173 N 
HETATM   19  N3  UNL     1      -1.245 -35.914  17.964  1.00  0.00    -0.223 N 
HETATM   20  C1  UNL     1      -3.086 -37.940  20.354  1.00  0.00     0.679 A 
ATOM     21  H2  UNL     1      -3.695 -37.195  18.537  1.00  0.00     0.186 HD
HETATM   22  O1  UNL     1      -0.025 -35.595  18.268  1.00  0.00    -0.155 OA
ATOM     23  H3  UNL     1      -1.730 -35.642  17.108  1.00  0.00     0.198 HD
ATOM     24  H4  UNL     1       1.224 -35.955  19.851  1.00  0.00     0.197 HD
ATOM     25  H17 UNL     1      -2.310 -38.589  22.118  1.00  0.00     0.186 HD
ATOM     26  H6  UNL     1       0.881 -35.628  23.403  1.00  0.00     0.164 HD
BRANCH  20  27
HETATM   27  N1  UNL     1      -4.230 -38.512  20.586  1.00  0.00    -0.234 N 
ATOM     28  H12 UNL     1      -4.520 -39.279  19.979  1.00  0.00     0.174 HD
ATOM     29  H11 UNL     1      -4.793 -38.177  21.367  1.00  0.00     0.174 HD
ENDBRANCH  20  27
ENDBRANCH   7   8
ENDBRANCH   1   7
BRANCH   5  30
HETATM   30  N10 UNL     1      -0.069 -33.427  21.383  1.00  0.00    -0.217 N 
HETATM   31  N11 UNL     1      -0.236 -33.877  22.640  1.00  0.00    -0.235 N 
HETATM   32  N12 UNL     1      -1.504 -34.182  22.800  1.00  0.00    -0.285 N 
ATOM     33  H11 UNL     1       0.496 -33.966  23.345  1.00  0.00     0.208 HD
HETATM   34  C9  UNL     1      -2.186 -33.943  21.669  1.00  0.00     0.096 A 
ATOM     35  H12 UNL     1      -1.911 -34.548  23.660  1.00  0.00     0.188 HD
HETATM   36  C15 UNL     1      -1.257 -33.461  20.771  1.00  0.00     0.164 A 
HETATM   37  N16 UNL     1      -1.507 -33.059  19.435  1.00  0.00    -0.079 NA
BRANCH  34  38
HETATM   38  C10 UNL     1      -3.666 -34.150  21.401  1.00  0.00     0.263 C 
BRANCH  38  39
HETATM   39  O3  UNL     1      -4.015 -35.372  21.877  1.00  0.00    -0.275 OA
BRANCH  39  40
HETATM   40  N13 UNL     1      -4.596 -35.997  22.824  1.00  0.00    -0.275 N 
HETATM   41  C11 UNL     1      -5.725 -36.452  23.062  1.00  0.00     0.144 C 
ATOM     42  H13 UNL     1      -3.956 -36.172  23.598  1.00  0.00     0.193 HD
BRANCH  41  43
HETATM   43  C12 UNL     1      -6.920 -36.428  22.254  1.00  0.00     0.066 A 
HETATM   44  C13 UNL     1      -7.625 -35.265  21.916  1.00  0.00     0.119 A 
HETATM   45  N14 UNL     1      -8.686 -35.578  21.150  1.00  0.00    -0.360 N 
HETATM   46  C14 UNL     1      -8.686 -36.910  20.985  1.00  0.00     0.180 A 
ATOM     47  H14 UNL     1      -9.366 -34.922  20.766  1.00  0.00     0.166 HD
HETATM   48  N15 UNL     1      -7.618 -37.399  21.656  1.00  0.00    -0.350 N 
ATOM     49  H15 UNL     1      -7.376 -38.389  21.700  1.00  0.00     0.166 HD
ENDBRANCH  41  43
ENDBRANCH  39  40
ENDBRANCH  38  39
ENDBRANCH  34  38
ENDBRANCH   5  30
TORSDOF 8
ENDMDL
MODEL 4
REMARK VINA RESULT: -9.439870498      1.560      1.961
REMARK  8 active torsions:
REMARK  status: ('A' for Active; 'I' for Inactive)
REMARK    1  A    between atoms: N1_1  and  C1_4 
REMARK       I    between atoms: N5_15  and  C5_17 
REMARK       I    between atoms: C5_17  and  N6_19 
REMARK    2  A    between atoms: N6_19  and  C6_21 
REMARK    3  A    between atoms: C6_21  and  C7_22 
REMARK    4  A    between atoms: C8_26  and  N10_27 
REMARK    5  A    between atoms: C9_32  and  C10_33 
REMARK    6  A    between atoms: C10_33  and  O3_34 
REMARK    7  A    between atoms: O3_34  and  N13_35 
REMARK    8  A    between atoms: C11_37  and  C12_38 
ROOT
HETATM    1  C7  UNL     1      -5.444 -36.147  22.163  1.00  0.00     0.253 C 
HETATM    2  N7  UNL     1      -5.577 -35.771  20.778  1.00  0.00    -0.096 NA
HETATM    3  N8  UNL     1      -5.786 -34.385  20.725  1.00  0.00    -0.033 NA
HETATM    4  N9  UNL     1      -4.767 -33.700  21.393  1.00  0.00    -0.075 NA
HETATM    5  C8  UNL     1      -3.812 -34.583  22.001  1.00  0.00     0.364 C 
HETATM    6  O4  UNL     1      -4.391 -35.523  22.793  1.00  0.00    -0.325 OA
ENDROOT
BRANCH   1   7
HETATM    7  C6  UNL     1      -5.390 -37.650  22.327  1.00  0.00     0.175 C 
BRANCH   7   8
HETATM    8  N6  UNL     1      -5.719 -38.285  21.089  1.00  0.00    -0.339 N 
HETATM    9  C5  UNL     1      -6.460 -39.477  20.911  1.00  0.00     0.321 C 
HETATM   10  N5  UNL     1      -6.688 -39.966  19.616  1.00  0.00    -0.292 N 
HETATM   11  O2  UNL     1      -6.925 -40.109  21.923  1.00  0.00    -0.247 OA
HETATM   12  C4  UNL     1      -6.120 -40.996  19.137  1.00  0.00     0.157 A 
ATOM     13  H5  UNL     1      -7.349 -39.463  19.023  1.00  0.00     0.172 HD
HETATM   14  C3  UNL     1      -5.218 -41.759  19.820  1.00  0.00     0.147 A 
HETATM   15  N17 UNL     1      -6.406 -41.394  17.856  1.00  0.00    -0.174 N 
HETATM   16  C2  UNL     1      -4.604 -42.941  19.177  1.00  0.00     0.175 A 
HETATM   17  N4  UNL     1      -4.671 -41.739  21.034  1.00  0.00    -0.234 N 
HETATM   18  N2  UNL     1      -4.947 -43.239  17.937  1.00  0.00    -0.173 N 
HETATM   19  N3  UNL     1      -3.776 -43.449  20.123  1.00  0.00    -0.223 N 
HETATM   20  C1  UNL     1      -5.839 -42.466  17.297  1.00  0.00     0.679 A 
ATOM     21  H2  UNL     1      -4.538 -44.049  17.471  1.00  0.00     0.186 HD
HETATM   22  O1  UNL     1      -3.845 -42.719  21.192  1.00  0.00    -0.155 OA
ATOM     23  H3  UNL     1      -3.191 -44.277  20.010  1.00  0.00     0.198 HD
ATOM     24  H4  UNL     1      -4.878 -41.040  21.748  1.00  0.00     0.197 HD
ATOM     25  H17 UNL     1      -7.076 -40.852  17.310  1.00  0.00     0.186 HD
ATOM     26  H6  UNL     1      -5.383 -37.829  20.241  1.00  0.00     0.164 HD
BRANCH  20  27
HETATM   27  N1  UNL     1      -6.161 -42.770  16.075  1.00  0.00    -0.234 N 
ATOM     28  H12 UNL     1      -5.544 -43.391  15.551  1.00  0.00     0.174 HD
ATOM     29  H11 UNL     1      -7.019 -42.380  15.685  1.00  0.00     0.174 HD
ENDBRANCH  20  27
ENDBRANCH   7   8
ENDBRANCH   1   7
BRANCH   5  30
HETATM   30  N10 UNL     1      -2.908 -35.142  21.010  1.00  0.00    -0.217 N 
HETATM   31  N11 UNL     1      -2.874 -34.758  19.721  1.00  0.00    -0.235 N 
HETATM   32  N12 UNL     1      -1.948 -35.462  19.108  1.00  0.00    -0.285 N 
ATOM     33  H11 UNL     1      -3.465 -34.045  19.293  1.00  0.00     0.208 HD
HETATM   34  C9  UNL     1      -1.364 -36.310  19.969  1.00  0.00     0.096 A 
ATOM     35  H12 UNL     1      -1.709 -35.377  18.120  1.00  0.00     0.188 HD
HETATM   36  C15 UNL     1      -1.986 -36.095  21.181  1.00  0.00     0.164 A 
HETATM   37  N16 UNL     1      -1.701 -36.755  22.403  1.00  0.00    -0.079 NA
BRANCH  34  38
HETATM   38  C10 UNL     1      -0.253 -37.308  19.698  1.00  0.00     0.263 C 
BRANCH  38  39
HETATM   39  O3  UNL     1       0.849 -36.910  20.382  1.00  0.00    -0.275 OA
BRANCH  39  40
HETATM   40  N13 UNL     1       1.437 -36.919  21.513  1.00  0.00    -0.275 N 
HETATM   41  C11 UNL     1       1.901 -36.089  22.310  1.00  0.00     0.144 C 
ATOM     42  H13 UNL     1       1.561 -37.871  21.858  1.00  0.00     0.193 HD
BRANCH  41  43
HETATM   43  C12 UNL     1       1.941 -34.650  22.224  1.00  0.00     0.066 A 
HETATM   44  C13 UNL     1       0.835 -33.842  21.924  1.00  0.00     0.119 A 
HETATM   45  N14 UNL     1       1.198 -32.548  21.927  1.00  0.00    -0.360 N 
HETATM   46  C14 UNL     1       2.507 -32.495  22.219  1.00  0.00     0.180 A 
ATOM     47  H14 UNL     1       0.590 -31.750  21.740  1.00  0.00     0.166 HD
HETATM   48  N15 UNL     1       2.932 -33.767  22.393  1.00  0.00    -0.350 N 
ATOM     49  H15 UNL     1       3.891 -34.022  22.625  1.00  0.00     0.166 HD
ENDBRANCH  41  43
ENDBRANCH  39  40
ENDBRANCH  38  39
ENDBRANCH  34  38
ENDBRANCH   5  30
TORSDOF 8
ENDMDL
MODEL 5
REMARK VINA RESULT: -9.434322205      1.111      2.529
REMARK  8 active torsions:
REMARK  status: ('A' for Active; 'I' for Inactive)
REMARK    1  A    between atoms: N1_1  and  C1_4 
REMARK       I    between atoms: N5_15  and  C5_17 
REMARK       I    between atoms: C5_17  and  N6_19 
REMARK    2  A    between atoms: N6_19  and  C6_21 
REMARK    3  A    between atoms: C6_21  and  C7_22 
REMARK    4  A    between atoms: C8_26  and  N10_27 
REMARK    5  A    between atoms: C9_32  and  C10_33 
REMARK    6  A    between atoms: C10_33  and  O3_34 
REMARK    7  A    between atoms: O3_34  and  N13_35 
REMARK    8  A    between atoms: C11_37  and  C12_38 
ROOT
HETATM    1  C7  UNL     1      -4.228 -34.183  21.203  1.00  0.00     0.253 C 
HETATM    2  N7  UNL     1      -3.217 -34.532  20.237  1.00  0.00    -0.096 NA
HETATM    3  N8  UNL     1      -2.806 -33.352  19.598  1.00  0.00    -0.033 NA
HETATM    4  N9  UNL     1      -2.381 -32.402  20.530  1.00  0.00    -0.075 NA
HETATM    5  C8  UNL     1      -2.527 -32.851  21.886  1.00  0.00     0.364 C 
HETATM    6  O4  UNL     1      -3.777 -33.303  22.161  1.00  0.00    -0.325 OA
ENDROOT
BRANCH   1   7
HETATM    7  C6  UNL     1      -4.856 -35.415  21.818  1.00  0.00     0.175 C 
BRANCH   7   8
HETATM    8  N6  UNL     1      -5.296 -36.302  20.786  1.00  0.00    -0.339 N 
HETATM    9  C5  UNL     1      -6.204 -37.379  20.915  1.00  0.00     0.321 C 
HETATM   10  N5  UNL     1      -6.524 -38.155  19.792  1.00  0.00    -0.292 N 
HETATM   11  O2  UNL     1      -6.734 -37.646  22.049  1.00  0.00    -0.247 OA
HETATM   12  C4  UNL     1      -6.119 -39.346  19.614  1.00  0.00     0.157 A 
ATOM     13  H5  UNL     1      -7.117 -37.738  19.074  1.00  0.00     0.172 HD
HETATM   14  C3  UNL     1      -5.322 -40.022  20.493  1.00  0.00     0.147 A 
HETATM   15  N17 UNL     1      -6.483 -40.024  18.479  1.00  0.00    -0.174 N 
HETATM   16  C2  UNL     1      -4.897 -41.407  20.198  1.00  0.00     0.175 A 
HETATM   17  N4  UNL     1      -4.756 -39.759  21.669  1.00  0.00    -0.234 N 
HETATM   18  N2  UNL     1      -5.302 -41.971  19.075  1.00  0.00    -0.173 N 
HETATM   19  N3  UNL     1      -4.133 -41.761  21.261  1.00  0.00    -0.223 N 
HETATM   20  C1  UNL     1      -6.086 -41.275  18.235  1.00  0.00     0.679 A 
ATOM     21  H2  UNL     1      -5.023 -42.925  18.848  1.00  0.00     0.186 HD
HETATM   22  O1  UNL     1      -4.075 -40.771  22.097  1.00  0.00    -0.155 OA
ATOM     23  H3  UNL     1      -3.674 -42.664  21.383  1.00  0.00     0.198 HD
ATOM     24  H4  UNL     1      -4.847 -38.874  22.168  1.00  0.00     0.197 HD
ATOM     25  H17 UNL     1      -7.079 -39.555  17.796  1.00  0.00     0.186 HD
ATOM     26  H6  UNL     1      -4.913 -36.139  19.855  1.00  0.00     0.164 HD
BRANCH  20  27
HETATM   27  N1  UNL     1      -6.472 -41.843  17.131  1.00  0.00    -0.234 N 
ATOM     28  H12 UNL     1      -5.759 -42.155  16.472  1.00  0.00     0.174 HD
ATOM     29  H11 UNL     1      -7.472 -41.959  16.965  1.00  0.00     0.174 HD
ENDBRANCH  20  27
ENDBRANCH   7   8
ENDBRANCH   1   7
BRANCH   5  30
HETATM   30  N10 UNL     1      -1.481 -33.796  22.241  1.00  0.00    -0.217 N 
HETATM   31  N11 UNL     1      -1.712 -34.996  22.802  1.00  0.00    -0.235 N 
HETATM   32  N12 UNL     1      -0.553 -35.588  22.992  1.00  0.00    -0.285 N 
ATOM     33  H11 UNL     1      -2.626 -35.381  23.039  1.00  0.00     0.208 HD
HETATM   34  C9  UNL     1       0.446 -34.801  22.567  1.00  0.00     0.096 A 
ATOM     35  H12 UNL     1      -0.432 -36.514  23.404  1.00  0.00     0.188 HD
HETATM   36  C15 UNL     1      -0.160 -33.658  22.089  1.00  0.00     0.164 A 
HETATM   37  N16 UNL     1       0.491 -32.532  21.524  1.00  0.00    -0.079 NA
BRANCH  34  38
HETATM   38  C10 UNL     1       1.939 -35.077  22.593  1.00  0.00     0.263 C 
BRANCH  38  39
HETATM   39  O3  UNL     1       2.175 -36.195  21.862  1.00  0.00    -0.275 OA
BRANCH  39  40
HETATM   40  N13 UNL     1       1.721 -37.338  21.523  1.00  0.00    -0.275 N 
HETATM   41  C11 UNL     1       0.887 -37.790  20.725  1.00  0.00     0.144 C 
ATOM     42  H13 UNL     1       2.167 -38.085  22.054  1.00  0.00     0.193 HD
BRANCH  41  43
HETATM   43  C12 UNL     1       0.035 -37.098  19.789  1.00  0.00     0.066 A 
HETATM   44  C13 UNL     1      -1.338 -37.338  19.639  1.00  0.00     0.119 A 
HETATM   45  N14 UNL     1      -1.846 -36.529  18.693  1.00  0.00    -0.360 N 
HETATM   46  C14 UNL     1      -0.839 -35.773  18.225  1.00  0.00     0.180 A 
ATOM     47  H14 UNL     1      -2.818 -36.496  18.385  1.00  0.00     0.166 HD
HETATM   48  N15 UNL     1       0.279 -36.132  18.897  1.00  0.00    -0.350 N 
ATOM     49  H15 UNL     1       1.196 -35.716  18.741  1.00  0.00     0.166 HD
ENDBRANCH  41  43
ENDBRANCH  39  40
ENDBRANCH  38  39
ENDBRANCH  34  38
ENDBRANCH   5  30
TORSDOF 8
ENDMDL
