MODEL 1
REMARK VINA RESULT: -5.955082528      0.000      0.000
REMARK  2 active torsions:
REMARK  status: ('A' for Active; 'I' for Inactive)
REMARK    1  A    between atoms: O1_2  and  C2_3 
REMARK    2  A    between atoms: C2_3  and  C3_5 
ROOT
HETATM    1  C3  UNL     1      -2.271  16.904  -5.887  1.00  0.00     0.220 C 
HETATM    2  N1  UNL     1      -1.540  15.775  -6.348  1.00  0.00    -0.406 N 
ATOM      3  H1  UNL     1      -1.223  15.044  -5.711  1.00  0.00     0.154 HD
HETATM    4  C4  UNL     1      -1.275  15.719  -7.733  1.00  0.00     0.118 C 
HETATM    5  C5  UNL     1       0.123  15.241  -7.973  1.00  0.00     0.046 C 
HETATM    6  C6  UNL     1       1.160  15.990  -7.269  1.00  0.00    -0.025 C 
HETATM    7  C7  UNL     1       1.233  17.276  -7.038  1.00  0.00    -0.004 C 
HETATM    8  C8  UNL     1       0.338  18.338  -7.389  1.00  0.00    -0.001 C 
HETATM    9  C9  UNL     1      -0.793  18.708  -6.807  1.00  0.00     0.018 C 
HETATM   10  C10 UNL     1      -1.418  18.110  -5.634  1.00  0.00     0.160 C 
HETATM   11 CL1  UNL     1      -0.208  17.627  -4.405  1.00  0.00    -0.094 Cl
HETATM   12 CL2  UNL     1      -2.456  19.325  -4.826  1.00  0.00    -0.094 Cl
ENDROOT
BRANCH   1  13
HETATM   13  C2  UNL     1      -3.488  17.217  -6.691  1.00  0.00     0.284 C 
HETATM   14  O2  UNL     1      -3.418  17.729  -7.838  1.00  0.00    -0.263 OA
BRANCH  13  15
HETATM   15  O1  UNL     1      -4.766  16.962  -6.219  1.00  0.00    -0.325 OA
HETATM   16  C1  UNL     1      -5.633  16.123  -6.957  1.00  0.00     0.213 C 
ENDBRANCH  13  15
ENDBRANCH   1  13
TORSDOF 2
ENDMDL
MODEL 2
REMARK VINA RESULT: -5.945651672      2.489      4.291
REMARK  2 active torsions:
REMARK  status: ('A' for Active; 'I' for Inactive)
REMARK    1  A    between atoms: O1_2  and  C2_3 
REMARK    2  A    between atoms: C2_3  and  C3_5 
ROOT
HETATM    1  C3  UNL     1      -0.809  17.008  -7.468  1.00  0.00     0.220 C 
HETATM    2  N1  UNL     1      -2.102  16.422  -7.393  1.00  0.00    -0.406 N 
ATOM      3  H1  UNL     1      -2.841  16.665  -8.053  1.00  0.00     0.154 HD
HETATM    4  C4  UNL     1      -2.310  15.485  -6.358  1.00  0.00     0.118 C 
HETATM    5  C5  UNL     1      -3.659  15.687  -5.742  1.00  0.00     0.046 C 
HETATM    6  C6  UNL     1      -3.931  17.047  -5.284  1.00  0.00    -0.025 C 
HETATM    7  C7  UNL     1      -3.120  17.899  -4.710  1.00  0.00    -0.004 C 
HETATM    8  C8  UNL     1      -1.737  17.778  -4.358  1.00  0.00    -0.001 C 
HETATM    9  C9  UNL     1      -0.664  17.894  -5.127  1.00  0.00     0.018 C 
HETATM   10  C10 UNL     1      -0.627  18.183  -6.555  1.00  0.00     0.160 C 
HETATM   11 CL1  UNL     1      -1.868  19.386  -7.024  1.00  0.00    -0.094 Cl
HETATM   12 CL2  UNL     1       0.944  18.933  -6.972  1.00  0.00    -0.094 Cl
ENDROOT
BRANCH   1  13
HETATM   13  C2  UNL     1       0.315  16.031  -7.378  1.00  0.00     0.284 C 
HETATM   14  O2  UNL     1       0.898  15.780  -6.293  1.00  0.00    -0.263 OA
BRANCH  13  15
HETATM   15  O1  UNL     1       0.780  15.343  -8.488  1.00  0.00    -0.325 OA
HETATM   16  C1  UNL     1       2.092  15.577  -8.961  1.00  0.00     0.213 C 
ENDBRANCH  13  15
ENDBRANCH   1  13
TORSDOF 2
ENDMDL
MODEL 3
REMARK VINA RESULT: -5.599395913      2.312      3.026
REMARK  2 active torsions:
REMARK  status: ('A' for Active; 'I' for Inactive)
REMARK    1  A    between atoms: O1_2  and  C2_3 
REMARK    2  A    between atoms: C2_3  and  C3_5 
ROOT
HETATM    1  C3  UNL     1      -3.133  16.675  -6.972  1.00  0.00     0.220 C 
HETATM    2  N1  UNL     1      -2.406  17.843  -7.334  1.00  0.00    -0.406 N 
ATOM      3  H1  UNL     1      -2.106  18.012  -8.294  1.00  0.00     0.154 HD
HETATM    4  C4  UNL     1      -2.121  18.754  -6.295  1.00  0.00     0.118 C 
HETATM    5  C5  UNL     1      -0.724  19.274  -6.433  1.00  0.00     0.046 C 
HETATM    6  C6  UNL     1       0.310  18.247  -6.531  1.00  0.00    -0.025 C 
HETATM    7  C7  UNL     1       0.392  17.100  -5.906  1.00  0.00    -0.004 C 
HETATM    8  C8  UNL     1      -0.486  16.494  -4.950  1.00  0.00    -0.001 C 
HETATM    9  C9  UNL     1      -1.622  15.843  -5.152  1.00  0.00     0.018 C 
HETATM   10  C10 UNL     1      -2.272  15.575  -6.429  1.00  0.00     0.160 C 
HETATM   11 CL1  UNL     1      -1.086  15.179  -7.711  1.00  0.00    -0.094 Cl
HETATM   12 CL2  UNL     1      -3.309  14.124  -6.278  1.00  0.00    -0.094 Cl
ENDROOT
BRANCH   1  13
HETATM   13  C2  UNL     1      -4.334  16.937  -6.126  1.00  0.00     0.284 C 
HETATM   14  O2  UNL     1      -4.267  17.005  -4.872  1.00  0.00    -0.263 OA
BRANCH  13  15
HETATM   15  O1  UNL     1      -5.593  17.120  -6.676  1.00  0.00    -0.325 OA
HETATM   16  C1  UNL     1      -6.257  16.031  -7.287  1.00  0.00     0.213 C 
ENDBRANCH  13  15
ENDBRANCH   1  13
TORSDOF 2
ENDMDL
MODEL 4
REMARK VINA RESULT: -5.504482558      2.662      4.672
REMARK  2 active torsions:
REMARK  status: ('A' for Active; 'I' for Inactive)
REMARK    1  A    between atoms: O1_2  and  C2_3 
REMARK    2  A    between atoms: C2_3  and  C3_5 
ROOT
HETATM    1  C3  UNL     1       0.531  18.050  -6.360  1.00  0.00     0.220 C 
HETATM    2  N1  UNL     1      -0.554  18.530  -5.576  1.00  0.00    -0.406 N 
ATOM      3  H1  UNL     1      -0.472  18.656  -4.567  1.00  0.00     0.154 HD
HETATM    4  C4  UNL     1      -1.749  18.823  -6.266  1.00  0.00     0.118 C 
HETATM    5  C5  UNL     1      -2.930  18.350  -5.477  1.00  0.00     0.046 C 
HETATM    6  C6  UNL     1      -2.883  16.946  -5.078  1.00  0.00    -0.025 C 
HETATM    7  C7  UNL     1      -2.436  15.914  -5.749  1.00  0.00    -0.004 C 
HETATM    8  C8  UNL     1      -1.860  15.832  -7.058  1.00  0.00    -0.001 C 
HETATM    9  C9  UNL     1      -0.625  16.109  -7.448  1.00  0.00     0.018 C 
HETATM   10  C10 UNL     1       0.480  16.574  -6.619  1.00  0.00     0.160 C 
HETATM   11 CL1  UNL     1       0.492  15.778  -5.014  1.00  0.00    -0.094 Cl
HETATM   12 CL2  UNL     1       2.033  16.122  -7.385  1.00  0.00    -0.094 Cl
ENDROOT
BRANCH   1  13
HETATM   13  C2  UNL     1       0.791  18.842  -7.598  1.00  0.00     0.284 C 
HETATM   14  O2  UNL     1       0.221  18.585  -8.689  1.00  0.00    -0.263 OA
BRANCH  13  15
HETATM   15  O1  UNL     1       1.678  19.907  -7.614  1.00  0.00    -0.325 OA
HETATM   16  C1  UNL     1       1.568  20.898  -8.617  1.00  0.00     0.213 C 
ENDBRANCH  13  15
ENDBRANCH   1  13
TORSDOF 2
ENDMDL
MODEL 5
REMARK VINA RESULT: -5.365208537      2.618      4.767
REMARK  2 active torsions:
REMARK  status: ('A' for Active; 'I' for Inactive)
REMARK    1  A    between atoms: O1_2  and  C2_3 
REMARK    2  A    between atoms: C2_3  and  C3_5 
ROOT
HETATM    1  C3  UNL     1       0.658  17.901  -6.680  1.00  0.00     0.220 C 
HETATM    2  N1  UNL     1      -0.101  18.693  -5.775  1.00  0.00    -0.406 N 
ATOM      3  H1  UNL     1       0.211  18.862  -4.819  1.00  0.00     0.154 HD
HETATM    4  C4  UNL     1      -1.307  19.233  -6.270  1.00  0.00     0.118 C 
HETATM    5  C5  UNL     1      -2.382  19.131  -5.233  1.00  0.00     0.046 C 
HETATM    6  C6  UNL     1      -2.588  17.791  -4.689  1.00  0.00    -0.025 C 
HETATM    7  C7  UNL     1      -2.543  16.637  -5.305  1.00  0.00    -0.004 C 
HETATM    8  C8  UNL     1      -2.280  16.322  -6.677  1.00  0.00    -0.001 C 
HETATM    9  C9  UNL     1      -1.119  16.249  -7.311  1.00  0.00     0.018 C 
HETATM   10  C10 UNL     1       0.209  16.473  -6.752  1.00  0.00     0.160 C 
HETATM   11 CL1  UNL     1       0.356  15.811  -5.095  1.00  0.00    -0.094 Cl
HETATM   12 CL2  UNL     1       1.423  15.590  -7.726  1.00  0.00    -0.094 Cl
ENDROOT
BRANCH   1  13
HETATM   13  C2  UNL     1       0.843  18.515  -8.027  1.00  0.00     0.284 C 
HETATM   14  O2  UNL     1      -0.130  18.884  -8.734  1.00  0.00    -0.263 OA
BRANCH  13  15
HETATM   15  O1  UNL     1       2.100  18.715  -8.577  1.00  0.00    -0.325 OA
HETATM   16  C1  UNL     1       2.285  18.583  -9.973  1.00  0.00     0.213 C 
ENDBRANCH  13  15
ENDBRANCH   1  13
TORSDOF 2
ENDMDL
