MODEL 1
REMARK VINA RESULT: -3.330916948      0.000      0.000
REMARK  1 active torsions:
REMARK  status: ('A' for Active; 'I' for Inactive)
REMARK    1  A    between atoms: O1_1  and  N1_3 
ROOT
HETATM    1  N1  UNL     1     -27.442  10.592 -16.747  1.00  0.00    -0.200 NA
HETATM    2  C1  UNL     1     -28.169  11.596 -17.538  1.00  0.00     0.120 C 
HETATM    3  C2  UNL     1     -29.528  10.980 -17.755  1.00  0.00     0.018 C 
HETATM    4  C3  UNL     1     -29.582   9.798 -16.780  1.00  0.00     0.018 C 
HETATM    5  C4  UNL     1     -28.480  10.215 -15.800  1.00  0.00     0.120 C 
ENDROOT
BRANCH   1   6
HETATM    6  O1  UNL     1     -27.044   9.560 -17.516  1.00  0.00    -0.313 OA
ATOM      7  H1  UNL     1     -26.104   9.578 -17.655  1.00  0.00     0.237 HD
ENDBRANCH   1   6
TORSDOF 1
ENDMDL
MODEL 2
REMARK VINA RESULT: -3.183277668      0.758      1.135
REMARK  1 active torsions:
REMARK  status: ('A' for Active; 'I' for Inactive)
REMARK    1  A    between atoms: O1_1  and  N1_3 
ROOT
HETATM    1  N1  UNL     1     -27.940  10.879 -17.012  1.00  0.00    -0.200 NA
HETATM    2  C1  UNL     1     -29.279  10.790 -17.611  1.00  0.00     0.120 C 
HETATM    3  C2  UNL     1     -30.032   9.857 -16.696  1.00  0.00     0.018 C 
HETATM    4  C3  UNL     1     -29.151   9.741 -15.446  1.00  0.00     0.018 C 
HETATM    5  C4  UNL     1     -28.299  11.005 -15.607  1.00  0.00     0.120 C 
ENDROOT
BRANCH   1   6
HETATM    6  O1  UNL     1     -27.218   9.770 -17.264  1.00  0.00    -0.313 OA
ATOM      7  H1  UNL     1     -26.503   9.677 -16.645  1.00  0.00     0.237 HD
ENDBRANCH   1   6
TORSDOF 1
ENDMDL
MODEL 3
REMARK VINA RESULT: -3.014549147      1.435      1.506
REMARK  1 active torsions:
REMARK  status: ('A' for Active; 'I' for Inactive)
REMARK    1  A    between atoms: O1_1  and  N1_3 
ROOT
HETATM    1  N1  UNL     1     -28.137  10.199 -15.106  1.00  0.00    -0.200 NA
HETATM    2  C1  UNL     1     -28.593  11.540 -15.500  1.00  0.00     0.120 C 
HETATM    3  C2  UNL     1     -29.623  11.279 -16.569  1.00  0.00     0.018 C 
HETATM    4  C3  UNL     1     -29.916   9.777 -16.472  1.00  0.00     0.018 C 
HETATM    5  C4  UNL     1     -29.413   9.503 -15.051  1.00  0.00     0.120 C 
ENDROOT
BRANCH   1   6
HETATM    6  O1  UNL     1     -27.302   9.678 -16.026  1.00  0.00    -0.313 OA
ATOM      7  H1  UNL     1     -26.395   9.850 -15.804  1.00  0.00     0.237 HD
ENDBRANCH   1   6
TORSDOF 1
ENDMDL
MODEL 4
REMARK VINA RESULT: -2.983426706      1.366      2.042
REMARK  1 active torsions:
REMARK  status: ('A' for Active; 'I' for Inactive)
REMARK    1  A    between atoms: O1_1  and  N1_3 
ROOT
HETATM    1  N1  UNL     1     -28.224  10.533 -16.533  1.00  0.00    -0.200 NA
HETATM    2  C1  UNL     1     -29.509   9.830 -16.643  1.00  0.00     0.120 C 
HETATM    3  C2  UNL     1     -29.949   9.641 -15.214  1.00  0.00     0.018 C 
HETATM    4  C3  UNL     1     -29.026  10.552 -14.397  1.00  0.00     0.018 C 
HETATM    5  C4  UNL     1     -28.552  11.504 -15.500  1.00  0.00     0.120 C 
ENDROOT
BRANCH   1   6
HETATM    6  O1  UNL     1     -27.239   9.694 -16.160  1.00  0.00    -0.313 OA
ATOM      7  H1  UNL     1     -26.816   9.301 -16.915  1.00  0.00     0.237 HD
ENDBRANCH   1   6
TORSDOF 1
ENDMDL
MODEL 5
REMARK VINA RESULT: -2.947145864      0.908      2.071
REMARK  1 active torsions:
REMARK  status: ('A' for Active; 'I' for Inactive)
REMARK    1  A    between atoms: O1_1  and  N1_3 
ROOT
HETATM    1  N1  UNL     1     -28.395   9.829 -17.038  1.00  0.00    -0.200 NA
HETATM    2  C1  UNL     1     -28.607  10.035 -15.598  1.00  0.00     0.120 C 
HETATM    3  C2  UNL     1     -28.443  11.522 -15.410  1.00  0.00     0.018 C 
HETATM    4  C3  UNL     1     -28.473  12.101 -16.829  1.00  0.00     0.018 C 
HETATM    5  C4  UNL     1     -29.159  10.947 -17.569  1.00  0.00     0.120 C 
ENDROOT
BRANCH   1   6
HETATM    6  O1  UNL     1     -27.087   9.899 -17.354  1.00  0.00    -0.313 OA
ATOM      7  H1  UNL     1     -26.864   9.276 -18.035  1.00  0.00     0.237 HD
ENDBRANCH   1   6
TORSDOF 1
ENDMDL
