MODEL 1
REMARK VINA RESULT: -7.047832432      0.000      0.000
REMARK  4 active torsions:
REMARK  status: ('A' for Active; 'I' for Inactive)
REMARK    1  A    between atoms: C4_6  and  N2_7 
REMARK    2  A    between atoms: N2_7  and  N3_9 
REMARK       I    between atoms: C5_11  and  N5_13 
REMARK    3  A    between atoms: N5_13  and  N6_15 
REMARK    4  A    between atoms: N6_15  and  N7_17 
ROOT
HETATM    1  N3  UNL     1     -24.347  63.796  42.360  1.00  0.00    -0.271 N 
ATOM      2  H3  UNL     1     -23.453  64.271  42.239  1.00  0.00     0.189 HD
HETATM    3  C5  UNL     1     -25.184  63.717  41.384  1.00  0.00     0.219 C 
HETATM    4  N4  UNL     1     -26.447  63.047  41.552  1.00  0.00    -0.061 NA
HETATM    5  N5  UNL     1     -24.882  64.289  40.117  1.00  0.00    -0.275 N 
ATOM      6  H5  UNL     1     -25.450  65.075  39.800  1.00  0.00     0.185 HD
ENDROOT
BRANCH   1   7
HETATM    7  N2  UNL     1     -24.687  63.217  43.593  1.00  0.00    -0.277 N 
ATOM      8  H2  UNL     1     -25.656  63.155  43.906  1.00  0.00     0.189 HD
BRANCH   7   9
HETATM    9  C4  UNL     1     -23.697  62.759  44.325  1.00  0.00     0.163 A 
HETATM   10  N1  UNL     1     -22.484  63.288  44.503  1.00  0.00    -0.344 N 
HETATM   11  C3  UNL     1     -21.644  62.665  45.279  1.00  0.00     0.104 A 
ATOM     12  H1  UNL     1     -22.222  64.159  44.042  1.00  0.00     0.167 HD
HETATM   13  C2  UNL     1     -22.051  61.504  45.868  1.00  0.00    -0.002 A 
HETATM   14  C1  UNL     1     -21.341  60.569  46.792  1.00  0.00     0.058 C 
HETATM   15  S1  UNL     1     -23.644  61.344  45.281  1.00  0.00    -0.056 SA
ENDBRANCH   7   9
ENDBRANCH   1   7
BRANCH   5  16
HETATM   16  N6  UNL     1     -23.866  63.847  39.286  1.00  0.00    -0.149 NA
HETATM   17  C6  UNL     1     -23.702  62.411  39.296  1.00  0.00     0.162 C 
BRANCH  16  18
HETATM   18  N7  UNL     1     -22.657  64.458  39.637  1.00  0.00    -0.346 NA
ATOM     19  H72 UNL     1     -22.807  65.074  40.436  1.00  0.00     0.172 HD
ATOM     20  H71 UNL     1     -22.257  64.933  38.829  1.00  0.00     0.172 HD
ENDBRANCH  16  18
ENDBRANCH   5  16
TORSDOF 4
ENDMDL
MODEL 2
REMARK VINA RESULT: -6.937917436      1.147      1.314
REMARK  4 active torsions:
REMARK  status: ('A' for Active; 'I' for Inactive)
REMARK    1  A    between atoms: C4_6  and  N2_7 
REMARK    2  A    between atoms: N2_7  and  N3_9 
REMARK       I    between atoms: C5_11  and  N5_13 
REMARK    3  A    between atoms: N5_13  and  N6_15 
REMARK    4  A    between atoms: N6_15  and  N7_17 
ROOT
HETATM    1  N3  UNL     1     -24.703  63.835  42.211  1.00  0.00    -0.271 N 
ATOM      2  H3  UNL     1     -23.792  64.294  42.204  1.00  0.00     0.189 HD
HETATM    3  C5  UNL     1     -25.327  63.601  41.108  1.00  0.00     0.219 C 
HETATM    4  N4  UNL     1     -26.613  62.953  41.115  1.00  0.00    -0.061 NA
HETATM    5  N5  UNL     1     -24.762  63.977  39.858  1.00  0.00    -0.275 N 
ATOM      6  H5  UNL     1     -25.236  64.700  39.317  1.00  0.00     0.185 HD
ENDROOT
BRANCH   1   7
HETATM    7  N2  UNL     1     -25.299  63.447  43.422  1.00  0.00    -0.277 N 
ATOM      8  H2  UNL     1     -26.257  63.708  43.655  1.00  0.00     0.189 HD
BRANCH   7   9
HETATM    9  C4  UNL     1     -24.562  62.732  44.241  1.00  0.00     0.163 A 
HETATM   10  N1  UNL     1     -24.942  61.730  45.037  1.00  0.00    -0.344 N 
HETATM   11  C3  UNL     1     -24.040  61.150  45.777  1.00  0.00     0.104 A 
ATOM     12  H1  UNL     1     -25.915  61.426  45.065  1.00  0.00     0.167 HD
HETATM   13  C2  UNL     1     -22.756  61.600  45.698  1.00  0.00    -0.002 A 
HETATM   14  C1  UNL     1     -21.514  61.159  46.402  1.00  0.00     0.058 C 
HETATM   15  S1  UNL     1     -22.887  62.855  44.550  1.00  0.00    -0.056 SA
ENDBRANCH   7   9
ENDBRANCH   1   7
BRANCH   5  16
HETATM   16  N6  UNL     1     -23.609  63.422  39.327  1.00  0.00    -0.149 NA
HETATM   17  C6  UNL     1     -23.359  62.074  39.784  1.00  0.00     0.162 C 
BRANCH  16  18
HETATM   18  N7  UNL     1     -22.506  64.229  39.626  1.00  0.00    -0.346 NA
ATOM     19  H72 UNL     1     -22.824  65.085  40.080  1.00  0.00     0.172 HD
ATOM     20  H71 UNL     1     -21.957  64.398  38.783  1.00  0.00     0.172 HD
ENDBRANCH  16  18
ENDBRANCH   5  16
TORSDOF 4
ENDMDL
MODEL 3
REMARK VINA RESULT: -5.694563485      1.157      1.463
REMARK  4 active torsions:
REMARK  status: ('A' for Active; 'I' for Inactive)
REMARK    1  A    between atoms: C4_6  and  N2_7 
REMARK    2  A    between atoms: N2_7  and  N3_9 
REMARK       I    between atoms: C5_11  and  N5_13 
REMARK    3  A    between atoms: N5_13  and  N6_15 
REMARK    4  A    between atoms: N6_15  and  N7_17 
ROOT
HETATM    1  N3  UNL     1     -23.531  63.059  41.720  1.00  0.00    -0.271 N 
ATOM      2  H3  UNL     1     -22.991  62.231  41.473  1.00  0.00     0.189 HD
HETATM    3  C5  UNL     1     -23.874  63.911  40.817  1.00  0.00     0.219 C 
HETATM    4  N4  UNL     1     -24.637  65.082  41.163  1.00  0.00    -0.061 NA
HETATM    5  N5  UNL     1     -23.508  63.717  39.456  1.00  0.00    -0.275 N 
ATOM      6  H5  UNL     1     -22.858  64.381  39.036  1.00  0.00     0.185 HD
ENDROOT
BRANCH   1   7
HETATM    7  N2  UNL     1     -23.914  63.292  43.051  1.00  0.00    -0.277 N 
ATOM      8  H2  UNL     1     -24.749  63.831  43.281  1.00  0.00     0.189 HD
BRANCH   7   9
HETATM    9  C4  UNL     1     -23.145  62.783  43.986  1.00  0.00     0.163 A 
HETATM   10  N1  UNL     1     -22.064  63.322  44.555  1.00  0.00    -0.344 N 
HETATM   11  C3  UNL     1     -21.441  62.639  45.473  1.00  0.00     0.104 A 
ATOM     12  H1  UNL     1     -21.734  64.246  44.277  1.00  0.00     0.167 HD
HETATM   13  C2  UNL     1     -21.929  61.409  45.801  1.00  0.00    -0.002 A 
HETATM   14  C1  UNL     1     -21.454  60.395  46.792  1.00  0.00     0.058 C 
HETATM   15  S1  UNL     1     -23.281  61.272  44.771  1.00  0.00    -0.056 SA
ENDBRANCH   7   9
ENDBRANCH   1   7
BRANCH   5  16
HETATM   16  N6  UNL     1     -23.977  62.682  38.664  1.00  0.00    -0.149 NA
HETATM   17  C6  UNL     1     -25.354  62.333  38.935  1.00  0.00     0.162 C 
BRANCH  16  18
HETATM   18  N7  UNL     1     -23.169  61.551  38.821  1.00  0.00    -0.346 NA
ATOM     19  H72 UNL     1     -22.664  61.371  37.953  1.00  0.00     0.172 HD
ATOM     20  H71 UNL     1     -23.731  60.759  39.133  1.00  0.00     0.172 HD
ENDBRANCH  16  18
ENDBRANCH   5  16
TORSDOF 4
ENDMDL
MODEL 4
REMARK VINA RESULT: -5.532837352      1.672      2.375
REMARK  4 active torsions:
REMARK  status: ('A' for Active; 'I' for Inactive)
REMARK    1  A    between atoms: C4_6  and  N2_7 
REMARK    2  A    between atoms: N2_7  and  N3_9 
REMARK       I    between atoms: C5_11  and  N5_13 
REMARK    3  A    between atoms: N5_13  and  N6_15 
REMARK    4  A    between atoms: N6_15  and  N7_17 
ROOT
HETATM    1  N3  UNL     1     -25.632  63.172  42.512  1.00  0.00    -0.271 N 
ATOM      2  H3  UNL     1     -26.589  62.825  42.455  1.00  0.00     0.189 HD
HETATM    3  C5  UNL     1     -24.868  63.162  41.475  1.00  0.00     0.219 C 
HETATM    4  N4  UNL     1     -23.517  63.651  41.553  1.00  0.00    -0.061 NA
HETATM    5  N5  UNL     1     -25.341  62.666  40.228  1.00  0.00    -0.275 N 
ATOM      6  H5  UNL     1     -24.911  61.819  39.856  1.00  0.00     0.185 HD
ENDROOT
BRANCH   1   7
HETATM    7  N2  UNL     1     -25.123  63.670  43.723  1.00  0.00    -0.277 N 
ATOM      8  H2  UNL     1     -25.211  64.654  43.976  1.00  0.00     0.189 HD
BRANCH   7   9
HETATM    9  C4  UNL     1     -24.529  62.807  44.514  1.00  0.00     0.163 A 
HETATM   10  N1  UNL     1     -25.046  61.723  45.096  1.00  0.00    -0.344 N 
HETATM   11  C3  UNL     1     -24.273  60.995  45.851  1.00  0.00     0.104 A 
ATOM     12  H1  UNL     1     -26.024  61.470  44.953  1.00  0.00     0.167 HD
HETATM   13  C2  UNL     1     -22.975  61.384  46.006  1.00  0.00    -0.002 A 
HETATM   14  C1  UNL     1     -21.855  60.780  46.790  1.00  0.00     0.058 C 
HETATM   15  S1  UNL     1     -22.907  62.795  45.051  1.00  0.00    -0.056 SA
ENDBRANCH   7   9
ENDBRANCH   1   7
BRANCH   5  16
HETATM   16  N6  UNL     1     -26.348  63.261  39.485  1.00  0.00    -0.149 NA
HETATM   17  C6  UNL     1     -25.927  64.473  38.818  1.00  0.00     0.162 C 
BRANCH  16  18
HETATM   18  N7  UNL     1     -27.450  63.536  40.302  1.00  0.00    -0.346 NA
ATOM     19  H72 UNL     1     -27.927  62.665  40.532  1.00  0.00     0.172 HD
ATOM     20  H71 UNL     1     -28.056  64.223  39.854  1.00  0.00     0.172 HD
ENDBRANCH  16  18
ENDBRANCH   5  16
TORSDOF 4
ENDMDL
MODEL 5
REMARK VINA RESULT: -5.428333851      1.575      2.335
REMARK  4 active torsions:
REMARK  status: ('A' for Active; 'I' for Inactive)
REMARK    1  A    between atoms: C4_6  and  N2_7 
REMARK    2  A    between atoms: N2_7  and  N3_9 
REMARK       I    between atoms: C5_11  and  N5_13 
REMARK    3  A    between atoms: N5_13  and  N6_15 
REMARK    4  A    between atoms: N6_15  and  N7_17 
ROOT
HETATM    1  N3  UNL     1     -24.878  63.112  42.011  1.00  0.00    -0.271 N 
ATOM      2  H3  UNL     1     -25.184  62.142  41.939  1.00  0.00     0.189 HD
HETATM    3  C5  UNL     1     -24.722  63.830  40.953  1.00  0.00     0.219 C 
HETATM    4  N4  UNL     1     -24.290  65.199  41.051  1.00  0.00    -0.061 NA
HETATM    5  N5  UNL     1     -24.971  63.287  39.661  1.00  0.00    -0.275 N 
ATOM      6  H5  UNL     1     -24.181  63.184  39.025  1.00  0.00     0.185 HD
ENDROOT
BRANCH   1   7
HETATM    7  N2  UNL     1     -24.620  63.689  43.265  1.00  0.00    -0.277 N 
ATOM      8  H2  UNL     1     -24.810  64.674  43.450  1.00  0.00     0.189 HD
BRANCH   7   9
HETATM    9  C4  UNL     1     -24.122  62.899  44.188  1.00  0.00     0.163 A 
HETATM   10  N1  UNL     1     -24.754  61.977  44.919  1.00  0.00    -0.344 N 
HETATM   11  C3  UNL     1     -24.064  61.296  45.789  1.00  0.00     0.104 A 
ATOM     12  H1  UNL     1     -25.753  61.810  44.798  1.00  0.00     0.167 HD
HETATM   13  C2  UNL     1     -22.732  61.564  45.906  1.00  0.00    -0.002 A 
HETATM   14  C1  UNL     1     -21.684  60.973  46.792  1.00  0.00     0.058 C 
HETATM   15  S1  UNL     1     -22.512  62.798  44.749  1.00  0.00    -0.056 SA
ENDBRANCH   7   9
ENDBRANCH   1   7
BRANCH   5  16
HETATM   16  N6  UNL     1     -26.220  62.890  39.212  1.00  0.00    -0.149 NA
HETATM   17  C6  UNL     1     -27.282  63.789  39.603  1.00  0.00     0.162 C 
BRANCH  16  18
HETATM   18  N7  UNL     1     -26.508  61.600  39.669  1.00  0.00    -0.346 NA
ATOM     19  H72 UNL     1     -27.516  61.500  39.793  1.00  0.00     0.172 HD
ATOM     20  H71 UNL     1     -25.975  61.401  40.516  1.00  0.00     0.172 HD
ENDBRANCH  16  18
ENDBRANCH   5  16
TORSDOF 4
ENDMDL
