MODEL 1
REMARK VINA RESULT: -5.915810635      0.000      0.000
REMARK  4 active torsions:
REMARK  status: ('A' for Active; 'I' for Inactive)
REMARK    1  A    between atoms: C2_3  and  S1_4 
REMARK    2  A    between atoms: S1_4  and  N2_5 
REMARK    3  A    between atoms: C3_12  and  N4_13 
REMARK    4  A    between atoms: C4_18  and  N6_19 
ROOT
HETATM    1  C1  UNL     1      18.489  -9.533 -25.086  1.00  0.00     0.178 C 
HETATM    2  N1  UNL     1      18.520  -8.090 -25.279  1.00  0.00    -0.159 N 
HETATM    3  C2  UNL     1      17.811  -7.240 -24.519  1.00  0.00     0.254 A 
HETATM    4  N3  UNL     1      17.865  -5.910 -24.727  1.00  0.00    -0.163 N 
ATOM      5  H3  UNL     1      17.314  -5.294 -24.129  1.00  0.00     0.186 HD
HETATM    6  C3  UNL     1      18.622  -5.368 -25.696  1.00  0.00     0.692 A 
HETATM    7  N5  UNL     1      19.334  -6.209 -26.459  1.00  0.00    -0.023 N 
ATOM      8  H5  UNL     1      19.923  -5.840 -27.206  1.00  0.00     0.203 HD
HETATM    9  C4  UNL     1      19.278  -7.546 -26.248  1.00  0.00     0.694 A 
ENDROOT
BRANCH   3  10
HETATM   10  S1  UNL     1      16.809  -7.847 -23.250  1.00  0.00     0.290 S 
HETATM   11  O1  UNL     1      16.084  -6.688 -22.625  1.00  0.00    -0.198 OA
HETATM   12  O2  UNL     1      15.743  -8.786 -23.767  1.00  0.00    -0.198 OA
BRANCH  10  13
HETATM   13  N2  UNL     1      17.742  -8.604 -21.998  1.00  0.00    -0.322 N 
ATOM     14  H22 UNL     1      17.828  -9.616 -21.899  1.00  0.00     0.169 HD
ATOM     15  H21 UNL     1      18.183  -7.917 -21.386  1.00  0.00     0.169 HD
ENDBRANCH  10  13
ENDBRANCH   3  10
BRANCH   9  16
HETATM   16  N6  UNL     1      19.984  -8.317 -27.014  1.00  0.00    -0.234 N 
ATOM     17  H62 UNL     1      19.494  -8.959 -27.636  1.00  0.00     0.174 HD
ATOM     18  H61 UNL     1      21.003  -8.265 -26.976  1.00  0.00     0.174 HD
ENDBRANCH   9  16
BRANCH   6  19
HETATM   19  N4  UNL     1      18.626  -4.105 -25.837  1.00  0.00    -0.234 N 
ATOM     20  H42 UNL     1      19.450  -3.565 -26.100  1.00  0.00     0.174 HD
ATOM     21  H41 UNL     1      17.761  -3.588 -25.680  1.00  0.00     0.174 HD
ENDBRANCH   6  19
TORSDOF 4
ENDMDL
MODEL 2
REMARK VINA RESULT: -5.794986850      3.388      5.210
REMARK  4 active torsions:
REMARK  status: ('A' for Active; 'I' for Inactive)
REMARK    1  A    between atoms: C2_3  and  S1_4 
REMARK    2  A    between atoms: S1_4  and  N2_5 
REMARK    3  A    between atoms: C3_12  and  N4_13 
REMARK    4  A    between atoms: C4_18  and  N6_19 
ROOT
HETATM    1  C1  UNL     1      18.951  -6.896 -24.924  1.00  0.00     0.178 C 
HETATM    2  N1  UNL     1      18.912  -8.336 -25.135  1.00  0.00    -0.159 N 
HETATM    3  C2  UNL     1      19.360  -8.919 -26.258  1.00  0.00     0.254 A 
HETATM    4  N3  UNL     1      19.307 -10.256 -26.416  1.00  0.00    -0.163 N 
ATOM      5  H3  UNL     1      19.657 -10.664 -27.283  1.00  0.00     0.186 HD
HETATM    6  C3  UNL     1      18.808 -11.069 -25.470  1.00  0.00     0.692 A 
HETATM    7  N5  UNL     1      18.359 -10.495 -24.344  1.00  0.00    -0.023 N 
ATOM      8  H5  UNL     1      17.974 -11.076 -23.600  1.00  0.00     0.203 HD
HETATM    9  C4  UNL     1      18.414  -9.152 -24.187  1.00  0.00     0.694 A 
ENDROOT
BRANCH   3  10
HETATM   10  S1  UNL     1      20.016  -7.953 -27.529  1.00  0.00     0.290 S 
HETATM   11  O1  UNL     1      20.524  -8.869 -28.606  1.00  0.00    -0.198 OA
HETATM   12  O2  UNL     1      18.968  -7.076 -28.177  1.00  0.00    -0.198 OA
BRANCH  10  13
HETATM   13  N2  UNL     1      21.363  -7.003 -26.987  1.00  0.00    -0.322 N 
ATOM     14  H22 UNL     1      21.904  -7.225 -26.151  1.00  0.00     0.169 HD
ATOM     15  H21 UNL     1      21.540  -6.209 -27.602  1.00  0.00     0.169 HD
ENDBRANCH  10  13
ENDBRANCH   3  10
BRANCH   9  16
HETATM   16  N6  UNL     1      17.966  -8.645 -23.081  1.00  0.00    -0.234 N 
ATOM     17  H62 UNL     1      18.641  -8.271 -22.414  1.00  0.00     0.174 HD
ATOM     18  H61 UNL     1      16.961  -8.633 -22.905  1.00  0.00     0.174 HD
ENDBRANCH   9  16
BRANCH   6  19
HETATM   19  N4  UNL     1      18.788 -12.322 -25.685  1.00  0.00    -0.234 N 
ATOM     20  H42 UNL     1      18.713 -12.739 -26.613  1.00  0.00     0.174 HD
ATOM     21  H41 UNL     1      18.849 -12.959 -24.891  1.00  0.00     0.174 HD
ENDBRANCH   6  19
TORSDOF 4
ENDMDL
MODEL 3
REMARK VINA RESULT: -5.747691811      1.066      1.066
REMARK  4 active torsions:
REMARK  status: ('A' for Active; 'I' for Inactive)
REMARK    1  A    between atoms: C2_3  and  S1_4 
REMARK    2  A    between atoms: S1_4  and  N2_5 
REMARK    3  A    between atoms: C3_12  and  N4_13 
REMARK    4  A    between atoms: C4_18  and  N6_19 
ROOT
HETATM    1  C1  UNL     1      19.282  -9.542 -25.993  1.00  0.00     0.178 C 
HETATM    2  N1  UNL     1      18.944  -8.134 -25.841  1.00  0.00    -0.159 N 
HETATM    3  C2  UNL     1      18.283  -7.656 -24.774  1.00  0.00     0.254 A 
HETATM    4  N3  UNL     1      17.988  -6.346 -24.669  1.00  0.00    -0.163 N 
ATOM      5  H3  UNL     1      17.485  -6.019 -23.844  1.00  0.00     0.186 HD
HETATM    6  C3  UNL     1      18.334  -5.457 -25.614  1.00  0.00     0.692 A 
HETATM    7  N5  UNL     1      18.995  -5.925 -26.683  1.00  0.00    -0.023 N 
ATOM      8  H5  UNL     1      19.278  -5.283 -27.423  1.00  0.00     0.203 HD
HETATM    9  C4  UNL     1      19.291  -7.242 -26.786  1.00  0.00     0.694 A 
ENDROOT
BRANCH   3  10
HETATM   10  S1  UNL     1      17.796  -8.727 -23.510  1.00  0.00     0.290 S 
HETATM   11  O1  UNL     1      16.919  -7.965 -22.557  1.00  0.00    -0.198 OA
HETATM   12  O2  UNL     1      16.962  -9.878 -24.027  1.00  0.00    -0.198 OA
BRANCH  10  13
HETATM   13  N2  UNL     1      19.154  -9.312 -22.602  1.00  0.00    -0.322 N 
ATOM     14  H22 UNL     1      19.853  -9.948 -22.987  1.00  0.00     0.169 HD
ATOM     15  H21 UNL     1      19.161  -8.943 -21.651  1.00  0.00     0.169 HD
ENDBRANCH  10  13
ENDBRANCH   3  10
BRANCH   9  16
HETATM   16  N6  UNL     1      19.931  -7.645 -27.839  1.00  0.00    -0.234 N 
ATOM     17  H62 UNL     1      20.919  -7.406 -27.924  1.00  0.00     0.174 HD
ATOM     18  H61 UNL     1      19.438  -8.187 -28.549  1.00  0.00     0.174 HD
ENDBRANCH   9  16
BRANCH   6  19
HETATM   19  N4  UNL     1      18.024  -4.235 -25.451  1.00  0.00    -0.234 N 
ATOM     20  H42 UNL     1      18.705  -3.480 -25.378  1.00  0.00     0.174 HD
ATOM     21  H41 UNL     1      17.038  -3.981 -25.385  1.00  0.00     0.174 HD
ENDBRANCH   6  19
TORSDOF 4
ENDMDL
MODEL 4
REMARK VINA RESULT: -5.675609495      2.860      4.452
REMARK  4 active torsions:
REMARK  status: ('A' for Active; 'I' for Inactive)
REMARK    1  A    between atoms: C2_3  and  S1_4 
REMARK    2  A    between atoms: S1_4  and  N2_5 
REMARK    3  A    between atoms: C3_12  and  N4_13 
REMARK    4  A    between atoms: C4_18  and  N6_19 
ROOT
HETATM    1  C1  UNL     1      19.286  -5.700 -26.148  1.00  0.00     0.178 C 
HETATM    2  N1  UNL     1      18.587  -6.661 -25.307  1.00  0.00    -0.159 N 
HETATM    3  C2  UNL     1      18.694  -7.989 -25.478  1.00  0.00     0.254 A 
HETATM    4  N3  UNL     1      18.032  -8.848 -24.679  1.00  0.00    -0.163 N 
ATOM      5  H3  UNL     1      18.137  -9.850 -24.839  1.00  0.00     0.186 HD
HETATM    6  C3  UNL     1      17.239  -8.430 -23.680  1.00  0.00     0.692 A 
HETATM    7  N5  UNL     1      17.128  -7.105 -23.500  1.00  0.00    -0.023 N 
ATOM      8  H5  UNL     1      16.536  -6.744 -22.751  1.00  0.00     0.203 HD
HETATM    9  C4  UNL     1      17.794  -6.243 -24.304  1.00  0.00     0.694 A 
ENDROOT
BRANCH   3  10
HETATM   10  S1  UNL     1      19.691  -8.618 -26.740  1.00  0.00     0.290 S 
HETATM   11  O1  UNL     1      19.384 -10.081 -26.899  1.00  0.00    -0.198 OA
HETATM   12  O2  UNL     1      19.393  -7.975 -28.076  1.00  0.00    -0.198 OA
BRANCH  10  13
HETATM   13  N2  UNL     1      21.377  -8.487 -26.356  1.00  0.00    -0.322 N 
ATOM     14  H22 UNL     1      21.727  -7.998 -25.531  1.00  0.00     0.169 HD
ATOM     15  H21 UNL     1      21.961  -8.954 -27.049  1.00  0.00     0.169 HD
ENDBRANCH  10  13
ENDBRANCH   3  10
BRANCH   9  16
HETATM   16  N6  UNL     1      17.653  -4.972 -24.090  1.00  0.00    -0.234 N 
ATOM     17  H62 UNL     1      17.785  -4.334 -24.875  1.00  0.00     0.174 HD
ATOM     18  H61 UNL     1      17.415  -4.644 -23.154  1.00  0.00     0.174 HD
ENDBRANCH   9  16
BRANCH   6  19
HETATM   19  N4  UNL     1      16.644  -9.295 -22.964  1.00  0.00    -0.234 N 
ATOM     20  H42 UNL     1      16.106  -9.070 -22.127  1.00  0.00     0.174 HD
ATOM     21  H41 UNL     1      16.702 -10.278 -23.230  1.00  0.00     0.174 HD
ENDBRANCH   6  19
TORSDOF 4
ENDMDL
MODEL 5
REMARK VINA RESULT: -5.560697722      0.945      2.667
REMARK  4 active torsions:
REMARK  status: ('A' for Active; 'I' for Inactive)
REMARK    1  A    between atoms: C2_3  and  S1_4 
REMARK    2  A    between atoms: S1_4  and  N2_5 
REMARK    3  A    between atoms: C3_12  and  N4_13 
REMARK    4  A    between atoms: C4_18  and  N6_19 
ROOT
HETATM    1  C1  UNL     1      16.838  -5.826 -23.665  1.00  0.00     0.178 C 
HETATM    2  N1  UNL     1      17.701  -6.430 -24.670  1.00  0.00    -0.159 N 
HETATM    3  C2  UNL     1      17.865  -7.758 -24.783  1.00  0.00     0.254 A 
HETATM    4  N3  UNL     1      18.673  -8.281 -25.725  1.00  0.00    -0.163 N 
ATOM      5  H3  UNL     1      18.773  -9.294 -25.782  1.00  0.00     0.186 HD
HETATM    6  C3  UNL     1      19.351  -7.512 -26.594  1.00  0.00     0.692 A 
HETATM    7  N5  UNL     1      19.192  -6.184 -26.489  1.00  0.00    -0.023 N 
ATOM      8  H5  UNL     1      19.687  -5.564 -27.129  1.00  0.00     0.203 HD
HETATM    9  C4  UNL     1      18.379  -5.661 -25.541  1.00  0.00     0.694 A 
ENDROOT
BRANCH   3  10
HETATM   10  S1  UNL     1      17.035  -8.824 -23.708  1.00  0.00     0.290 S 
HETATM   11  O1  UNL     1      15.570  -8.491 -23.751  1.00  0.00    -0.198 OA
HETATM   12  O2  UNL     1      17.153 -10.270 -24.136  1.00  0.00    -0.198 OA
BRANCH  10  13
HETATM   13  N2  UNL     1      17.559  -8.624 -22.067  1.00  0.00    -0.322 N 
ATOM     14  H22 UNL     1      17.614  -7.716 -21.604  1.00  0.00     0.169 HD
ATOM     15  H21 UNL     1      17.800  -9.515 -21.634  1.00  0.00     0.169 HD
ENDBRANCH  10  13
ENDBRANCH   3  10
BRANCH   9  16
HETATM   16  N6  UNL     1      18.260  -4.372 -25.480  1.00  0.00    -0.234 N 
ATOM     17  H62 UNL     1      18.686  -3.884 -24.691  1.00  0.00     0.174 HD
ATOM     18  H61 UNL     1      17.748  -3.880 -26.213  1.00  0.00     0.174 HD
ENDBRANCH   9  16
BRANCH   6  19
HETATM   19  N4  UNL     1      20.095  -8.072 -27.458  1.00  0.00    -0.234 N 
ATOM     20  H42 UNL     1      20.570  -8.962 -27.310  1.00  0.00     0.174 HD
ATOM     21  H41 UNL     1      20.237  -7.612 -28.358  1.00  0.00     0.174 HD
ENDBRANCH   6  19
TORSDOF 4
ENDMDL
