MODEL 1
REMARK VINA RESULT: -6.271908098      0.000      0.000
REMARK  2 active torsions:
REMARK  status: ('A' for Active; 'I' for Inactive)
REMARK    1  A    between atoms: N3_4  and  C2_5 
REMARK    2  A    between atoms: C5_14  and  N8_15 
ROOT
HETATM    1  C1  UNL     1      16.168  -6.529 -23.447  1.00  0.00     0.195 C 
HETATM    2  N1  UNL     1      17.302  -7.069 -24.154  1.00  0.00    -0.110 N 
HETATM    3  N2  UNL     1      17.570  -8.360 -24.323  1.00  0.00     0.017 NA
HETATM    4  N3  UNL     1      18.703  -8.454 -25.030  1.00  0.00    -0.151 N 
HETATM    5  N7  UNL     1      19.109  -7.227 -25.280  1.00  0.00    -0.109 N 
HETATM    6  C4  UNL     1      20.313  -6.882 -26.030  1.00  0.00     0.199 C 
HETATM    7  C5  UNL     1      18.255  -6.334 -24.746  1.00  0.00     0.708 A 
ENDROOT
BRANCH   4   8
HETATM    8  C2  UNL     1      19.369  -9.687 -25.447  1.00  0.00     0.433 C 
HETATM    9  N4  UNL     1      18.841 -10.839 -24.784  1.00  0.00    -0.022 N 
HETATM   10  C3  UNL     1      18.625 -11.828 -25.818  1.00  0.00     0.366 C 
ATOM     11  H42 UNL     1      19.425 -11.172 -24.017  1.00  0.00     0.282 HD
ATOM     12  H41 UNL     1      18.009 -10.643 -24.227  1.00  0.00     0.282 HD
HETATM   13  N5  UNL     1      18.762 -11.166 -27.081  1.00  0.00    -0.117 NA
HETATM   14  N6  UNL     1      19.178  -9.874 -26.865  1.00  0.00    -0.090 NA
ENDBRANCH   4   8
BRANCH   7  15
HETATM   15  N8  UNL     1      18.378  -5.044 -24.821  1.00  0.00    -0.232 N 
ATOM     16  H82 UNL     1      17.651  -4.369 -24.582  1.00  0.00     0.174 HD
ATOM     17  H81 UNL     1      19.177  -4.483 -25.116  1.00  0.00     0.174 HD
ENDBRANCH   7  15
TORSDOF 2
ENDMDL
MODEL 2
REMARK VINA RESULT: -5.670772064      1.241      2.439
REMARK  2 active torsions:
REMARK  status: ('A' for Active; 'I' for Inactive)
REMARK    1  A    between atoms: N3_4  and  C2_5 
REMARK    2  A    between atoms: C5_14  and  N8_15 
ROOT
HETATM    1  C1  UNL     1      19.625  -5.099 -26.809  1.00  0.00     0.195 C 
HETATM    2  N1  UNL     1      18.983  -6.049 -25.935  1.00  0.00    -0.110 N 
HETATM    3  N2  UNL     1      19.253  -7.348 -25.867  1.00  0.00     0.017 NA
HETATM    4  N3  UNL     1      18.451  -7.886 -24.940  1.00  0.00    -0.151 N 
HETATM    5  N7  UNL     1      17.707  -6.912 -24.458  1.00  0.00    -0.109 N 
HETATM    6  C4  UNL     1      16.694  -7.071 -23.419  1.00  0.00     0.199 C 
HETATM    7  C5  UNL     1      18.014  -5.747 -25.058  1.00  0.00     0.708 A 
ENDROOT
BRANCH   4   8
HETATM    8  C2  UNL     1      18.406  -9.290 -24.535  1.00  0.00     0.433 C 
HETATM    9  N4  UNL     1      17.533 -10.064 -25.363  1.00  0.00    -0.022 N 
HETATM   10  C3  UNL     1      18.271 -11.260 -25.708  1.00  0.00     0.366 C 
ATOM     11  H42 UNL     1      16.627 -10.253 -24.935  1.00  0.00     0.282 HD
ATOM     12  H41 UNL     1      17.182  -9.554 -26.174  1.00  0.00     0.282 HD
HETATM   13  N5  UNL     1      19.635 -11.051 -25.319  1.00  0.00    -0.117 NA
HETATM   14  N6  UNL     1      19.728  -9.857 -24.643  1.00  0.00    -0.090 NA
ENDBRANCH   4   8
BRANCH   7  15
HETATM   15  N8  UNL     1      17.456  -4.603 -24.802  1.00  0.00    -0.232 N 
ATOM     16  H82 UNL     1      17.763  -3.703 -25.172  1.00  0.00     0.174 HD
ATOM     17  H81 UNL     1      16.649  -4.390 -24.217  1.00  0.00     0.174 HD
ENDBRANCH   7  15
TORSDOF 2
ENDMDL
MODEL 3
REMARK VINA RESULT: -5.549593145      1.343      1.537
REMARK  2 active torsions:
REMARK  status: ('A' for Active; 'I' for Inactive)
REMARK    1  A    between atoms: N3_4  and  C2_5 
REMARK    2  A    between atoms: C5_14  and  N8_15 
ROOT
HETATM    1  C1  UNL     1      16.965  -5.202 -24.099  1.00  0.00     0.195 C 
HETATM    2  N1  UNL     1      18.010  -5.811 -24.883  1.00  0.00    -0.110 N 
HETATM    3  N2  UNL     1      18.365  -7.091 -24.844  1.00  0.00     0.017 NA
HETATM    4  N3  UNL     1      19.367  -7.265 -25.715  1.00  0.00    -0.151 N 
HETATM    5  N7  UNL     1      19.608  -6.096 -26.269  1.00  0.00    -0.109 N 
HETATM    6  C4  UNL     1      20.630  -5.847 -27.281  1.00  0.00     0.199 C 
HETATM    7  C5  UNL     1      18.776  -5.162 -25.772  1.00  0.00     0.708 A 
ENDROOT
BRANCH   4   8
HETATM    8  C2  UNL     1      20.066  -8.518 -25.999  1.00  0.00     0.433 C 
HETATM    9  N4  UNL     1      20.017  -9.427 -24.896  1.00  0.00    -0.022 N 
HETATM   10  C3  UNL     1      19.647 -10.710 -25.455  1.00  0.00     0.366 C 
ATOM     11  H42 UNL     1      20.878  -9.453 -24.350  1.00  0.00     0.282 HD
ATOM     12  H41 UNL     1      19.404  -9.120 -24.141  1.00  0.00     0.282 HD
HETATM   13  N5  UNL     1      19.221 -10.484 -26.804  1.00  0.00    -0.117 NA
HETATM   14  N6  UNL     1      19.440  -9.165 -27.126  1.00  0.00    -0.090 NA
ENDBRANCH   4   8
BRANCH   7  15
HETATM   15  N8  UNL     1      18.763  -3.911 -26.119  1.00  0.00    -0.232 N 
ATOM     16  H82 UNL     1      19.589  -3.346 -26.315  1.00  0.00     0.174 HD
ATOM     17  H81 UNL     1      17.971  -3.283 -26.256  1.00  0.00     0.174 HD
ENDBRANCH   7  15
TORSDOF 2
ENDMDL
MODEL 4
REMARK VINA RESULT: -5.509320989      2.572      4.225
REMARK  2 active torsions:
REMARK  status: ('A' for Active; 'I' for Inactive)
REMARK    1  A    between atoms: N3_4  and  C2_5 
REMARK    2  A    between atoms: C5_14  and  N8_15 
ROOT
HETATM    1  C1  UNL     1      18.290 -11.693 -25.815  1.00  0.00     0.195 C 
HETATM    2  N1  UNL     1      19.090 -10.502 -25.950  1.00  0.00    -0.110 N 
HETATM    3  N2  UNL     1      19.436  -9.924 -27.095  1.00  0.00     0.017 NA
HETATM    4  N3  UNL     1      20.175  -8.846 -26.803  1.00  0.00    -0.151 N 
HETATM    5  N7  UNL     1      20.268  -8.782 -25.491  1.00  0.00    -0.109 N 
HETATM    6  C4  UNL     1      20.991  -7.750 -24.756  1.00  0.00     0.199 C 
HETATM    7  C5  UNL     1      19.600  -9.803 -24.925  1.00  0.00     0.708 A 
ENDROOT
BRANCH   4   8
HETATM    8  C2  UNL     1      20.769  -7.913 -27.759  1.00  0.00     0.433 C 
HETATM    9  N4  UNL     1      21.924  -8.459 -28.403  1.00  0.00    -0.022 N 
HETATM   10  C3  UNL     1      21.758  -8.184 -29.814  1.00  0.00     0.366 C 
ATOM     11  H42 UNL     1      22.804  -8.114 -28.021  1.00  0.00     0.282 HD
ATOM     12  H41 UNL     1      22.078  -9.445 -28.195  1.00  0.00     0.282 HD
HETATM   13  N5  UNL     1      20.410  -7.739 -30.010  1.00  0.00    -0.117 NA
HETATM   14  N6  UNL     1      19.802  -7.604 -28.785  1.00  0.00    -0.090 NA
ENDBRANCH   4   8
BRANCH   7  15
HETATM   15  N8  UNL     1      19.503 -10.017 -23.648  1.00  0.00    -0.232 N 
ATOM     16  H82 UNL     1      20.120  -9.625 -22.937  1.00  0.00     0.174 HD
ATOM     17  H81 UNL     1      18.830 -10.585 -23.133  1.00  0.00     0.174 HD
ENDBRANCH   7  15
TORSDOF 2
ENDMDL
MODEL 5
REMARK VINA RESULT: -5.420953136      2.422      3.961
REMARK  2 active torsions:
REMARK  status: ('A' for Active; 'I' for Inactive)
REMARK    1  A    between atoms: N3_4  and  C2_5 
REMARK    2  A    between atoms: C5_14  and  N8_15 
ROOT
HETATM    1  C1  UNL     1      21.092  -8.026 -29.220  1.00  0.00     0.195 C 
HETATM    2  N1  UNL     1      21.082  -8.396 -27.827  1.00  0.00    -0.110 N 
HETATM    3  N2  UNL     1      20.099  -9.032 -27.200  1.00  0.00     0.017 NA
HETATM    4  N3  UNL     1      20.465  -9.193 -25.921  1.00  0.00    -0.151 N 
HETATM    5  N7  UNL     1      21.659  -8.655 -25.789  1.00  0.00    -0.109 N 
HETATM    6  C4  UNL     1      22.424  -8.617 -24.546  1.00  0.00     0.199 C 
HETATM    7  C5  UNL     1      22.077  -8.147 -26.963  1.00  0.00     0.708 A 
ENDROOT
BRANCH   4   8
HETATM    8  C2  UNL     1      19.687  -9.843 -24.868  1.00  0.00     0.433 C 
HETATM    9  N4  UNL     1      18.507  -9.107 -24.534  1.00  0.00    -0.022 N 
HETATM   10  C3  UNL     1      17.432 -10.076 -24.495  1.00  0.00     0.366 C 
ATOM     11  H42 UNL     1      18.596  -8.561 -23.677  1.00  0.00     0.282 HD
ATOM     12  H41 UNL     1      18.325  -8.322 -25.160  1.00  0.00     0.282 HD
HETATM   13  N5  UNL     1      17.929 -11.292 -25.066  1.00  0.00    -0.117 NA
HETATM   14  N6  UNL     1      19.273 -11.149 -25.321  1.00  0.00    -0.090 NA
ENDBRANCH   4   8
BRANCH   7  15
HETATM   15  N8  UNL     1      23.214  -7.551 -27.158  1.00  0.00    -0.232 N 
ATOM     16  H82 UNL     1      23.485  -7.068 -28.015  1.00  0.00     0.174 HD
ATOM     17  H81 UNL     1      24.012  -7.454 -26.532  1.00  0.00     0.174 HD
ENDBRANCH   7  15
TORSDOF 2
ENDMDL
