MODEL 1
REMARK VINA RESULT: -7.136816483      0.000      0.000
REMARK  3 active torsions:
REMARK  status: ('A' for Active; 'I' for Inactive)
REMARK    1  A    between atoms: C5_6  and  N1_7 
REMARK       I    between atoms: N1_7  and  C6_9 
REMARK    2  A    between atoms: C6_9  and  C7_11 
REMARK    3  A    between atoms: C13_22  and  C14_23 
ROOT
HETATM    1  C1  UNL     1      37.472  22.382  28.489  1.00  0.00     0.029 C 
HETATM    2  C2  UNL     1      37.499  23.815  28.079  1.00  0.00     0.033 C 
HETATM    3  C3  UNL     1      38.919  24.281  27.880  1.00  0.00     0.029 C 
HETATM    4  S1  UNL     1      36.562  24.141  26.564  1.00  0.00    -0.129 SA
HETATM    5  C4  UNL     1      35.745  25.663  27.112  1.00  0.00     0.183 C 
HETATM    6  C5  UNL     1      36.283  26.937  26.474  1.00  0.00     0.210 C 
HETATM    7  C12 UNL     1      36.552  27.332  27.910  1.00  0.00     0.247 C 
HETATM    8  O3  UNL     1      36.695  28.442  28.447  1.00  0.00    -0.271 OA
HETATM    9  N2  UNL     1      36.562  25.944  28.306  1.00  0.00    -0.318 N 
HETATM   10  C13 UNL     1      36.833  24.746  29.044  1.00  0.00     0.207 C 
ENDROOT
BRANCH   6  11
HETATM   11  N1  UNL     1      35.265  27.743  25.883  1.00  0.00    -0.344 N 
HETATM   12  C6  UNL     1      35.511  28.486  24.719  1.00  0.00     0.238 C 
HETATM   13  O1  UNL     1      36.648  28.438  24.189  1.00  0.00    -0.272 OA
ATOM     14  H1  UNL     1      34.342  27.779  26.314  1.00  0.00     0.163 HD
BRANCH  12  15
HETATM   15  C7  UNL     1      34.471  29.320  24.100  1.00  0.00     0.106 C 
HETATM   16 BR1  UNL     1      33.023  29.712  25.308  1.00  0.00    -0.075 Br
HETATM   17  C8  UNL     1      35.001  30.561  23.460  1.00  0.00     0.110 C 
HETATM   18  C9  UNL     1      33.925  30.875  22.457  1.00  0.00     0.143 C 
HETATM   19  O2  UNL     1      33.824  31.969  21.924  1.00  0.00    -0.297 OA
HETATM   20  C10 UNL     1      33.064  29.678  22.252  1.00  0.00     0.129 C 
HETATM   21 BR2  UNL     1      32.762  29.348  20.372  1.00  0.00    -0.083 Br
HETATM   22  C11 UNL     1      33.864  28.584  22.904  1.00  0.00     0.055 C 
ENDBRANCH  12  15
ENDBRANCH   6  11
BRANCH  10  23
HETATM   23  C14 UNL     1      35.574  24.240  29.624  1.00  0.00     0.198 C 
HETATM   24  O4  UNL     1      34.436  24.678  29.293  1.00  0.00    -0.646 OA
HETATM   25  O5  UNL     1      35.622  23.244  30.572  1.00  0.00    -0.646 OA
ENDBRANCH  10  23
TORSDOF 3
ENDMDL
MODEL 2
REMARK VINA RESULT: -6.817530805      5.133      6.737
REMARK  3 active torsions:
REMARK  status: ('A' for Active; 'I' for Inactive)
REMARK    1  A    between atoms: C5_6  and  N1_7 
REMARK       I    between atoms: N1_7  and  C6_9 
REMARK    2  A    between atoms: C6_9  and  C7_11 
REMARK    3  A    between atoms: C13_22  and  C14_23 
ROOT
HETATM    1  C1  UNL     1      33.105  29.564  27.521  1.00  0.00     0.029 C 
HETATM    2  C2  UNL     1      33.977  29.535  26.313  1.00  0.00     0.033 C 
HETATM    3  C3  UNL     1      33.141  29.543  25.058  1.00  0.00     0.029 C 
HETATM    4  S1  UNL     1      35.145  30.917  26.243  1.00  0.00    -0.129 SA
HETATM    5  C4  UNL     1      36.599  29.974  25.713  1.00  0.00     0.183 C 
HETATM    6  C5  UNL     1      37.004  30.193  24.262  1.00  0.00     0.210 C 
HETATM    7  C12 UNL     1      36.801  28.697  24.164  1.00  0.00     0.247 C 
HETATM    8  O3  UNL     1      37.250  27.854  23.371  1.00  0.00    -0.271 OA
HETATM    9  N2  UNL     1      35.928  28.725  25.313  1.00  0.00    -0.318 N 
HETATM   10  C13 UNL     1      34.905  28.362  26.248  1.00  0.00     0.207 C 
ENDROOT
BRANCH   6  11
HETATM   11  N1  UNL     1      38.375  30.555  24.110  1.00  0.00    -0.344 N 
HETATM   12  C6  UNL     1      38.768  31.899  24.029  1.00  0.00     0.238 C 
HETATM   13  O1  UNL     1      37.895  32.799  24.093  1.00  0.00    -0.272 OA
ATOM     14  H1  UNL     1      39.083  29.823  24.059  1.00  0.00     0.163 HD
BRANCH  12  15
HETATM   15  C7  UNL     1      40.177  32.285  23.872  1.00  0.00     0.106 C 
HETATM   16 BR1  UNL     1      41.378  31.086  24.785  1.00  0.00    -0.075 Br
HETATM   17  C8  UNL     1      40.587  32.492  22.451  1.00  0.00     0.110 C 
HETATM   18  C9  UNL     1      41.774  33.403  22.601  1.00  0.00     0.143 C 
HETATM   19  O2  UNL     1      42.582  33.583  21.702  1.00  0.00    -0.297 OA
HETATM   20  C10 UNL     1      41.779  34.002  23.963  1.00  0.00     0.129 C 
HETATM   21 BR2  UNL     1      42.102  35.906  23.887  1.00  0.00    -0.083 Br
HETATM   22  C11 UNL     1      40.401  33.675  24.469  1.00  0.00     0.055 C 
ENDBRANCH  12  15
ENDBRANCH   6  11
BRANCH  10  23
HETATM   23  C14 UNL     1      35.531  27.996  27.533  1.00  0.00     0.198 C 
HETATM   24  O4  UNL     1      36.393  28.716  28.111  1.00  0.00    -0.646 OA
HETATM   25  O5  UNL     1      35.170  26.819  28.147  1.00  0.00    -0.646 OA
ENDBRANCH  10  23
TORSDOF 3
ENDMDL
MODEL 3
REMARK VINA RESULT: -6.612487090      2.438      3.566
REMARK  3 active torsions:
REMARK  status: ('A' for Active; 'I' for Inactive)
REMARK    1  A    between atoms: C5_6  and  N1_7 
REMARK       I    between atoms: N1_7  and  C6_9 
REMARK    2  A    between atoms: C6_9  and  C7_11 
REMARK    3  A    between atoms: C13_22  and  C14_23 
ROOT
HETATM    1  C1  UNL     1      39.397  21.394  27.373  1.00  0.00     0.029 C 
HETATM    2  C2  UNL     1      38.541  22.424  28.029  1.00  0.00     0.033 C 
HETATM    3  C3  UNL     1      38.913  22.570  29.483  1.00  0.00     0.029 C 
HETATM    4  S1  UNL     1      38.645  24.048  27.236  1.00  0.00    -0.129 SA
HETATM    5  C4  UNL     1      36.875  24.440  27.264  1.00  0.00     0.183 C 
HETATM    6  C5  UNL     1      36.476  25.501  28.280  1.00  0.00     0.210 C 
HETATM    7  C12 UNL     1      35.581  24.403  28.812  1.00  0.00     0.247 C 
HETATM    8  O3  UNL     1      34.545  24.441  29.494  1.00  0.00    -0.271 OA
HETATM    9  N2  UNL     1      36.426  23.401  28.207  1.00  0.00    -0.318 N 
HETATM   10  C13 UNL     1      37.072  22.148  27.948  1.00  0.00     0.207 C 
ENDROOT
BRANCH   6  11
HETATM   11  N1  UNL     1      35.723  26.570  27.709  1.00  0.00    -0.344 N 
HETATM   12  C6  UNL     1      36.360  27.670  27.113  1.00  0.00     0.238 C 
HETATM   13  O1  UNL     1      37.613  27.711  27.082  1.00  0.00    -0.272 OA
ATOM     14  H1  UNL     1      34.705  26.535  27.735  1.00  0.00     0.163 HD
BRANCH  12  15
HETATM   15  C7  UNL     1      35.596  28.778  26.522  1.00  0.00     0.106 C 
HETATM   16 BR1  UNL     1      36.700  30.307  26.128  1.00  0.00    -0.075 Br
HETATM   17  C8  UNL     1      34.775  28.377  25.341  1.00  0.00     0.110 C 
HETATM   18  C9  UNL     1      33.716  29.445  25.325  1.00  0.00     0.143 C 
HETATM   19  O2  UNL     1      33.013  29.656  24.349  1.00  0.00    -0.297 OA
HETATM   20  C10 UNL     1      33.690  30.148  26.636  1.00  0.00     0.129 C 
HETATM   21 BR2  UNL     1      31.882  30.337  27.292  1.00  0.00    -0.083 Br
HETATM   22  C11 UNL     1      34.524  29.248  27.506  1.00  0.00     0.055 C 
ENDBRANCH  12  15
ENDBRANCH   6  11
BRANCH  10  23
HETATM   23  C14 UNL     1      36.610  21.626  26.647  1.00  0.00     0.198 C 
HETATM   24  O4  UNL     1      36.397  22.363  25.643  1.00  0.00    -0.646 OA
HETATM   25  O5  UNL     1      36.399  20.275  26.501  1.00  0.00    -0.646 OA
ENDBRANCH  10  23
TORSDOF 3
ENDMDL
MODEL 4
REMARK VINA RESULT: -6.601428683      5.623      7.236
REMARK  3 active torsions:
REMARK  status: ('A' for Active; 'I' for Inactive)
REMARK    1  A    between atoms: C5_6  and  N1_7 
REMARK       I    between atoms: N1_7  and  C6_9 
REMARK    2  A    between atoms: C6_9  and  C7_11 
REMARK    3  A    between atoms: C13_22  and  C14_23 
ROOT
HETATM    1  C1  UNL     1      33.185  29.395  27.396  1.00  0.00     0.029 C 
HETATM    2  C2  UNL     1      34.250  29.661  26.388  1.00  0.00     0.033 C 
HETATM    3  C3  UNL     1      33.647  29.841  25.018  1.00  0.00     0.029 C 
HETATM    4  S1  UNL     1      35.253  31.117  26.779  1.00  0.00    -0.129 SA
HETATM    5  C4  UNL     1      36.872  30.405  26.381  1.00  0.00     0.183 C 
HETATM    6  C5  UNL     1      37.495  30.924  25.092  1.00  0.00     0.210 C 
HETATM    7  C12 UNL     1      37.478  29.462  24.702  1.00  0.00     0.247 C 
HETATM    8  O3  UNL     1      38.146  28.820  23.877  1.00  0.00    -0.271 OA
HETATM    9  N2  UNL     1      36.421  29.206  25.653  1.00  0.00    -0.318 N 
HETATM   10  C13 UNL     1      35.298  28.596  26.301  1.00  0.00     0.207 C 
ENDROOT
BRANCH   6  11
HETATM   11  N1  UNL     1      38.824  31.412  25.267  1.00  0.00    -0.344 N 
HETATM   12  C6  UNL     1      39.419  32.256  24.317  1.00  0.00     0.238 C 
HETATM   13  O1  UNL     1      38.768  32.587  23.297  1.00  0.00    -0.272 OA
ATOM     14  H1  UNL     1      39.351  31.143  26.097  1.00  0.00     0.163 HD
BRANCH  12  15
HETATM   15  C7  UNL     1      40.787  32.765  24.485  1.00  0.00     0.106 C 
HETATM   16 BR1  UNL     1      41.836  32.607  22.876  1.00  0.00    -0.075 Br
HETATM   17  C8  UNL     1      40.847  34.150  25.042  1.00  0.00     0.110 C 
HETATM   18  C9  UNL     1      42.224  34.180  25.646  1.00  0.00     0.143 C 
HETATM   19  O2  UNL     1      42.784  35.222  25.951  1.00  0.00    -0.297 OA
HETATM   20  C10 UNL     1      42.741  32.792  25.790  1.00  0.00     0.129 C 
HETATM   21 BR2  UNL     1      43.510  32.511  27.540  1.00  0.00    -0.083 Br
HETATM   22  C11 UNL     1      41.509  31.959  25.565  1.00  0.00     0.055 C 
ENDBRANCH  12  15
ENDBRANCH   6  11
BRANCH  10  23
HETATM   23  C14 UNL     1      35.730  28.043  27.599  1.00  0.00     0.198 C 
HETATM   24  O4  UNL     1      36.632  28.571  28.308  1.00  0.00    -0.646 OA
HETATM   25  O5  UNL     1      35.131  26.901  28.077  1.00  0.00    -0.646 OA
ENDBRANCH  10  23
TORSDOF 3
ENDMDL
MODEL 5
REMARK VINA RESULT: -6.582337594      2.374      2.918
REMARK  3 active torsions:
REMARK  status: ('A' for Active; 'I' for Inactive)
REMARK    1  A    between atoms: C5_6  and  N1_7 
REMARK       I    between atoms: N1_7  and  C6_9 
REMARK    2  A    between atoms: C6_9  and  C7_11 
REMARK    3  A    between atoms: C13_22  and  C14_23 
ROOT
HETATM    1  C1  UNL     1      37.526  21.250  29.868  1.00  0.00     0.029 C 
HETATM    2  C2  UNL     1      37.806  22.619  29.350  1.00  0.00     0.033 C 
HETATM    3  C3  UNL     1      39.194  22.688  28.764  1.00  0.00     0.029 C 
HETATM    4  S1  UNL     1      36.618  23.165  28.098  1.00  0.00    -0.129 SA
HETATM    5  C4  UNL     1      36.388  24.856  28.708  1.00  0.00     0.183 C 
HETATM    6  C5  UNL     1      37.044  25.933  27.855  1.00  0.00     0.210 C 
HETATM    7  C12 UNL     1      37.774  26.259  29.140  1.00  0.00     0.247 C 
HETATM    8  O3  UNL     1      38.330  27.297  29.533  1.00  0.00    -0.271 OA
HETATM    9  N2  UNL     1      37.535  24.923  29.632  1.00  0.00    -0.318 N 
HETATM   10  C13 UNL     1      37.677  23.705  30.373  1.00  0.00     0.207 C 
ENDROOT
BRANCH   6  11
HETATM   11  N1  UNL     1      36.146  26.974  27.476  1.00  0.00    -0.344 N 
HETATM   12  C6  UNL     1      36.533  27.975  26.572  1.00  0.00     0.238 C 
HETATM   13  O1  UNL     1      37.691  27.951  26.089  1.00  0.00    -0.272 OA
ATOM     14  H1  UNL     1      35.205  26.991  27.868  1.00  0.00     0.163 HD
BRANCH  12  15
HETATM   15  C7  UNL     1      35.618  29.053  26.173  1.00  0.00     0.106 C 
HETATM   16 BR1  UNL     1      36.540  30.699  25.783  1.00  0.00    -0.075 Br
HETATM   17  C8  UNL     1      34.689  28.671  25.067  1.00  0.00     0.110 C 
HETATM   18  C9  UNL     1      33.556  29.640  25.268  1.00  0.00     0.143 C 
HETATM   19  O2  UNL     1      32.721  29.861  24.404  1.00  0.00    -0.297 OA
HETATM   20  C10 UNL     1      33.639  30.237  26.628  1.00  0.00     0.129 C 
HETATM   21 BR2  UNL     1      31.919  30.216  27.507  1.00  0.00    -0.083 Br
HETATM   22  C11 UNL     1      34.643  29.351  27.313  1.00  0.00     0.055 C 
ENDBRANCH  12  15
ENDBRANCH   6  11
BRANCH  10  23
HETATM   23  C14 UNL     1      36.530  23.558  31.290  1.00  0.00     0.198 C 
HETATM   24  O4  UNL     1      35.328  23.586  30.902  1.00  0.00    -0.646 OA
HETATM   25  O5  UNL     1      36.761  23.382  32.634  1.00  0.00    -0.646 OA
ENDBRANCH  10  23
TORSDOF 3
ENDMDL
