MODEL 1
REMARK VINA RESULT: -7.573067514      0.000      0.000
REMARK  4 active torsions:
REMARK  status: ('A' for Active; 'I' for Inactive)
REMARK    1  A    between atoms: C1_2  and  C2_3 
REMARK       I    between atoms: C1_2  and  N2_18 
REMARK    2  A    between atoms: C2_3  and  N1_4 
REMARK       I    between atoms: N1_4  and  C3_6 
REMARK    3  A    between atoms: C3_6  and  C4_8 
REMARK    4  A    between atoms: N2_18  and  C14_20 
ROOT
HETATM    1  C2  UNL     1      35.851  24.722  27.414  1.00  0.00     0.225 C 
ENDROOT
BRANCH   1   2
HETATM    2  C1  UNL     1      35.652  24.266  28.799  1.00  0.00     0.236 C 
HETATM    3  O1  UNL     1      34.598  24.543  29.397  1.00  0.00    -0.272 OA
HETATM    4  N2  UNL     1      36.653  23.518  29.449  1.00  0.00    -0.342 N 
ATOM      5  H2  UNL     1      37.506  23.309  28.931  1.00  0.00     0.163 HD
BRANCH   4   6
HETATM    6  C14 UNL     1      36.544  23.029  30.803  1.00  0.00     0.211 C 
HETATM    7  C15 UNL     1      37.396  21.860  31.119  1.00  0.00     0.046 C 
HETATM    8  C16 UNL     1      38.349  22.138  32.207  1.00  0.00     0.075 C 
HETATM    9  C17 UNL     1      37.738  23.107  33.198  1.00  0.00     0.263 C 
HETATM   10  F1  UNL     1      36.752  22.438  33.892  1.00  0.00    -0.213 F 
HETATM   11 BR1  UNL     1      39.031  23.954  34.306  1.00  0.00    -0.031 Br
HETATM   12  S1  UNL     1      37.008  24.251  32.012  1.00  0.00     0.213 S 
HETATM   13  O3  UNL     1      35.852  24.968  32.578  1.00  0.00    -0.221 OA
HETATM   14  O4  UNL     1      38.076  25.115  31.468  1.00  0.00    -0.221 OA
ENDBRANCH   4   6
ENDBRANCH   1   2
BRANCH   1  15
HETATM   15  N1  UNL     1      35.396  26.102  27.242  1.00  0.00    -0.352 N 
HETATM   16  C3  UNL     1      35.870  26.935  26.221  1.00  0.00     0.226 C 
HETATM   17  O2  UNL     1      36.718  26.504  25.409  1.00  0.00    -0.273 OA
ATOM     18  H1  UNL     1      34.705  26.473  27.894  1.00  0.00     0.162 HD
BRANCH  16  19
HETATM   19  C4  UNL     1      35.379  28.323  26.091  1.00  0.00     0.042 C 
HETATM   20  C5  UNL     1      34.628  28.397  24.756  1.00  0.00     0.024 C 
HETATM   21  C6  UNL     1      34.040  29.767  24.541  1.00  0.00    -0.013 C 
HETATM   22  C7  UNL     1      35.170  30.758  24.505  1.00  0.00     0.009 C 
HETATM   23  C11 UNL     1      33.086  30.077  25.677  1.00  0.00     0.009 C 
HETATM   24  C8  UNL     1      35.916  30.692  25.813  1.00  0.00    -0.013 C 
HETATM   25  C9  UNL     1      34.975  31.084  26.908  1.00  0.00     0.009 C 
HETATM   26  C13 UNL     1      36.502  29.324  26.053  1.00  0.00     0.024 C 
HETATM   27  C10 UNL     1      33.872  30.048  26.968  1.00  0.00    -0.013 C 
HETATM   28  C12 UNL     1      34.413  28.677  27.203  1.00  0.00     0.024 C 
ENDBRANCH  16  19
ENDBRANCH   1  15
TORSDOF 4
ENDMDL
MODEL 2
REMARK VINA RESULT: -7.459443863      0.129      1.436
REMARK  4 active torsions:
REMARK  status: ('A' for Active; 'I' for Inactive)
REMARK    1  A    between atoms: C1_2  and  C2_3 
REMARK       I    between atoms: C1_2  and  N2_18 
REMARK    2  A    between atoms: C2_3  and  N1_4 
REMARK       I    between atoms: N1_4  and  C3_6 
REMARK    3  A    between atoms: C3_6  and  C4_8 
REMARK    4  A    between atoms: N2_18  and  C14_20 
ROOT
HETATM    1  C2  UNL     1      35.969  24.802  27.416  1.00  0.00     0.225 C 
ENDROOT
BRANCH   1   2
HETATM    2  C1  UNL     1      35.716  24.333  28.788  1.00  0.00     0.236 C 
HETATM    3  O1  UNL     1      34.626  24.575  29.334  1.00  0.00    -0.272 OA
HETATM    4  N2  UNL     1      36.706  23.611  29.483  1.00  0.00    -0.342 N 
ATOM      5  H2  UNL     1      37.589  23.430  29.007  1.00  0.00     0.163 HD
BRANCH   4   6
HETATM    6  C14 UNL     1      36.545  23.113  30.829  1.00  0.00     0.211 C 
HETATM    7  C15 UNL     1      37.407  21.960  31.178  1.00  0.00     0.046 C 
HETATM    8  C16 UNL     1      38.303  22.252  32.310  1.00  0.00     0.075 C 
HETATM    9  C17 UNL     1      37.626  23.201  33.276  1.00  0.00     0.263 C 
HETATM   10  F1  UNL     1      36.623  22.508  33.921  1.00  0.00    -0.213 F 
HETATM   11 BR1  UNL     1      38.847  24.070  34.448  1.00  0.00    -0.031 Br
HETATM   12  S1  UNL     1      36.926  24.337  32.065  1.00  0.00     0.213 S 
HETATM   13  O3  UNL     1      35.729  25.025  32.580  1.00  0.00    -0.221 OA
HETATM   14  O4  UNL     1      37.999  25.227  31.574  1.00  0.00    -0.221 OA
ENDBRANCH   4   6
ENDBRANCH   1   2
BRANCH   1  15
HETATM   15  N1  UNL     1      35.413  26.139  27.205  1.00  0.00    -0.352 N 
HETATM   16  C3  UNL     1      35.864  26.996  26.193  1.00  0.00     0.226 C 
HETATM   17  O2  UNL     1      36.779  26.625  25.424  1.00  0.00    -0.273 OA
ATOM     18  H1  UNL     1      34.667  26.460  27.821  1.00  0.00     0.162 HD
BRANCH  16  19
HETATM   19  C4  UNL     1      35.270  28.338  26.021  1.00  0.00     0.042 C 
HETATM   20  C5  UNL     1      36.439  29.330  25.964  1.00  0.00     0.024 C 
HETATM   21  C6  UNL     1      35.947  30.735  25.742  1.00  0.00    -0.013 C 
HETATM   22  C7  UNL     1      35.065  31.107  26.901  1.00  0.00     0.009 C 
HETATM   23  C11 UNL     1      35.174  30.787  24.439  1.00  0.00     0.009 C 
HETATM   24  C8  UNL     1      33.912  30.138  26.968  1.00  0.00    -0.013 C 
HETATM   25  C9  UNL     1      33.119  30.269  25.706  1.00  0.00     0.009 C 
HETATM   26  C13 UNL     1      34.386  28.723  27.178  1.00  0.00     0.024 C 
HETATM   27  C10 UNL     1      34.000  29.839  24.554  1.00  0.00    -0.013 C 
HETATM   28  C12 UNL     1      34.492  28.440  24.724  1.00  0.00     0.024 C 
ENDBRANCH  16  19
ENDBRANCH   1  15
TORSDOF 4
ENDMDL
MODEL 3
REMARK VINA RESULT: -7.400032199      0.168      1.475
REMARK  4 active torsions:
REMARK  status: ('A' for Active; 'I' for Inactive)
REMARK    1  A    between atoms: C1_2  and  C2_3 
REMARK       I    between atoms: C1_2  and  N2_18 
REMARK    2  A    between atoms: C2_3  and  N1_4 
REMARK       I    between atoms: N1_4  and  C3_6 
REMARK    3  A    between atoms: C3_6  and  C4_8 
REMARK    4  A    between atoms: N2_18  and  C14_20 
ROOT
HETATM    1  C2  UNL     1      35.893  24.723  27.262  1.00  0.00     0.225 C 
ENDROOT
BRANCH   1   2
HETATM    2  C1  UNL     1      35.670  24.302  28.655  1.00  0.00     0.236 C 
HETATM    3  O1  UNL     1      34.617  24.618  29.236  1.00  0.00    -0.272 OA
HETATM    4  N2  UNL     1      36.645  23.543  29.330  1.00  0.00    -0.342 N 
ATOM      5  H2  UNL     1      37.498  23.301  28.825  1.00  0.00     0.163 HD
BRANCH   4   6
HETATM    6  C14 UNL     1      36.512  23.086  30.693  1.00  0.00     0.211 C 
HETATM    7  C15 UNL     1      37.357  21.924  31.051  1.00  0.00     0.046 C 
HETATM    8  C16 UNL     1      38.290  22.228  32.150  1.00  0.00     0.075 C 
HETATM    9  C17 UNL     1      37.662  23.219  33.107  1.00  0.00     0.263 C 
HETATM   10  F1  UNL     1      36.663  22.567  33.798  1.00  0.00    -0.213 F 
HETATM   11 BR1  UNL     1      38.934  24.092  34.218  1.00  0.00    -0.031 Br
HETATM   12  S1  UNL     1      36.954  24.336  31.882  1.00  0.00     0.213 S 
HETATM   13  O3  UNL     1      35.787  25.066  32.410  1.00  0.00    -0.221 OA
HETATM   14  O4  UNL     1      38.032  25.187  31.337  1.00  0.00    -0.221 OA
ENDBRANCH   4   6
ENDBRANCH   1   2
BRANCH   1  15
HETATM   15  N1  UNL     1      35.419  26.090  27.042  1.00  0.00    -0.352 N 
HETATM   16  C3  UNL     1      35.943  26.923  26.045  1.00  0.00     0.226 C 
HETATM   17  O2  UNL     1      36.856  26.504  25.300  1.00  0.00    -0.273 OA
ATOM     18  H1  UNL     1      34.675  26.450  27.639  1.00  0.00     0.162 HD
BRANCH  16  19
HETATM   19  C4  UNL     1      35.429  28.296  25.864  1.00  0.00     0.042 C 
HETATM   20  C5  UNL     1      34.551  28.600  27.084  1.00  0.00     0.024 C 
HETATM   21  C6  UNL     1      34.009  30.003  27.026  1.00  0.00    -0.013 C 
HETATM   22  C7  UNL     1      33.161  30.123  25.790  1.00  0.00     0.009 C 
HETATM   23  C11 UNL     1      35.168  30.978  26.982  1.00  0.00     0.009 C 
HETATM   24  C8  UNL     1      34.015  29.826  24.583  1.00  0.00    -0.013 C 
HETATM   25  C9  UNL     1      35.101  30.853  24.516  1.00  0.00     0.009 C 
HETATM   26  C13 UNL     1      34.578  28.429  24.630  1.00  0.00     0.024 C 
HETATM   27  C10 UNL     1      35.978  30.685  25.739  1.00  0.00    -0.013 C 
HETATM   28  C12 UNL     1      36.556  29.310  25.822  1.00  0.00     0.024 C 
ENDBRANCH  16  19
ENDBRANCH   1  15
TORSDOF 4
ENDMDL
MODEL 4
REMARK VINA RESULT: -7.309385930      6.610      8.890
REMARK  4 active torsions:
REMARK  status: ('A' for Active; 'I' for Inactive)
REMARK    1  A    between atoms: C1_2  and  C2_3 
REMARK       I    between atoms: C1_2  and  N2_18 
REMARK    2  A    between atoms: C2_3  and  N1_4 
REMARK       I    between atoms: N1_4  and  C3_6 
REMARK    3  A    between atoms: C3_6  and  C4_8 
REMARK    4  A    between atoms: N2_18  and  C14_20 
ROOT
HETATM    1  C2  UNL     1      32.952  29.582  20.440  1.00  0.00     0.225 C 
ENDROOT
BRANCH   1   2
HETATM    2  C1  UNL     1      33.212  30.341  21.674  1.00  0.00     0.236 C 
HETATM    3  O1  UNL     1      33.529  31.541  21.607  1.00  0.00    -0.272 OA
HETATM    4  N2  UNL     1      33.104  29.710  22.929  1.00  0.00    -0.342 N 
ATOM      5  H2  UNL     1      32.843  28.725  22.948  1.00  0.00     0.163 HD
BRANCH   4   6
HETATM    6  C14 UNL     1      33.339  30.375  24.189  1.00  0.00     0.211 C 
HETATM    7  C15 UNL     1      32.623  29.795  25.348  1.00  0.00     0.046 C 
HETATM    8  C16 UNL     1      33.543  29.331  26.400  1.00  0.00     0.075 C 
HETATM    9  C17 UNL     1      34.769  30.217  26.446  1.00  0.00     0.263 C 
HETATM   10  F1  UNL     1      34.392  31.438  26.963  1.00  0.00    -0.213 F 
HETATM   11 BR1  UNL     1      36.238  29.412  27.347  1.00  0.00    -0.031 Br
HETATM   12  S1  UNL     1      35.053  30.345  24.671  1.00  0.00     0.213 S 
HETATM   13  O3  UNL     1      35.772  31.581  24.314  1.00  0.00    -0.221 OA
HETATM   14  O4  UNL     1      35.684  29.095  24.200  1.00  0.00    -0.221 OA
ENDBRANCH   4   6
ENDBRANCH   1   2
BRANCH   1  15
HETATM   15  N1  UNL     1      34.177  28.961  19.934  1.00  0.00    -0.352 N 
HETATM   16  C3  UNL     1      34.856  27.950  20.626  1.00  0.00     0.226 C 
HETATM   17  O2  UNL     1      34.416  27.544  21.725  1.00  0.00    -0.273 OA
ATOM     18  H1  UNL     1      34.552  29.278  19.041  1.00  0.00     0.162 HD
BRANCH  16  19
HETATM   19  C4  UNL     1      36.090  27.355  20.073  1.00  0.00     0.042 C 
HETATM   20  C5  UNL     1      37.241  27.815  20.976  1.00  0.00     0.024 C 
HETATM   21  C6  UNL     1      38.551  27.224  20.528  1.00  0.00    -0.013 C 
HETATM   22  C7  UNL     1      38.824  27.705  19.130  1.00  0.00     0.009 C 
HETATM   23  C11 UNL     1      38.449  25.712  20.569  1.00  0.00     0.009 C 
HETATM   24  C8  UNL     1      37.698  27.259  18.233  1.00  0.00    -0.013 C 
HETATM   25  C9  UNL     1      37.673  25.763  18.225  1.00  0.00     0.009 C 
HETATM   26  C13 UNL     1      36.375  27.830  18.673  1.00  0.00     0.024 C 
HETATM   27  C10 UNL     1      37.343  25.294  19.626  1.00  0.00    -0.013 C 
HETATM   28  C12 UNL     1      36.038  25.840  20.100  1.00  0.00     0.024 C 
ENDBRANCH  16  19
ENDBRANCH   1  15
TORSDOF 4
ENDMDL
MODEL 5
REMARK VINA RESULT: -7.147782818      7.068      8.895
REMARK  4 active torsions:
REMARK  status: ('A' for Active; 'I' for Inactive)
REMARK    1  A    between atoms: C1_2  and  C2_3 
REMARK       I    between atoms: C1_2  and  N2_18 
REMARK    2  A    between atoms: C2_3  and  N1_4 
REMARK       I    between atoms: N1_4  and  C3_6 
REMARK    3  A    between atoms: C3_6  and  C4_8 
REMARK    4  A    between atoms: N2_18  and  C14_20 
ROOT
HETATM    1  C2  UNL     1      33.911  28.951  20.651  1.00  0.00     0.225 C 
ENDROOT
BRANCH   1   2
HETATM    2  C1  UNL     1      34.850  28.206  19.796  1.00  0.00     0.236 C 
HETATM    3  O1  UNL     1      34.691  28.196  18.563  1.00  0.00    -0.272 OA
HETATM    4  N2  UNL     1      35.928  27.505  20.372  1.00  0.00    -0.342 N 
ATOM      5  H2  UNL     1      36.030  27.533  21.386  1.00  0.00     0.163 HD
BRANCH   4   6
HETATM    6  C14 UNL     1      36.897  26.750  19.613  1.00  0.00     0.211 C 
HETATM    7  C15 UNL     1      38.049  27.534  19.110  1.00  0.00     0.046 C 
HETATM    8  C16 UNL     1      39.335  27.033  19.625  1.00  0.00     0.075 C 
HETATM    9  C17 UNL     1      39.272  25.531  19.806  1.00  0.00     0.263 C 
HETATM   10  F1  UNL     1      39.259  24.952  18.555  1.00  0.00    -0.213 F 
HETATM   11 BR1  UNL     1      40.629  24.862  20.958  1.00  0.00    -0.031 Br
HETATM   12  S1  UNL     1      37.638  25.437  20.560  1.00  0.00     0.213 S 
HETATM   13  O3  UNL     1      36.998  24.130  20.328  1.00  0.00    -0.221 OA
HETATM   14  O4  UNL     1      37.745  25.840  21.977  1.00  0.00    -0.221 OA
ENDBRANCH   4   6
ENDBRANCH   1   2
BRANCH   1  15
HETATM   15  N1  UNL     1      34.412  29.052  22.022  1.00  0.00    -0.352 N 
HETATM   16  C3  UNL     1      33.721  29.733  23.033  1.00  0.00     0.226 C 
HETATM   17  O2  UNL     1      32.628  30.284  22.778  1.00  0.00    -0.273 OA
ATOM     18  H1  UNL     1      35.301  28.610  22.250  1.00  0.00     0.162 HD
BRANCH  16  19
HETATM   19  C4  UNL     1      34.270  29.807  24.403  1.00  0.00     0.042 C 
HETATM   20  C5  UNL     1      35.050  28.506  24.632  1.00  0.00     0.024 C 
HETATM   21  C6  UNL     1      35.697  28.495  25.992  1.00  0.00    -0.013 C 
HETATM   22  C7  UNL     1      34.609  28.585  27.025  1.00  0.00     0.009 C 
HETATM   23  C11 UNL     1      36.641  29.677  26.098  1.00  0.00     0.009 C 
HETATM   24  C8  UNL     1      33.835  29.860  26.809  1.00  0.00    -0.013 C 
HETATM   25  C9  UNL     1      34.770  31.012  27.002  1.00  0.00     0.009 C 
HETATM   26  C13 UNL     1      33.189  29.895  25.447  1.00  0.00     0.024 C 
HETATM   27  C10 UNL     1      35.828  30.940  25.922  1.00  0.00    -0.013 C 
HETATM   28  C12 UNL     1      35.228  30.972  24.555  1.00  0.00     0.024 C 
ENDBRANCH  16  19
ENDBRANCH   1  15
TORSDOF 4
ENDMDL
