MODEL 1
REMARK VINA RESULT: -6.473578338      0.000      0.000
REMARK  3 active torsions:
REMARK  status: ('A' for Active; 'I' for Inactive)
REMARK    1  A    between atoms: C2_2  and  C5_5 
REMARK    2  A    between atoms: C6_6  and  C7_7 
REMARK    3  A    between atoms: C9_10  and  C10_11 
ROOT
HETATM    1  C7  UNL     1     -12.987  24.701   4.703  1.00  0.00     0.098 C 
HETATM    2  C8  UNL     1     -12.813  23.925   5.875  1.00  0.00     0.108 C 
HETATM    3  N1  UNL     1     -12.720  23.287   6.854  1.00  0.00    -0.191 NA
HETATM    4  C9  UNL     1     -12.207  25.111   3.781  1.00  0.00     0.049 C 
ENDROOT
BRANCH   1   5
HETATM    5  C6  UNL     1     -14.435  25.134   4.518  1.00  0.00    -0.055 C 
HETATM    6  C5  UNL     1     -15.569  25.483   4.353  1.00  0.00    -0.091 C 
BRANCH   6   7
HETATM    7  C2  UNL     1     -16.946  25.919   4.129  1.00  0.00     0.013 C 
HETATM    8  C1  UNL     1     -17.012  27.403   3.919  1.00  0.00     0.028 C 
HETATM    9  C3  UNL     1     -17.753  25.506   5.335  1.00  0.00     0.028 C 
HETATM   10  C4  UNL     1     -17.503  25.195   2.902  1.00  0.00     0.028 C 
ENDBRANCH   6   7
ENDBRANCH   1   5
BRANCH   4  11
HETATM   11  C10 UNL     1     -10.794  24.961   3.531  1.00  0.00     0.040 A 
HETATM   12  C11 UNL     1      -9.894  25.832   4.039  1.00  0.00     0.028 A 
HETATM   13  C12 UNL     1      -8.549  25.431   3.622  1.00  0.00     0.082 A 
HETATM   14  C13 UNL     1      -7.652  25.210   4.834  1.00  0.00     0.051 C 
HETATM   15  C14 UNL     1      -7.991  26.596   2.792  1.00  0.00     0.051 C 
HETATM   16  O1  UNL     1      -8.686  24.302   2.856  1.00  0.00    -0.303 OA
HETATM   17  C15 UNL     1     -10.047  23.972   2.768  1.00  0.00     0.294 A 
HETATM   18  O2  UNL     1     -10.493  22.984   2.132  1.00  0.00    -0.259 OA
ENDBRANCH   4  11
TORSDOF 3
ENDMDL
MODEL 2
REMARK VINA RESULT: -6.417442656      0.757      1.254
REMARK  3 active torsions:
REMARK  status: ('A' for Active; 'I' for Inactive)
REMARK    1  A    between atoms: C2_2  and  C5_5 
REMARK    2  A    between atoms: C6_6  and  C7_7 
REMARK    3  A    between atoms: C9_10  and  C10_11 
ROOT
HETATM    1  C7  UNL     1     -12.520  24.873   4.583  1.00  0.00     0.098 C 
HETATM    2  C8  UNL     1     -12.251  23.988   5.656  1.00  0.00     0.108 C 
HETATM    3  N1  UNL     1     -12.078  23.256   6.555  1.00  0.00    -0.191 NA
HETATM    4  C9  UNL     1     -11.804  25.436   3.690  1.00  0.00     0.049 C 
ENDROOT
BRANCH   1   5
HETATM    5  C6  UNL     1     -14.000  25.218   4.489  1.00  0.00    -0.055 C 
HETATM    6  C5  UNL     1     -15.160  25.505   4.401  1.00  0.00    -0.091 C 
BRANCH   6   7
HETATM    7  C2  UNL     1     -16.569  25.873   4.277  1.00  0.00     0.013 C 
HETATM    8  C1  UNL     1     -17.187  25.229   3.071  1.00  0.00     0.028 C 
HETATM    9  C3  UNL     1     -16.638  27.377   4.184  1.00  0.00     0.028 C 
HETATM   10  C4  UNL     1     -17.311  25.431   5.539  1.00  0.00     0.028 C 
ENDBRANCH   6   7
ENDBRANCH   1   5
BRANCH   4  11
HETATM   11  C10 UNL     1     -10.394  25.416   3.384  1.00  0.00     0.040 A 
HETATM   12  C11 UNL     1      -9.479  25.899   4.255  1.00  0.00     0.028 A 
HETATM   13  C12 UNL     1      -8.143  25.748   3.678  1.00  0.00     0.082 A 
HETATM   14  C13 UNL     1      -7.246  24.932   4.602  1.00  0.00     0.051 C 
HETATM   15  C14 UNL     1      -7.568  27.166   3.547  1.00  0.00     0.051 C 
HETATM   16  O1  UNL     1      -8.298  25.164   2.447  1.00  0.00    -0.303 OA
HETATM   17  C15 UNL     1      -9.666  24.940   2.218  1.00  0.00     0.294 A 
HETATM   18  O2  UNL     1     -10.128  24.416   1.174  1.00  0.00    -0.259 OA
ENDBRANCH   4  11
TORSDOF 3
ENDMDL
MODEL 3
REMARK VINA RESULT: -6.411284946      0.742      1.257
REMARK  3 active torsions:
REMARK  status: ('A' for Active; 'I' for Inactive)
REMARK    1  A    between atoms: C2_2  and  C5_5 
REMARK    2  A    between atoms: C6_6  and  C7_7 
REMARK    3  A    between atoms: C9_10  and  C10_11 
ROOT
HETATM    1  C7  UNL     1     -12.510  24.861   4.610  1.00  0.00     0.098 C 
HETATM    2  C8  UNL     1     -12.233  23.974   5.680  1.00  0.00     0.108 C 
HETATM    3  N1  UNL     1     -12.054  23.240   6.577  1.00  0.00    -0.191 NA
HETATM    4  C9  UNL     1     -11.801  25.421   3.710  1.00  0.00     0.049 C 
ENDROOT
BRANCH   1   5
HETATM    5  C6  UNL     1     -13.989  25.212   4.532  1.00  0.00    -0.055 C 
HETATM    6  C5  UNL     1     -15.148  25.505   4.457  1.00  0.00    -0.091 C 
BRANCH   6   7
HETATM    7  C2  UNL     1     -16.557  25.882   4.352  1.00  0.00     0.013 C 
HETATM    8  C1  UNL     1     -17.315  25.471   5.579  1.00  0.00     0.028 C 
HETATM    9  C3  UNL     1     -17.114  25.212   3.120  1.00  0.00     0.028 C 
HETATM   10  C4  UNL     1     -16.653  27.397   4.164  1.00  0.00     0.028 C 
ENDBRANCH   6   7
ENDBRANCH   1   5
BRANCH   4  11
HETATM   11  C10 UNL     1     -10.394  25.395   3.389  1.00  0.00     0.040 A 
HETATM   12  C11 UNL     1      -9.470  25.896   4.240  1.00  0.00     0.028 A 
HETATM   13  C12 UNL     1      -8.140  25.733   3.652  1.00  0.00     0.082 A 
HETATM   14  C13 UNL     1      -7.233  24.937   4.583  1.00  0.00     0.051 C 
HETATM   15  C14 UNL     1      -7.568  27.149   3.486  1.00  0.00     0.051 C 
HETATM   16  O1  UNL     1      -8.309  25.125   2.436  1.00  0.00    -0.303 OA
HETATM   17  C15 UNL     1      -9.678  24.895   2.226  1.00  0.00     0.294 A 
HETATM   18  O2  UNL     1     -10.151  24.350   1.198  1.00  0.00    -0.259 OA
ENDBRANCH   4  11
TORSDOF 3
ENDMDL
MODEL 4
REMARK VINA RESULT: -6.261917244      1.539      2.353
REMARK  3 active torsions:
REMARK  status: ('A' for Active; 'I' for Inactive)
REMARK    1  A    between atoms: C2_2  and  C5_5 
REMARK    2  A    between atoms: C6_6  and  C7_7 
REMARK    3  A    between atoms: C9_10  and  C10_11 
ROOT
HETATM    1  C7  UNL     1     -12.569  25.276   4.698  1.00  0.00     0.098 C 
HETATM    2  C8  UNL     1     -12.278  24.199   5.572  1.00  0.00     0.108 C 
HETATM    3  N1  UNL     1     -12.089  23.301   6.302  1.00  0.00    -0.191 NA
HETATM    4  C9  UNL     1     -11.859  26.095   4.025  1.00  0.00     0.049 C 
ENDROOT
BRANCH   1   5
HETATM    5  C6  UNL     1     -14.068  25.489   4.538  1.00  0.00    -0.055 C 
HETATM    6  C5  UNL     1     -15.243  25.676   4.401  1.00  0.00    -0.091 C 
BRANCH   6   7
HETATM    7  C2  UNL     1     -16.672  25.924   4.223  1.00  0.00     0.013 C 
HETATM    8  C1  UNL     1     -17.201  25.183   3.030  1.00  0.00     0.028 C 
HETATM    9  C3  UNL     1     -16.856  27.413   4.061  1.00  0.00     0.028 C 
HETATM   10  C4  UNL     1     -17.416  25.479   5.483  1.00  0.00     0.028 C 
ENDBRANCH   6   7
ENDBRANCH   1   5
BRANCH   4  11
HETATM   11  C10 UNL     1     -10.438  26.281   3.862  1.00  0.00     0.040 A 
HETATM   12  C11 UNL     1      -9.664  25.325   3.300  1.00  0.00     0.028 A 
HETATM   13  C12 UNL     1      -8.276  25.789   3.268  1.00  0.00     0.082 A 
HETATM   14  C13 UNL     1      -7.736  25.776   1.842  1.00  0.00     0.051 C 
HETATM   15  C14 UNL     1      -7.470  24.795   4.117  1.00  0.00     0.051 C 
HETATM   16  O1  UNL     1      -8.257  27.041   3.825  1.00  0.00    -0.303 OA
HETATM   17  C15 UNL     1      -9.562  27.391   4.208  1.00  0.00     0.294 A 
HETATM   18  O2  UNL     1      -9.869  28.482   4.749  1.00  0.00    -0.259 OA
ENDBRANCH   4  11
TORSDOF 3
ENDMDL
MODEL 5
REMARK VINA RESULT: -6.242702910      1.319      1.763
REMARK  3 active torsions:
REMARK  status: ('A' for Active; 'I' for Inactive)
REMARK    1  A    between atoms: C2_2  and  C5_5 
REMARK    2  A    between atoms: C6_6  and  C7_7 
REMARK    3  A    between atoms: C9_10  and  C10_11 
ROOT
HETATM    1  C7  UNL     1     -13.018  24.917   4.972  1.00  0.00     0.098 C 
HETATM    2  C8  UNL     1     -12.971  23.971   6.025  1.00  0.00     0.108 C 
HETATM    3  N1  UNL     1     -12.983  23.188   6.898  1.00  0.00    -0.191 NA
HETATM    4  C9  UNL     1     -12.137  25.532   4.285  1.00  0.00     0.049 C 
ENDROOT
BRANCH   1   5
HETATM    5  C6  UNL     1     -14.449  25.265   4.585  1.00  0.00    -0.055 C 
HETATM    6  C5  UNL     1     -15.574  25.557   4.293  1.00  0.00    -0.091 C 
BRANCH   6   7
HETATM    7  C2  UNL     1     -16.944  25.933   3.952  1.00  0.00     0.013 C 
HETATM    8  C1  UNL     1     -17.045  27.405   3.682  1.00  0.00     0.028 C 
HETATM    9  C3  UNL     1     -17.826  25.532   5.109  1.00  0.00     0.028 C 
HETATM   10  C4  UNL     1     -17.382  25.147   2.715  1.00  0.00     0.028 C 
ENDBRANCH   6   7
ENDBRANCH   1   5
BRANCH   4  11
HETATM   11  C10 UNL     1     -10.694  25.531   4.285  1.00  0.00     0.040 A 
HETATM   12  C11 UNL     1      -9.991  25.548   3.130  1.00  0.00     0.028 A 
HETATM   13  C12 UNL     1      -8.561  25.541   3.439  1.00  0.00     0.082 A 
HETATM   14  C13 UNL     1      -7.868  26.746   2.812  1.00  0.00     0.051 C 
HETATM   15  C14 UNL     1      -7.992  24.258   2.817  1.00  0.00     0.051 C 
HETATM   16  O1  UNL     1      -8.444  25.520   4.805  1.00  0.00    -0.303 OA
HETATM   17  C15 UNL     1      -9.728  25.511   5.373  1.00  0.00     0.294 A 
HETATM   18  O2  UNL     1      -9.951  25.492   6.609  1.00  0.00    -0.259 OA
ENDBRANCH   4  11
TORSDOF 3
ENDMDL
