MODEL 1
REMARK VINA RESULT: -6.299971945      0.000      0.000
REMARK  3 active torsions:
REMARK  status: ('A' for Active; 'I' for Inactive)
REMARK    1  A    between atoms: C2_2  and  C4_4 
REMARK       I    between atoms: C4_4  and  N1_6 
REMARK    2  A    between atoms: N1_6  and  C5_8 
REMARK    3  A    between atoms: C8_12  and  C9_13 
ROOT
HETATM    1  C5  UNL     1     -14.741  29.295   4.365  1.00  0.00     0.194 A 
HETATM    2  O2  UNL     1     -15.864  29.323   3.737  1.00  0.00    -0.291 OA
HETATM    3  C6  UNL     1     -16.563  28.285   3.583  1.00  0.00     0.066 A 
HETATM    4  C7  UNL     1     -17.892  28.305   2.843  1.00  0.00     0.078 C 
HETATM    5  C8  UNL     1     -16.106  27.108   4.097  1.00  0.00     0.024 A 
HETATM    6  S1  UNL     1     -14.634  27.636   4.793  1.00  0.00    -0.048 SA
ENDROOT
BRANCH   1   7
HETATM    7  N1  UNL     1     -13.897  30.272   4.612  1.00  0.00    -0.297 N 
HETATM    8  C4  UNL     1     -13.025  30.253   5.703  1.00  0.00     0.252 C 
HETATM    9  O1  UNL     1     -13.481  30.115   6.859  1.00  0.00    -0.268 OA
ATOM     10  H1  UNL     1     -13.880  31.076   3.984  1.00  0.00     0.171 HD
BRANCH   8  11
HETATM   11  C2  UNL     1     -11.588  30.396   5.463  1.00  0.00    -0.003 C 
HETATM   12  C1  UNL     1     -10.801  30.877   6.396  1.00  0.00     0.024 C 
HETATM   13  C3  UNL     1     -11.040  29.985   4.137  1.00  0.00     0.053 C 
ENDBRANCH   8  11
ENDBRANCH   1   7
BRANCH   5  14
HETATM   14  C9  UNL     1     -16.620  25.742   4.118  1.00  0.00    -0.015 C 
HETATM   15  C10 UNL     1     -15.459  24.800   4.357  1.00  0.00     0.020 C 
HETATM   16  C11 UNL     1     -17.540  25.556   5.334  1.00  0.00     0.020 C 
HETATM   17  C12 UNL     1     -17.362  25.290   2.932  1.00  0.00     0.020 C 
ENDBRANCH   5  14
TORSDOF 3
ENDMDL
MODEL 2
REMARK VINA RESULT: -6.046677403      3.975      4.746
REMARK  3 active torsions:
REMARK  status: ('A' for Active; 'I' for Inactive)
REMARK    1  A    between atoms: C2_2  and  C4_4 
REMARK       I    between atoms: C4_4  and  N1_6 
REMARK    2  A    between atoms: N1_6  and  C5_8 
REMARK    3  A    between atoms: C8_12  and  C9_13 
ROOT
HETATM    1  C5  UNL     1     -12.571  25.422   4.673  1.00  0.00     0.194 A 
HETATM    2  O2  UNL     1     -12.818  26.672   4.857  1.00  0.00    -0.291 OA
HETATM    3  C6  UNL     1     -13.991  27.130   4.808  1.00  0.00     0.066 A 
HETATM    4  C7  UNL     1     -14.296  28.604   5.022  1.00  0.00     0.078 C 
HETATM    5  C8  UNL     1     -15.018  26.269   4.552  1.00  0.00     0.024 A 
HETATM    6  S1  UNL     1     -14.149  24.803   4.399  1.00  0.00    -0.048 SA
ENDROOT
BRANCH   1   7
HETATM    7  N1  UNL     1     -11.421  24.786   4.690  1.00  0.00    -0.297 N 
HETATM    8  C4  UNL     1     -10.790  24.344   3.524  1.00  0.00     0.252 C 
HETATM    9  O1  UNL     1     -11.401  23.585   2.740  1.00  0.00    -0.268 OA
ATOM     10  H1  UNL     1     -10.971  24.609   5.588  1.00  0.00     0.171 HD
BRANCH   8  11
HETATM   11  C2  UNL     1      -9.421  24.781   3.249  1.00  0.00    -0.003 C 
HETATM   12  C1  UNL     1      -8.969  24.825   2.019  1.00  0.00     0.024 C 
HETATM   13  C3  UNL     1      -8.552  25.174   4.398  1.00  0.00     0.053 C 
ENDBRANCH   8  11
ENDBRANCH   1   7
BRANCH   5  14
HETATM   14  C9  UNL     1     -16.464  26.424   4.422  1.00  0.00    -0.015 C 
HETATM   15  C10 UNL     1     -17.017  25.183   3.754  1.00  0.00     0.020 C 
HETATM   16  C11 UNL     1     -17.106  26.445   5.818  1.00  0.00     0.020 C 
HETATM   17  C12 UNL     1     -16.946  27.608   3.698  1.00  0.00     0.020 C 
ENDBRANCH   5  14
TORSDOF 3
ENDMDL
MODEL 3
REMARK VINA RESULT: -6.029705909      6.285      8.476
REMARK  3 active torsions:
REMARK  status: ('A' for Active; 'I' for Inactive)
REMARK    1  A    between atoms: C2_2  and  C4_4 
REMARK       I    between atoms: C4_4  and  N1_6 
REMARK    2  A    between atoms: N1_6  and  C5_8 
REMARK    3  A    between atoms: C8_12  and  C9_13 
ROOT
HETATM    1  C5  UNL     1     -10.001  26.630   0.093  1.00  0.00     0.194 A 
HETATM    2  O2  UNL     1     -10.274  27.589   0.908  1.00  0.00    -0.291 OA
HETATM    3  C6  UNL     1      -9.821  27.608   2.084  1.00  0.00     0.066 A 
HETATM    4  C7  UNL     1     -10.136  28.734   3.056  1.00  0.00     0.078 C 
HETATM    5  C8  UNL     1      -9.022  26.580   2.493  1.00  0.00     0.024 A 
HETATM    6  S1  UNL     1      -8.998  25.634   1.068  1.00  0.00    -0.048 SA
ENDROOT
BRANCH   1   7
HETATM    7  N1  UNL     1     -10.385  26.456  -1.152  1.00  0.00    -0.297 N 
HETATM    8  C4  UNL     1     -10.934  25.256  -1.608  1.00  0.00     0.252 C 
HETATM    9  O1  UNL     1     -10.294  24.190  -1.470  1.00  0.00    -0.268 OA
ATOM     10  H1  UNL     1     -10.279  27.228  -1.810  1.00  0.00     0.171 HD
BRANCH   8  11
HETATM   11  C2  UNL     1     -12.254  25.275  -2.241  1.00  0.00    -0.003 C 
HETATM   12  C1  UNL     1     -12.765  26.398  -2.684  1.00  0.00     0.024 C 
HETATM   13  C3  UNL     1     -13.004  23.990  -2.369  1.00  0.00     0.053 C 
ENDBRANCH   8  11
ENDBRANCH   1   7
BRANCH   5  14
HETATM   14  C9  UNL     1      -8.333  26.265   3.741  1.00  0.00    -0.015 C 
HETATM   15  C10 UNL     1      -7.891  24.819   3.688  1.00  0.00     0.020 C 
HETATM   16  C11 UNL     1      -7.032  27.077   3.829  1.00  0.00     0.020 C 
HETATM   17  C12 UNL     1      -9.077  26.489   4.989  1.00  0.00     0.020 C 
ENDBRANCH   5  14
TORSDOF 3
ENDMDL
MODEL 4
REMARK VINA RESULT: -5.995498210      4.195      6.453
REMARK  3 active torsions:
REMARK  status: ('A' for Active; 'I' for Inactive)
REMARK    1  A    between atoms: C2_2  and  C4_4 
REMARK       I    between atoms: C4_4  and  N1_6 
REMARK    2  A    between atoms: N1_6  and  C5_8 
REMARK    3  A    between atoms: C8_12  and  C9_13 
ROOT
HETATM    1  C5  UNL     1     -10.146  29.247   3.361  1.00  0.00     0.194 A 
HETATM    2  O2  UNL     1     -10.345  28.705   2.211  1.00  0.00    -0.291 OA
HETATM    3  C6  UNL     1      -9.677  27.708   1.824  1.00  0.00     0.066 A 
HETATM    4  C7  UNL     1      -9.902  27.059   0.467  1.00  0.00     0.078 C 
HETATM    5  C8  UNL     1      -8.721  27.201   2.654  1.00  0.00     0.024 A 
HETATM    6  S1  UNL     1      -8.884  28.263   3.984  1.00  0.00    -0.048 SA
ENDROOT
BRANCH   1   7
HETATM    7  N1  UNL     1     -10.745  30.278   3.914  1.00  0.00    -0.297 N 
HETATM    8  C4  UNL     1     -12.123  30.313   4.141  1.00  0.00     0.252 C 
HETATM    9  O1  UNL     1     -12.913  30.139   3.186  1.00  0.00    -0.268 OA
ATOM     10  H1  UNL     1     -10.183  31.083   4.188  1.00  0.00     0.171 HD
BRANCH   8  11
HETATM   11  C2  UNL     1     -12.612  30.554   5.499  1.00  0.00    -0.003 C 
HETATM   12  C1  UNL     1     -12.093  31.506   6.236  1.00  0.00     0.024 C 
HETATM   13  C3  UNL     1     -13.712  29.691   6.026  1.00  0.00     0.053 C 
ENDBRANCH   8  11
ENDBRANCH   1   7
BRANCH   5  14
HETATM   14  C9  UNL     1      -7.778  26.091   2.556  1.00  0.00    -0.015 C 
HETATM   15  C10 UNL     1      -6.866  26.133   3.764  1.00  0.00     0.020 C 
HETATM   16  C11 UNL     1      -8.535  24.760   2.674  1.00  0.00     0.020 C 
HETATM   17  C12 UNL     1      -6.952  26.021   1.341  1.00  0.00     0.020 C 
ENDBRANCH   5  14
TORSDOF 3
ENDMDL
MODEL 5
REMARK VINA RESULT: -5.974678263      3.333      6.570
REMARK  3 active torsions:
REMARK  status: ('A' for Active; 'I' for Inactive)
REMARK    1  A    between atoms: C2_2  and  C4_4 
REMARK       I    between atoms: C4_4  and  N1_6 
REMARK    2  A    between atoms: N1_6  and  C5_8 
REMARK    3  A    between atoms: C8_12  and  C9_13 
ROOT
HETATM    1  C5  UNL     1     -11.177  29.741   3.812  1.00  0.00     0.194 A 
HETATM    2  O2  UNL     1     -10.204  30.238   3.131  1.00  0.00    -0.291 OA
HETATM    3  C6  UNL     1      -9.232  29.531   2.752  1.00  0.00     0.066 A 
HETATM    4  C7  UNL     1      -8.076  30.106   1.947  1.00  0.00     0.078 C 
HETATM    5  C8  UNL     1      -9.221  28.207   3.079  1.00  0.00     0.024 A 
HETATM    6  S1  UNL     1     -10.691  28.100   3.947  1.00  0.00    -0.048 SA
ENDROOT
BRANCH   1   7
HETATM    7  N1  UNL     1     -12.255  30.330   4.281  1.00  0.00    -0.297 N 
HETATM    8  C4  UNL     1     -13.473  30.320   3.598  1.00  0.00     0.252 C 
HETATM    9  O1  UNL     1     -13.530  30.753   2.427  1.00  0.00    -0.268 OA
ATOM     10  H1  UNL     1     -12.199  30.812   5.178  1.00  0.00     0.171 HD
BRANCH   8  11
HETATM   11  C2  UNL     1     -14.661  29.799   4.276  1.00  0.00    -0.003 C 
HETATM   12  C1  UNL     1     -15.827  29.801   3.675  1.00  0.00     0.024 C 
HETATM   13  C3  UNL     1     -14.517  29.270   5.665  1.00  0.00     0.053 C 
ENDBRANCH   8  11
ENDBRANCH   1   7
BRANCH   5  14
HETATM   14  C9  UNL     1      -8.295  27.107   2.826  1.00  0.00    -0.015 C 
HETATM   15  C10 UNL     1      -8.736  25.915   3.648  1.00  0.00     0.020 C 
HETATM   16  C11 UNL     1      -8.423  26.652   1.364  1.00  0.00     0.020 C 
HETATM   17  C12 UNL     1      -6.870  27.360   3.084  1.00  0.00     0.020 C 
ENDBRANCH   5  14
TORSDOF 3
ENDMDL
