MODEL 1
REMARK VINA RESULT: -6.231287629      0.000      0.000
REMARK  8 active torsions:
REMARK  status: ('A' for Active; 'I' for Inactive)
REMARK    1  A    between atoms: C2_2  and  O1_3 
REMARK    2  A    between atoms: O1_3  and  C3_4 
REMARK       I    between atoms: C3_4  and  N1_6 
REMARK       I    between atoms: N2_9  and  C6_10 
REMARK    3  A    between atoms: C6_10  and  C7_12 
REMARK    4  A    between atoms: C7_12  and  C8_13 
REMARK    5  A    between atoms: C7_12  and  C16_22 
REMARK    6  A    between atoms: C8_13  and  C9_14 
REMARK    7  A    between atoms: C9_14  and  S1_15 
REMARK    8  A    between atoms: S1_15  and  C10_16 
ROOT
HETATM    1  C7  UNL     1      23.748  27.168   8.404  1.00  0.00     0.086 C 
ENDROOT
BRANCH   1   2
HETATM    2  C6  UNL     1      23.260  27.979   9.546  1.00  0.00     0.224 C 
HETATM    3  N2  UNL     1      23.973  28.340  10.693  1.00  0.00    -0.349 N 
HETATM    4  C5  UNL     1      25.353  28.033  10.967  1.00  0.00     0.145 C 
HETATM    5  C20 UNL     1      23.308  29.088  11.741  1.00  0.00     0.145 C 
HETATM    6  C4  UNL     1      26.118  29.344  10.984  1.00  0.00     0.148 C 
HETATM    7  N1  UNL     1      25.489  30.196  11.966  1.00  0.00    -0.325 N 
HETATM    8  C3  UNL     1      26.320  30.934  12.878  1.00  0.00     0.362 C 
HETATM    9  C21 UNL     1      24.064  30.352  12.086  1.00  0.00     0.148 C 
HETATM   10  O2  UNL     1      25.813  31.687  13.755  1.00  0.00    -0.238 OA
HETATM   11  O3  UNL     1      22.045  28.405   9.491  1.00  0.00    -0.273 OA
BRANCH   8  12
HETATM   12  O1  UNL     1      27.701  30.872  12.857  1.00  0.00    -0.304 OA
BRANCH  12  13
HETATM   13  C2  UNL     1      28.506  31.200  13.972  1.00  0.00     0.176 C 
HETATM   14  C1  UNL     1      29.841  30.492  13.756  1.00  0.00     0.034 C 
ENDBRANCH  12  13
ENDBRANCH   8  12
ENDBRANCH   1   2
BRANCH   1  15
HETATM   15  C8  UNL     1      23.357  27.818   7.083  1.00  0.00     0.025 C 
BRANCH  15  16
HETATM   16  C9  UNL     1      24.147  29.112   6.908  1.00  0.00     0.075 C 
BRANCH  16  17
HETATM   17  S1  UNL     1      23.050  30.527   6.718  1.00  0.00    -0.164 SA
BRANCH  17  18
HETATM   18  C10 UNL     1      22.686  30.720   4.949  1.00  0.00     0.047 C 
HETATM   19  C11 UNL     1      23.880  30.470   4.074  1.00  0.00     0.015 C 
HETATM   20  C12 UNL     1      23.402  29.918   2.755  1.00  0.00     0.001 C 
HETATM   21  C13 UNL     1      22.826  28.552   3.001  1.00  0.00     0.000 C 
HETATM   22  C14 UNL     1      21.775  28.559   4.085  1.00  0.00     0.001 C 
HETATM   23  C15 UNL     1      21.453  29.964   4.544  1.00  0.00     0.015 C 
ENDBRANCH  17  18
ENDBRANCH  16  17
ENDBRANCH  15  16
ENDBRANCH   1  15
BRANCH   1  24
HETATM   24  C16 UNL     1      23.192  25.775   8.336  1.00  0.00    -0.039 C 
HETATM   25  C17 UNL     1      22.184  25.564   7.238  1.00  0.00     0.015 C 
HETATM   26  C18 UNL     1      24.395  24.887   7.959  1.00  0.00     0.015 C 
HETATM   27  C19 UNL     1      22.711  25.219   9.653  1.00  0.00     0.015 C 
ENDBRANCH   1  24
TORSDOF 8
ENDMDL
MODEL 2
REMARK VINA RESULT: -6.158805691      3.543      6.728
REMARK  8 active torsions:
REMARK  status: ('A' for Active; 'I' for Inactive)
REMARK    1  A    between atoms: C2_2  and  O1_3 
REMARK    2  A    between atoms: O1_3  and  C3_4 
REMARK       I    between atoms: C3_4  and  N1_6 
REMARK       I    between atoms: N2_9  and  C6_10 
REMARK    3  A    between atoms: C6_10  and  C7_12 
REMARK    4  A    between atoms: C7_12  and  C8_13 
REMARK    5  A    between atoms: C7_12  and  C16_22 
REMARK    6  A    between atoms: C8_13  and  C9_14 
REMARK    7  A    between atoms: C9_14  and  S1_15 
REMARK    8  A    between atoms: S1_15  and  C10_16 
ROOT
HETATM    1  C7  UNL     1      24.250  27.063   8.709  1.00  0.00     0.086 C 
ENDROOT
BRANCH   1   2
HETATM    2  C6  UNL     1      24.750  27.761   7.499  1.00  0.00     0.224 C 
HETATM    3  N2  UNL     1      24.112  28.782   6.787  1.00  0.00    -0.349 N 
HETATM    4  C5  UNL     1      22.855  29.397   7.126  1.00  0.00     0.145 C 
HETATM    5  C20 UNL     1      24.727  29.304   5.584  1.00  0.00     0.145 C 
HETATM    6  C4  UNL     1      23.137  30.843   7.491  1.00  0.00     0.148 C 
HETATM    7  N1  UNL     1      23.812  31.446   6.365  1.00  0.00    -0.325 N 
HETATM    8  C3  UNL     1      23.404  32.754   5.931  1.00  0.00     0.362 C 
HETATM    9  C21 UNL     1      24.883  30.808   5.647  1.00  0.00     0.148 C 
HETATM   10  O2  UNL     1      23.964  33.316   4.949  1.00  0.00    -0.238 OA
HETATM   11  O3  UNL     1      25.897  27.396   7.038  1.00  0.00    -0.273 OA
BRANCH   8  12
HETATM   12  O1  UNL     1      22.394  33.470   6.545  1.00  0.00    -0.304 OA
BRANCH  12  13
HETATM   13  C2  UNL     1      21.220  33.881   5.873  1.00  0.00     0.176 C 
HETATM   14  C1  UNL     1      20.403  32.615   5.630  1.00  0.00     0.034 C 
ENDBRANCH  12  13
ENDBRANCH   8  12
ENDBRANCH   1   2
BRANCH   1  15
HETATM   15  C8  UNL     1      25.413  26.621   9.588  1.00  0.00     0.025 C 
BRANCH  15  16
HETATM   16  C9  UNL     1      25.832  27.781  10.486  1.00  0.00     0.075 C 
BRANCH  16  17
HETATM   17  S1  UNL     1      24.576  28.132  11.729  1.00  0.00    -0.164 SA
BRANCH  17  18
HETATM   18  C10 UNL     1      23.761  29.690  11.276  1.00  0.00     0.047 C 
HETATM   19  C11 UNL     1      22.325  29.507  10.875  1.00  0.00     0.015 C 
HETATM   20  C12 UNL     1      21.562  30.754  11.241  1.00  0.00     0.001 C 
HETATM   21  C13 UNL     1      21.520  30.855  12.740  1.00  0.00     0.000 C 
HETATM   22  C14 UNL     1      22.896  30.770  13.359  1.00  0.00     0.001 C 
HETATM   23  C15 UNL     1      23.983  30.761  12.307  1.00  0.00     0.015 C 
ENDBRANCH  17  18
ENDBRANCH  16  17
ENDBRANCH  15  16
ENDBRANCH   1  15
BRANCH   1  24
HETATM   24  C16 UNL     1      23.466  25.812   8.438  1.00  0.00    -0.039 C 
HETATM   25  C17 UNL     1      24.311  24.608   8.122  1.00  0.00     0.015 C 
HETATM   26  C18 UNL     1      22.771  25.483   9.774  1.00  0.00     0.015 C 
HETATM   27  C19 UNL     1      22.332  25.975   7.455  1.00  0.00     0.015 C 
ENDBRANCH   1  24
TORSDOF 8
ENDMDL
MODEL 3
REMARK VINA RESULT: -6.112526444      2.153      3.412
REMARK  8 active torsions:
REMARK  status: ('A' for Active; 'I' for Inactive)
REMARK    1  A    between atoms: C2_2  and  O1_3 
REMARK    2  A    between atoms: O1_3  and  C3_4 
REMARK       I    between atoms: C3_4  and  N1_6 
REMARK       I    between atoms: N2_9  and  C6_10 
REMARK    3  A    between atoms: C6_10  and  C7_12 
REMARK    4  A    between atoms: C7_12  and  C8_13 
REMARK    5  A    between atoms: C7_12  and  C16_22 
REMARK    6  A    between atoms: C8_13  and  C9_14 
REMARK    7  A    between atoms: C9_14  and  S1_15 
REMARK    8  A    between atoms: S1_15  and  C10_16 
ROOT
HETATM    1  C7  UNL     1      24.768  26.878   8.167  1.00  0.00     0.086 C 
ENDROOT
BRANCH   1   2
HETATM    2  C6  UNL     1      25.351  27.593   9.328  1.00  0.00     0.224 C 
HETATM    3  N2  UNL     1      24.834  28.720   9.973  1.00  0.00    -0.349 N 
HETATM    4  C5  UNL     1      23.592  29.381   9.665  1.00  0.00     0.145 C 
HETATM    5  C20 UNL     1      25.579  29.326  11.059  1.00  0.00     0.145 C 
HETATM    6  C4  UNL     1      22.667  29.195  10.854  1.00  0.00     0.148 C 
HETATM    7  N1  UNL     1      23.350  29.718  12.014  1.00  0.00    -0.325 N 
HETATM    8  C3  UNL     1      22.618  30.545  12.936  1.00  0.00     0.362 C 
HETATM    9  C21 UNL     1      24.734  29.457  12.307  1.00  0.00     0.148 C 
HETATM   10  O2  UNL     1      23.176  31.026  13.960  1.00  0.00    -0.238 OA
HETATM   11  O3  UNL     1      26.460  27.140   9.805  1.00  0.00    -0.273 OA
BRANCH   8  12
HETATM   12  O1  UNL     1      21.283  30.860  12.767  1.00  0.00    -0.304 OA
BRANCH  12  13
HETATM   13  C2  UNL     1      20.742  32.126  13.087  1.00  0.00     0.176 C 
HETATM   14  C1  UNL     1      19.460  31.856  13.870  1.00  0.00     0.034 C 
ENDBRANCH  12  13
ENDBRANCH   8  12
ENDBRANCH   1   2
BRANCH   1  15
HETATM   15  C8  UNL     1      24.206  27.870   7.156  1.00  0.00     0.025 C 
BRANCH  15  16
HETATM   16  C9  UNL     1      25.358  28.630   6.506  1.00  0.00     0.075 C 
BRANCH  16  17
HETATM   17  S1  UNL     1      24.909  30.344   6.179  1.00  0.00    -0.164 SA
BRANCH  17  18
HETATM   18  C10 UNL     1      23.764  30.363   4.771  1.00  0.00     0.047 C 
HETATM   19  C11 UNL     1      23.899  29.157   3.887  1.00  0.00     0.015 C 
HETATM   20  C12 UNL     1      22.555  28.859   3.272  1.00  0.00     0.001 C 
HETATM   21  C13 UNL     1      21.627  28.416   4.368  1.00  0.00     0.000 C 
HETATM   22  C14 UNL     1      21.577  29.402   5.511  1.00  0.00     0.001 C 
HETATM   23  C15 UNL     1      22.354  30.662   5.197  1.00  0.00     0.015 C 
ENDBRANCH  17  18
ENDBRANCH  16  17
ENDBRANCH  15  16
ENDBRANCH   1  15
BRANCH   1  24
HETATM   24  C16 UNL     1      23.624  25.963   8.497  1.00  0.00    -0.039 C 
HETATM   25  C17 UNL     1      22.328  26.326   7.825  1.00  0.00     0.015 C 
HETATM   26  C18 UNL     1      24.023  24.599   7.900  1.00  0.00     0.015 C 
HETATM   27  C19 UNL     1      23.436  25.690   9.969  1.00  0.00     0.015 C 
ENDBRANCH   1  24
TORSDOF 8
ENDMDL
MODEL 4
REMARK VINA RESULT: -6.083424612      4.535      7.406
REMARK  8 active torsions:
REMARK  status: ('A' for Active; 'I' for Inactive)
REMARK    1  A    between atoms: C2_2  and  O1_3 
REMARK    2  A    between atoms: O1_3  and  C3_4 
REMARK       I    between atoms: C3_4  and  N1_6 
REMARK       I    between atoms: N2_9  and  C6_10 
REMARK    3  A    between atoms: C6_10  and  C7_12 
REMARK    4  A    between atoms: C7_12  and  C8_13 
REMARK    5  A    between atoms: C7_12  and  C16_22 
REMARK    6  A    between atoms: C8_13  and  C9_14 
REMARK    7  A    between atoms: C9_14  and  S1_15 
REMARK    8  A    between atoms: S1_15  and  C10_16 
ROOT
HETATM    1  C7  UNL     1      22.966  26.329   7.739  1.00  0.00     0.086 C 
ENDROOT
BRANCH   1   2
HETATM    2  C6  UNL     1      22.034  26.930   6.756  1.00  0.00     0.224 C 
HETATM    3  N2  UNL     1      22.130  28.191   6.160  1.00  0.00    -0.349 N 
HETATM    4  C5  UNL     1      23.197  29.140   6.348  1.00  0.00     0.145 C 
HETATM    5  C20 UNL     1      21.084  28.639   5.263  1.00  0.00     0.145 C 
HETATM    6  C4  UNL     1      23.923  29.280   5.023  1.00  0.00     0.148 C 
HETATM    7  N1  UNL     1      22.945  29.670   4.035  1.00  0.00    -0.325 N 
HETATM    8  C3  UNL     1      23.275  30.716   3.105  1.00  0.00     0.362 C 
HETATM    9  C21 UNL     1      21.644  29.066   3.924  1.00  0.00     0.148 C 
HETATM   10  O2  UNL     1      22.448  31.090   2.229  1.00  0.00    -0.238 OA
HETATM   11  O3  UNL     1      21.013  26.226   6.403  1.00  0.00    -0.273 OA
BRANCH   8  12
HETATM   12  O1  UNL     1      24.495  31.366   3.108  1.00  0.00    -0.304 OA
BRANCH  12  13
HETATM   13  C2  UNL     1      24.646  32.721   3.483  1.00  0.00     0.176 C 
HETATM   14  C1  UNL     1      25.397  32.713   4.812  1.00  0.00     0.034 C 
ENDBRANCH  12  13
ENDBRANCH   8  12
ENDBRANCH   1   2
BRANCH   1  15
HETATM   15  C8  UNL     1      22.574  24.886   8.033  1.00  0.00     0.025 C 
BRANCH  15  16
HETATM   16  C9  UNL     1      23.417  23.952   7.169  1.00  0.00     0.075 C 
BRANCH  16  17
HETATM   17  S1  UNL     1      22.457  22.536   6.607  1.00  0.00    -0.164 SA
BRANCH  17  18
HETATM   18  C10 UNL     1      22.920  22.193   4.885  1.00  0.00     0.047 C 
HETATM   19  C11 UNL     1      23.812  20.993   4.745  1.00  0.00     0.015 C 
HETATM   20  C12 UNL     1      23.546  20.351   3.407  1.00  0.00     0.001 C 
HETATM   21  C13 UNL     1      22.155  19.781   3.430  1.00  0.00     0.000 C 
HETATM   22  C14 UNL     1      21.123  20.805   3.839  1.00  0.00     0.001 C 
HETATM   23  C15 UNL     1      21.726  22.186   3.973  1.00  0.00     0.015 C 
ENDBRANCH  17  18
ENDBRANCH  16  17
ENDBRANCH  15  16
ENDBRANCH   1  15
BRANCH   1  24
HETATM   24  C16 UNL     1      22.997  27.006   9.079  1.00  0.00    -0.039 C 
HETATM   25  C17 UNL     1      21.771  27.823   9.387  1.00  0.00     0.015 C 
HETATM   26  C18 UNL     1      22.987  25.856  10.105  1.00  0.00     0.015 C 
HETATM   27  C19 UNL     1      24.266  27.766   9.376  1.00  0.00     0.015 C 
ENDBRANCH   1  24
TORSDOF 8
ENDMDL
MODEL 5
REMARK VINA RESULT: -6.080170896      1.216      1.634
REMARK  8 active torsions:
REMARK  status: ('A' for Active; 'I' for Inactive)
REMARK    1  A    between atoms: C2_2  and  O1_3 
REMARK    2  A    between atoms: O1_3  and  C3_4 
REMARK       I    between atoms: C3_4  and  N1_6 
REMARK       I    between atoms: N2_9  and  C6_10 
REMARK    3  A    between atoms: C6_10  and  C7_12 
REMARK    4  A    between atoms: C7_12  and  C8_13 
REMARK    5  A    between atoms: C7_12  and  C16_22 
REMARK    6  A    between atoms: C8_13  and  C9_14 
REMARK    7  A    between atoms: C9_14  and  S1_15 
REMARK    8  A    between atoms: S1_15  and  C10_16 
ROOT
HETATM    1  C7  UNL     1      23.303  27.163   8.233  1.00  0.00     0.086 C 
ENDROOT
BRANCH   1   2
HETATM    2  C6  UNL     1      23.119  27.961   9.469  1.00  0.00     0.224 C 
HETATM    3  N2  UNL     1      24.097  28.304  10.407  1.00  0.00    -0.349 N 
HETATM    4  C5  UNL     1      25.500  27.989  10.327  1.00  0.00     0.145 C 
HETATM    5  C20 UNL     1      23.719  29.042  11.596  1.00  0.00     0.145 C 
HETATM    6  C4  UNL     1      26.254  29.296  10.167  1.00  0.00     0.148 C 
HETATM    7  N1  UNL     1      25.895  30.138  11.284  1.00  0.00    -0.325 N 
HETATM    8  C3  UNL     1      26.932  30.862  11.969  1.00  0.00     0.362 C 
HETATM    9  C21 UNL     1      24.546  30.299  11.756  1.00  0.00     0.148 C 
HETATM   10  O2  UNL     1      26.663  31.606  12.953  1.00  0.00    -0.238 OA
HETATM   11  O3  UNL     1      21.931  28.393   9.723  1.00  0.00    -0.273 OA
BRANCH   8  12
HETATM   12  O1  UNL     1      28.263  30.794  11.605  1.00  0.00    -0.304 OA
BRANCH  12  13
HETATM   13  C2  UNL     1      29.294  30.444  12.507  1.00  0.00     0.176 C 
HETATM   14  C1  UNL     1      30.088  29.328  11.833  1.00  0.00     0.034 C 
ENDBRANCH  12  13
ENDBRANCH   8  12
ENDBRANCH   1   2
BRANCH   1  15
HETATM   15  C8  UNL     1      22.253  27.539   7.195  1.00  0.00     0.025 C 
BRANCH  15  16
HETATM   16  C9  UNL     1      22.773  28.703   6.356  1.00  0.00     0.075 C 
BRANCH  16  17
HETATM   17  S1  UNL     1      22.107  28.653   4.683  1.00  0.00    -0.164 SA
BRANCH  17  18
HETATM   18  C10 UNL     1      23.463  29.013   3.530  1.00  0.00     0.047 C 
HETATM   19  C11 UNL     1      23.180  28.551   2.130  1.00  0.00     0.015 C 
HETATM   20  C12 UNL     1      23.889  29.471   1.169  1.00  0.00     0.001 C 
HETATM   21  C13 UNL     1      23.241  30.825   1.253  1.00  0.00     0.000 C 
HETATM   22  C14 UNL     1      23.178  31.343   2.670  1.00  0.00     0.001 C 
HETATM   23  C15 UNL     1      23.921  30.440   3.630  1.00  0.00     0.015 C 
ENDBRANCH  17  18
ENDBRANCH  16  17
ENDBRANCH  15  16
ENDBRANCH   1  15
BRANCH   1  24
HETATM   24  C16 UNL     1      23.161  25.679   8.413  1.00  0.00    -0.039 C 
HETATM   25  C17 UNL     1      22.339  25.002   7.350  1.00  0.00     0.015 C 
HETATM   26  C18 UNL     1      24.588  25.121   8.239  1.00  0.00     0.015 C 
HETATM   27  C19 UNL     1      22.753  25.244   9.799  1.00  0.00     0.015 C 
ENDBRANCH   1  24
TORSDOF 8
ENDMDL
