MODEL 1
REMARK VINA RESULT: -6.914315000      0.000      0.000
REMARK  8 active torsions:
REMARK  status: ('A' for Active; 'I' for Inactive)
REMARK    1  A    between atoms: C2_2  and  C3_3 
REMARK    2  A    between atoms: C3_3  and  C4_4 
REMARK    3  A    between atoms: C4_4  and  O2_6 
REMARK    4  A    between atoms: O2_6  and  C5_7 
REMARK    5  A    between atoms: C5_7  and  C6_8 
REMARK    6  A    between atoms: C6_8  and  C8_10 
REMARK    7  A    between atoms: C8_10  and  C9_11 
REMARK    8  A    between atoms: C21_23  and  C22_24 
ROOT
HETATM    1  C9  UNL     1      21.624  28.558   7.712  1.00  0.00    -0.002 C 
HETATM    2  C10 UNL     1      21.587  28.143   6.266  1.00  0.00     0.015 C 
HETATM    3  C11 UNL     1      21.968  29.205   5.282  1.00  0.00    -0.039 C 
HETATM    4  C12 UNL     1      20.841  30.162   5.017  1.00  0.00     0.015 C 
HETATM    5  C13 UNL     1      22.223  28.473   3.950  1.00  0.00     0.010 C 
HETATM    6  C14 UNL     1      23.520  28.891   3.310  1.00  0.00     0.002 C 
HETATM    7  C15 UNL     1      23.770  30.369   3.356  1.00  0.00     0.009 C 
HETATM    8  C16 UNL     1      23.778  30.904   4.766  1.00  0.00    -0.043 C 
HETATM    9  C17 UNL     1      25.247  31.066   5.205  1.00  0.00     0.015 C 
HETATM   10  C18 UNL     1      23.136  32.225   4.939  1.00  0.00     0.015 C 
HETATM   11  C19 UNL     1      23.241  29.818   5.695  1.00  0.00     0.002 C 
HETATM   12  C20 UNL     1      23.373  30.246   7.099  1.00  0.00     0.018 C 
HETATM   13  C21 UNL     1      22.268  29.826   8.046  1.00  0.00     0.059 C 
ENDROOT
BRANCH   1  14
HETATM   14  C8  UNL     1      21.895  27.366   8.543  1.00  0.00     0.012 C 
BRANCH  14  15
HETATM   15  C6  UNL     1      23.172  26.575   8.027  1.00  0.00     0.006 C 
HETATM   16  C7  UNL     1      22.518  25.309   7.484  1.00  0.00     0.012 C 
BRANCH  15  17
HETATM   17  C5  UNL     1      23.839  26.264   9.390  1.00  0.00     0.183 C 
BRANCH  17  18
HETATM   18  O2  UNL     1      24.951  26.936   9.698  1.00  0.00    -0.319 OA
BRANCH  18  19
HETATM   19  C4  UNL     1      26.264  26.828   9.584  1.00  0.00     0.296 C 
HETATM   20  O1  UNL     1      26.798  25.730   9.742  1.00  0.00    -0.262 OA
BRANCH  19  21
HETATM   21  C3  UNL     1      27.042  28.098   9.278  1.00  0.00     0.174 A 
HETATM   22  O4  UNL     1      28.106  27.736   8.306  1.00  0.00    -0.359 OA
HETATM   23  C24 UNL     1      27.044  28.582   7.964  1.00  0.00     0.164 A 
HETATM   24  C25 UNL     1      26.186  27.915   6.884  1.00  0.00     0.043 C 
BRANCH  21  25
HETATM   25  C2  UNL     1      27.835  28.578  10.500  1.00  0.00     0.047 C 
HETATM   26  C1  UNL     1      27.330  29.921  10.944  1.00  0.00     0.009 C 
ENDBRANCH  21  25
ENDBRANCH  19  21
ENDBRANCH  18  19
ENDBRANCH  17  18
ENDBRANCH  15  17
ENDBRANCH  14  15
ENDBRANCH   1  14
BRANCH  13  27
HETATM   27  C22 UNL     1      22.894  29.855   9.387  1.00  0.00     0.127 C 
HETATM   28  C23 UNL     1      22.123  29.790  10.660  1.00  0.00     0.091 C 
HETATM   29  O3  UNL     1      24.083  29.940   9.510  1.00  0.00    -0.298 OA
ENDBRANCH  13  27
TORSDOF 8
ENDMDL
MODEL 2
REMARK VINA RESULT: -6.856673125      2.457      5.935
REMARK  8 active torsions:
REMARK  status: ('A' for Active; 'I' for Inactive)
REMARK    1  A    between atoms: C2_2  and  C3_3 
REMARK    2  A    between atoms: C3_3  and  C4_4 
REMARK    3  A    between atoms: C4_4  and  O2_6 
REMARK    4  A    between atoms: O2_6  and  C5_7 
REMARK    5  A    between atoms: C5_7  and  C6_8 
REMARK    6  A    between atoms: C6_8  and  C8_10 
REMARK    7  A    between atoms: C8_10  and  C9_11 
REMARK    8  A    between atoms: C21_23  and  C22_24 
ROOT
HETATM    1  C9  UNL     1      24.101  27.627   8.467  1.00  0.00    -0.002 C 
HETATM    2  C10 UNL     1      23.012  28.134   9.373  1.00  0.00     0.015 C 
HETATM    3  C11 UNL     1      23.427  29.187  10.352  1.00  0.00    -0.039 C 
HETATM    4  C12 UNL     1      24.124  28.604  11.548  1.00  0.00     0.015 C 
HETATM    5  C13 UNL     1      22.119  29.805  10.885  1.00  0.00     0.010 C 
HETATM    6  C14 UNL     1      22.149  31.310  10.856  1.00  0.00     0.002 C 
HETATM    7  C15 UNL     1      23.445  31.900  11.324  1.00  0.00     0.009 C 
HETATM    8  C16 UNL     1      24.620  31.419  10.512  1.00  0.00    -0.043 C 
HETATM    9  C17 UNL     1      24.974  32.516   9.489  1.00  0.00     0.015 C 
HETATM   10  C18 UNL     1      25.851  31.150  11.288  1.00  0.00     0.015 C 
HETATM   11  C19 UNL     1      24.157  30.250   9.644  1.00  0.00     0.002 C 
HETATM   12  C20 UNL     1      25.236  29.847   8.725  1.00  0.00     0.018 C 
HETATM   13  C21 UNL     1      25.360  28.368   8.427  1.00  0.00     0.059 C 
ENDROOT
BRANCH   1  14
HETATM   14  C8  UNL     1      23.493  27.163   7.202  1.00  0.00     0.012 C 
BRANCH  14  15
HETATM   15  C6  UNL     1      22.081  26.480   7.452  1.00  0.00     0.006 C 
HETATM   16  C7  UNL     1      22.452  25.008   7.307  1.00  0.00     0.012 C 
BRANCH  15  17
HETATM   17  C5  UNL     1      21.347  26.953   6.172  1.00  0.00     0.183 C 
BRANCH  17  18
HETATM   18  O2  UNL     1      21.895  27.957   5.484  1.00  0.00    -0.319 OA
BRANCH  18  19
HETATM   19  C4  UNL     1      21.566  28.864   4.580  1.00  0.00     0.296 C 
HETATM   20  O1  UNL     1      20.491  28.768   3.987  1.00  0.00    -0.262 OA
BRANCH  19  21
HETATM   21  C3  UNL     1      22.568  29.978   4.317  1.00  0.00     0.174 A 
HETATM   22  O4  UNL     1      21.826  31.263   4.404  1.00  0.00    -0.359 OA
HETATM   23  C24 UNL     1      22.815  30.911   5.332  1.00  0.00     0.164 A 
HETATM   24  C25 UNL     1      22.180  30.746   6.716  1.00  0.00     0.043 C 
BRANCH  21  25
HETATM   25  C2  UNL     1      23.060  29.956   2.864  1.00  0.00     0.047 C 
HETATM   26  C1  UNL     1      23.434  28.557   2.470  1.00  0.00     0.009 C 
ENDBRANCH  21  25
ENDBRANCH  19  21
ENDBRANCH  18  19
ENDBRANCH  17  18
ENDBRANCH  15  17
ENDBRANCH  14  15
ENDBRANCH   1  14
BRANCH  13  27
HETATM   27  C22 UNL     1      26.060  28.306   7.124  1.00  0.00     0.127 C 
HETATM   28  C23 UNL     1      25.888  29.320   6.046  1.00  0.00     0.091 C 
HETATM   29  O3  UNL     1      26.811  27.408   6.870  1.00  0.00    -0.298 OA
ENDBRANCH  13  27
TORSDOF 8
ENDMDL
MODEL 3
REMARK VINA RESULT: -6.837308920      2.094      4.899
REMARK  8 active torsions:
REMARK  status: ('A' for Active; 'I' for Inactive)
REMARK    1  A    between atoms: C2_2  and  C3_3 
REMARK    2  A    between atoms: C3_3  and  C4_4 
REMARK    3  A    between atoms: C4_4  and  O2_6 
REMARK    4  A    between atoms: O2_6  and  C5_7 
REMARK    5  A    between atoms: C5_7  and  C6_8 
REMARK    6  A    between atoms: C6_8  and  C8_10 
REMARK    7  A    between atoms: C8_10  and  C9_11 
REMARK    8  A    between atoms: C21_23  and  C22_24 
ROOT
HETATM    1  C9  UNL     1      22.708  29.291   8.816  1.00  0.00    -0.002 C 
HETATM    2  C10 UNL     1      22.376  29.090  10.270  1.00  0.00     0.015 C 
HETATM    3  C11 UNL     1      22.770  30.210  11.181  1.00  0.00    -0.039 C 
HETATM    4  C12 UNL     1      24.230  30.170  11.529  1.00  0.00     0.015 C 
HETATM    5  C13 UNL     1      22.013  29.964  12.502  1.00  0.00     0.010 C 
HETATM    6  C14 UNL     1      21.319  31.203  12.998  1.00  0.00     0.002 C 
HETATM    7  C15 UNL     1      22.145  32.449  12.886  1.00  0.00     0.009 C 
HETATM    8  C16 UNL     1      22.579  32.722  11.468  1.00  0.00    -0.043 C 
HETATM    9  C17 UNL     1      21.640  33.796  10.882  1.00  0.00     0.015 C 
HETATM   10  C18 UNL     1      23.957  33.239  11.323  1.00  0.00     0.015 C 
HETATM   11  C19 UNL     1      22.280  31.483  10.628  1.00  0.00     0.002 C 
HETATM   12  C20 UNL     1      22.550  31.762   9.206  1.00  0.00     0.018 C 
HETATM   13  C21 UNL     1      23.121  30.625   8.385  1.00  0.00     0.059 C 
ENDROOT
BRANCH   1  14
HETATM   14  C8  UNL     1      21.743  28.530   7.996  1.00  0.00     0.012 C 
BRANCH  14  15
HETATM   15  C6  UNL     1      22.476  27.465   7.073  1.00  0.00     0.006 C 
HETATM   16  C7  UNL     1      21.490  27.372   5.913  1.00  0.00     0.012 C 
BRANCH  15  17
HETATM   17  C5  UNL     1      22.329  26.213   7.973  1.00  0.00     0.183 C 
BRANCH  17  18
HETATM   18  O2  UNL     1      23.296  25.979   8.864  1.00  0.00    -0.319 OA
BRANCH  18  19
HETATM   19  C4  UNL     1      24.590  25.710   8.906  1.00  0.00     0.296 C 
HETATM   20  O1  UNL     1      25.028  24.736   8.292  1.00  0.00    -0.262 OA
BRANCH  19  21
HETATM   21  C3  UNL     1      25.464  26.629   9.744  1.00  0.00     0.174 A 
HETATM   22  O4  UNL     1      26.850  26.513   9.221  1.00  0.00    -0.359 OA
HETATM   23  C24 UNL     1      26.112  27.698   9.112  1.00  0.00     0.164 A 
HETATM   24  C25 UNL     1      25.853  28.004   7.633  1.00  0.00     0.043 C 
BRANCH  21  25
HETATM   25  C2  UNL     1      25.591  26.122  11.186  1.00  0.00     0.047 C 
HETATM   26  C1  UNL     1      24.340  26.437  11.953  1.00  0.00     0.009 C 
ENDBRANCH  21  25
ENDBRANCH  19  21
ENDBRANCH  18  19
ENDBRANCH  17  18
ENDBRANCH  15  17
ENDBRANCH  14  15
ENDBRANCH   1  14
BRANCH  13  27
HETATM   27  C22 UNL     1      22.754  30.952   6.988  1.00  0.00     0.127 C 
HETATM   28  C23 UNL     1      23.624  30.659   5.816  1.00  0.00     0.091 C 
HETATM   29  O3  UNL     1      21.713  31.488   6.734  1.00  0.00    -0.298 OA
ENDBRANCH  13  27
TORSDOF 8
ENDMDL
MODEL 4
REMARK VINA RESULT: -6.727862132      2.423      5.728
REMARK  8 active torsions:
REMARK  status: ('A' for Active; 'I' for Inactive)
REMARK    1  A    between atoms: C2_2  and  C3_3 
REMARK    2  A    between atoms: C3_3  and  C4_4 
REMARK    3  A    between atoms: C4_4  and  O2_6 
REMARK    4  A    between atoms: O2_6  and  C5_7 
REMARK    5  A    between atoms: C5_7  and  C6_8 
REMARK    6  A    between atoms: C6_8  and  C8_10 
REMARK    7  A    between atoms: C8_10  and  C9_11 
REMARK    8  A    between atoms: C21_23  and  C22_24 
ROOT
HETATM    1  C9  UNL     1      23.370  27.892  10.264  1.00  0.00    -0.002 C 
HETATM    2  C10 UNL     1      22.525  29.121  10.067  1.00  0.00     0.015 C 
HETATM    3  C11 UNL     1      22.747  30.221  11.058  1.00  0.00    -0.039 C 
HETATM    4  C12 UNL     1      22.037  29.965  12.356  1.00  0.00     0.015 C 
HETATM    5  C13 UNL     1      22.082  31.474  10.452  1.00  0.00     0.010 C 
HETATM    6  C14 UNL     1      22.986  32.675  10.497  1.00  0.00     0.002 C 
HETATM    7  C15 UNL     1      23.725  32.831  11.793  1.00  0.00     0.009 C 
HETATM    8  C16 UNL     1      24.572  31.627  12.117  1.00  0.00    -0.043 C 
HETATM    9  C17 UNL     1      26.029  31.952  11.732  1.00  0.00     0.015 C 
HETATM   10  C18 UNL     1      24.587  31.237  13.544  1.00  0.00     0.015 C 
HETATM   11  C19 UNL     1      24.188  30.499  11.162  1.00  0.00     0.002 C 
HETATM   12  C20 UNL     1      25.096  29.353  11.346  1.00  0.00     0.018 C 
HETATM   13  C21 UNL     1      24.490  27.973  11.199  1.00  0.00     0.059 C 
ENDROOT
BRANCH   1  14
HETATM   14  C8  UNL     1      23.563  27.231   8.957  1.00  0.00     0.012 C 
BRANCH  14  15
HETATM   15  C6  UNL     1      22.430  26.153   8.677  1.00  0.00     0.006 C 
HETATM   16  C7  UNL     1      23.200  24.862   8.936  1.00  0.00     0.012 C 
BRANCH  15  17
HETATM   17  C5  UNL     1      22.267  26.355   7.150  1.00  0.00     0.183 C 
BRANCH  17  18
HETATM   18  O2  UNL     1      22.521  27.572   6.660  1.00  0.00    -0.319 OA
BRANCH  18  19
HETATM   19  C4  UNL     1      22.083  28.399   5.727  1.00  0.00     0.296 C 
HETATM   20  O1  UNL     1      21.026  28.153   5.145  1.00  0.00    -0.262 OA
BRANCH  19  21
HETATM   21  C3  UNL     1      22.944  29.614   5.415  1.00  0.00     0.174 A 
HETATM   22  O4  UNL     1      24.305  29.114   5.089  1.00  0.00    -0.359 OA
HETATM   23  C24 UNL     1      23.492  29.736   4.132  1.00  0.00     0.164 A 
HETATM   24  C25 UNL     1      23.137  28.730   3.032  1.00  0.00     0.043 C 
BRANCH  21  25
HETATM   25  C2  UNL     1      23.177  30.471   6.666  1.00  0.00     0.047 C 
HETATM   26  C1  UNL     1      22.101  31.511   6.783  1.00  0.00     0.009 C 
ENDBRANCH  21  25
ENDBRANCH  19  21
ENDBRANCH  18  19
ENDBRANCH  17  18
ENDBRANCH  15  17
ENDBRANCH  14  15
ENDBRANCH   1  14
BRANCH  13  27
HETATM   27  C22 UNL     1      25.633  27.097  10.854  1.00  0.00     0.127 C 
HETATM   28  C23 UNL     1      26.771  27.526   9.994  1.00  0.00     0.091 C 
HETATM   29  O3  UNL     1      25.690  25.971  11.258  1.00  0.00    -0.298 OA
ENDBRANCH  13  27
TORSDOF 8
ENDMDL
MODEL 5
REMARK VINA RESULT: -6.716500815      1.646      4.247
REMARK  8 active torsions:
REMARK  status: ('A' for Active; 'I' for Inactive)
REMARK    1  A    between atoms: C2_2  and  C3_3 
REMARK    2  A    between atoms: C3_3  and  C4_4 
REMARK    3  A    between atoms: C4_4  and  O2_6 
REMARK    4  A    between atoms: O2_6  and  C5_7 
REMARK    5  A    between atoms: C5_7  and  C6_8 
REMARK    6  A    between atoms: C6_8  and  C8_10 
REMARK    7  A    between atoms: C8_10  and  C9_11 
REMARK    8  A    between atoms: C21_23  and  C22_24 
ROOT
HETATM    1  C9  UNL     1      25.429  29.729   7.434  1.00  0.00    -0.002 C 
HETATM    2  C10 UNL     1      24.078  29.121   7.696  1.00  0.00     0.015 C 
HETATM    3  C11 UNL     1      23.034  29.403   6.661  1.00  0.00    -0.039 C 
HETATM    4  C12 UNL     1      22.430  30.769   6.825  1.00  0.00     0.015 C 
HETATM    5  C13 UNL     1      21.894  28.401   6.930  1.00  0.00     0.010 C 
HETATM    6  C14 UNL     1      21.446  27.700   5.675  1.00  0.00     0.002 C 
HETATM    7  C15 UNL     1      21.318  28.606   4.487  1.00  0.00     0.009 C 
HETATM    8  C16 UNL     1      22.611  29.311   4.163  1.00  0.00    -0.043 C 
HETATM    9  C17 UNL     1      23.280  28.563   2.993  1.00  0.00     0.015 C 
HETATM   10  C18 UNL     1      22.466  30.720   3.738  1.00  0.00     0.015 C 
HETATM   11  C19 UNL     1      23.576  29.101   5.327  1.00  0.00     0.002 C 
HETATM   12  C20 UNL     1      24.902  29.647   4.985  1.00  0.00     0.018 C 
HETATM   13  C21 UNL     1      25.684  30.293   6.110  1.00  0.00     0.059 C 
ENDROOT
BRANCH   1  14
HETATM   14  C8  UNL     1      26.463  28.890   8.075  1.00  0.00     0.012 C 
BRANCH  14  15
HETATM   15  C6  UNL     1      26.776  29.380   9.554  1.00  0.00     0.006 C 
HETATM   16  C7  UNL     1      27.838  30.440   9.279  1.00  0.00     0.012 C 
BRANCH  15  17
HETATM   17  C5  UNL     1      27.457  28.101  10.100  1.00  0.00     0.183 C 
BRANCH  17  18
HETATM   18  O2  UNL     1      26.788  26.951   9.987  1.00  0.00    -0.319 OA
BRANCH  18  19
HETATM   19  C4  UNL     1      25.869  26.247  10.625  1.00  0.00     0.296 C 
HETATM   20  O1  UNL     1      26.193  25.568  11.600  1.00  0.00    -0.262 OA
BRANCH  19  21
HETATM   21  C3  UNL     1      24.447  26.310  10.088  1.00  0.00     0.174 A 
HETATM   22  O4  UNL     1      23.536  26.019  11.225  1.00  0.00    -0.359 OA
HETATM   23  C24 UNL     1      23.577  27.276  10.608  1.00  0.00     0.164 A 
HETATM   24  C25 UNL     1      24.078  28.321  11.611  1.00  0.00     0.043 C 
BRANCH  21  25
HETATM   25  C2  UNL     1      24.165  25.162   9.111  1.00  0.00     0.047 C 
HETATM   26  C1  UNL     1      24.334  25.637   7.697  1.00  0.00     0.009 C 
ENDBRANCH  21  25
ENDBRANCH  19  21
ENDBRANCH  18  19
ENDBRANCH  17  18
ENDBRANCH  15  17
ENDBRANCH  14  15
ENDBRANCH   1  14
BRANCH  13  27
HETATM   27  C22 UNL     1      27.097  30.212   5.677  1.00  0.00     0.127 C 
HETATM   28  C23 UNL     1      27.915  31.399   5.303  1.00  0.00     0.091 C 
HETATM   29  O3  UNL     1      27.659  29.156   5.600  1.00  0.00    -0.298 OA
ENDBRANCH  13  27
TORSDOF 8
ENDMDL
