MODEL 1
REMARK VINA RESULT: -8.360371446      0.000      0.000
REMARK  8 active torsions:
REMARK  status: ('A' for Active; 'I' for Inactive)
REMARK    1  A    between atoms: C2_2  and  C3_3 
REMARK    2  A    between atoms: C4_4  and  S1_5 
REMARK    3  A    between atoms: S1_5  and  C5_8 
REMARK    4  A    between atoms: C8_12  and  C9_13 
REMARK    5  A    between atoms: C9_13  and  O4_15 
REMARK    6  A    between atoms: O4_15  and  C10_16 
REMARK    7  A    between atoms: C10_16  and  C11_17 
REMARK       I    between atoms: C11_17  and  N1_19 
REMARK    8  A    between atoms: N1_19  and  C12_21 
ROOT
HETATM    1  O4  UNL     1      10.569   7.089  78.210  1.00  0.00    -0.308 OA
ENDROOT
BRANCH   1   2
HETATM    2  C9  UNL     1      10.733   5.770  78.432  1.00  0.00     0.302 C 
HETATM    3  O3  UNL     1      10.452   4.935  77.518  1.00  0.00    -0.259 OA
BRANCH   2   4
HETATM    4  C8  UNL     1      11.238   5.273  79.730  1.00  0.00     0.102 A 
HETATM    5  C5  UNL     1      10.683   4.506  80.703  1.00  0.00     0.095 A 
HETATM    6  C6  UNL     1      11.452   4.212  81.777  1.00  0.00     0.033 A 
HETATM    7  C7  UNL     1      12.723   4.708  81.806  1.00  0.00     0.052 A 
HETATM    8  S2  UNL     1      12.834   5.568  80.355  1.00  0.00    -0.094 SA
BRANCH   5   9
HETATM    9  S1  UNL     1       9.000   3.943  80.568  1.00  0.00     0.247 S 
HETATM   10  O1  UNL     1       8.456   3.758  81.938  1.00  0.00    -0.209 OA
HETATM   11  O2  UNL     1       8.945   2.620  79.835  1.00  0.00    -0.209 OA
BRANCH   9  12
HETATM   12  C4  UNL     1       8.005   5.143  79.808  1.00  0.00     0.037 C 
HETATM   13  C3  UNL     1       7.312   5.978  79.251  1.00  0.00    -0.062 C 
BRANCH  13  14
HETATM   14  C2  UNL     1       6.508   6.971  78.595  1.00  0.00     0.055 C 
HETATM   15  C1  UNL     1       5.858   6.725  77.469  1.00  0.00     0.021 C 
ENDBRANCH  13  14
ENDBRANCH   9  12
ENDBRANCH   5   9
ENDBRANCH   2   4
ENDBRANCH   1   2
BRANCH   1  16
HETATM   16  C10 UNL     1       9.905   7.684  77.140  1.00  0.00     0.281 C 
BRANCH  16  17
HETATM   17  C11 UNL     1      10.561   8.887  76.588  1.00  0.00     0.242 C 
HETATM   18  O5  UNL     1       9.866   9.885  76.302  1.00  0.00    -0.271 OA
HETATM   19  N1  UNL     1      11.944   8.919  76.384  1.00  0.00    -0.350 N 
ATOM     20  H1  UNL     1      12.458   8.075  76.635  1.00  0.00     0.163 HD
BRANCH  19  21
HETATM   21  C12 UNL     1      12.715  10.003  75.863  1.00  0.00     0.034 C 
HETATM   22  C13 UNL     1      14.173   9.616  75.856  1.00  0.00     0.035 C 
HETATM   23  C14 UNL     1      14.999  10.669  75.129  1.00  0.00    -0.012 C 
HETATM   24  C15 UNL     1      14.480  10.804  73.738  1.00  0.00     0.009 C 
HETATM   25  C19 UNL     1      14.860  11.945  75.937  1.00  0.00     0.009 C 
HETATM   26  C16 UNL     1      13.060  11.327  73.780  1.00  0.00    -0.012 C 
HETATM   27  C17 UNL     1      12.947  12.606  74.590  1.00  0.00     0.009 C 
HETATM   28  C21 UNL     1      12.221  10.292  74.449  1.00  0.00     0.035 C 
HETATM   29  C18 UNL     1      13.412  12.338  75.997  1.00  0.00    -0.012 C 
HETATM   30  C20 UNL     1      12.593  11.263  76.688  1.00  0.00     0.035 C 
ENDBRANCH  19  21
ENDBRANCH  16  17
ENDBRANCH   1  16
TORSDOF 8
ENDMDL
MODEL 2
REMARK VINA RESULT: -8.270846166      2.119      4.082
REMARK  8 active torsions:
REMARK  status: ('A' for Active; 'I' for Inactive)
REMARK    1  A    between atoms: C2_2  and  C3_3 
REMARK    2  A    between atoms: C4_4  and  S1_5 
REMARK    3  A    between atoms: S1_5  and  C5_8 
REMARK    4  A    between atoms: C8_12  and  C9_13 
REMARK    5  A    between atoms: C9_13  and  O4_15 
REMARK    6  A    between atoms: O4_15  and  C10_16 
REMARK    7  A    between atoms: C10_16  and  C11_17 
REMARK       I    between atoms: C11_17  and  N1_19 
REMARK    8  A    between atoms: N1_19  and  C12_21 
ROOT
HETATM    1  O4  UNL     1       9.569   6.569  78.931  1.00  0.00    -0.308 OA
ENDROOT
BRANCH   1   2
HETATM    2  C9  UNL     1      10.224   5.391  78.903  1.00  0.00     0.302 C 
HETATM    3  O3  UNL     1      10.509   4.853  77.790  1.00  0.00    -0.259 OA
BRANCH   2   4
HETATM    4  C8  UNL     1      10.617   4.710  80.155  1.00  0.00     0.102 A 
HETATM    5  C5  UNL     1      11.678   4.854  80.989  1.00  0.00     0.095 A 
HETATM    6  C6  UNL     1      11.716   4.064  82.088  1.00  0.00     0.033 A 
HETATM    7  C7  UNL     1      10.692   3.182  82.275  1.00  0.00     0.052 A 
HETATM    8  S2  UNL     1       9.697   3.457  80.937  1.00  0.00    -0.094 SA
BRANCH   5   9
HETATM    9  S1  UNL     1      12.972   6.019  80.621  1.00  0.00     0.247 S 
HETATM   10  O1  UNL     1      12.566   6.813  79.432  1.00  0.00    -0.209 OA
HETATM   11  O2  UNL     1      14.261   5.291  80.309  1.00  0.00    -0.209 OA
BRANCH   9  12
HETATM   12  C4  UNL     1      13.170   7.154  81.918  1.00  0.00     0.037 C 
HETATM   13  C3  UNL     1      13.333   7.955  82.823  1.00  0.00    -0.062 C 
BRANCH  13  14
HETATM   14  C2  UNL     1      13.529   8.886  83.899  1.00  0.00     0.055 C 
HETATM   15  C1  UNL     1      14.732   9.246  84.314  1.00  0.00     0.021 C 
ENDBRANCH  13  14
ENDBRANCH   9  12
ENDBRANCH   5   9
ENDBRANCH   2   4
ENDBRANCH   1   2
BRANCH   1  16
HETATM   16  C10 UNL     1       8.782   7.116  77.920  1.00  0.00     0.281 C 
BRANCH  16  17
HETATM   17  C11 UNL     1       9.450   8.140  77.092  1.00  0.00     0.242 C 
HETATM   18  O5  UNL     1       8.844   8.626  76.113  1.00  0.00    -0.271 OA
HETATM   19  N1  UNL     1      10.747   8.568  77.391  1.00  0.00    -0.350 N 
ATOM     20  H1  UNL     1      11.192   8.135  78.200  1.00  0.00     0.163 HD
BRANCH  19  21
HETATM   21  C12 UNL     1      11.518   9.545  76.689  1.00  0.00     0.034 C 
HETATM   22  C13 UNL     1      11.619   9.148  75.237  1.00  0.00     0.035 C 
HETATM   23  C14 UNL     1      12.265  10.262  74.425  1.00  0.00    -0.012 C 
HETATM   24  C15 UNL     1      11.449  11.500  74.580  1.00  0.00     0.009 C 
HETATM   25  C19 UNL     1      13.675  10.412  74.964  1.00  0.00     0.009 C 
HETATM   26  C16 UNL     1      11.486  11.947  76.027  1.00  0.00    -0.012 C 
HETATM   27  C17 UNL     1      12.907  12.095  76.543  1.00  0.00     0.009 C 
HETATM   28  C21 UNL     1      10.817  10.891  76.840  1.00  0.00     0.035 C 
HETATM   29  C18 UNL     1      13.612  10.770  76.422  1.00  0.00    -0.012 C 
HETATM   30  C20 UNL     1      12.930   9.670  77.215  1.00  0.00     0.035 C 
ENDBRANCH  19  21
ENDBRANCH  16  17
ENDBRANCH   1  16
TORSDOF 8
ENDMDL
MODEL 3
REMARK VINA RESULT: -7.964585317      2.955      5.305
REMARK  8 active torsions:
REMARK  status: ('A' for Active; 'I' for Inactive)
REMARK    1  A    between atoms: C2_2  and  C3_3 
REMARK    2  A    between atoms: C4_4  and  S1_5 
REMARK    3  A    between atoms: S1_5  and  C5_8 
REMARK    4  A    between atoms: C8_12  and  C9_13 
REMARK    5  A    between atoms: C9_13  and  O4_15 
REMARK    6  A    between atoms: O4_15  and  C10_16 
REMARK    7  A    between atoms: C10_16  and  C11_17 
REMARK       I    between atoms: C11_17  and  N1_19 
REMARK    8  A    between atoms: N1_19  and  C12_21 
ROOT
HETATM    1  O4  UNL     1       6.926  10.383  74.386  1.00  0.00    -0.308 OA
ENDROOT
BRANCH   1   2
HETATM    2  C9  UNL     1       6.396   9.149  74.276  1.00  0.00     0.302 C 
HETATM    3  O3  UNL     1       6.206   8.643  73.128  1.00  0.00    -0.259 OA
BRANCH   2   4
HETATM    4  C8  UNL     1       6.028   8.369  75.477  1.00  0.00     0.102 A 
HETATM    5  C5  UNL     1       6.763   7.718  76.414  1.00  0.00     0.095 A 
HETATM    6  C6  UNL     1       6.090   7.111  77.420  1.00  0.00     0.033 A 
HETATM    7  C7  UNL     1       4.728   7.197  77.419  1.00  0.00     0.052 A 
HETATM    8  S2  UNL     1       4.401   8.109  76.034  1.00  0.00    -0.094 SA
BRANCH   5   9
HETATM    9  S1  UNL     1       8.537   7.647  76.292  1.00  0.00     0.247 S 
HETATM   10  O1  UNL     1       9.087   8.971  76.682  1.00  0.00    -0.209 OA
HETATM   11  O2  UNL     1       8.954   7.343  74.869  1.00  0.00    -0.209 OA
BRANCH   9  12
HETATM   12  C4  UNL     1       9.189   6.499  77.416  1.00  0.00     0.037 C 
HETATM   13  C3  UNL     1       9.625   5.683  78.210  1.00  0.00    -0.062 C 
BRANCH  13  14
HETATM   14  C2  UNL     1      10.136   4.731  79.157  1.00  0.00     0.055 C 
HETATM   15  C1  UNL     1      10.852   5.093  80.209  1.00  0.00     0.021 C 
ENDBRANCH  13  14
ENDBRANCH   9  12
ENDBRANCH   5   9
ENDBRANCH   2   4
ENDBRANCH   1   2
BRANCH   1  16
HETATM   16  C10 UNL     1       7.615  11.092  73.404  1.00  0.00     0.281 C 
BRANCH  16  17
HETATM   17  C11 UNL     1       9.087  11.006  73.488  1.00  0.00     0.242 C 
HETATM   18  O5  UNL     1       9.742  10.717  72.464  1.00  0.00    -0.271 OA
HETATM   19  N1  UNL     1       9.751  11.244  74.695  1.00  0.00    -0.350 N 
ATOM     20  H1  UNL     1       9.164  11.475  75.497  1.00  0.00     0.163 HD
BRANCH  19  21
HETATM   21  C12 UNL     1      11.159  11.201  74.930  1.00  0.00     0.034 C 
HETATM   22  C13 UNL     1      11.448  11.728  76.313  1.00  0.00     0.035 C 
HETATM   23  C14 UNL     1      12.913  11.514  76.668  1.00  0.00    -0.012 C 
HETATM   24  C15 UNL     1      13.217  10.057  76.583  1.00  0.00     0.009 C 
HETATM   25  C19 UNL     1      13.712  12.342  75.680  1.00  0.00     0.009 C 
HETATM   26  C16 UNL     1      13.051   9.592  75.151  1.00  0.00    -0.012 C 
HETATM   27  C17 UNL     1      13.861  10.433  74.181  1.00  0.00     0.009 C 
HETATM   28  C21 UNL     1      11.612   9.750  74.794  1.00  0.00     0.035 C 
HETATM   29  C18 UNL     1      13.417  11.867  74.285  1.00  0.00    -0.012 C 
HETATM   30  C20 UNL     1      11.946  12.049  73.957  1.00  0.00     0.035 C 
ENDBRANCH  19  21
ENDBRANCH  16  17
ENDBRANCH   1  16
TORSDOF 8
ENDMDL
MODEL 4
REMARK VINA RESULT: -7.920190167      2.996      5.371
REMARK  8 active torsions:
REMARK  status: ('A' for Active; 'I' for Inactive)
REMARK    1  A    between atoms: C2_2  and  C3_3 
REMARK    2  A    between atoms: C4_4  and  S1_5 
REMARK    3  A    between atoms: S1_5  and  C5_8 
REMARK    4  A    between atoms: C8_12  and  C9_13 
REMARK    5  A    between atoms: C9_13  and  O4_15 
REMARK    6  A    between atoms: O4_15  and  C10_16 
REMARK    7  A    between atoms: C10_16  and  C11_17 
REMARK       I    between atoms: C11_17  and  N1_19 
REMARK    8  A    between atoms: N1_19  and  C12_21 
ROOT
HETATM    1  O4  UNL     1       6.860  10.417  74.392  1.00  0.00    -0.308 OA
ENDROOT
BRANCH   1   2
HETATM    2  C9  UNL     1       6.401   9.156  74.268  1.00  0.00     0.302 C 
HETATM    3  O3  UNL     1       6.237   8.654  73.114  1.00  0.00    -0.259 OA
BRANCH   2   4
HETATM    4  C8  UNL     1       6.081   8.342  75.459  1.00  0.00     0.102 A 
HETATM    5  C5  UNL     1       6.853   7.701  76.373  1.00  0.00     0.095 A 
HETATM    6  C6  UNL     1       6.219   7.053  77.378  1.00  0.00     0.033 A 
HETATM    7  C7  UNL     1       4.855   7.089  77.399  1.00  0.00     0.052 A 
HETATM    8  S2  UNL     1       4.473   8.014  76.037  1.00  0.00    -0.094 SA
BRANCH   5   9
HETATM    9  S1  UNL     1       8.627   7.697  76.221  1.00  0.00     0.247 S 
HETATM   10  O1  UNL     1       9.133   9.044  76.593  1.00  0.00    -0.209 OA
HETATM   11  O2  UNL     1       9.032   7.397  74.794  1.00  0.00    -0.209 OA
BRANCH   9  12
HETATM   12  C4  UNL     1       9.341   6.584  77.343  1.00  0.00     0.037 C 
HETATM   13  C3  UNL     1       9.824   5.784  78.127  1.00  0.00    -0.062 C 
BRANCH  13  14
HETATM   14  C2  UNL     1      10.385   4.850  79.062  1.00  0.00     0.055 C 
HETATM   15  C1  UNL     1      11.099   5.236  80.107  1.00  0.00     0.021 C 
ENDBRANCH  13  14
ENDBRANCH   9  12
ENDBRANCH   5   9
ENDBRANCH   2   4
ENDBRANCH   1   2
BRANCH   1  16
HETATM   16  C10 UNL     1       7.574  11.147  73.444  1.00  0.00     0.281 C 
BRANCH  16  17
HETATM   17  C11 UNL     1       9.042  10.991  73.510  1.00  0.00     0.242 C 
HETATM   18  O5  UNL     1       9.654  10.544  72.516  1.00  0.00    -0.271 OA
HETATM   19  N1  UNL     1       9.747  11.336  74.666  1.00  0.00    -0.350 N 
ATOM     20  H1  UNL     1       9.194  11.694  75.445  1.00  0.00     0.163 HD
BRANCH  19  21
HETATM   21  C12 UNL     1      11.157  11.242  74.878  1.00  0.00     0.034 C 
HETATM   22  C13 UNL     1      11.871  12.087  73.852  1.00  0.00     0.035 C 
HETATM   23  C14 UNL     1      13.358  12.165  74.169  1.00  0.00    -0.012 C 
HETATM   24  C15 UNL     1      13.525  12.739  75.535  1.00  0.00     0.009 C 
HETATM   25  C19 UNL     1      13.888  10.748  74.055  1.00  0.00     0.009 C 
HETATM   26  C16 UNL     1      12.918  11.795  76.553  1.00  0.00    -0.012 C 
HETATM   27  C17 UNL     1      13.467  10.386  76.422  1.00  0.00     0.009 C 
HETATM   28  C21 UNL     1      11.452  11.736  76.292  1.00  0.00     0.035 C 
HETATM   29  C18 UNL     1      13.169   9.870  75.039  1.00  0.00    -0.012 C 
HETATM   30  C20 UNL     1      11.682   9.832  74.737  1.00  0.00     0.035 C 
ENDBRANCH  19  21
ENDBRANCH  16  17
ENDBRANCH   1  16
TORSDOF 8
ENDMDL
MODEL 5
REMARK VINA RESULT: -7.679489481      2.881      5.118
REMARK  8 active torsions:
REMARK  status: ('A' for Active; 'I' for Inactive)
REMARK    1  A    between atoms: C2_2  and  C3_3 
REMARK    2  A    between atoms: C4_4  and  S1_5 
REMARK    3  A    between atoms: S1_5  and  C5_8 
REMARK    4  A    between atoms: C8_12  and  C9_13 
REMARK    5  A    between atoms: C9_13  and  O4_15 
REMARK    6  A    between atoms: O4_15  and  C10_16 
REMARK    7  A    between atoms: C10_16  and  C11_17 
REMARK       I    between atoms: C11_17  and  N1_19 
REMARK    8  A    between atoms: N1_19  and  C12_21 
ROOT
HETATM    1  O4  UNL     1       7.262   8.790  73.647  1.00  0.00    -0.308 OA
ENDROOT
BRANCH   1   2
HETATM    2  C9  UNL     1       6.364   9.099  74.604  1.00  0.00     0.302 C 
HETATM    3  O3  UNL     1       5.750  10.209  74.560  1.00  0.00    -0.259 OA
BRANCH   2   4
HETATM    4  C8  UNL     1       6.081   8.163  75.712  1.00  0.00     0.102 A 
HETATM    5  C5  UNL     1       6.881   7.481  76.571  1.00  0.00     0.095 A 
HETATM    6  C6  UNL     1       6.275   6.711  77.505  1.00  0.00     0.033 A 
HETATM    7  C7  UNL     1       4.911   6.673  77.515  1.00  0.00     0.052 A 
HETATM    8  S2  UNL     1       4.489   7.698  76.239  1.00  0.00    -0.094 SA
BRANCH   5   9
HETATM    9  S1  UNL     1       8.653   7.584  76.440  1.00  0.00     0.247 S 
HETATM   10  O1  UNL     1       9.064   8.983  76.730  1.00  0.00    -0.209 OA
HETATM   11  O2  UNL     1       9.098   7.222  75.040  1.00  0.00    -0.209 OA
BRANCH   9  12
HETATM   12  C4  UNL     1       9.420   6.594  77.639  1.00  0.00     0.037 C 
HETATM   13  C3  UNL     1       9.938   5.898  78.496  1.00  0.00    -0.062 C 
BRANCH  13  14
HETATM   14  C2  UNL     1      10.554   5.091  79.512  1.00  0.00     0.055 C 
HETATM   15  C1  UNL     1      11.663   5.459  80.133  1.00  0.00     0.021 C 
ENDBRANCH  13  14
ENDBRANCH   9  12
ENDBRANCH   5   9
ENDBRANCH   2   4
ENDBRANCH   1   2
BRANCH   1  16
HETATM   16  C10 UNL     1       7.837   9.660  72.724  1.00  0.00     0.281 C 
BRANCH  16  17
HETATM   17  C11 UNL     1       8.970  10.457  73.237  1.00  0.00     0.242 C 
HETATM   18  O5  UNL     1       8.965  11.697  73.081  1.00  0.00    -0.271 OA
HETATM   19  N1  UNL     1      10.041   9.841  73.891  1.00  0.00    -0.350 N 
ATOM     20  H1  UNL     1       9.990   8.827  73.987  1.00  0.00     0.163 HD
BRANCH  19  21
HETATM   21  C12 UNL     1      11.199  10.475  74.439  1.00  0.00     0.034 C 
HETATM   22  C13 UNL     1      12.032   9.446  75.162  1.00  0.00     0.035 C 
HETATM   23  C14 UNL     1      13.364  10.047  75.588  1.00  0.00    -0.012 C 
HETATM   24  C15 UNL     1      14.074  10.544  74.375  1.00  0.00     0.009 C 
HETATM   25  C19 UNL     1      13.033  11.152  76.573  1.00  0.00     0.009 C 
HETATM   26  C16 UNL     1      13.275  11.671  73.754  1.00  0.00    -0.012 C 
HETATM   27  C17 UNL     1      12.959  12.766  74.756  1.00  0.00     0.009 C 
HETATM   28  C21 UNL     1      11.981  11.098  73.286  1.00  0.00     0.035 C 
HETATM   29  C18 UNL     1      12.169  12.176  75.894  1.00  0.00    -0.012 C 
HETATM   30  C20 UNL     1      10.861  11.557  75.438  1.00  0.00     0.035 C 
ENDBRANCH  19  21
ENDBRANCH  16  17
ENDBRANCH   1  16
TORSDOF 8
ENDMDL
