MODEL 1
REMARK VINA RESULT: -9.157913801      0.000      0.000
REMARK  14 active torsions:
REMARK  status: ('A' for Active; 'I' for Inactive)
REMARK    1  A    between atoms: C2_2  and  N1_3 
REMARK    2  A    between atoms: C3_4  and  C4_5 
REMARK       I    between atoms: C4_5  and  N2_7 
REMARK    3  A    between atoms: N2_7  and  C5_9 
REMARK    4  A    between atoms: C5_9  and  C6_10 
REMARK    5  A    between atoms: C6_10  and  C7_11 
REMARK    6  A    between atoms: C7_11  and  C8_12 
REMARK    7  A    between atoms: C8_12  and  C9_13 
REMARK    8  A    between atoms: C9_13  and  N3_14 
REMARK    9  A    between atoms: C18_23  and  N4_24 
REMARK   10  A    between atoms: C19_29  and  N6_30 
REMARK   11  A    between atoms: C22_33  and  C23_34 
REMARK   12  A    between atoms: N7_37  and  C26_38 
REMARK   13  A    between atoms: C26_38  and  C27_39 
REMARK   14  A    between atoms: C27_39  and  O2_40 
ROOT
HETATM    1  N1  UNL     1     123.168  54.956  15.825  1.00  0.00    -0.178 N 
HETATM    2  C3  UNL     1     124.466  55.088  15.414  1.00  0.00     0.122 A 
HETATM    3  C17 UNL     1     124.944  54.352  14.309  1.00  0.00     0.084 A 
HETATM    4  C18 UNL     1     124.086  53.519  13.675  1.00  0.00     0.117 A 
HETATM    5  N5  UNL     1     122.852  53.428  14.111  1.00  0.00    -0.177 N 
ATOM      6  H5  UNL     1     122.229  52.791  13.614  1.00  0.00     0.185 HD
HETATM    7  C19 UNL     1     122.326  54.108  15.169  1.00  0.00     0.684 A 
ENDROOT
BRANCH   2   8
HETATM    8  C4  UNL     1     125.465  55.871  16.098  1.00  0.00     0.269 C 
HETATM    9  O1  UNL     1     126.547  55.423  16.465  1.00  0.00    -0.266 OA
HETATM   10  N2  UNL     1     125.206  57.246  16.377  1.00  0.00    -0.356 N 
ATOM     11  H2  UNL     1     124.310  57.663  16.121  1.00  0.00     0.162 HD
BRANCH  10  12
HETATM   12  C5  UNL     1     126.253  58.066  17.042  1.00  0.00     0.123 C 
BRANCH  12  13
HETATM   13  C6  UNL     1     125.705  58.529  18.343  1.00  0.00     0.020 C 
BRANCH  13  14
HETATM   14  C7  UNL     1     124.276  58.854  18.377  1.00  0.00     0.003 C 
BRANCH  14  15
HETATM   15  C8  UNL     1     123.575  59.342  19.566  1.00  0.00     0.020 C 
BRANCH  15  16
HETATM   16  C9  UNL     1     122.402  60.211  19.395  1.00  0.00     0.127 C 
BRANCH  16  17
HETATM   17  N3  UNL     1     121.199  59.490  19.034  1.00  0.00    -0.374 N 
HETATM   18  C10 UNL     1     120.535  59.884  17.870  1.00  0.00     0.064 C 
HETATM   19  C11 UNL     1     120.019  58.762  17.016  1.00  0.00     0.053 C 
HETATM   20  C12 UNL     1     119.161  57.896  17.944  1.00  0.00    -0.039 C 
HETATM   21  C13 UNL     1     118.175  58.810  18.629  1.00  0.00     0.015 C 
HETATM   22  C14 UNL     1     118.482  56.795  17.193  1.00  0.00     0.015 C 
HETATM   23  C15 UNL     1     120.107  57.292  18.953  1.00  0.00     0.053 C 
HETATM   24  C16 UNL     1     120.915  58.304  19.693  1.00  0.00     0.064 C 
ENDBRANCH  16  17
ENDBRANCH  15  16
ENDBRANCH  14  15
ENDBRANCH  13  14
ENDBRANCH  12  13
ENDBRANCH  10  12
ENDBRANCH   2   8
BRANCH   1  25
HETATM   25  C2  UNL     1     122.632  55.732  16.894  1.00  0.00     0.143 C 
HETATM   26  C1  UNL     1     122.935  55.088  18.259  1.00  0.00     0.027 C 
ENDBRANCH   1  25
BRANCH   7  27
HETATM   27  N6  UNL     1     120.987  53.891  15.514  1.00  0.00    -0.217 N 
HETATM   28  C20 UNL     1     119.954  54.585  14.712  1.00  0.00     0.141 C 
HETATM   29  C21 UNL     1     119.210  53.521  13.879  1.00  0.00     0.026 C 
HETATM   30  C22 UNL     1     119.451  52.174  14.472  1.00  0.00     0.002 C 
HETATM   31  C29 UNL     1     119.247  52.270  15.972  1.00  0.00     0.026 C 
HETATM   32  C30 UNL     1     120.444  53.037  16.540  1.00  0.00     0.141 C 
BRANCH  30  33
HETATM   33  C23 UNL     1     118.570  51.084  13.905  1.00  0.00     0.084 C 
HETATM   34  C24 UNL     1     117.298  51.573  13.285  1.00  0.00     0.034 C 
HETATM   35  C25 UNL     1     116.843  50.340  12.525  1.00  0.00     0.127 C 
HETATM   36  N7  UNL     1     118.090  49.648  12.153  1.00  0.00    -0.350 N 
HETATM   37  C28 UNL     1     119.167  50.287  12.841  1.00  0.00     0.224 C 
HETATM   38  O3  UNL     1     120.373  50.128  12.515  1.00  0.00    -0.273 OA
BRANCH  36  39
HETATM   39  C26 UNL     1     118.095  48.530  11.240  1.00  0.00     0.151 C 
BRANCH  39  40
HETATM   40  C27 UNL     1     118.879  47.358  11.770  1.00  0.00     0.183 C 
BRANCH  40  41
HETATM   41  O2  UNL     1     120.165  47.406  11.220  1.00  0.00    -0.399 OA
ATOM     42  H2  UNL     1     120.111  47.827  10.370  1.00  0.00     0.209 HD
ENDBRANCH  40  41
ENDBRANCH  39  40
ENDBRANCH  36  39
ENDBRANCH  30  33
ENDBRANCH   7  27
BRANCH   4  43
HETATM   43  N4  UNL     1     124.510  52.842  12.661  1.00  0.00    -0.385 N 
ATOM     44  H42 UNL     1     125.495  52.815  12.397  1.00  0.00     0.157 HD
ATOM     45  H41 UNL     1     123.837  52.314  12.105  1.00  0.00     0.157 HD
ENDBRANCH   4  43
TORSDOF 14
ENDMDL
MODEL 2
REMARK VINA RESULT: -8.804995879      1.479      1.838
REMARK  14 active torsions:
REMARK  status: ('A' for Active; 'I' for Inactive)
REMARK    1  A    between atoms: C2_2  and  N1_3 
REMARK    2  A    between atoms: C3_4  and  C4_5 
REMARK       I    between atoms: C4_5  and  N2_7 
REMARK    3  A    between atoms: N2_7  and  C5_9 
REMARK    4  A    between atoms: C5_9  and  C6_10 
REMARK    5  A    between atoms: C6_10  and  C7_11 
REMARK    6  A    between atoms: C7_11  and  C8_12 
REMARK    7  A    between atoms: C8_12  and  C9_13 
REMARK    8  A    between atoms: C9_13  and  N3_14 
REMARK    9  A    between atoms: C18_23  and  N4_24 
REMARK   10  A    between atoms: C19_29  and  N6_30 
REMARK   11  A    between atoms: C22_33  and  C23_34 
REMARK   12  A    between atoms: N7_37  and  C26_38 
REMARK   13  A    between atoms: C26_38  and  C27_39 
REMARK   14  A    between atoms: C27_39  and  O2_40 
ROOT
HETATM    1  N1  UNL     1     122.547  54.127  15.731  1.00  0.00    -0.178 N 
HETATM    2  C3  UNL     1     123.871  54.290  16.031  1.00  0.00     0.122 A 
HETATM    3  C17 UNL     1     124.821  53.335  15.614  1.00  0.00     0.084 A 
HETATM    4  C18 UNL     1     124.385  52.261  14.915  1.00  0.00     0.117 A 
HETATM    5  N5  UNL     1     123.103  52.151  14.655  1.00  0.00    -0.177 N 
ATOM      6  H5  UNL     1     122.805  51.331  14.128  1.00  0.00     0.185 HD
HETATM    7  C19 UNL     1     122.135  53.035  15.026  1.00  0.00     0.684 A 
ENDROOT
BRANCH   2   8
HETATM    8  C4  UNL     1     124.398  55.348  16.857  1.00  0.00     0.269 C 
HETATM    9  O1  UNL     1     124.500  55.270  18.078  1.00  0.00    -0.266 OA
HETATM   10  N2  UNL     1     124.830  56.563  16.249  1.00  0.00    -0.356 N 
ATOM     11  H2  UNL     1     124.740  56.694  15.241  1.00  0.00     0.162 HD
BRANCH  10  12
HETATM   12  C5  UNL     1     125.414  57.637  17.096  1.00  0.00     0.123 C 
BRANCH  12  13
HETATM   13  C6  UNL     1     124.346  58.635  17.360  1.00  0.00     0.020 C 
BRANCH  13  14
HETATM   14  C7  UNL     1     124.457  59.405  18.602  1.00  0.00     0.003 C 
BRANCH  14  15
HETATM   15  C8  UNL     1     123.601  60.543  18.941  1.00  0.00     0.020 C 
BRANCH  15  16
HETATM   16  C9  UNL     1     122.582  60.381  19.988  1.00  0.00     0.127 C 
BRANCH  16  17
HETATM   17  N3  UNL     1     121.431  59.615  19.558  1.00  0.00    -0.374 N 
HETATM   18  C10 UNL     1     120.509  60.250  18.722  1.00  0.00     0.064 C 
HETATM   19  C11 UNL     1     119.979  59.409  17.595  1.00  0.00     0.053 C 
HETATM   20  C12 UNL     1     119.433  58.137  18.251  1.00  0.00    -0.039 C 
HETATM   21  C13 UNL     1     118.494  58.565  19.352  1.00  0.00     0.015 C 
HETATM   22  C14 UNL     1     118.762  57.251  17.250  1.00  0.00     0.015 C 
HETATM   23  C15 UNL     1     120.625  57.413  18.829  1.00  0.00     0.053 C 
HETATM   24  C16 UNL     1     121.429  58.245  19.769  1.00  0.00     0.064 C 
ENDBRANCH  16  17
ENDBRANCH  15  16
ENDBRANCH  14  15
ENDBRANCH  13  14
ENDBRANCH  12  13
ENDBRANCH  10  12
ENDBRANCH   2   8
BRANCH   1  25
HETATM   25  C2  UNL     1     121.567  55.105  16.076  1.00  0.00     0.143 C 
HETATM   26  C1  UNL     1     121.428  56.170  14.974  1.00  0.00     0.027 C 
ENDBRANCH   1  25
BRANCH   7  27
HETATM   27  N6  UNL     1     120.806  52.767  14.678  1.00  0.00    -0.217 N 
HETATM   28  C20 UNL     1     120.414  52.978  13.266  1.00  0.00     0.141 C 
HETATM   29  C21 UNL     1     120.151  51.594  12.638  1.00  0.00     0.026 C 
HETATM   30  C22 UNL     1     119.937  50.593  13.722  1.00  0.00     0.002 C 
HETATM   31  C29 UNL     1     118.973  51.184  14.734  1.00  0.00     0.026 C 
HETATM   32  C30 UNL     1     119.737  52.264  15.505  1.00  0.00     0.141 C 
BRANCH  30  33
HETATM   33  C23 UNL     1     119.415  49.261  13.237  1.00  0.00     0.084 C 
HETATM   34  C24 UNL     1     118.353  49.354  12.187  1.00  0.00     0.034 C 
HETATM   35  C25 UNL     1     118.309  47.925  11.677  1.00  0.00     0.127 C 
HETATM   36  N7  UNL     1     119.683  47.422  11.855  1.00  0.00    -0.350 N 
HETATM   37  C28 UNL     1     120.406  48.385  12.623  1.00  0.00     0.224 C 
HETATM   38  O3  UNL     1     121.662  48.395  12.695  1.00  0.00    -0.273 OA
BRANCH  36  39
HETATM   39  C26 UNL     1     120.107  46.158  11.301  1.00  0.00     0.151 C 
BRANCH  39  40
HETATM   40  C27 UNL     1     120.698  46.304   9.923  1.00  0.00     0.183 C 
BRANCH  40  41
HETATM   41  O2  UNL     1     121.929  46.957  10.040  1.00  0.00    -0.399 OA
ATOM     42  H2  UNL     1     122.487  46.442  10.611  1.00  0.00     0.209 HD
ENDBRANCH  40  41
ENDBRANCH  39  40
ENDBRANCH  36  39
ENDBRANCH  30  33
ENDBRANCH   7  27
BRANCH   4  43
HETATM   43  N4  UNL     1     125.245  51.380  14.525  1.00  0.00    -0.385 N 
ATOM     44  H42 UNL     1     126.243  51.473  14.712  1.00  0.00     0.157 HD
ATOM     45  H41 UNL     1     124.914  50.562  14.014  1.00  0.00     0.157 HD
ENDBRANCH   4  43
TORSDOF 14
ENDMDL
MODEL 3
REMARK VINA RESULT: -8.762099150      2.948      9.768
REMARK  14 active torsions:
REMARK  status: ('A' for Active; 'I' for Inactive)
REMARK    1  A    between atoms: C2_2  and  N1_3 
REMARK    2  A    between atoms: C3_4  and  C4_5 
REMARK       I    between atoms: C4_5  and  N2_7 
REMARK    3  A    between atoms: N2_7  and  C5_9 
REMARK    4  A    between atoms: C5_9  and  C6_10 
REMARK    5  A    between atoms: C6_10  and  C7_11 
REMARK    6  A    between atoms: C7_11  and  C8_12 
REMARK    7  A    between atoms: C8_12  and  C9_13 
REMARK    8  A    between atoms: C9_13  and  N3_14 
REMARK    9  A    between atoms: C18_23  and  N4_24 
REMARK   10  A    between atoms: C19_29  and  N6_30 
REMARK   11  A    between atoms: C22_33  and  C23_34 
REMARK   12  A    between atoms: N7_37  and  C26_38 
REMARK   13  A    between atoms: C26_38  and  C27_39 
REMARK   14  A    between atoms: C27_39  and  O2_40 
ROOT
HETATM    1  N1  UNL     1     121.352  57.295  17.892  1.00  0.00    -0.178 N 
HETATM    2  C3  UNL     1     121.631  56.046  17.410  1.00  0.00     0.122 A 
HETATM    3  C17 UNL     1     120.659  55.325  16.686  1.00  0.00     0.084 A 
HETATM    4  C18 UNL     1     119.451  55.903  16.486  1.00  0.00     0.117 A 
HETATM    5  N5  UNL     1     119.234  57.103  16.971  1.00  0.00    -0.177 N 
ATOM      6  H5  UNL     1     118.314  57.511  16.804  1.00  0.00     0.185 HD
HETATM    7  C19 UNL     1     120.126  57.852  17.676  1.00  0.00     0.684 A 
ENDROOT
BRANCH   2   8
HETATM    8  C4  UNL     1     122.851  55.324  17.671  1.00  0.00     0.269 C 
HETATM    9  O1  UNL     1     123.146  54.859  18.769  1.00  0.00    -0.266 OA
HETATM   10  N2  UNL     1     123.787  55.124  16.613  1.00  0.00    -0.356 N 
ATOM     11  H2  UNL     1     123.609  55.515  15.688  1.00  0.00     0.162 HD
BRANCH  10  12
HETATM   12  C5  UNL     1     125.025  54.341  16.871  1.00  0.00     0.123 C 
BRANCH  12  13
HETATM   13  C6  UNL     1     125.620  53.992  15.555  1.00  0.00     0.020 C 
BRANCH  13  14
HETATM   14  C7  UNL     1     124.687  53.608  14.492  1.00  0.00     0.003 C 
BRANCH  14  15
HETATM   15  C8  UNL     1     124.047  52.295  14.397  1.00  0.00     0.020 C 
BRANCH  15  16
HETATM   16  C9  UNL     1     123.200  51.998  13.233  1.00  0.00     0.127 C 
BRANCH  16  17
HETATM   17  N3  UNL     1     121.803  51.815  13.569  1.00  0.00    -0.374 N 
HETATM   18  C10 UNL     1     121.070  52.949  13.925  1.00  0.00     0.064 C 
HETATM   19  C11 UNL     1     119.681  53.019  13.360  1.00  0.00     0.053 C 
HETATM   20  C12 UNL     1     119.004  51.705  13.763  1.00  0.00    -0.039 C 
HETATM   21  C13 UNL     1     119.183  51.544  15.252  1.00  0.00     0.015 C 
HETATM   22  C14 UNL     1     117.563  51.685  13.362  1.00  0.00     0.015 C 
HETATM   23  C15 UNL     1     119.735  50.609  13.025  1.00  0.00     0.053 C 
HETATM   24  C16 UNL     1     121.205  50.599  13.274  1.00  0.00     0.064 C 
ENDBRANCH  16  17
ENDBRANCH  15  16
ENDBRANCH  14  15
ENDBRANCH  13  14
ENDBRANCH  12  13
ENDBRANCH  10  12
ENDBRANCH   2   8
BRANCH   1  25
HETATM   25  C2  UNL     1     122.330  58.081  18.570  1.00  0.00     0.143 C 
HETATM   26  C1  UNL     1     123.362  58.660  17.585  1.00  0.00     0.027 C 
ENDBRANCH   1  25
BRANCH   7  27
HETATM   27  N6  UNL     1     119.734  59.116  18.135  1.00  0.00    -0.217 N 
HETATM   28  C20 UNL     1     118.972  59.176  19.403  1.00  0.00     0.141 C 
HETATM   29  C21 UNL     1     119.883  59.815  20.470  1.00  0.00     0.026 C 
HETATM   30  C22 UNL     1     120.996  60.544  19.797  1.00  0.00     0.002 C 
HETATM   31  C29 UNL     1     120.409  61.378  18.674  1.00  0.00     0.026 C 
HETATM   32  C30 UNL     1     120.002  60.410  17.560  1.00  0.00     0.141 C 
BRANCH  30  33
HETATM   33  C23 UNL     1     121.804  61.425  20.720  1.00  0.00     0.084 C 
HETATM   34  C24 UNL     1     121.868  60.947  22.137  1.00  0.00     0.034 C 
HETATM   35  C25 UNL     1     122.995  61.802  22.691  1.00  0.00     0.127 C 
HETATM   36  N7  UNL     1     123.880  62.047  21.538  1.00  0.00    -0.350 N 
HETATM   37  C28 UNL     1     123.208  61.584  20.365  1.00  0.00     0.224 C 
HETATM   38  O3  UNL     1     123.805  61.381  19.275  1.00  0.00    -0.273 OA
BRANCH  36  39
HETATM   39  C26 UNL     1     125.179  62.656  21.694  1.00  0.00     0.151 C 
BRANCH  39  40
HETATM   40  C27 UNL     1     126.284  61.808  21.122  1.00  0.00     0.183 C 
BRANCH  40  41
HETATM   41  O2  UNL     1     126.791  62.453  19.989  1.00  0.00    -0.399 OA
ATOM     42  H2  UNL     1     126.834  61.821  19.281  1.00  0.00     0.209 HD
ENDBRANCH  40  41
ENDBRANCH  39  40
ENDBRANCH  36  39
ENDBRANCH  30  33
ENDBRANCH   7  27
BRANCH   4  43
HETATM   43  N4  UNL     1     118.554  55.255  15.821  1.00  0.00    -0.385 N 
ATOM     44  H42 UNL     1     118.640  55.076  14.821  1.00  0.00     0.157 HD
ATOM     45  H41 UNL     1     117.730  54.908  16.314  1.00  0.00     0.157 HD
ENDBRANCH   4  43
TORSDOF 14
ENDMDL
MODEL 4
REMARK VINA RESULT: -8.506219709      1.751      2.433
REMARK  14 active torsions:
REMARK  status: ('A' for Active; 'I' for Inactive)
REMARK    1  A    between atoms: C2_2  and  N1_3 
REMARK    2  A    between atoms: C3_4  and  C4_5 
REMARK       I    between atoms: C4_5  and  N2_7 
REMARK    3  A    between atoms: N2_7  and  C5_9 
REMARK    4  A    between atoms: C5_9  and  C6_10 
REMARK    5  A    between atoms: C6_10  and  C7_11 
REMARK    6  A    between atoms: C7_11  and  C8_12 
REMARK    7  A    between atoms: C8_12  and  C9_13 
REMARK    8  A    between atoms: C9_13  and  N3_14 
REMARK    9  A    between atoms: C18_23  and  N4_24 
REMARK   10  A    between atoms: C19_29  and  N6_30 
REMARK   11  A    between atoms: C22_33  and  C23_34 
REMARK   12  A    between atoms: N7_37  and  C26_38 
REMARK   13  A    between atoms: C26_38  and  C27_39 
REMARK   14  A    between atoms: C27_39  and  O2_40 
ROOT
HETATM    1  N1  UNL     1     121.993  54.199  16.283  1.00  0.00    -0.178 N 
HETATM    2  C3  UNL     1     123.249  54.486  16.742  1.00  0.00     0.122 A 
HETATM    3  C17 UNL     1     124.373  53.820  16.214  1.00  0.00     0.084 A 
HETATM    4  C18 UNL     1     124.173  52.893  15.247  1.00  0.00     0.117 A 
HETATM    5  N5  UNL     1     122.948  52.654  14.842  1.00  0.00    -0.177 N 
ATOM      6  H5  UNL     1     122.828  51.950  14.114  1.00  0.00     0.185 HD
HETATM    7  C19 UNL     1     121.820  53.260  15.309  1.00  0.00     0.684 A 
ENDROOT
BRANCH   2   8
HETATM    8  C4  UNL     1     123.533  55.379  17.838  1.00  0.00     0.269 C 
HETATM    9  O1  UNL     1     123.322  55.100  19.015  1.00  0.00    -0.266 OA
HETATM   10  N2  UNL     1     124.090  56.664  17.568  1.00  0.00    -0.356 N 
ATOM     11  H2  UNL     1     124.257  56.961  16.606  1.00  0.00     0.162 HD
BRANCH  10  12
HETATM   12  C5  UNL     1     124.425  57.568  18.701  1.00  0.00     0.123 C 
BRANCH  12  13
HETATM   13  C6  UNL     1     124.632  58.930  18.146  1.00  0.00     0.020 C 
BRANCH  13  14
HETATM   14  C7  UNL     1     124.993  59.982  19.100  1.00  0.00     0.003 C 
BRANCH  14  15
HETATM   15  C8  UNL     1     124.245  61.229  19.267  1.00  0.00     0.020 C 
BRANCH  15  16
HETATM   16  C9  UNL     1     123.119  61.262  20.212  1.00  0.00     0.127 C 
BRANCH  16  17
HETATM   17  N3  UNL     1     122.071  60.315  19.893  1.00  0.00    -0.374 N 
HETATM   18  C10 UNL     1     121.751  59.357  20.858  1.00  0.00     0.064 C 
HETATM   19  C11 UNL     1     120.284  59.087  21.032  1.00  0.00     0.053 C 
HETATM   20  C12 UNL     1     119.759  58.743  19.634  1.00  0.00    -0.039 C 
HETATM   21  C13 UNL     1     120.644  57.657  19.074  1.00  0.00     0.015 C 
HETATM   22  C14 UNL     1     118.321  58.334  19.675  1.00  0.00     0.015 C 
HETATM   23  C15 UNL     1     119.889  60.003  18.812  1.00  0.00     0.053 C 
HETATM   24  C16 UNL     1     121.272  60.558  18.786  1.00  0.00     0.064 C 
ENDBRANCH  16  17
ENDBRANCH  15  16
ENDBRANCH  14  15
ENDBRANCH  13  14
ENDBRANCH  12  13
ENDBRANCH  10  12
ENDBRANCH   2   8
BRANCH   1  25
HETATM   25  C2  UNL     1     120.840  54.899  16.745  1.00  0.00     0.143 C 
HETATM   26  C1  UNL     1     120.508  56.093  15.831  1.00  0.00     0.027 C 
ENDBRANCH   1  25
BRANCH   7  27
HETATM   27  N6  UNL     1     120.581  52.883  14.777  1.00  0.00    -0.217 N 
HETATM   28  C20 UNL     1     120.407  52.986  13.311  1.00  0.00     0.141 C 
HETATM   29  C21 UNL     1     120.328  51.554  12.744  1.00  0.00     0.026 C 
HETATM   30  C22 UNL     1     120.003  50.604  13.846  1.00  0.00     0.002 C 
HETATM   31  C29 UNL     1     118.858  51.186  14.655  1.00  0.00     0.026 C 
HETATM   32  C30 UNL     1     119.426  52.357  15.461  1.00  0.00     0.141 C 
BRANCH  30  33
HETATM   33  C23 UNL     1     119.643  49.214  13.377  1.00  0.00     0.084 C 
HETATM   34  C24 UNL     1     118.595  49.171  12.308  1.00  0.00     0.034 C 
HETATM   35  C25 UNL     1     118.722  47.738  11.823  1.00  0.00     0.127 C 
HETATM   36  N7  UNL     1     120.140  47.396  12.032  1.00  0.00    -0.350 N 
HETATM   37  C28 UNL     1     120.736  48.447  12.794  1.00  0.00     0.224 C 
HETATM   38  O3  UNL     1     121.982  48.599  12.885  1.00  0.00    -0.273 OA
BRANCH  36  39
HETATM   39  C26 UNL     1     120.713  46.179  11.507  1.00  0.00     0.151 C 
BRANCH  39  40
HETATM   40  C27 UNL     1     121.164  46.326  10.077  1.00  0.00     0.183 C 
BRANCH  40  41
HETATM   41  O2  UNL     1     122.334  47.094  10.062  1.00  0.00    -0.399 OA
ATOM     42  H2  UNL     1     122.901  46.760   9.378  1.00  0.00     0.209 HD
ENDBRANCH  40  41
ENDBRANCH  39  40
ENDBRANCH  36  39
ENDBRANCH  30  33
ENDBRANCH   7  27
BRANCH   4  43
HETATM   43  N4  UNL     1     125.195  52.279  14.752  1.00  0.00    -0.385 N 
ATOM     44  H42 UNL     1     126.124  52.343  15.168  1.00  0.00     0.157 HD
ATOM     45  H41 UNL     1     125.068  51.706  13.917  1.00  0.00     0.157 HD
ENDBRANCH   4  43
TORSDOF 14
ENDMDL
MODEL 5
REMARK VINA RESULT: -8.423094002      3.155     10.425
REMARK  14 active torsions:
REMARK  status: ('A' for Active; 'I' for Inactive)
REMARK    1  A    between atoms: C2_2  and  N1_3 
REMARK    2  A    between atoms: C3_4  and  C4_5 
REMARK       I    between atoms: C4_5  and  N2_7 
REMARK    3  A    between atoms: N2_7  and  C5_9 
REMARK    4  A    between atoms: C5_9  and  C6_10 
REMARK    5  A    between atoms: C6_10  and  C7_11 
REMARK    6  A    between atoms: C7_11  and  C8_12 
REMARK    7  A    between atoms: C8_12  and  C9_13 
REMARK    8  A    between atoms: C9_13  and  N3_14 
REMARK    9  A    between atoms: C18_23  and  N4_24 
REMARK   10  A    between atoms: C19_29  and  N6_30 
REMARK   11  A    between atoms: C22_33  and  C23_34 
REMARK   12  A    between atoms: N7_37  and  C26_38 
REMARK   13  A    between atoms: C26_38  and  C27_39 
REMARK   14  A    between atoms: C27_39  and  O2_40 
ROOT
HETATM    1  N1  UNL     1     119.961  57.219  17.263  1.00  0.00    -0.178 N 
HETATM    2  C3  UNL     1     120.458  56.306  16.374  1.00  0.00     0.122 A 
HETATM    3  C17 UNL     1     121.573  56.623  15.572  1.00  0.00     0.084 A 
HETATM    4  C18 UNL     1     122.132  57.849  15.706  1.00  0.00     0.117 A 
HETATM    5  N5  UNL     1     121.615  58.689  16.572  1.00  0.00    -0.177 N 
ATOM      6  H5  UNL     1     122.056  59.605  16.651  1.00  0.00     0.185 HD
HETATM    7  C19 UNL     1     120.543  58.447  17.377  1.00  0.00     0.684 A 
ENDROOT
BRANCH   2   8
HETATM    8  C4  UNL     1     119.858  55.024  16.098  1.00  0.00     0.269 C 
HETATM    9  O1  UNL     1     120.143  53.995  16.705  1.00  0.00    -0.266 OA
HETATM   10  N2  UNL     1     118.877  54.917  15.068  1.00  0.00    -0.356 N 
ATOM     11  H2  UNL     1     118.624  55.734  14.511  1.00  0.00     0.162 HD
BRANCH  10  12
HETATM   12  C5  UNL     1     118.226  53.604  14.814  1.00  0.00     0.123 C 
BRANCH  12  13
HETATM   13  C6  UNL     1     118.740  53.089  13.519  1.00  0.00     0.020 C 
BRANCH  13  14
HETATM   14  C7  UNL     1     120.018  52.371  13.557  1.00  0.00     0.003 C 
BRANCH  14  15
HETATM   15  C8  UNL     1     121.322  53.010  13.371  1.00  0.00     0.020 C 
BRANCH  15  16
HETATM   16  C9  UNL     1     122.541  52.211  13.563  1.00  0.00     0.127 C 
BRANCH  16  17
HETATM   17  N3  UNL     1     123.559  52.891  14.335  1.00  0.00    -0.374 N 
HETATM   18  C10 UNL     1     124.622  53.469  13.635  1.00  0.00     0.064 C 
HETATM   19  C11 UNL     1     125.053  54.821  14.125  1.00  0.00     0.053 C 
HETATM   20  C12 UNL     1     125.330  54.650  15.621  1.00  0.00    -0.039 C 
HETATM   21  C13 UNL     1     126.271  53.480  15.774  1.00  0.00     0.015 C 
HETATM   22  C14 UNL     1     125.885  55.902  16.222  1.00  0.00     0.015 C 
HETATM   23  C15 UNL     1     124.000  54.342  16.266  1.00  0.00     0.053 C 
HETATM   24  C16 UNL     1     123.308  53.164  15.671  1.00  0.00     0.064 C 
ENDBRANCH  16  17
ENDBRANCH  15  16
ENDBRANCH  14  15
ENDBRANCH  13  14
ENDBRANCH  12  13
ENDBRANCH  10  12
ENDBRANCH   2   8
BRANCH   1  25
HETATM   25  C2  UNL     1     118.878  56.911  18.138  1.00  0.00     0.143 C 
HETATM   26  C1  UNL     1     117.523  57.244  17.487  1.00  0.00     0.027 C 
ENDBRANCH   1  25
BRANCH   7  27
HETATM   27  N6  UNL     1     120.107  59.457  18.244  1.00  0.00    -0.217 N 
HETATM   28  C20 UNL     1     119.881  59.089  19.661  1.00  0.00     0.141 C 
HETATM   29  C21 UNL     1     120.979  59.770  20.504  1.00  0.00     0.026 C 
HETATM   30  C22 UNL     1     121.588  60.881  19.718  1.00  0.00     0.002 C 
HETATM   31  C29 UNL     1     120.468  61.694  19.096  1.00  0.00     0.026 C 
HETATM   32  C30 UNL     1     119.875  60.851  17.964  1.00  0.00     0.141 C 
BRANCH  30  33
HETATM   33  C23 UNL     1     122.489  61.786  20.525  1.00  0.00     0.084 C 
HETATM   34  C24 UNL     1     122.455  61.541  22.001  1.00  0.00     0.034 C 
HETATM   35  C25 UNL     1     123.677  62.316  22.462  1.00  0.00     0.127 C 
HETATM   36  N7  UNL     1     124.613  62.250  21.325  1.00  0.00    -0.350 N 
HETATM   37  C28 UNL     1     123.910  61.695  20.212  1.00  0.00     0.224 C 
HETATM   38  O3  UNL     1     124.497  61.239  19.196  1.00  0.00    -0.273 OA
BRANCH  36  39
HETATM   39  C26 UNL     1     125.980  62.697  21.441  1.00  0.00     0.151 C 
BRANCH  39  40
HETATM   40  C27 UNL     1     126.239  63.428  22.732  1.00  0.00     0.183 C 
BRANCH  40  41
HETATM   41  O2  UNL     1     126.648  64.731  22.425  1.00  0.00    -0.399 OA
ATOM     42  H2  UNL     1     125.887  65.298  22.462  1.00  0.00     0.209 HD
ENDBRANCH  40  41
ENDBRANCH  39  40
ENDBRANCH  36  39
ENDBRANCH  30  33
ENDBRANCH   7  27
BRANCH   4  43
HETATM   43  N4  UNL     1     123.156  58.151  14.980  1.00  0.00    -0.385 N 
ATOM     44  H42 UNL     1     123.629  57.464  14.393  1.00  0.00     0.157 HD
ATOM     45  H41 UNL     1     123.502  59.110  14.992  1.00  0.00     0.157 HD
ENDBRANCH   4  43
TORSDOF 14
ENDMDL
