MODEL 1
REMARK VINA RESULT: -9.076330948      0.000      0.000
REMARK  15 active torsions:
REMARK  status: ('A' for Active; 'I' for Inactive)
REMARK    1  A    between atoms: O1_2  and  C2_3 
REMARK    2  A    between atoms: C4_5  and  C5_6 
REMARK    3  A    between atoms: C5_6  and  C6_7 
REMARK    4  A    between atoms: C6_7  and  N1_8 
REMARK    5  A    between atoms: N1_8  and  C7_10 
REMARK    6  A    between atoms: C8_13  and  N3_14 
REMARK    7  A    between atoms: N3_14  and  C9_15 
REMARK    8  A    between atoms: C12_18  and  C13_19 
REMARK    9  A    between atoms: N5_27  and  C19_29 
REMARK   10  A    between atoms: C23_33  and  O2_34 
REMARK   11  A    between atoms: O2_34  and  C24_35 
REMARK   12  A    between atoms: C24_35  and  C25_36 
REMARK   13  A    between atoms: C25_36  and  N6_37 
REMARK   14  A    between atoms: C30_44  and  O3_45 
REMARK   15  A    between atoms: C32_47  and  O4_48 
ROOT
HETATM    1  C7  UNL     1     118.456  53.290  14.012  1.00  0.00     0.696 A 
HETATM    2  N2  UNL     1     118.412  54.345  14.816  1.00  0.00    -0.148 N 
ATOM      3  H2  UNL     1     117.513  54.798  14.982  1.00  0.00     0.188 HD
HETATM    4  C8  UNL     1     119.539  54.856  15.438  1.00  0.00     0.288 A 
HETATM    5  N4  UNL     1     120.692  54.181  15.156  1.00  0.00    -0.148 N 
ATOM      6  H4  UNL     1     121.550  54.519  15.593  1.00  0.00     0.188 HD
HETATM    7  C18 UNL     1     120.791  53.120  14.359  1.00  0.00     0.700 A 
HETATM    8  N5  UNL     1     121.801  52.510  14.104  1.00  0.00    -0.191 N 
ATOM      9  H5  UNL     1     121.436  51.796  13.473  1.00  0.00     0.184 HD
HETATM   10  N7  UNL     1     119.599  52.689  13.782  1.00  0.00    -0.022 N 
ATOM     11  H7  UNL     1     119.616  51.880  13.161  1.00  0.00     0.203 HD
ENDROOT
BRANCH   1  12
HETATM   12  N1  UNL     1     117.344  52.847  13.447  1.00  0.00    -0.225 N 
ATOM     13  H1  UNL     1     116.714  53.477  12.950  1.00  0.00     0.177 HD
BRANCH  12  14
HETATM   14  C6  UNL     1     117.055  51.410  13.566  1.00  0.00     0.142 C 
BRANCH  14  15
HETATM   15  C5  UNL     1     117.336  50.731  12.242  1.00  0.00     0.059 C 
BRANCH  15  16
HETATM   16  C4  UNL     1     117.999  49.416  12.434  1.00  0.00    -0.051 A 
HETATM   17  C3  UNL     1     118.913  49.115  13.400  1.00  0.00     0.047 A 
HETATM   18  C2  UNL     1     119.475  47.843  13.560  1.00  0.00     0.104 A 
HETATM   19  C32 UNL     1     119.056  46.860  12.676  1.00  0.00     0.135 A 
HETATM   20  C30 UNL     1     118.132  47.111  11.684  1.00  0.00     0.104 A 
HETATM   21  C29 UNL     1     117.614  48.379  11.570  1.00  0.00     0.047 A 
BRANCH  18  22
HETATM   22  O1  UNL     1     120.409  47.556  14.542  1.00  0.00    -0.353 OA
HETATM   23  C1  UNL     1     121.784  47.704  14.199  1.00  0.00     0.210 C 
ENDBRANCH  18  22
BRANCH  19  24
HETATM   24  O4  UNL     1     119.579  45.582  12.783  1.00  0.00    -0.351 OA
HETATM   25  C33 UNL     1     118.878  44.738  13.716  1.00  0.00     0.210 C 
ENDBRANCH  19  24
BRANCH  20  26
HETATM   26  O3  UNL     1     117.769  46.071  10.848  1.00  0.00    -0.353 OA
HETATM   27  C31 UNL     1     117.833  46.325   9.434  1.00  0.00     0.210 C 
ENDBRANCH  20  26
ENDBRANCH  15  16
ENDBRANCH  14  15
ENDBRANCH  12  14
ENDBRANCH   1  12
BRANCH   4  28
HETATM   28  N3  UNL     1     119.554  55.807  16.120  1.00  0.00    -0.370 NA
BRANCH  28  29
HETATM   29  C9  UNL     1     119.576  56.875  16.897  1.00  0.00     0.111 A 
HETATM   30  C10 UNL     1     118.538  57.185  17.804  1.00  0.00     0.045 A 
HETATM   31  C11 UNL     1     118.569  58.270  18.629  1.00  0.00     0.011 A 
HETATM   32  C12 UNL     1     119.646  59.133  18.609  1.00  0.00    -0.054 A 
HETATM   33  C16 UNL     1     120.678  58.869  17.741  1.00  0.00     0.011 A 
HETATM   34  C17 UNL     1     120.651  57.776  16.907  1.00  0.00     0.045 A 
BRANCH  32  35
HETATM   35  C13 UNL     1     119.677  60.294  19.522  1.00  0.00     0.010 C 
HETATM   36  C14 UNL     1     120.424  61.485  18.972  1.00  0.00     0.015 C 
HETATM   37  C15 UNL     1     120.148  59.952  20.919  1.00  0.00     0.015 C 
ENDBRANCH  32  35
ENDBRANCH  28  29
ENDBRANCH   4  28
BRANCH   8  38
HETATM   38  C19 UNL     1     123.071  52.186  14.126  1.00  0.00     0.051 A 
HETATM   39  C20 UNL     1     123.581  50.966  13.618  1.00  0.00     0.030 A 
HETATM   40  C21 UNL     1     124.902  50.666  13.734  1.00  0.00     0.005 A 
HETATM   41  C22 UNL     1     125.792  51.546  14.353  1.00  0.00     0.037 A 
HETATM   42  C23 UNL     1     125.328  52.738  14.854  1.00  0.00     0.070 A 
HETATM   43  C28 UNL     1     123.993  53.052  14.743  1.00  0.00     0.066 A 
BRANCH  42  44
HETATM   44  O2  UNL     1     126.148  53.638  15.478  1.00  0.00    -0.349 OA
BRANCH  44  45
HETATM   45  C24 UNL     1     125.986  54.371  16.629  1.00  0.00     0.206 C 
BRANCH  45  46
HETATM   46  C25 UNL     1     125.939  55.858  16.477  1.00  0.00     0.297 C 
BRANCH  46  47
HETATM   47  N6  UNL     1     124.539  56.275  16.678  1.00  0.00     0.082 N 
HETATM   48  C26 UNL     1     123.891  55.477  17.678  1.00  0.00     0.309 C 
HETATM   49  C27 UNL     1     124.481  57.685  16.950  1.00  0.00     0.309 C 
ENDBRANCH  46  47
ENDBRANCH  45  46
ENDBRANCH  44  45
ENDBRANCH  42  44
ENDBRANCH   8  38
TORSDOF 15
ENDMDL
MODEL 2
REMARK VINA RESULT: -8.963143377      0.162      1.915
REMARK  15 active torsions:
REMARK  status: ('A' for Active; 'I' for Inactive)
REMARK    1  A    between atoms: O1_2  and  C2_3 
REMARK    2  A    between atoms: C4_5  and  C5_6 
REMARK    3  A    between atoms: C5_6  and  C6_7 
REMARK    4  A    between atoms: C6_7  and  N1_8 
REMARK    5  A    between atoms: N1_8  and  C7_10 
REMARK    6  A    between atoms: C8_13  and  N3_14 
REMARK    7  A    between atoms: N3_14  and  C9_15 
REMARK    8  A    between atoms: C12_18  and  C13_19 
REMARK    9  A    between atoms: N5_27  and  C19_29 
REMARK   10  A    between atoms: C23_33  and  O2_34 
REMARK   11  A    between atoms: O2_34  and  C24_35 
REMARK   12  A    between atoms: C24_35  and  C25_36 
REMARK   13  A    between atoms: C25_36  and  N6_37 
REMARK   14  A    between atoms: C30_44  and  O3_45 
REMARK   15  A    between atoms: C32_47  and  O4_48 
ROOT
HETATM    1  C7  UNL     1     118.438  53.245  14.029  1.00  0.00     0.696 A 
HETATM    2  N2  UNL     1     118.393  54.301  14.832  1.00  0.00    -0.148 N 
ATOM      3  H2  UNL     1     117.492  54.747  15.005  1.00  0.00     0.188 HD
HETATM    4  C8  UNL     1     119.522  54.821  15.444  1.00  0.00     0.288 A 
HETATM    5  N4  UNL     1     120.678  54.155  15.153  1.00  0.00    -0.148 N 
ATOM      6  H4  UNL     1     121.536  54.500  15.582  1.00  0.00     0.188 HD
HETATM    7  C18 UNL     1     120.778  53.093  14.356  1.00  0.00     0.700 A 
HETATM    8  N5  UNL     1     121.790  52.491  14.093  1.00  0.00    -0.191 N 
ATOM      9  H5  UNL     1     121.425  51.774  13.466  1.00  0.00     0.184 HD
HETATM   10  N7  UNL     1     119.585  52.652  13.790  1.00  0.00    -0.022 N 
ATOM     11  H7  UNL     1     119.602  51.843  13.170  1.00  0.00     0.203 HD
ENDROOT
BRANCH   1  12
HETATM   12  N1  UNL     1     117.326  52.793  13.474  1.00  0.00    -0.225 N 
ATOM     13  H1  UNL     1     116.661  53.424  13.026  1.00  0.00     0.177 HD
BRANCH  12  14
HETATM   14  C6  UNL     1     117.086  51.343  13.530  1.00  0.00     0.142 C 
BRANCH  14  15
HETATM   15  C5  UNL     1     117.408  50.729  12.185  1.00  0.00     0.059 C 
BRANCH  15  16
HETATM   16  C4  UNL     1     117.923  49.344  12.327  1.00  0.00    -0.051 A 
HETATM   17  C3  UNL     1     117.588  48.281  11.542  1.00  0.00     0.047 A 
HETATM   18  C2  UNL     1     118.138  47.004  11.697  1.00  0.00     0.104 A 
HETATM   19  C32 UNL     1     119.072  46.845  12.709  1.00  0.00     0.135 A 
HETATM   20  C30 UNL     1     119.449  47.888  13.529  1.00  0.00     0.104 A 
HETATM   21  C29 UNL     1     118.875  49.121  13.335  1.00  0.00     0.047 A 
BRANCH  18  22
HETATM   22  O1  UNL     1     117.780  45.932  10.895  1.00  0.00    -0.353 OA
HETATM   23  C1  UNL     1     117.827  46.127   9.484  1.00  0.00     0.210 C 
ENDBRANCH  18  22
BRANCH  19  24
HETATM   24  O4  UNL     1     119.651  45.603  12.913  1.00  0.00    -0.351 OA
HETATM   25  C33 UNL     1     118.882  44.730  13.761  1.00  0.00     0.210 C 
ENDBRANCH  19  24
BRANCH  20  26
HETATM   26  O3  UNL     1     120.392  47.641  14.511  1.00  0.00    -0.353 OA
HETATM   27  C31 UNL     1     121.769  47.838  14.149  1.00  0.00     0.210 C 
ENDBRANCH  20  26
ENDBRANCH  15  16
ENDBRANCH  14  15
ENDBRANCH  12  14
ENDBRANCH   1  12
BRANCH   4  28
HETATM   28  N3  UNL     1     119.535  55.773  16.124  1.00  0.00    -0.370 NA
BRANCH  28  29
HETATM   29  C9  UNL     1     119.560  56.851  16.888  1.00  0.00     0.111 A 
HETATM   30  C10 UNL     1     118.518  57.179  17.785  1.00  0.00     0.045 A 
HETATM   31  C11 UNL     1     118.551  58.274  18.597  1.00  0.00     0.011 A 
HETATM   32  C12 UNL     1     119.634  59.129  18.573  1.00  0.00    -0.054 A 
HETATM   33  C16 UNL     1     120.670  58.847  17.714  1.00  0.00     0.011 A 
HETATM   34  C17 UNL     1     120.641  57.744  16.894  1.00  0.00     0.045 A 
BRANCH  32  35
HETATM   35  C13 UNL     1     119.668  60.301  19.471  1.00  0.00     0.010 C 
HETATM   36  C14 UNL     1     120.412  61.486  18.905  1.00  0.00     0.015 C 
HETATM   37  C15 UNL     1     120.142  59.976  20.872  1.00  0.00     0.015 C 
ENDBRANCH  32  35
ENDBRANCH  28  29
ENDBRANCH   4  28
BRANCH   8  38
HETATM   38  C19 UNL     1     123.063  52.177  14.105  1.00  0.00     0.051 A 
HETATM   39  C20 UNL     1     123.587  50.996  13.524  1.00  0.00     0.030 A 
HETATM   40  C21 UNL     1     124.910  50.701  13.631  1.00  0.00     0.005 A 
HETATM   41  C22 UNL     1     125.787  51.546  14.313  1.00  0.00     0.037 A 
HETATM   42  C23 UNL     1     125.309  52.698  14.886  1.00  0.00     0.070 A 
HETATM   43  C28 UNL     1     123.972  53.008  14.784  1.00  0.00     0.066 A 
BRANCH  42  44
HETATM   44  O2  UNL     1     126.116  53.564  15.575  1.00  0.00    -0.349 OA
BRANCH  44  45
HETATM   45  C24 UNL     1     125.889  54.323  16.696  1.00  0.00     0.206 C 
BRANCH  45  46
HETATM   46  C25 UNL     1     125.869  55.807  16.510  1.00  0.00     0.297 C 
BRANCH  46  47
HETATM   47  N6  UNL     1     124.918  56.358  17.494  1.00  0.00     0.082 N 
HETATM   48  C26 UNL     1     124.489  57.677  17.129  1.00  0.00     0.309 C 
HETATM   49  C27 UNL     1     123.829  55.440  17.691  1.00  0.00     0.309 C 
ENDBRANCH  46  47
ENDBRANCH  45  46
ENDBRANCH  44  45
ENDBRANCH  42  44
ENDBRANCH   8  38
TORSDOF 15
ENDMDL
MODEL 3
REMARK VINA RESULT: -8.897203525      3.357     10.733
REMARK  15 active torsions:
REMARK  status: ('A' for Active; 'I' for Inactive)
REMARK    1  A    between atoms: O1_2  and  C2_3 
REMARK    2  A    between atoms: C4_5  and  C5_6 
REMARK    3  A    between atoms: C5_6  and  C6_7 
REMARK    4  A    between atoms: C6_7  and  N1_8 
REMARK    5  A    between atoms: N1_8  and  C7_10 
REMARK    6  A    between atoms: C8_13  and  N3_14 
REMARK    7  A    between atoms: N3_14  and  C9_15 
REMARK    8  A    between atoms: C12_18  and  C13_19 
REMARK    9  A    between atoms: N5_27  and  C19_29 
REMARK   10  A    between atoms: C23_33  and  O2_34 
REMARK   11  A    between atoms: O2_34  and  C24_35 
REMARK   12  A    between atoms: C24_35  and  C25_36 
REMARK   13  A    between atoms: C25_36  and  N6_37 
REMARK   14  A    between atoms: C30_44  and  O3_45 
REMARK   15  A    between atoms: C32_47  and  O4_48 
ROOT
HETATM    1  C7  UNL     1     119.136  56.903  17.423  1.00  0.00     0.696 A 
HETATM    2  N2  UNL     1     118.760  55.856  16.698  1.00  0.00    -0.148 N 
ATOM      3  H2  UNL     1     117.764  55.657  16.605  1.00  0.00     0.188 HD
HETATM    4  C8  UNL     1     119.667  55.024  16.064  1.00  0.00     0.288 A 
HETATM    5  N4  UNL     1     120.974  55.374  16.246  1.00  0.00    -0.148 N 
ATOM      6  H4  UNL     1     121.680  54.791  15.796  1.00  0.00     0.188 HD
HETATM    7  C18 UNL     1     121.405  56.410  16.961  1.00  0.00     0.700 A 
HETATM    8  N5  UNL     1     122.555  56.735  17.127  1.00  0.00    -0.191 N 
ATOM      9  H5  UNL     1     122.436  57.555  17.722  1.00  0.00     0.184 HD
HETATM   10  N7  UNL     1     120.411  57.181  17.559  1.00  0.00    -0.022 N 
ATOM     11  H7  UNL     1     120.683  57.988  18.120  1.00  0.00     0.203 HD
ENDROOT
BRANCH   1  12
HETATM   12  N1  UNL     1     118.222  57.663  18.004  1.00  0.00    -0.225 N 
ATOM     13  H1  UNL     1     117.228  57.437  17.946  1.00  0.00     0.177 HD
BRANCH  12  14
HETATM   14  C6  UNL     1     118.696  58.846  18.738  1.00  0.00     0.142 C 
BRANCH  14  15
HETATM   15  C5  UNL     1     119.336  58.407  20.038  1.00  0.00     0.059 C 
BRANCH  15  16
HETATM   16  C4  UNL     1     120.395  59.354  20.471  1.00  0.00    -0.051 A 
HETATM   17  C3  UNL     1     121.725  59.247  20.195  1.00  0.00     0.047 A 
HETATM   18  C2  UNL     1     122.674  60.195  20.595  1.00  0.00     0.104 A 
HETATM   19  C32 UNL     1     122.203  61.288  21.305  1.00  0.00     0.135 A 
HETATM   20  C30 UNL     1     120.867  61.446  21.607  1.00  0.00     0.104 A 
HETATM   21  C29 UNL     1     119.978  60.484  21.192  1.00  0.00     0.047 A 
BRANCH  18  22
HETATM   22  O1  UNL     1     124.024  60.067  20.313  1.00  0.00    -0.353 OA
HETATM   23  C1  UNL     1     124.564  60.912  19.300  1.00  0.00     0.210 C 
ENDBRANCH  18  22
BRANCH  19  24
HETATM   24  O4  UNL     1     123.095  62.260  21.730  1.00  0.00    -0.351 OA
HETATM   25  C33 UNL     1     123.599  62.049  23.062  1.00  0.00     0.210 C 
ENDBRANCH  19  24
BRANCH  20  26
HETATM   26  O3  UNL     1     120.484  62.571  22.316  1.00  0.00    -0.353 OA
HETATM   27  C31 UNL     1     119.863  62.348  23.594  1.00  0.00     0.210 C 
ENDBRANCH  20  26
ENDBRANCH  15  16
ENDBRANCH  14  15
ENDBRANCH  12  14
ENDBRANCH   1  12
BRANCH   4  28
HETATM   28  N3  UNL     1     119.383  54.069  15.451  1.00  0.00    -0.370 NA
BRANCH  28  29
HETATM   29  C9  UNL     1     119.054  52.995  14.755  1.00  0.00     0.111 A 
HETATM   30  C10 UNL     1     118.157  53.033  13.663  1.00  0.00     0.045 A 
HETATM   31  C11 UNL     1     117.836  51.934  12.923  1.00  0.00     0.011 A 
HETATM   32  C12 UNL     1     118.391  50.706  13.220  1.00  0.00    -0.054 A 
HETATM   33  C16 UNL     1     119.269  50.623  14.274  1.00  0.00     0.011 A 
HETATM   34  C17 UNL     1     119.595  51.729  15.024  1.00  0.00     0.045 A 
BRANCH  32  35
HETATM   35  C13 UNL     1     118.051  49.526  12.398  1.00  0.00     0.010 C 
HETATM   36  C14 UNL     1     116.570  49.342  12.172  1.00  0.00     0.015 C 
HETATM   37  C15 UNL     1     118.692  48.245  12.888  1.00  0.00     0.015 C 
ENDBRANCH  32  35
ENDBRANCH  28  29
ENDBRANCH   4  28
BRANCH   8  38
HETATM   38  C19 UNL     1     123.862  56.699  17.025  1.00  0.00     0.051 A 
HETATM   39  C20 UNL     1     124.705  57.797  17.325  1.00  0.00     0.030 A 
HETATM   40  C21 UNL     1     126.048  57.710  17.133  1.00  0.00     0.005 A 
HETATM   41  C22 UNL     1     126.635  56.544  16.639  1.00  0.00     0.037 A 
HETATM   42  C23 UNL     1     125.843  55.462  16.340  1.00  0.00     0.070 A 
HETATM   43  C28 UNL     1     124.483  55.537  16.530  1.00  0.00     0.066 A 
BRANCH  42  44
HETATM   44  O2  UNL     1     126.357  54.294  15.845  1.00  0.00    -0.349 OA
BRANCH  44  45
HETATM   45  C24 UNL     1     125.772  53.267  15.145  1.00  0.00     0.206 C 
BRANCH  45  46
HETATM   46  C25 UNL     1     125.289  53.583  13.766  1.00  0.00     0.297 C 
BRANCH  46  47
HETATM   47  N6  UNL     1     124.166  52.672  13.476  1.00  0.00     0.082 N 
HETATM   48  C26 UNL     1     124.615  51.321  13.301  1.00  0.00     0.309 C 
HETATM   49  C27 UNL     1     123.151  52.808  14.485  1.00  0.00     0.309 C 
ENDBRANCH  46  47
ENDBRANCH  45  46
ENDBRANCH  44  45
ENDBRANCH  42  44
ENDBRANCH   8  38
TORSDOF 15
ENDMDL
MODEL 4
REMARK VINA RESULT: -8.816074543      3.301      6.107
REMARK  15 active torsions:
REMARK  status: ('A' for Active; 'I' for Inactive)
REMARK    1  A    between atoms: O1_2  and  C2_3 
REMARK    2  A    between atoms: C4_5  and  C5_6 
REMARK    3  A    between atoms: C5_6  and  C6_7 
REMARK    4  A    between atoms: C6_7  and  N1_8 
REMARK    5  A    between atoms: N1_8  and  C7_10 
REMARK    6  A    between atoms: C8_13  and  N3_14 
REMARK    7  A    between atoms: N3_14  and  C9_15 
REMARK    8  A    between atoms: C12_18  and  C13_19 
REMARK    9  A    between atoms: N5_27  and  C19_29 
REMARK   10  A    between atoms: C23_33  and  O2_34 
REMARK   11  A    between atoms: O2_34  and  C24_35 
REMARK   12  A    between atoms: C24_35  and  C25_36 
REMARK   13  A    between atoms: C25_36  and  N6_37 
REMARK   14  A    between atoms: C30_44  and  O3_45 
REMARK   15  A    between atoms: C32_47  and  O4_48 
ROOT
HETATM    1  C7  UNL     1     119.656  57.171  17.957  1.00  0.00     0.696 A 
HETATM    2  N2  UNL     1     119.612  57.905  19.063  1.00  0.00    -0.148 N 
ATOM      3  H2  UNL     1     118.702  58.122  19.471  1.00  0.00     0.188 HD
HETATM    4  C8  UNL     1     120.752  58.389  19.683  1.00  0.00     0.288 A 
HETATM    5  N4  UNL     1     121.919  58.044  19.064  1.00  0.00    -0.148 N 
ATOM      6  H4  UNL     1     122.786  58.375  19.485  1.00  0.00     0.188 HD
HETATM    7  C18 UNL     1     122.019  57.311  17.956  1.00  0.00     0.700 A 
HETATM    8  N5  UNL     1     123.042  56.994  17.400  1.00  0.00    -0.191 N 
ATOM      9  H5  UNL     1     122.671  56.456  16.616  1.00  0.00     0.184 HD
HETATM   10  N7  UNL     1     120.813  56.878  17.412  1.00  0.00    -0.022 N 
ATOM     11  H7  UNL     1     120.829  56.314  16.562  1.00  0.00     0.203 HD
ENDROOT
BRANCH   1  12
HETATM   12  N1  UNL     1     118.532  56.736  17.412  1.00  0.00    -0.225 N 
ATOM     13  H1  UNL     1     117.653  56.740  17.931  1.00  0.00     0.177 HD
BRANCH  12  14
HETATM   14  C6  UNL     1     118.600  56.247  16.026  1.00  0.00     0.142 C 
BRANCH  14  15
HETATM   15  C5  UNL     1     117.864  54.928  15.924  1.00  0.00     0.059 C 
BRANCH  15  16
HETATM   16  C4  UNL     1     118.515  54.016  14.949  1.00  0.00    -0.051 A 
HETATM   17  C3  UNL     1     117.876  53.265  14.008  1.00  0.00     0.047 A 
HETATM   18  C2  UNL     1     118.546  52.452  13.086  1.00  0.00     0.104 A 
HETATM   19  C32 UNL     1     119.931  52.435  13.159  1.00  0.00     0.135 A 
HETATM   20  C30 UNL     1     120.625  53.180  14.089  1.00  0.00     0.104 A 
HETATM   21  C29 UNL     1     119.918  53.958  14.973  1.00  0.00     0.047 A 
BRANCH  18  22
HETATM   22  O1  UNL     1     117.881  51.688  12.141  1.00  0.00    -0.353 OA
HETATM   23  C1  UNL     1     117.123  50.578  12.613  1.00  0.00     0.210 C 
ENDBRANCH  18  22
BRANCH  19  24
HETATM   24  O4  UNL     1     120.649  51.648  12.274  1.00  0.00    -0.351 OA
HETATM   25  C33 UNL     1     120.872  50.302  12.734  1.00  0.00     0.210 C 
ENDBRANCH  19  24
BRANCH  20  26
HETATM   26  O3  UNL     1     122.007  53.106  14.088  1.00  0.00    -0.353 OA
HETATM   27  C31 UNL     1     122.659  53.189  15.367  1.00  0.00     0.210 C 
ENDBRANCH  20  26
ENDBRANCH  15  16
ENDBRANCH  14  15
ENDBRANCH  12  14
ENDBRANCH   1  12
BRANCH   4  28
HETATM   28  N3  UNL     1     120.758  59.072  20.632  1.00  0.00    -0.370 NA
BRANCH  28  29
HETATM   29  C9  UNL     1     120.765  59.836  21.711  1.00  0.00     0.111 A 
HETATM   30  C10 UNL     1     121.114  59.351  22.992  1.00  0.00     0.045 A 
HETATM   31  C11 UNL     1     121.151  60.141  24.102  1.00  0.00     0.011 A 
HETATM   32  C12 UNL     1     120.840  61.483  24.017  1.00  0.00    -0.054 A 
HETATM   33  C16 UNL     1     120.494  61.996  22.789  1.00  0.00     0.011 A 
HETATM   34  C17 UNL     1     120.455  61.203  21.666  1.00  0.00     0.045 A 
BRANCH  32  35
HETATM   35  C13 UNL     1     120.902  62.333  25.223  1.00  0.00     0.010 C 
HETATM   36  C14 UNL     1     121.514  61.651  26.423  1.00  0.00     0.015 C 
HETATM   37  C15 UNL     1     119.579  62.977  25.578  1.00  0.00     0.015 C 
ENDBRANCH  32  35
ENDBRANCH  28  29
ENDBRANCH   4  28
BRANCH   8  38
HETATM   38  C19 UNL     1     124.329  56.905  17.167  1.00  0.00     0.051 A 
HETATM   39  C20 UNL     1     124.937  55.800  16.523  1.00  0.00     0.030 A 
HETATM   40  C21 UNL     1     126.286  55.743  16.373  1.00  0.00     0.005 A 
HETATM   41  C22 UNL     1     127.111  56.765  16.847  1.00  0.00     0.037 A 
HETATM   42  C23 UNL     1     126.551  57.850  17.475  1.00  0.00     0.070 A 
HETATM   43  C28 UNL     1     125.186  57.919  17.633  1.00  0.00     0.066 A 
BRANCH  42  44
HETATM   44  O2  UNL     1     127.305  58.881  17.969  1.00  0.00    -0.349 OA
BRANCH  44  45
HETATM   45  C24 UNL     1     127.345  59.466  19.211  1.00  0.00     0.206 C 
BRANCH  45  46
HETATM   46  C25 UNL     1     127.062  60.933  19.272  1.00  0.00     0.297 C 
BRANCH  46  47
HETATM   47  N6  UNL     1     125.928  61.121  20.196  1.00  0.00     0.082 N 
HETATM   48  C26 UNL     1     126.123  62.261  21.043  1.00  0.00     0.309 C 
HETATM   49  C27 UNL     1     124.695  61.166  19.456  1.00  0.00     0.309 C 
ENDBRANCH  46  47
ENDBRANCH  45  46
ENDBRANCH  44  45
ENDBRANCH  42  44
ENDBRANCH   8  38
TORSDOF 15
ENDMDL
MODEL 5
REMARK VINA RESULT: -8.794431373      4.011     10.116
REMARK  15 active torsions:
REMARK  status: ('A' for Active; 'I' for Inactive)
REMARK    1  A    between atoms: O1_2  and  C2_3 
REMARK    2  A    between atoms: C4_5  and  C5_6 
REMARK    3  A    between atoms: C5_6  and  C6_7 
REMARK    4  A    between atoms: C6_7  and  N1_8 
REMARK    5  A    between atoms: N1_8  and  C7_10 
REMARK    6  A    between atoms: C8_13  and  N3_14 
REMARK    7  A    between atoms: N3_14  and  C9_15 
REMARK    8  A    between atoms: C12_18  and  C13_19 
REMARK    9  A    between atoms: N5_27  and  C19_29 
REMARK   10  A    between atoms: C23_33  and  O2_34 
REMARK   11  A    between atoms: O2_34  and  C24_35 
REMARK   12  A    between atoms: C24_35  and  C25_36 
REMARK   13  A    between atoms: C25_36  and  N6_37 
REMARK   14  A    between atoms: C30_44  and  O3_45 
REMARK   15  A    between atoms: C32_47  and  O4_48 
ROOT
HETATM    1  C7  UNL     1     119.329  55.735  16.308  1.00  0.00     0.696 A 
HETATM    2  N2  UNL     1     118.865  54.659  15.682  1.00  0.00    -0.148 N 
ATOM      3  H2  UNL     1     117.858  54.560  15.558  1.00  0.00     0.188 HD
HETATM    4  C8  UNL     1     119.697  53.666  15.192  1.00  0.00     0.288 A 
HETATM    5  N4  UNL     1     121.027  53.891  15.404  1.00  0.00    -0.148 N 
ATOM      6  H4  UNL     1     121.680  53.187  15.059  1.00  0.00     0.188 HD
HETATM    7  C18 UNL     1     121.543  54.950  16.024  1.00  0.00     0.700 A 
HETATM    8  N5  UNL     1     122.715  55.164  16.215  1.00  0.00    -0.191 N 
ATOM      9  H5  UNL     1     122.666  56.055  16.710  1.00  0.00     0.184 HD
HETATM   10  N7  UNL     1     120.620  55.887  16.480  1.00  0.00    -0.022 N 
ATOM     11  H7  UNL     1     120.960  56.719  16.964  1.00  0.00     0.203 HD
ENDROOT
BRANCH   1  12
HETATM   12  N1  UNL     1     118.484  56.651  16.753  1.00  0.00    -0.225 N 
ATOM     13  H1  UNL     1     117.732  57.011  16.164  1.00  0.00     0.177 HD
BRANCH  12  14
HETATM   14  C6  UNL     1     118.673  57.130  18.130  1.00  0.00     0.142 C 
BRANCH  14  15
HETATM   15  C5  UNL     1     118.504  58.634  18.165  1.00  0.00     0.059 C 
BRANCH  15  16
HETATM   16  C4  UNL     1     119.700  59.304  18.737  1.00  0.00    -0.051 A 
HETATM   17  C3  UNL     1     119.691  60.379  19.575  1.00  0.00     0.047 A 
HETATM   18  C2  UNL     1     120.851  60.944  20.117  1.00  0.00     0.104 A 
HETATM   19  C32 UNL     1     122.055  60.353  19.767  1.00  0.00     0.135 A 
HETATM   20  C30 UNL     1     122.120  59.262  18.927  1.00  0.00     0.104 A 
HETATM   21  C29 UNL     1     120.950  58.748  18.420  1.00  0.00     0.047 A 
BRANCH  18  22
HETATM   22  O1  UNL     1     120.824  62.043  20.960  1.00  0.00    -0.353 OA
HETATM   23  C1  UNL     1     120.461  61.815  22.319  1.00  0.00     0.210 C 
ENDBRANCH  18  22
BRANCH  19  24
HETATM   24  O4  UNL     1     123.238  60.870  20.271  1.00  0.00    -0.351 OA
HETATM   25  C33 UNL     1     123.772  61.966  19.505  1.00  0.00     0.210 C 
ENDBRANCH  19  24
BRANCH  20  26
HETATM   26  O3  UNL     1     123.365  58.734  18.633  1.00  0.00    -0.353 OA
HETATM   27  C31 UNL     1     123.659  57.435  19.175  1.00  0.00     0.210 C 
ENDBRANCH  20  26
ENDBRANCH  15  16
ENDBRANCH  14  15
ENDBRANCH  12  14
ENDBRANCH   1  12
BRANCH   4  28
HETATM   28  N3  UNL     1     119.332  52.684  14.672  1.00  0.00    -0.370 NA
BRANCH  28  29
HETATM   29  C9  UNL     1     118.920  51.579  14.077  1.00  0.00     0.111 A 
HETATM   30  C10 UNL     1     117.795  51.542  13.221  1.00  0.00     0.045 A 
HETATM   31  C11 UNL     1     117.382  50.412  12.581  1.00  0.00     0.011 A 
HETATM   32  C12 UNL     1     118.066  49.225  12.748  1.00  0.00    -0.054 A 
HETATM   33  C16 UNL     1     119.166  49.215  13.572  1.00  0.00     0.011 A 
HETATM   34  C17 UNL     1     119.586  50.353  14.220  1.00  0.00     0.045 A 
BRANCH  32  35
HETATM   35  C13 UNL     1     117.621  48.010  12.034  1.00  0.00     0.010 C 
HETATM   36  C14 UNL     1     117.989  46.722  12.728  1.00  0.00     0.015 C 
HETATM   37  C15 UNL     1     118.032  47.982  10.577  1.00  0.00     0.015 C 
ENDBRANCH  32  35
ENDBRANCH  28  29
ENDBRANCH   4  28
BRANCH   8  38
HETATM   38  C19 UNL     1     124.012  54.975  16.188  1.00  0.00     0.051 A 
HETATM   39  C20 UNL     1     124.618  53.706  16.018  1.00  0.00     0.030 A 
HETATM   40  C21 UNL     1     125.970  53.573  16.065  1.00  0.00     0.005 A 
HETATM   41  C22 UNL     1     126.799  54.676  16.282  1.00  0.00     0.037 A 
HETATM   42  C23 UNL     1     126.241  55.920  16.449  1.00  0.00     0.070 A 
HETATM   43  C28 UNL     1     124.874  56.067  16.403  1.00  0.00     0.066 A 
BRANCH  42  44
HETATM   44  O2  UNL     1     126.997  57.038  16.673  1.00  0.00    -0.349 OA
BRANCH  44  45
HETATM   45  C24 UNL     1     126.678  58.262  17.208  1.00  0.00     0.206 C 
BRANCH  45  46
HETATM   46  C25 UNL     1     127.568  58.773  18.296  1.00  0.00     0.297 C 
BRANCH  46  47
HETATM   47  N6  UNL     1     126.771  59.706  19.112  1.00  0.00     0.082 N 
HETATM   48  C26 UNL     1     126.453  59.147  20.393  1.00  0.00     0.309 C 
HETATM   49  C27 UNL     1     127.438  60.977  19.196  1.00  0.00     0.309 C 
ENDBRANCH  46  47
ENDBRANCH  45  46
ENDBRANCH  44  45
ENDBRANCH  42  44
ENDBRANCH   8  38
TORSDOF 15
ENDMDL
