MODEL 1
REMARK VINA RESULT: -9.720800307      0.000      0.000
REMARK  13 active torsions:
REMARK  status: ('A' for Active; 'I' for Inactive)
REMARK       I    between atoms: C2_2  and  N1_4 
REMARK    1  A    between atoms: N1_4  and  C3_6 
REMARK    2  A    between atoms: C3_6  and  C4_7 
REMARK       I    between atoms: C4_7  and  N2_9 
REMARK    3  A    between atoms: N2_9  and  C5_11 
REMARK    4  A    between atoms: C6_16  and  C7_17 
REMARK    5  A    between atoms: C7_17  and  C8_18 
REMARK    6  A    between atoms: C8_18  and  C9_19 
REMARK    7  A    between atoms: C9_19  and  C10_20 
REMARK    8  A    between atoms: C10_20  and  C11_21 
REMARK       I    between atoms: N7_27  and  C13_29 
REMARK    9  A    between atoms: C13_29  and  C14_31 
REMARK   10  A    between atoms: C14_31  and  C15_32 
REMARK   11  A    between atoms: C21_38  and  O4_39 
REMARK   12  A    between atoms: O4_39  and  C22_40 
REMARK   13  A    between atoms: C22_40  and  C23_41 
ROOT
HETATM    1  C11 UNL     1      72.364  55.276  14.806  1.00  0.00     0.069 A 
HETATM    2  N5  UNL     1      72.556  56.164  15.762  1.00  0.00    -0.296 N 
ATOM      3  H5  UNL     1      73.504  56.353  16.088  1.00  0.00     0.187 HD
HETATM    4  N6  UNL     1      71.583  56.786  16.280  1.00  0.00    -0.279 N 
ATOM      5  H6  UNL     1      71.745  57.470  17.019  1.00  0.00     0.189 HD
HETATM    6  C12 UNL     1      70.346  56.539  15.852  1.00  0.00     0.167 A 
HETATM    7  N7  UNL     1      69.213  57.044  16.227  1.00  0.00    -0.306 N 
ATOM      8  H7  UNL     1      68.347  56.737  15.785  1.00  0.00     0.171 HD
HETATM    9  C13 UNL     1      69.178  58.016  17.246  1.00  0.00     0.228 C 
HETATM   10  O3  UNL     1      69.060  59.227  16.879  1.00  0.00    -0.273 OA
HETATM   11  S1  UNL     1      70.647  55.343  14.639  1.00  0.00    -0.038 SA
ENDROOT
BRANCH   1  12
HETATM   12  C10 UNL     1      73.337  54.416  14.046  1.00  0.00     0.066 C 
BRANCH  12  13
HETATM   13  C9  UNL     1      73.943  53.354  14.899  1.00  0.00     0.007 C 
BRANCH  13  14
HETATM   14  C8  UNL     1      73.107  52.105  14.805  1.00  0.00     0.007 C 
BRANCH  14  15
HETATM   15  C7  UNL     1      72.793  51.761  13.387  1.00  0.00     0.066 C 
BRANCH  15  16
HETATM   16  C6  UNL     1      71.360  51.281  13.313  1.00  0.00     0.069 A 
HETATM   17  N4  UNL     1      70.827  50.247  13.933  1.00  0.00    -0.296 N 
HETATM   18  N3  UNL     1      69.619  49.938  13.787  1.00  0.00    -0.279 N 
ATOM     19  H4  UNL     1      71.411  49.682  14.549  1.00  0.00     0.187 HD
HETATM   20  C5  UNL     1      68.852  50.708  12.957  1.00  0.00     0.167 A 
ATOM     21  H3  UNL     1      69.220  49.135  14.273  1.00  0.00     0.189 HD
HETATM   22  S2  UNL     1      70.017  51.861  12.446  1.00  0.00    -0.038 SA
BRANCH  20  23
HETATM   23  N2  UNL     1      67.607  50.521  12.702  1.00  0.00    -0.305 N 
HETATM   24  C4  UNL     1      66.646  51.511  12.816  1.00  0.00     0.241 C 
HETATM   25  O2  UNL     1      65.443  51.200  12.501  1.00  0.00    -0.271 OA
ATOM     26  H2  UNL     1      67.310  49.593  12.400  1.00  0.00     0.171 HD
BRANCH  24  27
HETATM   27  C3  UNL     1      66.879  52.894  13.268  1.00  0.00     0.225 C 
BRANCH  27  28
HETATM   28  N1  UNL     1      66.761  53.049  14.685  1.00  0.00    -0.353 N 
HETATM   29  C2  UNL     1      66.849  54.312  15.292  1.00  0.00     0.213 C 
HETATM   30  C1  UNL     1      66.726  54.402  16.780  1.00  0.00     0.117 C 
HETATM   31  O1  UNL     1      67.024  55.376  14.683  1.00  0.00    -0.274 OA
ATOM     32  H1  UNL     1      66.610  52.226  15.267  1.00  0.00     0.162 HD
ENDBRANCH  27  28
ENDBRANCH  24  27
ENDBRANCH  20  23
ENDBRANCH  15  16
ENDBRANCH  14  15
ENDBRANCH  13  14
ENDBRANCH  12  13
ENDBRANCH   1  12
BRANCH   9  33
HETATM   33  C14 UNL     1      69.265  57.744  18.680  1.00  0.00     0.144 C 
BRANCH  33  34
HETATM   34  C15 UNL     1      69.692  58.899  19.480  1.00  0.00    -0.015 A 
HETATM   35  C16 UNL     1      68.799  59.709  20.116  1.00  0.00     0.017 A 
HETATM   36  C17 UNL     1      69.209  60.792  20.868  1.00  0.00    -0.061 A 
HETATM   37  C18 UNL     1      68.241  61.678  21.568  1.00  0.00     0.048 C 
HETATM   38  C19 UNL     1      70.569  61.050  20.968  1.00  0.00     0.009 A 
HETATM   39  C20 UNL     1      71.501  60.247  20.334  1.00  0.00     0.038 A 
HETATM   40  C21 UNL     1      71.084  59.153  19.575  1.00  0.00     0.075 A 
BRANCH  40  41
HETATM   41  O4  UNL     1      71.857  58.290  18.907  1.00  0.00    -0.347 OA
BRANCH  41  42
HETATM   42  C22 UNL     1      73.106  57.801  19.088  1.00  0.00     0.203 C 
BRANCH  42  43
HETATM   43  C23 UNL     1      74.262  58.668  18.739  1.00  0.00     0.001 C 
HETATM   44  C24 UNL     1      75.270  58.981  19.513  1.00  0.00    -0.089 C 
HETATM   45  C25 UNL     1      76.342  59.872  18.972  1.00  0.00     0.042 C 
HETATM   46  C26 UNL     1      75.405  58.525  20.918  1.00  0.00     0.042 C 
ENDBRANCH  42  43
ENDBRANCH  41  42
ENDBRANCH  40  41
ENDBRANCH  33  34
ENDBRANCH   9  33
TORSDOF 13
ENDMDL
MODEL 2
REMARK VINA RESULT: -9.385472839      4.234     10.146
REMARK  13 active torsions:
REMARK  status: ('A' for Active; 'I' for Inactive)
REMARK       I    between atoms: C2_2  and  N1_4 
REMARK    1  A    between atoms: N1_4  and  C3_6 
REMARK    2  A    between atoms: C3_6  and  C4_7 
REMARK       I    between atoms: C4_7  and  N2_9 
REMARK    3  A    between atoms: N2_9  and  C5_11 
REMARK    4  A    between atoms: C6_16  and  C7_17 
REMARK    5  A    between atoms: C7_17  and  C8_18 
REMARK    6  A    between atoms: C8_18  and  C9_19 
REMARK    7  A    between atoms: C9_19  and  C10_20 
REMARK    8  A    between atoms: C10_20  and  C11_21 
REMARK       I    between atoms: N7_27  and  C13_29 
REMARK    9  A    between atoms: C13_29  and  C14_31 
REMARK   10  A    between atoms: C14_31  and  C15_32 
REMARK   11  A    between atoms: C21_38  and  O4_39 
REMARK   12  A    between atoms: O4_39  and  C22_40 
REMARK   13  A    between atoms: C22_40  and  C23_41 
ROOT
HETATM    1  C11 UNL     1      73.503  57.818  17.884  1.00  0.00     0.069 A 
HETATM    2  N5  UNL     1      73.453  57.564  16.591  1.00  0.00    -0.296 N 
ATOM      3  H5  UNL     1      73.959  58.165  15.941  1.00  0.00     0.187 HD
HETATM    4  N6  UNL     1      72.788  56.584  16.144  1.00  0.00    -0.279 N 
ATOM      5  H6  UNL     1      72.757  56.398  15.142  1.00  0.00     0.189 HD
HETATM    6  C12 UNL     1      72.128  55.798  16.994  1.00  0.00     0.167 A 
HETATM    7  N7  UNL     1      71.392  54.756  16.772  1.00  0.00    -0.306 N 
ATOM      8  H7  UNL     1      70.956  54.264  17.552  1.00  0.00     0.171 HD
HETATM    9  C13 UNL     1      71.195  54.301  15.454  1.00  0.00     0.228 C 
HETATM   10  O3  UNL     1      71.891  53.305  15.080  1.00  0.00    -0.273 OA
HETATM   11  S1  UNL     1      72.515  56.546  18.505  1.00  0.00    -0.038 SA
ENDROOT
BRANCH   1  12
HETATM   12  C10 UNL     1      74.206  58.905  18.650  1.00  0.00     0.066 C 
BRANCH  12  13
HETATM   13  C9  UNL     1      74.364  58.571  20.095  1.00  0.00     0.007 C 
BRANCH  13  14
HETATM   14  C8  UNL     1      75.811  58.721  20.483  1.00  0.00     0.007 C 
BRANCH  14  15
HETATM   15  C7  UNL     1      76.256  60.143  20.407  1.00  0.00     0.066 C 
BRANCH  15  16
HETATM   16  C6  UNL     1      75.431  60.960  21.377  1.00  0.00     0.069 A 
HETATM   17  N4  UNL     1      75.357  60.818  22.686  1.00  0.00    -0.296 N 
HETATM   18  N3  UNL     1      74.625  61.556  23.390  1.00  0.00    -0.279 N 
ATOM     19  H4  UNL     1      75.908  60.090  23.137  1.00  0.00     0.187 HD
HETATM   20  C5  UNL     1      73.894  62.527  22.765  1.00  0.00     0.167 A 
ATOM     21  H3  UNL     1      74.578  61.434  24.402  1.00  0.00     0.189 HD
HETATM   22  S2  UNL     1      74.362  62.260  21.135  1.00  0.00    -0.038 SA
BRANCH  20  23
HETATM   23  N2  UNL     1      73.101  63.355  23.344  1.00  0.00    -0.305 N 
HETATM   24  C4  UNL     1      71.765  63.089  23.590  1.00  0.00     0.241 C 
HETATM   25  O2  UNL     1      71.090  63.990  24.204  1.00  0.00    -0.271 OA
ATOM     26  H2  UNL     1      73.475  64.257  23.638  1.00  0.00     0.171 HD
BRANCH  24  27
HETATM   27  C3  UNL     1      71.043  61.863  23.209  1.00  0.00     0.225 C 
BRANCH  27  28
HETATM   28  N1  UNL     1      70.605  61.096  24.334  1.00  0.00    -0.353 N 
HETATM   29  C2  UNL     1      69.797  59.960  24.174  1.00  0.00     0.213 C 
HETATM   30  C1  UNL     1      69.367  59.209  25.395  1.00  0.00     0.117 C 
HETATM   31  O1  UNL     1      69.404  59.521  23.084  1.00  0.00    -0.274 OA
ATOM     32  H1  UNL     1      70.886  61.380  25.272  1.00  0.00     0.162 HD
ENDBRANCH  27  28
ENDBRANCH  24  27
ENDBRANCH  20  23
ENDBRANCH  15  16
ENDBRANCH  14  15
ENDBRANCH  13  14
ENDBRANCH  12  13
ENDBRANCH   1  12
BRANCH   9  33
HETATM   33  C14 UNL     1      70.258  54.876  14.490  1.00  0.00     0.144 C 
BRANCH  33  34
HETATM   34  C15 UNL     1      68.872  54.424  14.664  1.00  0.00    -0.015 A 
HETATM   35  C16 UNL     1      68.366  53.361  13.975  1.00  0.00     0.017 A 
HETATM   36  C17 UNL     1      67.061  52.940  14.146  1.00  0.00    -0.061 A 
HETATM   37  C18 UNL     1      66.504  51.781  13.401  1.00  0.00     0.048 C 
HETATM   38  C19 UNL     1      66.258  53.628  15.045  1.00  0.00     0.009 A 
HETATM   39  C20 UNL     1      66.741  54.711  15.759  1.00  0.00     0.038 A 
HETATM   40  C21 UNL     1      68.059  55.133  15.585  1.00  0.00     0.075 A 
BRANCH  40  41
HETATM   41  O4  UNL     1      68.669  56.155  16.197  1.00  0.00    -0.347 OA
BRANCH  41  42
HETATM   42  C22 UNL     1      68.676  56.632  17.462  1.00  0.00     0.203 C 
BRANCH  42  43
HETATM   43  C23 UNL     1      69.092  58.041  17.685  1.00  0.00     0.001 C 
HETATM   44  C24 UNL     1      68.794  58.794  18.714  1.00  0.00    -0.089 C 
HETATM   45  C25 UNL     1      69.313  60.196  18.752  1.00  0.00     0.042 C 
HETATM   46  C26 UNL     1      67.942  58.350  19.843  1.00  0.00     0.042 C 
ENDBRANCH  42  43
ENDBRANCH  41  42
ENDBRANCH  40  41
ENDBRANCH  33  34
ENDBRANCH   9  33
TORSDOF 13
ENDMDL
MODEL 3
REMARK VINA RESULT: -9.363657704      3.202     10.754
REMARK  13 active torsions:
REMARK  status: ('A' for Active; 'I' for Inactive)
REMARK       I    between atoms: C2_2  and  N1_4 
REMARK    1  A    between atoms: N1_4  and  C3_6 
REMARK    2  A    between atoms: C3_6  and  C4_7 
REMARK       I    between atoms: C4_7  and  N2_9 
REMARK    3  A    between atoms: N2_9  and  C5_11 
REMARK    4  A    between atoms: C6_16  and  C7_17 
REMARK    5  A    between atoms: C7_17  and  C8_18 
REMARK    6  A    between atoms: C8_18  and  C9_19 
REMARK    7  A    between atoms: C9_19  and  C10_20 
REMARK    8  A    between atoms: C10_20  and  C11_21 
REMARK       I    between atoms: N7_27  and  C13_29 
REMARK    9  A    between atoms: C13_29  and  C14_31 
REMARK   10  A    between atoms: C14_31  and  C15_32 
REMARK   11  A    between atoms: C21_38  and  O4_39 
REMARK   12  A    between atoms: O4_39  and  C22_40 
REMARK   13  A    between atoms: C22_40  and  C23_41 
ROOT
HETATM    1  C11 UNL     1      71.980  56.220  15.867  1.00  0.00     0.069 A 
HETATM    2  N5  UNL     1      71.736  56.006  14.589  1.00  0.00    -0.296 N 
ATOM      3  H5  UNL     1      71.744  56.791  13.937  1.00  0.00     0.187 HD
HETATM    4  N6  UNL     1      71.491  54.841  14.158  1.00  0.00    -0.279 N 
ATOM      5  H6  UNL     1      71.302  54.689  13.167  1.00  0.00     0.189 HD
HETATM    6  C12 UNL     1      71.481  53.817  15.009  1.00  0.00     0.167 A 
HETATM    7  N7  UNL     1      71.258  52.557  14.801  1.00  0.00    -0.306 N 
ATOM      8  H7  UNL     1      71.292  51.899  15.579  1.00  0.00     0.171 HD
HETATM    9  C13 UNL     1      70.969  52.098  13.502  1.00  0.00     0.228 C 
HETATM   10  O3  UNL     1      71.922  51.552  12.862  1.00  0.00    -0.273 OA
HETATM   11  S1  UNL     1      71.850  54.618  16.497  1.00  0.00    -0.038 SA
ENDROOT
BRANCH   1  12
HETATM   12  C10 UNL     1      72.288  57.489  16.614  1.00  0.00     0.066 C 
BRANCH  12  13
HETATM   13  C9  UNL     1      71.225  58.520  16.444  1.00  0.00     0.007 C 
BRANCH  13  14
HETATM   14  C8  UNL     1      69.963  58.048  17.116  1.00  0.00     0.007 C 
BRANCH  14  15
HETATM   15  C7  UNL     1      69.022  59.177  17.373  1.00  0.00     0.066 C 
BRANCH  15  16
HETATM   16  C6  UNL     1      69.541  59.980  18.545  1.00  0.00     0.069 A 
HETATM   17  N4  UNL     1      69.427  61.280  18.741  1.00  0.00    -0.296 N 
HETATM   18  N3  UNL     1      69.909  61.840  19.755  1.00  0.00    -0.279 N 
ATOM     19  H4  UNL     1      68.934  61.844  18.049  1.00  0.00     0.187 HD
HETATM   20  C5  UNL     1      70.565  61.065  20.670  1.00  0.00     0.167 A 
ATOM     21  H3  UNL     1      69.814  62.847  19.893  1.00  0.00     0.189 HD
HETATM   22  S2  UNL     1      70.411  59.523  19.932  1.00  0.00    -0.038 SA
BRANCH  20  23
HETATM   23  N2  UNL     1      71.113  61.489  21.752  1.00  0.00    -0.305 N 
HETATM   24  C4  UNL     1      72.426  61.923  21.826  1.00  0.00     0.241 C 
HETATM   25  O2  UNL     1      72.840  62.350  22.961  1.00  0.00    -0.271 OA
ATOM     26  H2  UNL     1      70.551  61.505  22.604  1.00  0.00     0.171 HD
BRANCH  24  27
HETATM   27  C3  UNL     1      73.394  61.939  20.716  1.00  0.00     0.225 C 
BRANCH  27  28
HETATM   28  N1  UNL     1      74.122  60.715  20.587  1.00  0.00    -0.353 N 
HETATM   29  C2  UNL     1      75.279  60.632  19.795  1.00  0.00     0.213 C 
HETATM   30  C1  UNL     1      75.987  59.318  19.698  1.00  0.00     0.117 C 
HETATM   31  O1  UNL     1      75.768  61.576  19.161  1.00  0.00    -0.274 OA
ATOM     32  H1  UNL     1      73.795  59.885  21.080  1.00  0.00     0.162 HD
ENDBRANCH  27  28
ENDBRANCH  24  27
ENDBRANCH  20  23
ENDBRANCH  15  16
ENDBRANCH  14  15
ENDBRANCH  13  14
ENDBRANCH  12  13
ENDBRANCH   1  12
BRANCH   9  33
HETATM   33  C14 UNL     1      69.671  52.196  12.837  1.00  0.00     0.144 C 
BRANCH  33  34
HETATM   34  C15 UNL     1      68.910  50.940  12.830  1.00  0.00    -0.015 A 
HETATM   35  C16 UNL     1      69.523  49.722  12.816  1.00  0.00     0.017 A 
HETATM   36  C17 UNL     1      68.800  48.546  12.810  1.00  0.00    -0.061 A 
HETATM   37  C18 UNL     1      69.462  47.215  12.798  1.00  0.00     0.048 C 
HETATM   38  C19 UNL     1      67.415  48.622  12.819  1.00  0.00     0.009 A 
HETATM   39  C20 UNL     1      66.761  49.842  12.833  1.00  0.00     0.038 A 
HETATM   40  C21 UNL     1      67.494  51.029  12.839  1.00  0.00     0.075 A 
BRANCH  40  41
HETATM   41  O4  UNL     1      67.013  52.278  12.852  1.00  0.00    -0.347 OA
BRANCH  41  42
HETATM   42  C22 UNL     1      66.202  52.971  13.684  1.00  0.00     0.203 C 
BRANCH  42  43
HETATM   43  C23 UNL     1      66.803  54.026  14.540  1.00  0.00     0.001 C 
HETATM   44  C24 UNL     1      67.533  53.846  15.612  1.00  0.00    -0.089 C 
HETATM   45  C25 UNL     1      68.050  55.046  16.339  1.00  0.00     0.042 C 
HETATM   46  C26 UNL     1      67.863  52.513  16.172  1.00  0.00     0.042 C 
ENDBRANCH  42  43
ENDBRANCH  41  42
ENDBRANCH  40  41
ENDBRANCH  33  34
ENDBRANCH   9  33
TORSDOF 13
ENDMDL
MODEL 4
REMARK VINA RESULT: -9.334248026      3.151     10.669
REMARK  13 active torsions:
REMARK  status: ('A' for Active; 'I' for Inactive)
REMARK       I    between atoms: C2_2  and  N1_4 
REMARK    1  A    between atoms: N1_4  and  C3_6 
REMARK    2  A    between atoms: C3_6  and  C4_7 
REMARK       I    between atoms: C4_7  and  N2_9 
REMARK    3  A    between atoms: N2_9  and  C5_11 
REMARK    4  A    between atoms: C6_16  and  C7_17 
REMARK    5  A    between atoms: C7_17  and  C8_18 
REMARK    6  A    between atoms: C8_18  and  C9_19 
REMARK    7  A    between atoms: C9_19  and  C10_20 
REMARK    8  A    between atoms: C10_20  and  C11_21 
REMARK       I    between atoms: N7_27  and  C13_29 
REMARK    9  A    between atoms: C13_29  and  C14_31 
REMARK   10  A    between atoms: C14_31  and  C15_32 
REMARK   11  A    between atoms: C21_38  and  O4_39 
REMARK   12  A    between atoms: O4_39  and  C22_40 
REMARK   13  A    between atoms: C22_40  and  C23_41 
ROOT
HETATM    1  C11 UNL     1      72.798  54.539  15.519  1.00  0.00     0.069 A 
HETATM    2  N5  UNL     1      71.492  54.551  15.333  1.00  0.00    -0.296 N 
ATOM      3  H5  UNL     1      70.932  55.296  15.747  1.00  0.00     0.187 HD
HETATM    4  N6  UNL     1      70.924  53.651  14.647  1.00  0.00    -0.279 N 
ATOM      5  H6  UNL     1      69.913  53.671  14.511  1.00  0.00     0.189 HD
HETATM    6  C12 UNL     1      71.656  52.679  14.106  1.00  0.00     0.167 A 
HETATM    7  N7  UNL     1      71.299  51.668  13.379  1.00  0.00    -0.306 N 
ATOM      8  H7  UNL     1      72.002  51.010  13.041  1.00  0.00     0.171 HD
HETATM    9  C13 UNL     1      69.942  51.477  13.054  1.00  0.00     0.228 C 
HETATM   10  O3  UNL     1      69.574  51.841  11.893  1.00  0.00    -0.273 OA
HETATM   11  S1  UNL     1      73.241  53.123  14.636  1.00  0.00    -0.038 SA
ENDROOT
BRANCH   1  12
HETATM   12  C10 UNL     1      73.694  55.475  16.284  1.00  0.00     0.066 C 
BRANCH  12  13
HETATM   13  C9  UNL     1      72.963  56.221  17.347  1.00  0.00     0.007 C 
BRANCH  13  14
HETATM   14  C8  UNL     1      72.630  57.601  16.846  1.00  0.00     0.007 C 
BRANCH  14  15
HETATM   15  C7  UNL     1      71.187  57.924  17.042  1.00  0.00     0.066 C 
BRANCH  15  16
HETATM   16  C6  UNL     1      71.066  58.939  18.157  1.00  0.00     0.069 A 
HETATM   17  N4  UNL     1      70.273  59.991  18.203  1.00  0.00    -0.296 N 
HETATM   18  N3  UNL     1      70.266  60.773  19.185  1.00  0.00    -0.279 N 
ATOM     19  H4  UNL     1      69.647  60.175  17.419  1.00  0.00     0.187 HD
HETATM   20  C5  UNL     1      71.112  60.508  20.226  1.00  0.00     0.167 A 
ATOM     21  H3  UNL     1      69.647  61.583  19.206  1.00  0.00     0.189 HD
HETATM   22  S2  UNL     1      71.871  59.081  19.648  1.00  0.00    -0.038 SA
BRANCH  20  23
HETATM   23  N2  UNL     1      71.224  61.211  21.295  1.00  0.00    -0.305 N 
HETATM   24  C4  UNL     1      72.304  62.036  21.558  1.00  0.00     0.241 C 
HETATM   25  O2  UNL     1      72.278  62.708  22.649  1.00  0.00    -0.271 OA
ATOM     26  H2  UNL     1      70.477  61.159  21.988  1.00  0.00     0.171 HD
BRANCH  24  27
HETATM   27  C3  UNL     1      73.486  62.212  20.697  1.00  0.00     0.225 C 
BRANCH  27  28
HETATM   28  N1  UNL     1      74.610  61.435  21.118  1.00  0.00    -0.353 N 
HETATM   29  C2  UNL     1      75.687  61.178  20.254  1.00  0.00     0.213 C 
HETATM   30  C1  UNL     1      76.826  60.349  20.757  1.00  0.00     0.117 C 
HETATM   31  O1  UNL     1      75.770  61.590  19.089  1.00  0.00    -0.274 OA
ATOM     32  H1  UNL     1      74.630  61.059  22.065  1.00  0.00     0.162 HD
ENDBRANCH  27  28
ENDBRANCH  24  27
ENDBRANCH  20  23
ENDBRANCH  15  16
ENDBRANCH  14  15
ENDBRANCH  13  14
ENDBRANCH  12  13
ENDBRANCH   1  12
BRANCH   9  33
HETATM   33  C14 UNL     1      68.933  50.896  13.939  1.00  0.00     0.144 C 
BRANCH  33  34
HETATM   34  C15 UNL     1      67.738  50.409  13.239  1.00  0.00    -0.015 A 
HETATM   35  C16 UNL     1      67.662  49.146  12.730  1.00  0.00     0.017 A 
HETATM   36  C17 UNL     1      66.533  48.694  12.074  1.00  0.00    -0.061 A 
HETATM   37  C18 UNL     1      66.443  47.318  11.520  1.00  0.00     0.048 C 
HETATM   38  C19 UNL     1      65.458  49.561  11.938  1.00  0.00     0.009 A 
HETATM   39  C20 UNL     1      65.504  50.849  12.442  1.00  0.00     0.038 A 
HETATM   40  C21 UNL     1      66.645  51.302  13.105  1.00  0.00     0.075 A 
BRANCH  40  41
HETATM   41  O4  UNL     1      66.841  52.511  13.643  1.00  0.00    -0.347 OA
BRANCH  41  42
HETATM   42  C22 UNL     1      66.071  53.365  14.356  1.00  0.00     0.203 C 
BRANCH  42  43
HETATM   43  C23 UNL     1      66.740  54.452  15.118  1.00  0.00     0.001 C 
HETATM   44  C24 UNL     1      67.587  54.310  16.107  1.00  0.00    -0.089 C 
HETATM   45  C25 UNL     1      68.155  55.537  16.747  1.00  0.00     0.042 C 
HETATM   46  C26 UNL     1      68.004  52.998  16.656  1.00  0.00     0.042 C 
ENDBRANCH  42  43
ENDBRANCH  41  42
ENDBRANCH  40  41
ENDBRANCH  33  34
ENDBRANCH   9  33
TORSDOF 13
ENDMDL
MODEL 5
REMARK VINA RESULT: -9.287001779      1.149      1.333
REMARK  13 active torsions:
REMARK  status: ('A' for Active; 'I' for Inactive)
REMARK       I    between atoms: C2_2  and  N1_4 
REMARK    1  A    between atoms: N1_4  and  C3_6 
REMARK    2  A    between atoms: C3_6  and  C4_7 
REMARK       I    between atoms: C4_7  and  N2_9 
REMARK    3  A    between atoms: N2_9  and  C5_11 
REMARK    4  A    between atoms: C6_16  and  C7_17 
REMARK    5  A    between atoms: C7_17  and  C8_18 
REMARK    6  A    between atoms: C8_18  and  C9_19 
REMARK    7  A    between atoms: C9_19  and  C10_20 
REMARK    8  A    between atoms: C10_20  and  C11_21 
REMARK       I    between atoms: N7_27  and  C13_29 
REMARK    9  A    between atoms: C13_29  and  C14_31 
REMARK   10  A    between atoms: C14_31  and  C15_32 
REMARK   11  A    between atoms: C21_38  and  O4_39 
REMARK   12  A    between atoms: O4_39  and  C22_40 
REMARK   13  A    between atoms: C22_40  and  C23_41 
ROOT
HETATM    1  C11 UNL     1      72.374  55.101  15.024  1.00  0.00     0.069 A 
HETATM    2  N5  UNL     1      71.329  55.867  14.777  1.00  0.00    -0.296 N 
ATOM      3  H5  UNL     1      71.047  56.036  13.812  1.00  0.00     0.187 HD
HETATM    4  N6  UNL     1      70.671  56.394  15.721  1.00  0.00    -0.279 N 
ATOM      5  H6  UNL     1      69.865  56.985  15.517  1.00  0.00     0.189 HD
HETATM    6  C12 UNL     1      71.039  56.171  16.981  1.00  0.00     0.167 A 
HETATM    7  N7  UNL     1      70.527  56.599  18.092  1.00  0.00    -0.306 N 
ATOM      8  H7  UNL     1      70.941  56.325  18.983  1.00  0.00     0.171 HD
HETATM    9  C13 UNL     1      69.398  57.441  18.069  1.00  0.00     0.228 C 
HETATM   10  O3  UNL     1      68.273  56.899  18.306  1.00  0.00    -0.273 OA
HETATM   11  S1  UNL     1      72.410  55.142  16.749  1.00  0.00    -0.038 SA
ENDROOT
BRANCH   1  12
HETATM   12  C10 UNL     1      73.308  54.375  14.093  1.00  0.00     0.066 C 
BRANCH  12  13
HETATM   13  C9  UNL     1      74.127  53.348  14.798  1.00  0.00     0.007 C 
BRANCH  13  14
HETATM   14  C8  UNL     1      73.255  52.169  15.143  1.00  0.00     0.007 C 
BRANCH  14  15
HETATM   15  C7  UNL     1      73.236  51.161  14.043  1.00  0.00     0.066 C 
BRANCH  15  16
HETATM   16  C6  UNL     1      71.799  50.900  13.652  1.00  0.00     0.069 A 
HETATM   17  N4  UNL     1      71.074  49.831  13.921  1.00  0.00    -0.296 N 
HETATM   18  N3  UNL     1      69.885  49.724  13.534  1.00  0.00    -0.279 N 
ATOM     19  H4  UNL     1      71.492  49.072  14.458  1.00  0.00     0.187 HD
HETATM   20  C5  UNL     1      69.345  50.753  12.815  1.00  0.00     0.167 A 
ATOM     21  H3  UNL     1      69.337  48.890  13.749  1.00  0.00     0.189 HD
HETATM   22  S2  UNL     1      70.681  51.830  12.770  1.00  0.00    -0.038 SA
BRANCH  20  23
HETATM   23  N2  UNL     1      68.148  50.792  12.348  1.00  0.00    -0.305 N 
HETATM   24  C4  UNL     1      67.067  51.289  13.056  1.00  0.00     0.241 C 
HETATM   25  O2  UNL     1      65.931  51.298  12.461  1.00  0.00    -0.271 OA
ATOM     26  H2  UNL     1      67.986  50.437  11.406  1.00  0.00     0.171 HD
BRANCH  24  27
HETATM   27  C3  UNL     1      67.101  51.808  14.433  1.00  0.00     0.225 C 
BRANCH  27  28
HETATM   28  N1  UNL     1      66.837  53.212  14.512  1.00  0.00    -0.353 N 
HETATM   29  C2  UNL     1      67.794  54.109  15.010  1.00  0.00     0.213 C 
HETATM   30  C1  UNL     1      67.449  55.564  15.072  1.00  0.00     0.117 C 
HETATM   31  O1  UNL     1      68.922  53.788  15.408  1.00  0.00    -0.274 OA
ATOM     32  H1  UNL     1      65.934  53.568  14.199  1.00  0.00     0.162 HD
ENDBRANCH  27  28
ENDBRANCH  24  27
ENDBRANCH  20  23
ENDBRANCH  15  16
ENDBRANCH  14  15
ENDBRANCH  13  14
ENDBRANCH  12  13
ENDBRANCH   1  12
BRANCH   9  33
HETATM   33  C14 UNL     1      69.419  58.878  17.798  1.00  0.00     0.144 C 
BRANCH  33  34
HETATM   34  C15 UNL     1      69.867  59.691  18.935  1.00  0.00    -0.015 A 
HETATM   35  C16 UNL     1      68.991  60.233  19.829  1.00  0.00     0.017 A 
HETATM   36  C17 UNL     1      69.422  60.995  20.897  1.00  0.00    -0.061 A 
HETATM   37  C18 UNL     1      68.472  61.585  21.877  1.00  0.00     0.048 C 
HETATM   38  C19 UNL     1      70.784  61.207  21.050  1.00  0.00     0.009 A 
HETATM   39  C20 UNL     1      71.700  60.672  20.160  1.00  0.00     0.038 A 
HETATM   40  C21 UNL     1      71.262  59.902  19.083  1.00  0.00     0.075 A 
BRANCH  40  41
HETATM   41  O4  UNL     1      72.018  59.321  18.144  1.00  0.00    -0.347 OA
BRANCH  41  42
HETATM   42  C22 UNL     1      73.312  58.934  18.076  1.00  0.00     0.203 C 
BRANCH  42  43
HETATM   43  C23 UNL     1      74.000  58.542  19.334  1.00  0.00     0.001 C 
HETATM   44  C24 UNL     1      75.059  59.105  19.858  1.00  0.00    -0.089 C 
HETATM   45  C25 UNL     1      75.603  58.559  21.140  1.00  0.00     0.042 C 
HETATM   46  C26 UNL     1      75.778  60.246  19.242  1.00  0.00     0.042 C 
ENDBRANCH  42  43
ENDBRANCH  41  42
ENDBRANCH  40  41
ENDBRANCH  33  34
ENDBRANCH   9  33
TORSDOF 13
ENDMDL
