MODEL 1
REMARK VINA RESULT: -9.169932454      0.000      0.000
REMARK  12 active torsions:
REMARK  status: ('A' for Active; 'I' for Inactive)
REMARK    1  A    between atoms: O1_2  and  C2_3 
REMARK    2  A    between atoms: C2_3  and  C3_4 
REMARK    3  A    between atoms: C3_4  and  O2_5 
REMARK    4  A    between atoms: O2_5  and  C4_6 
REMARK    5  A    between atoms: C6_8  and  O3_9 
REMARK    6  A    between atoms: O3_9  and  C7_10 
REMARK    7  A    between atoms: C13_21  and  C14_22 
REMARK    8  A    between atoms: N2_25  and  C17_26 
REMARK    9  A    between atoms: C17_26  and  C18_27 
REMARK   10  A    between atoms: C18_27  and  C19_28 
REMARK   11  A    between atoms: C22_31  and  N3_32 
REMARK       I    between atoms: N3_32  and  C23_34 
REMARK   12  A    between atoms: C23_34  and  O5_36 
ROOT
HETATM    1  C4  UNL     1      16.157  22.897  63.821  1.00  0.00     0.083 A 
HETATM    2  C5  UNL     1      17.234  23.616  63.394  1.00  0.00     0.075 A 
HETATM    3  C6  UNL     1      17.750  23.532  62.118  1.00  0.00     0.080 A 
HETATM    4  C11 UNL     1      17.115  22.673  61.262  1.00  0.00     0.062 A 
HETATM    5  C12 UNL     1      16.004  21.919  61.663  1.00  0.00     0.050 A 
HETATM    6 CL3  UNL     1      15.297  20.987  60.338  1.00  0.00    -0.083 Cl
HETATM    7  C13 UNL     1      15.497  22.001  62.932  1.00  0.00     0.022 A 
ENDROOT
BRANCH   7   8
HETATM    8  C14 UNL     1      14.311  21.287  63.316  1.00  0.00    -0.059 C 
HETATM    9  C15 UNL     1      13.178  21.285  62.340  1.00  0.00     0.055 C 
HETATM   10  C16 UNL     1      11.903  21.419  63.149  1.00  0.00     0.126 C 
HETATM   11  N2  UNL     1      11.913  20.335  64.083  1.00  0.00    -0.393 N 
HETATM   12  C27 UNL     1      12.941  19.395  64.022  1.00  0.00     0.062 C 
HETATM   13  C28 UNL     1      14.378  19.950  63.925  1.00  0.00     0.079 C 
BRANCH  11  14
HETATM   14  C17 UNL     1      11.151  20.471  65.254  1.00  0.00     0.122 C 
BRANCH  14  15
HETATM   15  C18 UNL     1      10.796  19.068  65.779  1.00  0.00     0.024 C 
BRANCH  15  16
HETATM   16  C19 UNL     1       9.370  18.728  65.429  1.00  0.00    -0.013 C 
HETATM   17  C20 UNL     1       8.980  17.489  66.201  1.00  0.00     0.007 C 
HETATM   18  C21 UNL     1       7.976  16.654  65.437  1.00  0.00     0.026 C 
HETATM   19  C22 UNL     1       8.517  16.239  64.086  1.00  0.00     0.086 C 
HETATM   20  C25 UNL     1       9.586  17.144  63.577  1.00  0.00     0.026 C 
HETATM   21  C26 UNL     1       9.255  18.566  63.941  1.00  0.00     0.007 C 
BRANCH  19  22
HETATM   22  N3  UNL     1       7.403  16.242  63.156  1.00  0.00    -0.332 N 
HETATM   23  C23 UNL     1       7.305  15.354  62.071  1.00  0.00     0.360 C 
HETATM   24  O4  UNL     1       8.214  14.502  61.872  1.00  0.00    -0.239 OA
ATOM     25  H3  UNL     1       6.656  16.921  63.297  1.00  0.00     0.165 HD
BRANCH  23  26
HETATM   26  O5  UNL     1       6.237  15.391  61.216  1.00  0.00    -0.309 OA
HETATM   27  C24 UNL     1       4.930  15.635  61.740  1.00  0.00     0.215 C 
ENDBRANCH  23  26
ENDBRANCH  19  22
ENDBRANCH  15  16
ENDBRANCH  14  15
ENDBRANCH  11  14
ENDBRANCH   7   8
BRANCH   1  28
HETATM   28  O2  UNL     1      15.628  22.964  65.082  1.00  0.00    -0.348 OA
BRANCH  28  29
HETATM   29  C3  UNL     1      15.409  24.129  65.826  1.00  0.00     0.201 C 
BRANCH  29  30
HETATM   30  C2  UNL     1      16.289  24.302  67.019  1.00  0.00     0.193 C 
BRANCH  30  31
HETATM   31  O1  UNL     1      17.549  24.698  66.680  1.00  0.00    -0.394 OA
HETATM   32  C1  UNL     1      17.600  25.859  65.932  1.00  0.00     0.201 C 
ENDBRANCH  30  31
ENDBRANCH  29  30
ENDBRANCH  28  29
ENDBRANCH   1  28
BRANCH   3  33
HETATM   33  O3  UNL     1      18.846  24.280  61.730  1.00  0.00    -0.307 OA
BRANCH  33  34
HETATM   34  C7  UNL     1      18.774  25.659  61.521  1.00  0.00     0.117 A 
HETATM   35  C8  UNL     1      19.110  26.673  62.388  1.00  0.00     0.082 A 
HETATM   36  C9  UNL     1      18.869  27.884  61.730  1.00  0.00     0.107 A 
HETATM   37 CL1  UNL     1      19.137  29.481  62.397  1.00  0.00    -0.064 Cl
HETATM   38  N1  UNL     1      18.398  27.630  60.498  1.00  0.00    -0.335 N 
HETATM   39  C10 UNL     1      18.335  26.300  60.363  1.00  0.00     0.139 A 
ATOM     40  H1  UNL     1      18.136  28.321  59.795  1.00  0.00     0.168 HD
HETATM   41 CL2  UNL     1      17.796  25.447  58.933  1.00  0.00    -0.061 Cl
ENDBRANCH  33  34
ENDBRANCH   3  33
TORSDOF 12
ENDMDL
MODEL 2
REMARK VINA RESULT: -9.058530124      4.728     12.498
REMARK  12 active torsions:
REMARK  status: ('A' for Active; 'I' for Inactive)
REMARK    1  A    between atoms: O1_2  and  C2_3 
REMARK    2  A    between atoms: C2_3  and  C3_4 
REMARK    3  A    between atoms: C3_4  and  O2_5 
REMARK    4  A    between atoms: O2_5  and  C4_6 
REMARK    5  A    between atoms: C6_8  and  O3_9 
REMARK    6  A    between atoms: O3_9  and  C7_10 
REMARK    7  A    between atoms: C13_21  and  C14_22 
REMARK    8  A    between atoms: N2_25  and  C17_26 
REMARK    9  A    between atoms: C17_26  and  C18_27 
REMARK   10  A    between atoms: C18_27  and  C19_28 
REMARK   11  A    between atoms: C22_31  and  N3_32 
REMARK       I    between atoms: N3_32  and  C23_34 
REMARK   12  A    between atoms: C23_34  and  O5_36 
ROOT
HETATM    1  C4  UNL     1       7.566  16.901  64.672  1.00  0.00     0.083 A 
HETATM    2  C5  UNL     1       6.526  16.754  65.542  1.00  0.00     0.075 A 
HETATM    3  C6  UNL     1       6.373  17.513  66.683  1.00  0.00     0.080 A 
HETATM    4  C11 UNL     1       7.336  18.457  66.917  1.00  0.00     0.062 A 
HETATM    5  C12 UNL     1       8.418  18.639  66.047  1.00  0.00     0.050 A 
HETATM    6 CL3  UNL     1       9.445  20.001  66.509  1.00  0.00    -0.083 Cl
HETATM    7  C13 UNL     1       8.569  17.881  64.917  1.00  0.00     0.022 A 
ENDROOT
BRANCH   7   8
HETATM    8  C14 UNL     1       9.636  18.124  63.985  1.00  0.00    -0.059 C 
HETATM    9  C15 UNL     1      10.801  17.189  64.033  1.00  0.00     0.055 C 
HETATM   10  C16 UNL     1      12.046  18.028  63.822  1.00  0.00     0.126 C 
HETATM   11  N2  UNL     1      11.855  18.711  62.579  1.00  0.00    -0.393 N 
HETATM   12  C27 UNL     1      10.718  18.435  61.820  1.00  0.00     0.062 C 
HETATM   13  C28 UNL     1       9.371  18.435  62.572  1.00  0.00     0.079 C 
BRANCH  11  14
HETATM   14  C17 UNL     1      12.575  19.896  62.364  1.00  0.00     0.122 C 
BRANCH  14  15
HETATM   15  C18 UNL     1      12.442  20.789  63.612  1.00  0.00     0.024 C 
BRANCH  15  16
HETATM   16  C19 UNL     1      13.794  21.003  64.243  1.00  0.00    -0.013 C 
HETATM   17  C20 UNL     1      13.584  21.314  65.707  1.00  0.00     0.007 C 
HETATM   18  C21 UNL     1      14.657  22.241  66.236  1.00  0.00     0.026 C 
HETATM   19  C22 UNL     1      14.697  23.540  65.459  1.00  0.00     0.086 C 
HETATM   20  C25 UNL     1      14.135  23.421  64.085  1.00  0.00     0.026 C 
HETATM   21  C26 UNL     1      14.517  22.089  63.500  1.00  0.00     0.007 C 
BRANCH  19  22
HETATM   22  N3  UNL     1      16.086  23.950  65.376  1.00  0.00    -0.332 N 
HETATM   23  C23 UNL     1      16.742  24.657  66.398  1.00  0.00     0.360 C 
HETATM   24  O4  UNL     1      16.118  24.962  67.451  1.00  0.00    -0.239 OA
ATOM     25  H3  UNL     1      16.612  23.713  64.535  1.00  0.00     0.165 HD
BRANCH  23  26
HETATM   26  O5  UNL     1      18.055  25.026  66.279  1.00  0.00    -0.309 OA
HETATM   27  C24 UNL     1      18.547  25.455  65.008  1.00  0.00     0.215 C 
ENDBRANCH  23  26
ENDBRANCH  19  22
ENDBRANCH  15  16
ENDBRANCH  14  15
ENDBRANCH  11  14
ENDBRANCH   7   8
BRANCH   1  28
HETATM   28  O2  UNL     1       7.738  16.159  63.534  1.00  0.00    -0.348 OA
BRANCH  28  29
HETATM   29  C3  UNL     1       6.773  15.353  62.919  1.00  0.00     0.201 C 
BRANCH  29  30
HETATM   30  C2  UNL     1       7.175  14.759  61.611  1.00  0.00     0.193 C 
BRANCH  30  31
HETATM   31  O1  UNL     1       8.514  14.509  61.546  1.00  0.00    -0.394 OA
HETATM   32  C1  UNL     1       9.175  15.198  60.548  1.00  0.00     0.201 C 
ENDBRANCH  30  31
ENDBRANCH  29  30
ENDBRANCH  28  29
ENDBRANCH   1  28
BRANCH   3  33
HETATM   33  O3  UNL     1       5.302  17.327  67.537  1.00  0.00    -0.307 OA
BRANCH  33  34
HETATM   34  C7  UNL     1       4.154  18.121  67.480  1.00  0.00     0.117 A 
HETATM   35  C8  UNL     1       3.699  18.890  66.433  1.00  0.00     0.082 A 
HETATM   36  C9  UNL     1       2.510  19.500  66.848  1.00  0.00     0.107 A 
HETATM   37 CL1  UNL     1       1.526  20.581  65.883  1.00  0.00    -0.064 Cl
HETATM   38  N1  UNL     1       2.237  19.124  68.108  1.00  0.00    -0.335 N 
HETATM   39  C10 UNL     1       3.217  18.299  68.497  1.00  0.00     0.139 A 
ATOM     40  H1  UNL     1       1.434  19.413  68.665  1.00  0.00     0.168 HD
HETATM   41 CL2  UNL     1       3.328  17.519  70.059  1.00  0.00    -0.061 Cl
ENDBRANCH  33  34
ENDBRANCH   3  33
TORSDOF 12
ENDMDL
MODEL 3
REMARK VINA RESULT: -9.022836193      4.174     12.746
REMARK  12 active torsions:
REMARK  status: ('A' for Active; 'I' for Inactive)
REMARK    1  A    between atoms: O1_2  and  C2_3 
REMARK    2  A    between atoms: C2_3  and  C3_4 
REMARK    3  A    between atoms: C3_4  and  O2_5 
REMARK    4  A    between atoms: O2_5  and  C4_6 
REMARK    5  A    between atoms: C6_8  and  O3_9 
REMARK    6  A    between atoms: O3_9  and  C7_10 
REMARK    7  A    between atoms: C13_21  and  C14_22 
REMARK    8  A    between atoms: N2_25  and  C17_26 
REMARK    9  A    between atoms: C17_26  and  C18_27 
REMARK   10  A    between atoms: C18_27  and  C19_28 
REMARK   11  A    between atoms: C22_31  and  N3_32 
REMARK       I    between atoms: N3_32  and  C23_34 
REMARK   12  A    between atoms: C23_34  and  O5_36 
ROOT
HETATM    1  C4  UNL     1       8.081  16.794  63.920  1.00  0.00     0.083 A 
HETATM    2  C5  UNL     1       7.147  15.838  63.648  1.00  0.00     0.075 A 
HETATM    3  C6  UNL     1       7.049  15.190  62.435  1.00  0.00     0.080 A 
HETATM    4  C11 UNL     1       7.961  15.551  61.480  1.00  0.00     0.062 A 
HETATM    5  C12 UNL     1       8.937  16.526  61.722  1.00  0.00     0.050 A 
HETATM    6 CL3  UNL     1      10.065  16.713  60.375  1.00  0.00    -0.083 Cl
HETATM    7  C13 UNL     1       9.028  17.170  62.926  1.00  0.00     0.022 A 
ENDROOT
BRANCH   7   8
HETATM    8  C14 UNL     1      10.080  18.111  63.198  1.00  0.00    -0.059 C 
HETATM    9  C15 UNL     1      11.380  17.553  63.680  1.00  0.00     0.055 C 
HETATM   10  C16 UNL     1      11.899  18.502  64.741  1.00  0.00     0.126 C 
HETATM   11  N2  UNL     1      11.975  19.787  64.117  1.00  0.00    -0.393 N 
HETATM   12  C27 UNL     1      11.679  19.902  62.759  1.00  0.00     0.062 C 
HETATM   13  C28 UNL     1      10.384  19.217  62.276  1.00  0.00     0.079 C 
BRANCH  11  14
HETATM   14  C17 UNL     1      11.942  20.921  64.943  1.00  0.00     0.122 C 
BRANCH  14  15
HETATM   15  C18 UNL     1      13.384  21.292  65.333  1.00  0.00     0.024 C 
BRANCH  15  16
HETATM   16  C19 UNL     1      13.951  22.280  64.346  1.00  0.00    -0.013 C 
HETATM   17  C20 UNL     1      15.177  21.663  63.715  1.00  0.00     0.007 C 
HETATM   18  C21 UNL     1      16.200  22.715  63.347  1.00  0.00     0.026 C 
HETATM   19  C22 UNL     1      16.624  23.520  64.557  1.00  0.00     0.086 C 
HETATM   20  C25 UNL     1      15.611  23.520  65.649  1.00  0.00     0.026 C 
HETATM   21  C26 UNL     1      14.230  23.576  65.052  1.00  0.00     0.007 C 
BRANCH  19  22
HETATM   22  N3  UNL     1      16.847  24.883  64.110  1.00  0.00    -0.332 N 
HETATM   23  C23 UNL     1      17.862  25.705  64.628  1.00  0.00     0.360 C 
HETATM   24  O4  UNL     1      18.633  25.264  65.524  1.00  0.00    -0.239 OA
ATOM     25  H3  UNL     1      16.237  25.262  63.386  1.00  0.00     0.165 HD
BRANCH  23  26
HETATM   26  O5  UNL     1      18.038  26.986  64.179  1.00  0.00    -0.309 OA
HETATM   27  C24 UNL     1      19.324  27.390  63.705  1.00  0.00     0.215 C 
ENDBRANCH  23  26
ENDBRANCH  19  22
ENDBRANCH  15  16
ENDBRANCH  14  15
ENDBRANCH  11  14
ENDBRANCH   7   8
BRANCH   1  28
HETATM   28  O2  UNL     1       8.196  17.450  65.117  1.00  0.00    -0.348 OA
BRANCH  28  29
HETATM   29  C3  UNL     1       7.142  17.826  65.958  1.00  0.00     0.201 C 
BRANCH  29  30
HETATM   30  C2  UNL     1       7.224  17.308  67.355  1.00  0.00     0.193 C 
BRANCH  30  31
HETATM   31  O1  UNL     1       5.992  17.088  67.898  1.00  0.00    -0.394 OA
HETATM   32  C1  UNL     1       4.985  17.867  67.361  1.00  0.00     0.201 C 
ENDBRANCH  30  31
ENDBRANCH  29  30
ENDBRANCH  28  29
ENDBRANCH   1  28
BRANCH   3  33
HETATM   33  O3  UNL     1       6.083  14.229  62.204  1.00  0.00    -0.307 OA
BRANCH  33  34
HETATM   34  C7  UNL     1       4.726  14.545  62.097  1.00  0.00     0.117 A 
HETATM   35  C8  UNL     1       4.151  15.773  61.864  1.00  0.00     0.082 A 
HETATM   36  C9  UNL     1       2.764  15.589  61.838  1.00  0.00     0.107 A 
HETATM   37 CL1  UNL     1       1.571  16.842  61.572  1.00  0.00    -0.064 Cl
HETATM   38  N1  UNL     1       2.488  14.291  62.049  1.00  0.00    -0.335 N 
HETATM   39  C10 UNL     1       3.656  13.657  62.207  1.00  0.00     0.139 A 
ATOM     40  H1  UNL     1       1.561  13.867  62.082  1.00  0.00     0.168 HD
HETATM   41 CL2  UNL     1       3.851  11.943  62.497  1.00  0.00    -0.061 Cl
ENDBRANCH  33  34
ENDBRANCH   3  33
TORSDOF 12
ENDMDL
MODEL 4
REMARK VINA RESULT: -8.952374333      1.520      2.160
REMARK  12 active torsions:
REMARK  status: ('A' for Active; 'I' for Inactive)
REMARK    1  A    between atoms: O1_2  and  C2_3 
REMARK    2  A    between atoms: C2_3  and  C3_4 
REMARK    3  A    between atoms: C3_4  and  O2_5 
REMARK    4  A    between atoms: O2_5  and  C4_6 
REMARK    5  A    between atoms: C6_8  and  O3_9 
REMARK    6  A    between atoms: O3_9  and  C7_10 
REMARK    7  A    between atoms: C13_21  and  C14_22 
REMARK    8  A    between atoms: N2_25  and  C17_26 
REMARK    9  A    between atoms: C17_26  and  C18_27 
REMARK   10  A    between atoms: C18_27  and  C19_28 
REMARK   11  A    between atoms: C22_31  and  N3_32 
REMARK       I    between atoms: N3_32  and  C23_34 
REMARK   12  A    between atoms: C23_34  and  O5_36 
ROOT
HETATM    1  C4  UNL     1      16.646  23.170  63.323  1.00  0.00     0.083 A 
HETATM    2  C5  UNL     1      17.609  23.878  62.667  1.00  0.00     0.075 A 
HETATM    3  C6  UNL     1      17.749  23.887  61.295  1.00  0.00     0.080 A 
HETATM    4  C11 UNL     1      16.848  23.136  60.590  1.00  0.00     0.062 A 
HETATM    5  C12 UNL     1      15.843  22.397  61.227  1.00  0.00     0.050 A 
HETATM    6 CL3  UNL     1      14.739  21.619  60.087  1.00  0.00    -0.083 Cl
HETATM    7  C13 UNL     1      15.711  22.387  62.589  1.00  0.00     0.022 A 
ENDROOT
BRANCH   7   8
HETATM    8  C14 UNL     1      14.631  21.693  63.235  1.00  0.00    -0.059 C 
HETATM    9  C15 UNL     1      14.996  20.536  64.109  1.00  0.00     0.055 C 
HETATM   10  C16 UNL     1      13.949  19.465  63.881  1.00  0.00     0.126 C 
HETATM   11  N2  UNL     1      12.688  20.079  64.168  1.00  0.00    -0.393 N 
HETATM   12  C27 UNL     1      12.664  21.388  64.648  1.00  0.00     0.062 C 
HETATM   13  C28 UNL     1      13.530  22.416  63.890  1.00  0.00     0.079 C 
BRANCH  11  14
HETATM   14  C17 UNL     1      11.539  19.519  63.589  1.00  0.00     0.122 C 
BRANCH  14  15
HETATM   15  C18 UNL     1      11.905  18.962  62.202  1.00  0.00     0.024 C 
BRANCH  15  16
HETATM   16  C19 UNL     1      11.415  17.543  62.066  1.00  0.00    -0.013 C 
HETATM   17  C20 UNL     1      11.155  17.274  60.603  1.00  0.00     0.007 C 
HETATM   18  C21 UNL     1      10.025  16.285  60.413  1.00  0.00     0.026 C 
HETATM   19  C22 UNL     1       8.746  16.777  61.056  1.00  0.00     0.086 C 
HETATM   20  C25 UNL     1       8.978  17.757  62.153  1.00  0.00     0.026 C 
HETATM   21  C26 UNL     1      10.202  17.357  62.932  1.00  0.00     0.007 C 
BRANCH  19  22
HETATM   22  N3  UNL     1       8.057  15.616  61.587  1.00  0.00    -0.332 N 
HETATM   23  C23 UNL     1       6.657  15.517  61.654  1.00  0.00     0.360 C 
HETATM   24  O4  UNL     1       5.939  16.467  61.238  1.00  0.00    -0.239 OA
ATOM     25  H3  UNL     1       8.616  14.834  61.929  1.00  0.00     0.165 HD
BRANCH  23  26
HETATM   26  O5  UNL     1       6.045  14.404  62.164  1.00  0.00    -0.309 OA
HETATM   27  C24 UNL     1       4.632  14.418  62.377  1.00  0.00     0.215 C 
ENDBRANCH  23  26
ENDBRANCH  19  22
ENDBRANCH  15  16
ENDBRANCH  14  15
ENDBRANCH  11  14
ENDBRANCH   7   8
BRANCH   1  28
HETATM   28  O2  UNL     1      16.490  23.147  64.683  1.00  0.00    -0.348 OA
BRANCH  28  29
HETATM   29  C3  UNL     1      16.123  24.229  65.492  1.00  0.00     0.201 C 
BRANCH  29  30
HETATM   30  C2  UNL     1      17.141  24.648  66.500  1.00  0.00     0.193 C 
BRANCH  30  31
HETATM   31  O1  UNL     1      18.306  25.055  65.919  1.00  0.00    -0.394 OA
HETATM   32  C1  UNL     1      18.183  26.170  65.113  1.00  0.00     0.201 C 
ENDBRANCH  30  31
ENDBRANCH  29  30
ENDBRANCH  28  29
ENDBRANCH   1  28
BRANCH   3  33
HETATM   33  O3  UNL     1      18.744  24.619  60.674  1.00  0.00    -0.307 OA
BRANCH  33  34
HETATM   34  C7  UNL     1      18.617  25.986  60.421  1.00  0.00     0.117 A 
HETATM   35  C8  UNL     1      18.914  27.041  61.254  1.00  0.00     0.082 A 
HETATM   36  C9  UNL     1      18.625  28.220  60.559  1.00  0.00     0.107 A 
HETATM   37 CL1  UNL     1      18.831  29.846  61.174  1.00  0.00    -0.064 Cl
HETATM   38  N1  UNL     1      18.164  27.908  59.336  1.00  0.00    -0.335 N 
HETATM   39  C10 UNL     1      18.154  26.573  59.243  1.00  0.00     0.139 A 
ATOM     40  H1  UNL     1      17.876  28.566  58.612  1.00  0.00     0.168 HD
HETATM   41 CL2  UNL     1      17.648  25.655  57.842  1.00  0.00    -0.061 Cl
ENDBRANCH  33  34
ENDBRANCH   3  33
TORSDOF 12
ENDMDL
MODEL 5
REMARK VINA RESULT: -8.866534598      1.053      1.194
REMARK  12 active torsions:
REMARK  status: ('A' for Active; 'I' for Inactive)
REMARK    1  A    between atoms: O1_2  and  C2_3 
REMARK    2  A    between atoms: C2_3  and  C3_4 
REMARK    3  A    between atoms: C3_4  and  O2_5 
REMARK    4  A    between atoms: O2_5  and  C4_6 
REMARK    5  A    between atoms: C6_8  and  O3_9 
REMARK    6  A    between atoms: O3_9  and  C7_10 
REMARK    7  A    between atoms: C13_21  and  C14_22 
REMARK    8  A    between atoms: N2_25  and  C17_26 
REMARK    9  A    between atoms: C17_26  and  C18_27 
REMARK   10  A    between atoms: C18_27  and  C19_28 
REMARK   11  A    between atoms: C22_31  and  N3_32 
REMARK       I    between atoms: N3_32  and  C23_34 
REMARK   12  A    between atoms: C23_34  and  O5_36 
ROOT
HETATM    1  C4  UNL     1      16.231  22.998  63.861  1.00  0.00     0.083 A 
HETATM    2  C5  UNL     1      17.287  23.746  63.430  1.00  0.00     0.075 A 
HETATM    3  C6  UNL     1      17.830  23.641  62.167  1.00  0.00     0.080 A 
HETATM    4  C11 UNL     1      17.247  22.730  61.330  1.00  0.00     0.062 A 
HETATM    5  C12 UNL     1      16.160  21.944  61.735  1.00  0.00     0.050 A 
HETATM    6 CL3  UNL     1      15.515  20.942  60.430  1.00  0.00    -0.083 Cl
HETATM    7  C13 UNL     1      15.626  22.048  62.991  1.00  0.00     0.022 A 
ENDROOT
BRANCH   7   8
HETATM    8  C14 UNL     1      14.461  21.299  63.377  1.00  0.00    -0.059 C 
HETATM    9  C15 UNL     1      13.206  21.557  62.608  1.00  0.00     0.055 C 
HETATM   10  C16 UNL     1      12.067  21.535  63.607  1.00  0.00     0.126 C 
HETATM   11  N2  UNL     1      12.139  20.264  64.260  1.00  0.00    -0.393 N 
HETATM   12  C27 UNL     1      13.087  19.334  63.835  1.00  0.00     0.062 C 
HETATM   13  C28 UNL     1      14.528  19.855  63.651  1.00  0.00     0.079 C 
BRANCH  11  14
HETATM   14  C17 UNL     1      11.557  20.146  65.532  1.00  0.00     0.122 C 
BRANCH  14  15
HETATM   15  C18 UNL     1      10.788  18.814  65.603  1.00  0.00     0.024 C 
BRANCH  15  16
HETATM   16  C19 UNL     1       9.399  18.987  65.042  1.00  0.00    -0.013 C 
HETATM   17  C20 UNL     1       8.411  18.779  66.165  1.00  0.00     0.007 C 
HETATM   18  C21 UNL     1       7.113  18.188  65.660  1.00  0.00     0.026 C 
HETATM   19  C22 UNL     1       7.345  16.865  64.960  1.00  0.00     0.086 C 
HETATM   20  C25 UNL     1       8.729  16.714  64.432  1.00  0.00     0.026 C 
HETATM   21  C26 UNL     1       9.210  18.035  63.896  1.00  0.00     0.007 C 
BRANCH  19  22
HETATM   22  N3  UNL     1       6.401  16.788  63.861  1.00  0.00    -0.332 N 
HETATM   23  C23 UNL     1       5.096  16.285  64.001  1.00  0.00     0.360 C 
HETATM   24  O4  UNL     1       4.698  15.876  65.126  1.00  0.00    -0.239 OA
ATOM     25  H3  UNL     1       6.699  17.115  62.942  1.00  0.00     0.165 HD
BRANCH  23  26
HETATM   26  O5  UNL     1       4.237  16.229  62.937  1.00  0.00    -0.309 OA
HETATM   27  C24 UNL     1       4.641  15.546  61.748  1.00  0.00     0.215 C 
ENDBRANCH  23  26
ENDBRANCH  19  22
ENDBRANCH  15  16
ENDBRANCH  14  15
ENDBRANCH  11  14
ENDBRANCH   7   8
BRANCH   1  28
HETATM   28  O2  UNL     1      15.676  23.084  65.110  1.00  0.00    -0.348 OA
BRANCH  28  29
HETATM   29  C3  UNL     1      15.411  24.263  65.817  1.00  0.00     0.201 C 
BRANCH  29  30
HETATM   30  C2  UNL     1      16.185  24.439  67.081  1.00  0.00     0.193 C 
BRANCH  30  31
HETATM   31  O1  UNL     1      17.408  25.001  66.864  1.00  0.00    -0.394 OA
HETATM   32  C1  UNL     1      17.404  26.045  65.959  1.00  0.00     0.201 C 
ENDBRANCH  30  31
ENDBRANCH  29  30
ENDBRANCH  28  29
ENDBRANCH   1  28
BRANCH   3  33
HETATM   33  O3  UNL     1      18.903  24.420  61.775  1.00  0.00    -0.307 OA
BRANCH  33  34
HETATM   34  C7  UNL     1      18.793  25.799  61.580  1.00  0.00     0.117 A 
HETATM   35  C8  UNL     1      19.189  26.814  62.421  1.00  0.00     0.082 A 
HETATM   36  C9  UNL     1      18.875  28.025  61.794  1.00  0.00     0.107 A 
HETATM   37 CL1  UNL     1      19.178  29.622  62.444  1.00  0.00    -0.064 Cl
HETATM   38  N1  UNL     1      18.304  27.769  60.605  1.00  0.00    -0.335 N 
HETATM   39  C10 UNL     1      18.248  26.440  60.468  1.00  0.00     0.139 A 
ATOM     40  H1  UNL     1      17.973  28.460  59.932  1.00  0.00     0.168 HD
HETATM   41 CL2  UNL     1      17.600  25.586  59.085  1.00  0.00    -0.061 Cl
ENDBRANCH  33  34
ENDBRANCH   3  33
TORSDOF 12
ENDMDL
