MODEL 1
REMARK VINA RESULT: -9.521235178      0.000      0.000
REMARK  11 active torsions:
REMARK  status: ('A' for Active; 'I' for Inactive)
REMARK    1  A    between atoms: O1_2  and  C2_3 
REMARK    2  A    between atoms: C2_3  and  C3_4 
REMARK    3  A    between atoms: C3_4  and  O2_5 
REMARK    4  A    between atoms: C3_4  and  C27_41 
REMARK    5  A    between atoms: O2_5  and  C4_6 
REMARK    6  A    between atoms: C7_10  and  C8_11 
REMARK    7  A    between atoms: C11_18  and  C12_19 
REMARK    8  A    between atoms: C12_19  and  N3_20 
REMARK    9  A    between atoms: N3_20  and  C13_21 
REMARK   10  A    between atoms: N3_20  and  C20_29 
REMARK   11  A    between atoms: C20_29  and  C22_31 
ROOT
HETATM    1  C8  UNL     1      13.709  20.762  63.372  1.00  0.00    -0.008 A 
HETATM    2  C9  UNL     1      14.105  21.218  64.609  1.00  0.00     0.102 A 
HETATM    3  N1  UNL     1      15.243  21.945  64.738  1.00  0.00    -0.350 N 
ATOM      4  H1  UNL     1      15.511  22.271  65.666  1.00  0.00     0.166 HD
HETATM    5  C10 UNL     1      16.034  22.256  63.693  1.00  0.00     0.133 A 
HETATM    6  N2  UNL     1      17.183  22.945  63.551  1.00  0.00    -0.329 N 
ATOM      7  H2  UNL     1      17.690  23.391  64.315  1.00  0.00     0.168 HD
HETATM    8  C11 UNL     1      17.570  22.965  62.266  1.00  0.00     0.101 A 
HETATM    9  N4  UNL     1      16.614  22.257  61.596  1.00  0.00    -0.341 N 
ATOM     10  H4  UNL     1      16.614  22.084  60.590  1.00  0.00     0.167 HD
HETATM   11  C23 UNL     1      15.687  21.827  62.437  1.00  0.00     0.079 A 
HETATM   12  C24 UNL     1      14.510  21.074  62.295  1.00  0.00     0.047 A 
ENDROOT
BRANCH   1  13
HETATM   13  C7  UNL     1      12.483  19.975  63.217  1.00  0.00    -0.021 A 
HETATM   14  C6  UNL     1      11.471  20.009  64.131  1.00  0.00     0.039 A 
HETATM   15  C5  UNL     1      10.306  19.250  63.959  1.00  0.00     0.070 A 
HETATM   16  C4  UNL     1      10.098  18.429  62.873  1.00  0.00     0.112 A 
HETATM   17 CL1  UNL     1       9.106  19.311  65.257  1.00  0.00    -0.081 Cl
HETATM   18  C26 UNL     1      11.147  18.410  61.956  1.00  0.00     0.070 A 
HETATM   19  C25 UNL     1      12.311  19.170  62.130  1.00  0.00     0.039 A 
HETATM   20 CL3  UNL     1      11.018  17.361  60.565  1.00  0.00    -0.081 Cl
BRANCH  16  21
HETATM   21  O2  UNL     1       8.933  17.700  62.729  1.00  0.00    -0.340 OA
BRANCH  21  22
HETATM   22  C3  UNL     1       8.819  16.336  63.186  1.00  0.00     0.157 C 
BRANCH  22  23
HETATM   23  C2  UNL     1       7.846  16.255  64.320  1.00  0.00     0.199 C 
BRANCH  23  24
HETATM   24  O1  UNL     1       8.236  15.244  65.209  1.00  0.00    -0.393 OA
HETATM   25  C1  UNL     1       7.873  15.633  66.517  1.00  0.00     0.201 C 
ENDBRANCH  23  24
ENDBRANCH  22  23
BRANCH  22  26
HETATM   26  C27 UNL     1       8.410  15.444  62.026  1.00  0.00     0.017 A 
HETATM   27  C28 UNL     1       7.745  16.045  60.828  1.00  0.00     0.007 A 
HETATM   28  C29 UNL     1       7.005  15.100  61.734  1.00  0.00     0.007 A 
ENDBRANCH  22  26
ENDBRANCH  21  22
ENDBRANCH  16  21
ENDBRANCH   1  13
BRANCH   8  29
HETATM   29  C12 UNL     1      18.735  23.561  61.586  1.00  0.00     0.200 C 
BRANCH  29  30
HETATM   30  N3  UNL     1      18.530  24.845  61.001  1.00  0.00    -0.359 N 
BRANCH  30  31
HETATM   31  C13 UNL     1      18.768  26.010  61.778  1.00  0.00     0.032 A 
HETATM   32  C14 UNL     1      19.048  25.947  63.149  1.00  0.00     0.031 A 
HETATM   33  C15 UNL     1      19.269  27.039  63.937  1.00  0.00     0.026 A 
HETATM   34  C16 UNL     1      19.213  28.292  63.347  1.00  0.00     0.040 A 
HETATM   35 CL2  UNL     1      19.492  29.722  64.327  1.00  0.00    -0.084 Cl
HETATM   36  C17 UNL     1      18.946  28.433  62.015  1.00  0.00    -0.038 A 
HETATM   37  C18 UNL     1      18.876  29.753  61.326  1.00  0.00     0.050 C 
HETATM   38  C19 UNL     1      18.727  27.281  61.249  1.00  0.00     0.037 A 
ENDBRANCH  30  31
BRANCH  30  39
HETATM   39  C20 UNL     1      18.152  24.899  59.613  1.00  0.00     0.182 C 
HETATM   40  C21 UNL     1      18.657  23.639  58.878  1.00  0.00     0.044 C 
BRANCH  39  41
HETATM   41  C22 UNL     1      16.729  25.006  59.315  1.00  0.00     0.196 C 
HETATM   42  O3  UNL     1      16.351  26.061  58.724  1.00  0.00    -0.646 OA
HETATM   43  O4  UNL     1      15.777  24.076  59.614  1.00  0.00    -0.646 OA
ENDBRANCH  39  41
ENDBRANCH  30  39
ENDBRANCH  29  30
ENDBRANCH   8  29
TORSDOF 11
ENDMDL
MODEL 2
REMARK VINA RESULT: -9.475562397      0.085      1.422
REMARK  11 active torsions:
REMARK  status: ('A' for Active; 'I' for Inactive)
REMARK    1  A    between atoms: O1_2  and  C2_3 
REMARK    2  A    between atoms: C2_3  and  C3_4 
REMARK    3  A    between atoms: C3_4  and  O2_5 
REMARK    4  A    between atoms: C3_4  and  C27_41 
REMARK    5  A    between atoms: O2_5  and  C4_6 
REMARK    6  A    between atoms: C7_10  and  C8_11 
REMARK    7  A    between atoms: C11_18  and  C12_19 
REMARK    8  A    between atoms: C12_19  and  N3_20 
REMARK    9  A    between atoms: N3_20  and  C13_21 
REMARK   10  A    between atoms: N3_20  and  C20_29 
REMARK   11  A    between atoms: C20_29  and  C22_31 
ROOT
HETATM    1  C8  UNL     1      13.672  20.723  63.340  1.00  0.00    -0.008 A 
HETATM    2  C9  UNL     1      14.060  21.181  64.579  1.00  0.00     0.102 A 
HETATM    3  N1  UNL     1      15.197  21.909  64.713  1.00  0.00    -0.350 N 
ATOM      4  H1  UNL     1      15.460  22.236  65.642  1.00  0.00     0.166 HD
HETATM    5  C10 UNL     1      15.994  22.220  63.672  1.00  0.00     0.133 A 
HETATM    6  N2  UNL     1      17.143  22.910  63.536  1.00  0.00    -0.329 N 
ATOM      7  H2  UNL     1      17.645  23.357  64.303  1.00  0.00     0.168 HD
HETATM    8  C11 UNL     1      17.537  22.930  62.253  1.00  0.00     0.101 A 
HETATM    9  N4  UNL     1      16.585  22.220  61.579  1.00  0.00    -0.341 N 
ATOM     10  H4  UNL     1      16.590  22.046  60.573  1.00  0.00     0.167 HD
HETATM   11  C23 UNL     1      15.654  21.789  62.415  1.00  0.00     0.079 A 
HETATM   12  C24 UNL     1      14.479  21.036  62.267  1.00  0.00     0.047 A 
ENDROOT
BRANCH   1  13
HETATM   13  C7  UNL     1      12.448  19.935  63.179  1.00  0.00    -0.021 A 
HETATM   14  C6  UNL     1      12.236  19.123  62.103  1.00  0.00     0.039 A 
HETATM   15  C5  UNL     1      11.058  18.376  61.972  1.00  0.00     0.070 A 
HETATM   16  C4  UNL     1      10.045  18.403  62.906  1.00  0.00     0.112 A 
HETATM   17 CL1  UNL     1      10.864  17.430  60.490  1.00  0.00    -0.081 Cl
HETATM   18  C26 UNL     1      10.283  19.241  63.992  1.00  0.00     0.070 A 
HETATM   19  C25 UNL     1      11.463  19.987  64.120  1.00  0.00     0.039 A 
HETATM   20 CL3  UNL     1       9.043  19.398  65.211  1.00  0.00    -0.081 Cl
BRANCH  16  21
HETATM   21  O2  UNL     1       8.899  17.646  62.750  1.00  0.00    -0.340 OA
BRANCH  21  22
HETATM   22  C3  UNL     1       8.800  16.293  63.242  1.00  0.00     0.157 C 
BRANCH  22  23
HETATM   23  C2  UNL     1       7.843  16.234  64.391  1.00  0.00     0.199 C 
BRANCH  23  24
HETATM   24  O1  UNL     1       8.228  15.220  65.278  1.00  0.00    -0.393 OA
HETATM   25  C1  UNL     1       7.872  15.612  66.588  1.00  0.00     0.201 C 
ENDBRANCH  23  24
ENDBRANCH  22  23
BRANCH  22  26
HETATM   26  C27 UNL     1       8.379  15.370  62.110  1.00  0.00     0.017 A 
HETATM   27  C28 UNL     1       7.605  15.922  60.954  1.00  0.00     0.007 A 
HETATM   28  C29 UNL     1       6.984  14.935  61.904  1.00  0.00     0.007 A 
ENDBRANCH  22  26
ENDBRANCH  21  22
ENDBRANCH  16  21
ENDBRANCH   1  13
BRANCH   8  29
HETATM   29  C12 UNL     1      18.705  23.526  61.579  1.00  0.00     0.200 C 
BRANCH  29  30
HETATM   30  N3  UNL     1      18.503  24.810  60.994  1.00  0.00    -0.359 N 
BRANCH  30  31
HETATM   31  C13 UNL     1      18.749  25.974  61.770  1.00  0.00     0.032 A 
HETATM   32  C14 UNL     1      19.021  25.912  63.143  1.00  0.00     0.031 A 
HETATM   33  C15 UNL     1      19.249  27.004  63.929  1.00  0.00     0.026 A 
HETATM   34  C16 UNL     1      19.208  28.255  63.336  1.00  0.00     0.040 A 
HETATM   35 CL2  UNL     1      19.496  29.685  64.314  1.00  0.00    -0.084 Cl
HETATM   36  C17 UNL     1      18.948  28.396  62.002  1.00  0.00    -0.038 A 
HETATM   37  C18 UNL     1      18.893  29.715  61.311  1.00  0.00     0.050 C 
HETATM   38  C19 UNL     1      18.721  27.245  61.238  1.00  0.00     0.037 A 
ENDBRANCH  30  31
BRANCH  30  39
HETATM   39  C20 UNL     1      18.120  24.865  59.608  1.00  0.00     0.182 C 
HETATM   40  C21 UNL     1      18.590  23.589  58.879  1.00  0.00     0.044 C 
BRANCH  39  41
HETATM   41  C22 UNL     1      16.699  25.006  59.315  1.00  0.00     0.196 C 
HETATM   42  O3  UNL     1      16.347  26.056  58.699  1.00  0.00    -0.646 OA
HETATM   43  O4  UNL     1      15.722  24.112  59.645  1.00  0.00    -0.646 OA
ENDBRANCH  39  41
ENDBRANCH  30  39
ENDBRANCH  29  30
ENDBRANCH   8  29
TORSDOF 11
ENDMDL
MODEL 3
REMARK VINA RESULT: -9.224545023      2.683      4.395
REMARK  11 active torsions:
REMARK  status: ('A' for Active; 'I' for Inactive)
REMARK    1  A    between atoms: O1_2  and  C2_3 
REMARK    2  A    between atoms: C2_3  and  C3_4 
REMARK    3  A    between atoms: C3_4  and  O2_5 
REMARK    4  A    between atoms: C3_4  and  C27_41 
REMARK    5  A    between atoms: O2_5  and  C4_6 
REMARK    6  A    between atoms: C7_10  and  C8_11 
REMARK    7  A    between atoms: C11_18  and  C12_19 
REMARK    8  A    between atoms: C12_19  and  N3_20 
REMARK    9  A    between atoms: N3_20  and  C13_21 
REMARK   10  A    between atoms: N3_20  and  C20_29 
REMARK   11  A    between atoms: C20_29  and  C22_31 
ROOT
HETATM    1  C8  UNL     1      13.772  20.499  63.000  1.00  0.00    -0.008 A 
HETATM    2  C9  UNL     1      14.779  20.832  63.878  1.00  0.00     0.102 A 
HETATM    3  N1  UNL     1      15.762  21.687  63.498  1.00  0.00    -0.350 N 
ATOM      4  H1  UNL     1      16.494  21.917  64.169  1.00  0.00     0.166 HD
HETATM    5  C10 UNL     1      15.813  22.245  62.273  1.00  0.00     0.133 A 
HETATM    6  N2  UNL     1      16.655  23.100  61.659  1.00  0.00    -0.329 N 
ATOM      7  H2  UNL     1      17.487  23.503  62.089  1.00  0.00     0.168 HD
HETATM    8  C11 UNL     1      16.249  23.349  60.404  1.00  0.00     0.101 A 
HETATM    9  N4  UNL     1      15.109  22.612  60.248  1.00  0.00    -0.341 N 
ATOM     10  H4  UNL     1      14.549  22.580  59.396  1.00  0.00     0.167 HD
HETATM   11  C23 UNL     1      14.836  21.946  61.358  1.00  0.00     0.079 A 
HETATM   12  C24 UNL     1      13.814  21.064  61.744  1.00  0.00     0.047 A 
ENDROOT
BRANCH   1  13
HETATM   13  C7  UNL     1      12.704  19.578  63.395  1.00  0.00    -0.021 A 
HETATM   14  C6  UNL     1      12.032  18.805  62.493  1.00  0.00     0.039 A 
HETATM   15  C5  UNL     1      11.016  17.929  62.895  1.00  0.00     0.070 A 
HETATM   16  C4  UNL     1      10.628  17.782  64.208  1.00  0.00     0.112 A 
HETATM   17 CL1  UNL     1      10.162  17.047  61.621  1.00  0.00    -0.081 Cl
HETATM   18  C26 UNL     1      11.325  18.584  65.109  1.00  0.00     0.070 A 
HETATM   19  C25 UNL     1      12.342  19.459  64.704  1.00  0.00     0.039 A 
HETATM   20 CL3  UNL     1      10.879  18.524  66.796  1.00  0.00    -0.081 Cl
BRANCH  16  21
HETATM   21  O2  UNL     1       9.627  16.901  64.572  1.00  0.00    -0.340 OA
BRANCH  21  22
HETATM   22  C3  UNL     1       8.229  17.212  64.396  1.00  0.00     0.157 C 
BRANCH  22  23
HETATM   23  C2  UNL     1       7.425  15.951  64.344  1.00  0.00     0.199 C 
BRANCH  23  24
HETATM   24  O1  UNL     1       7.987  15.068  63.411  1.00  0.00    -0.393 OA
HETATM   25  C1  UNL     1       7.151  15.030  62.272  1.00  0.00     0.201 C 
ENDBRANCH  23  24
ENDBRANCH  22  23
BRANCH  22  26
HETATM   26  C27 UNL     1       7.767  18.129  65.517  1.00  0.00     0.017 A 
HETATM   27  C28 UNL     1       7.404  17.547  66.847  1.00  0.00     0.007 A 
HETATM   28  C29 UNL     1       6.366  18.197  65.974  1.00  0.00     0.007 A 
ENDBRANCH  22  26
ENDBRANCH  21  22
ENDBRANCH  16  21
ENDBRANCH   1  13
BRANCH   8  29
HETATM   29  C12 UNL     1      16.803  24.188  59.327  1.00  0.00     0.200 C 
BRANCH  29  30
HETATM   30  N3  UNL     1      18.198  24.472  59.407  1.00  0.00    -0.359 N 
BRANCH  30  31
HETATM   31  C13 UNL     1      19.134  23.496  58.973  1.00  0.00     0.032 A 
HETATM   32  C14 UNL     1      19.465  22.381  59.754  1.00  0.00     0.031 A 
HETATM   33  C15 UNL     1      20.368  21.427  59.385  1.00  0.00     0.026 A 
HETATM   34  C16 UNL     1      20.999  21.567  58.159  1.00  0.00     0.040 A 
HETATM   35 CL2  UNL     1      22.167  20.359  57.647  1.00  0.00    -0.084 Cl
HETATM   36  C17 UNL     1      20.728  22.627  57.342  1.00  0.00    -0.038 A 
HETATM   37  C18 UNL     1      21.374  22.827  56.014  1.00  0.00     0.050 C 
HETATM   38  C19 UNL     1      19.794  23.579  57.766  1.00  0.00     0.037 A 
ENDBRANCH  30  31
BRANCH  30  39
HETATM   39  C20 UNL     1      18.592  25.778  59.868  1.00  0.00     0.182 C 
HETATM   40  C21 UNL     1      17.634  26.849  59.305  1.00  0.00     0.044 C 
BRANCH  39  41
HETATM   41  C22 UNL     1      18.641  25.988  61.310  1.00  0.00     0.196 C 
HETATM   42  O3  UNL     1      19.126  25.046  62.005  1.00  0.00    -0.646 OA
HETATM   43  O4  UNL     1      18.213  27.102  61.971  1.00  0.00    -0.646 OA
ENDBRANCH  39  41
ENDBRANCH  30  39
ENDBRANCH  29  30
ENDBRANCH   8  29
TORSDOF 11
ENDMDL
MODEL 4
REMARK VINA RESULT: -9.148267521      3.381      5.355
REMARK  11 active torsions:
REMARK  status: ('A' for Active; 'I' for Inactive)
REMARK    1  A    between atoms: O1_2  and  C2_3 
REMARK    2  A    between atoms: C2_3  and  C3_4 
REMARK    3  A    between atoms: C3_4  and  O2_5 
REMARK    4  A    between atoms: C3_4  and  C27_41 
REMARK    5  A    between atoms: O2_5  and  C4_6 
REMARK    6  A    between atoms: C7_10  and  C8_11 
REMARK    7  A    between atoms: C11_18  and  C12_19 
REMARK    8  A    between atoms: C12_19  and  N3_20 
REMARK    9  A    between atoms: N3_20  and  C13_21 
REMARK   10  A    between atoms: N3_20  and  C20_29 
REMARK   11  A    between atoms: C20_29  and  C22_31 
ROOT
HETATM    1  C8  UNL     1       9.511  18.699  65.170  1.00  0.00    -0.008 A 
HETATM    2  C9  UNL     1       9.543  19.825  65.960  1.00  0.00     0.102 A 
HETATM    3  N1  UNL     1      10.682  20.556  66.062  1.00  0.00    -0.350 N 
ATOM      4  H1  UNL     1      10.676  21.387  66.654  1.00  0.00     0.166 HD
HETATM    5  C10 UNL     1      11.819  20.234  65.415  1.00  0.00     0.133 A 
HETATM    6  N2  UNL     1      13.052  20.774  65.346  1.00  0.00    -0.329 N 
ATOM      7  H2  UNL     1      13.343  21.618  65.839  1.00  0.00     0.168 HD
HETATM    8  C11 UNL     1      13.843  20.050  64.541  1.00  0.00     0.101 A 
HETATM    9  N4  UNL     1      13.057  19.023  64.100  1.00  0.00    -0.341 N 
ATOM     10  H4  UNL     1      13.364  18.286  63.464  1.00  0.00     0.167 HD
HETATM   11  C23 UNL     1      11.843  19.120  64.615  1.00  0.00     0.079 A 
HETATM   12  C24 UNL     1      10.668  18.359  64.503  1.00  0.00     0.047 A 
ENDROOT
BRANCH   1  13
HETATM   13  C7  UNL     1       8.290  17.899  65.050  1.00  0.00    -0.021 A 
HETATM   14  C6  UNL     1       7.206  18.091  65.856  1.00  0.00     0.039 A 
HETATM   15  C5  UNL     1       6.048  17.315  65.720  1.00  0.00     0.070 A 
HETATM   16  C4  UNL     1       5.917  16.320  64.777  1.00  0.00     0.112 A 
HETATM   17 CL1  UNL     1       4.746  17.600  66.883  1.00  0.00    -0.081 Cl
HETATM   18  C26 UNL     1       7.037  16.141  63.968  1.00  0.00     0.070 A 
HETATM   19  C25 UNL     1       8.195  16.919  64.106  1.00  0.00     0.039 A 
HETATM   20 CL3  UNL     1       7.007  14.869  62.772  1.00  0.00    -0.081 Cl
BRANCH  16  21
HETATM   21  O2  UNL     1       4.756  15.579  64.663  1.00  0.00    -0.340 OA
BRANCH  21  22
HETATM   22  C3  UNL     1       3.807  15.796  63.599  1.00  0.00     0.157 C 
BRANCH  22  23
HETATM   23  C2  UNL     1       3.330  14.484  63.061  1.00  0.00     0.199 C 
BRANCH  23  24
HETATM   24  O1  UNL     1       3.782  14.318  61.744  1.00  0.00    -0.393 OA
HETATM   25  C1  UNL     1       2.687  14.502  60.869  1.00  0.00     0.201 C 
ENDBRANCH  23  24
ENDBRANCH  22  23
BRANCH  22  26
HETATM   26  C27 UNL     1       2.656  16.648  64.109  1.00  0.00     0.017 A 
HETATM   27  C28 UNL     1       1.718  17.286  63.133  1.00  0.00     0.007 A 
HETATM   28  C29 UNL     1       2.631  18.118  63.990  1.00  0.00     0.007 A 
ENDBRANCH  22  26
ENDBRANCH  21  22
ENDBRANCH  16  21
ENDBRANCH   1  13
BRANCH   8  29
HETATM   29  C12 UNL     1      15.254  20.196  64.137  1.00  0.00     0.200 C 
BRANCH  29  30
HETATM   30  N3  UNL     1      15.577  21.374  63.404  1.00  0.00    -0.359 N 
BRANCH  30  31
HETATM   31  C13 UNL     1      15.944  22.553  64.107  1.00  0.00     0.032 A 
HETATM   32  C14 UNL     1      17.190  23.169  63.932  1.00  0.00     0.031 A 
HETATM   33  C15 UNL     1      17.590  24.292  64.596  1.00  0.00     0.026 A 
HETATM   34  C16 UNL     1      16.710  24.862  65.502  1.00  0.00     0.040 A 
HETATM   35 CL2  UNL     1      17.187  26.309  66.376  1.00  0.00    -0.084 Cl
HETATM   36  C17 UNL     1      15.477  24.319  65.726  1.00  0.00    -0.038 A 
HETATM   37  C18 UNL     1      14.490  24.890  66.686  1.00  0.00     0.050 C 
HETATM   38  C19 UNL     1      15.113  23.166  65.020  1.00  0.00     0.037 A 
ENDBRANCH  30  31
BRANCH  30  39
HETATM   39  C20 UNL     1      15.582  21.292  61.967  1.00  0.00     0.182 C 
HETATM   40  C21 UNL     1      16.042  19.889  61.519  1.00  0.00     0.044 C 
BRANCH  39  41
HETATM   41  C22 UNL     1      14.321  21.550  61.281  1.00  0.00     0.196 C 
HETATM   42  O3  UNL     1      14.397  21.916  60.071  1.00  0.00    -0.646 OA
HETATM   43  O4  UNL     1      13.076  21.432  61.827  1.00  0.00    -0.646 OA
ENDBRANCH  39  41
ENDBRANCH  30  39
ENDBRANCH  29  30
ENDBRANCH   8  29
TORSDOF 11
ENDMDL
MODEL 5
REMARK VINA RESULT: -9.127963382      3.360      5.532
REMARK  11 active torsions:
REMARK  status: ('A' for Active; 'I' for Inactive)
REMARK    1  A    between atoms: O1_2  and  C2_3 
REMARK    2  A    between atoms: C2_3  and  C3_4 
REMARK    3  A    between atoms: C3_4  and  O2_5 
REMARK    4  A    between atoms: C3_4  and  C27_41 
REMARK    5  A    between atoms: O2_5  and  C4_6 
REMARK    6  A    between atoms: C7_10  and  C8_11 
REMARK    7  A    between atoms: C11_18  and  C12_19 
REMARK    8  A    between atoms: C12_19  and  N3_20 
REMARK    9  A    between atoms: N3_20  and  C13_21 
REMARK   10  A    between atoms: N3_20  and  C20_29 
REMARK   11  A    between atoms: C20_29  and  C22_31 
ROOT
HETATM    1  C8  UNL     1       9.565  18.625  65.124  1.00  0.00    -0.008 A 
HETATM    2  C9  UNL     1       9.593  19.721  65.956  1.00  0.00     0.102 A 
HETATM    3  N1  UNL     1      10.727  20.454  66.081  1.00  0.00    -0.350 N 
ATOM      4  H1  UNL     1      10.719  21.262  66.704  1.00  0.00     0.166 HD
HETATM    5  C10 UNL     1      11.864  20.162  65.420  1.00  0.00     0.133 A 
HETATM    6  N2  UNL     1      13.094  20.711  65.368  1.00  0.00    -0.329 N 
ATOM      7  H2  UNL     1      13.382  21.538  65.891  1.00  0.00     0.168 HD
HETATM    8  C11 UNL     1      13.887  20.022  64.534  1.00  0.00     0.101 A 
HETATM    9  N4  UNL     1      13.106  19.008  64.057  1.00  0.00    -0.341 N 
ATOM     10  H4  UNL     1      13.414  18.297  63.393  1.00  0.00     0.167 HD
HETATM   11  C23 UNL     1      11.892  19.080  64.579  1.00  0.00     0.079 A 
HETATM   12  C24 UNL     1      10.721  18.316  64.442  1.00  0.00     0.047 A 
ENDROOT
BRANCH   1  13
HETATM   13  C7  UNL     1       8.347  17.823  64.977  1.00  0.00    -0.021 A 
HETATM   14  C6  UNL     1       8.231  16.830  64.049  1.00  0.00     0.039 A 
HETATM   15  C5  UNL     1       7.058  16.074  63.929  1.00  0.00     0.070 A 
HETATM   16  C4  UNL     1       5.954  16.271  64.729  1.00  0.00     0.112 A 
HETATM   17 CL1  UNL     1       7.000  14.876  62.629  1.00  0.00    -0.081 Cl
HETATM   18  C26 UNL     1       6.096  17.291  65.666  1.00  0.00     0.070 A 
HETATM   19  C25 UNL     1       7.271  18.046  65.784  1.00  0.00     0.039 A 
HETATM   20 CL3  UNL     1       4.738  17.669  66.698  1.00  0.00    -0.081 Cl
BRANCH  16  21
HETATM   21  O2  UNL     1       4.815  15.501  64.591  1.00  0.00    -0.340 OA
BRANCH  21  22
HETATM   22  C3  UNL     1       3.859  15.726  63.534  1.00  0.00     0.157 C 
BRANCH  22  23
HETATM   23  C2  UNL     1       3.398  14.418  62.971  1.00  0.00     0.199 C 
BRANCH  23  24
HETATM   24  O1  UNL     1       3.664  14.374  61.596  1.00  0.00    -0.393 OA
HETATM   25  C1  UNL     1       2.469  14.034  60.921  1.00  0.00     0.201 C 
ENDBRANCH  23  24
ENDBRANCH  22  23
BRANCH  22  26
HETATM   26  C27 UNL     1       2.698  16.551  64.065  1.00  0.00     0.017 A 
HETATM   27  C28 UNL     1       1.646  17.042  63.121  1.00  0.00     0.007 A 
HETATM   28  C29 UNL     1       2.567  18.001  63.825  1.00  0.00     0.007 A 
ENDBRANCH  22  26
ENDBRANCH  21  22
ENDBRANCH  16  21
ENDBRANCH   1  13
BRANCH   8  29
HETATM   29  C12 UNL     1      15.296  20.191  64.132  1.00  0.00     0.200 C 
BRANCH  29  30
HETATM   30  N3  UNL     1      15.603  21.378  63.405  1.00  0.00    -0.359 N 
BRANCH  30  31
HETATM   31  C13 UNL     1      15.957  22.556  64.114  1.00  0.00     0.032 A 
HETATM   32  C14 UNL     1      17.185  23.201  63.923  1.00  0.00     0.031 A 
HETATM   33  C15 UNL     1      17.573  24.326  64.591  1.00  0.00     0.026 A 
HETATM   34  C16 UNL     1      16.699  24.867  65.520  1.00  0.00     0.040 A 
HETATM   35 CL2  UNL     1      17.161  26.314  66.401  1.00  0.00    -0.084 Cl
HETATM   36  C17 UNL     1      15.482  24.295  65.762  1.00  0.00    -0.038 A 
HETATM   37  C18 UNL     1      14.501  24.833  66.746  1.00  0.00     0.050 C 
HETATM   38  C19 UNL     1      15.130  23.141  65.049  1.00  0.00     0.037 A 
ENDBRANCH  30  31
BRANCH  30  39
HETATM   39  C20 UNL     1      15.603  21.304  61.968  1.00  0.00     0.182 C 
HETATM   40  C21 UNL     1      16.066  19.905  61.510  1.00  0.00     0.044 C 
BRANCH  39  41
HETATM   41  C22 UNL     1      14.340  21.563  61.287  1.00  0.00     0.196 C 
HETATM   42  O3  UNL     1      14.410  21.879  60.062  1.00  0.00    -0.646 OA
HETATM   43  O4  UNL     1      13.099  21.496  61.851  1.00  0.00    -0.646 OA
ENDBRANCH  39  41
ENDBRANCH  30  39
ENDBRANCH  29  30
ENDBRANCH   8  29
TORSDOF 11
ENDMDL
