MODEL 1
REMARK VINA RESULT: -8.226461752      0.000      0.000
REMARK  11 active torsions:
REMARK  status: ('A' for Active; 'I' for Inactive)
REMARK    1  A    between atoms: O1_2  and  C2_3 
REMARK    2  A    between atoms: C7_10  and  N2_11 
REMARK    3  A    between atoms: N2_11  and  C8_13 
REMARK    4  A    between atoms: C8_13  and  C9_14 
REMARK    5  A    between atoms: C9_14  and  N3_15 
REMARK    6  A    between atoms: N4_25  and  C18_27 
REMARK    7  A    between atoms: C27_38  and  O2_39 
REMARK    8  A    between atoms: O2_39  and  C28_40 
REMARK    9  A    between atoms: C28_40  and  C29_41 
REMARK   10  A    between atoms: C29_41  and  C30_42 
REMARK   11  A    between atoms: C30_42  and  N5_43 
ROOT
HETATM    1  C2  UNL     1      11.409  18.256  62.950  1.00  0.00     0.103 A 
HETATM    2  C3  UNL     1      10.483  17.563  62.212  1.00  0.00     0.070 A 
HETATM    3  C4  UNL     1       9.302  17.140  62.809  1.00  0.00     0.048 A 
HETATM    4  N1  UNL     1       8.401  16.464  62.080  1.00  0.00    -0.355 N 
ATOM      5  H1  UNL     1       8.598  16.270  61.097  1.00  0.00     0.166 HD
HETATM    6  C5  UNL     1       7.238  16.035  62.619  1.00  0.00     0.047 A 
HETATM    7  C6  UNL     1       6.332  15.335  61.816  1.00  0.00     0.062 A 
HETATM    8  C7  UNL     1       5.161  14.915  62.395  1.00  0.00     0.069 A 
HETATM    9  C14 UNL     1       4.896  15.181  63.739  1.00  0.00     0.143 A 
HETATM   10  F1  UNL     1       3.721  14.730  64.228  1.00  0.00    -0.204 F 
HETATM   11  C15 UNL     1       5.812  15.876  64.508  1.00  0.00     0.060 A 
HETATM   12  C16 UNL     1       7.009  16.317  63.951  1.00  0.00     0.021 A 
HETATM   13  C17 UNL     1       7.909  17.015  64.756  1.00  0.00     0.058 A 
HETATM   14  N4  UNL     1       7.742  17.282  65.931  1.00  0.00    -0.354 N 
ATOM     15  H4  UNL     1       8.608  17.784  66.132  1.00  0.00     0.166 HD
HETATM   16  C25 UNL     1       9.110  17.432  64.108  1.00  0.00     0.021 A 
HETATM   17  C26 UNL     1      10.042  18.136  64.876  1.00  0.00     0.055 A 
HETATM   18  C27 UNL     1      11.215  18.563  64.306  1.00  0.00     0.103 A 
ENDROOT
BRANCH  14  19
HETATM   19  C18 UNL     1       7.153  17.336  67.118  1.00  0.00     0.042 A 
HETATM   20  C19 UNL     1       7.748  16.691  68.227  1.00  0.00     0.054 A 
HETATM   21  C20 UNL     1       7.151  16.752  69.440  1.00  0.00     0.037 A 
HETATM   22 CL1  UNL     1       7.880  15.956  70.829  1.00  0.00    -0.084 Cl
HETATM   23  C21 UNL     1       5.970  17.431  69.626  1.00  0.00     0.048 A 
HETATM   24  C22 UNL     1       5.373  18.063  68.570  1.00  0.00     0.043 A 
HETATM   25 CL2  UNL     1       3.855  18.921  68.868  1.00  0.00    -0.084 Cl
HETATM   26  C23 UNL     1       5.949  18.020  67.339  1.00  0.00    -0.013 A 
HETATM   27  C24 UNL     1       5.311  18.702  66.186  1.00  0.00     0.052 C 
ENDBRANCH  14  19
BRANCH  18  28
HETATM   28  O2  UNL     1      12.155  19.249  64.988  1.00  0.00    -0.348 OA
BRANCH  28  29
HETATM   29  C28 UNL     1      12.197  20.415  65.691  1.00  0.00     0.177 C 
BRANCH  29  30
HETATM   30  C29 UNL     1      13.122  21.486  65.179  1.00  0.00     0.057 C 
BRANCH  30  31
HETATM   31  C30 UNL     1      14.223  21.741  66.213  1.00  0.00     0.273 C 
BRANCH  31  32
HETATM   32  N5  UNL     1      14.888  22.972  65.822  1.00  0.00     0.080 N 
HETATM   33  C31 UNL     1      14.455  23.390  64.492  1.00  0.00     0.309 C 
HETATM   34  C32 UNL     1      14.622  24.030  66.789  1.00  0.00     0.309 C 
ENDBRANCH  31  32
ENDBRANCH  30  31
ENDBRANCH  29  30
ENDBRANCH  28  29
ENDBRANCH  18  28
BRANCH   8  35
HETATM   35  N2  UNL     1       4.219  14.176  61.622  1.00  0.00    -0.386 N 
ATOM     36  H2  UNL     1       4.273  13.157  61.596  1.00  0.00     0.159 HD
BRANCH  35  37
HETATM   37  C8  UNL     1       3.191  14.857  60.878  1.00  0.00     0.140 C 
BRANCH  37  38
HETATM   38  C9  UNL     1       1.804  14.626  61.376  1.00  0.00     0.147 C 
BRANCH  38  39
HETATM   39  N3  UNL     1       1.402  15.571  62.388  1.00  0.00    -0.365 N 
HETATM   40  C10 UNL     1       1.796  16.853  62.538  1.00  0.00     0.090 A 
HETATM   41  C11 UNL     1       1.152  17.359  63.639  1.00  0.00     0.019 A 
HETATM   42  C12 UNL     1       0.343  16.373  64.182  1.00  0.00     0.019 A 
HETATM   43  C13 UNL     1       0.529  15.271  63.370  1.00  0.00     0.090 A 
ENDBRANCH  38  39
ENDBRANCH  37  38
ENDBRANCH  35  37
ENDBRANCH   8  35
BRANCH   1  44
HETATM   44  O1  UNL     1      12.600  18.679  62.340  1.00  0.00    -0.353 OA
HETATM   45  C1  UNL     1      12.759  20.016  61.952  1.00  0.00     0.210 C 
ENDBRANCH   1  44
TORSDOF 11
ENDMDL
MODEL 2
REMARK VINA RESULT: -8.058218462      1.315      2.157
REMARK  11 active torsions:
REMARK  status: ('A' for Active; 'I' for Inactive)
REMARK    1  A    between atoms: O1_2  and  C2_3 
REMARK    2  A    between atoms: C7_10  and  N2_11 
REMARK    3  A    between atoms: N2_11  and  C8_13 
REMARK    4  A    between atoms: C8_13  and  C9_14 
REMARK    5  A    between atoms: C9_14  and  N3_15 
REMARK    6  A    between atoms: N4_25  and  C18_27 
REMARK    7  A    between atoms: C27_38  and  O2_39 
REMARK    8  A    between atoms: O2_39  and  C28_40 
REMARK    9  A    between atoms: C28_40  and  C29_41 
REMARK   10  A    between atoms: C29_41  and  C30_42 
REMARK   11  A    between atoms: C30_42  and  N5_43 
ROOT
HETATM    1  C2  UNL     1      10.702  17.791  63.885  1.00  0.00     0.103 A 
HETATM    2  C3  UNL     1       9.927  16.969  63.108  1.00  0.00     0.070 A 
HETATM    3  C4  UNL     1       8.610  16.716  63.471  1.00  0.00     0.048 A 
HETATM    4  N1  UNL     1       7.858  15.912  62.705  1.00  0.00    -0.355 N 
ATOM      5  H1  UNL     1       8.266  15.496  61.866  1.00  0.00     0.166 HD
HETATM    6  C5  UNL     1       6.571  15.641  63.019  1.00  0.00     0.047 A 
HETATM    7  C6  UNL     1       5.830  14.796  62.187  1.00  0.00     0.062 A 
HETATM    8  C7  UNL     1       4.528  14.542  62.536  1.00  0.00     0.069 A 
HETATM    9  C14 UNL     1       3.974  15.111  63.683  1.00  0.00     0.143 A 
HETATM   10  F1  UNL     1       2.686  14.807  63.952  1.00  0.00    -0.204 F 
HETATM   11  C15 UNL     1       4.732  15.943  64.486  1.00  0.00     0.060 A 
HETATM   12  C16 UNL     1       6.057  16.222  64.161  1.00  0.00     0.021 A 
HETATM   13  C17 UNL     1       6.792  17.065  64.994  1.00  0.00     0.058 A 
HETATM   14  N4  UNL     1       6.373  17.594  66.007  1.00  0.00    -0.354 N 
ATOM     15  H4  UNL     1       7.202  18.110  66.302  1.00  0.00     0.166 HD
HETATM   16  C25 UNL     1       8.140  17.299  64.588  1.00  0.00     0.021 A 
HETATM   17  C26 UNL     1       8.915  18.139  65.393  1.00  0.00     0.055 A 
HETATM   18  C27 UNL     1      10.218  18.401  65.052  1.00  0.00     0.103 A 
ENDROOT
BRANCH  14  19
HETATM   19  C18 UNL     1       5.526  17.928  66.971  1.00  0.00     0.042 A 
HETATM   20  C19 UNL     1       4.295  18.540  66.641  1.00  0.00     0.054 A 
HETATM   21  C20 UNL     1       3.427  18.876  67.624  1.00  0.00     0.037 A 
HETATM   22 CL1  UNL     1       1.891  19.637  67.230  1.00  0.00    -0.084 Cl
HETATM   23  C21 UNL     1       3.711  18.635  68.947  1.00  0.00     0.048 A 
HETATM   24  C22 UNL     1       4.895  18.043  69.293  1.00  0.00     0.043 A 
HETATM   25 CL2  UNL     1       5.208  17.757  71.011  1.00  0.00    -0.084 Cl
HETATM   26  C23 UNL     1       5.789  17.695  68.328  1.00  0.00    -0.013 A 
HETATM   27  C24 UNL     1       7.076  17.054  68.691  1.00  0.00     0.052 C 
ENDBRANCH  14  19
BRANCH  18  28
HETATM   28  O2  UNL     1      11.020  19.204  65.782  1.00  0.00    -0.348 OA
BRANCH  28  29
HETATM   29  C28 UNL     1      11.311  20.534  65.805  1.00  0.00     0.177 C 
BRANCH  29  30
HETATM   30  C29 UNL     1      12.464  20.995  64.955  1.00  0.00     0.057 C 
BRANCH  30  31
HETATM   31  C30 UNL     1      13.591  21.500  65.862  1.00  0.00     0.273 C 
BRANCH  31  32
HETATM   32  N5  UNL     1      14.785  21.586  65.037  1.00  0.00     0.080 N 
HETATM   33  C31 UNL     1      14.968  20.359  64.269  1.00  0.00     0.309 C 
HETATM   34  C32 UNL     1      14.709  22.731  64.139  1.00  0.00     0.309 C 
ENDBRANCH  31  32
ENDBRANCH  30  31
ENDBRANCH  29  30
ENDBRANCH  28  29
ENDBRANCH  18  28
BRANCH   8  35
HETATM   35  N2  UNL     1       3.741  13.667  61.731  1.00  0.00    -0.386 N 
ATOM     36  H2  UNL     1       3.788  12.659  61.884  1.00  0.00     0.159 HD
BRANCH  35  37
HETATM   37  C8  UNL     1       2.880  14.196  60.704  1.00  0.00     0.140 C 
BRANCH  37  38
HETATM   38  C9  UNL     1       1.432  13.888  60.885  1.00  0.00     0.147 C 
BRANCH  38  39
HETATM   39  N3  UNL     1       0.729  14.904  61.630  1.00  0.00    -0.365 N 
HETATM   40  C10 UNL     1       0.923  16.239  61.612  1.00  0.00     0.090 A 
HETATM   41  C11 UNL     1       0.022  16.801  62.481  1.00  0.00     0.019 A 
HETATM   42  C12 UNL     1      -0.747  15.797  63.047  1.00  0.00     0.019 A 
HETATM   43  C13 UNL     1      -0.273  14.625  62.488  1.00  0.00     0.090 A 
ENDBRANCH  38  39
ENDBRANCH  37  38
ENDBRANCH  35  37
ENDBRANCH   8  35
BRANCH   1  44
HETATM   44  O1  UNL     1      12.032  18.040  63.512  1.00  0.00    -0.353 OA
HETATM   45  C1  UNL     1      12.340  18.406  62.195  1.00  0.00     0.210 C 
ENDBRANCH   1  44
TORSDOF 11
ENDMDL
MODEL 3
REMARK VINA RESULT: -7.824518449      2.470      3.565
REMARK  11 active torsions:
REMARK  status: ('A' for Active; 'I' for Inactive)
REMARK    1  A    between atoms: O1_2  and  C2_3 
REMARK    2  A    between atoms: C7_10  and  N2_11 
REMARK    3  A    between atoms: N2_11  and  C8_13 
REMARK    4  A    between atoms: C8_13  and  C9_14 
REMARK    5  A    between atoms: C9_14  and  N3_15 
REMARK    6  A    between atoms: N4_25  and  C18_27 
REMARK    7  A    between atoms: C27_38  and  O2_39 
REMARK    8  A    between atoms: O2_39  and  C28_40 
REMARK    9  A    between atoms: C28_40  and  C29_41 
REMARK   10  A    between atoms: C29_41  and  C30_42 
REMARK   11  A    between atoms: C30_42  and  N5_43 
ROOT
HETATM    1  C2  UNL     1      10.425  17.598  63.945  1.00  0.00     0.103 A 
HETATM    2  C3  UNL     1       9.652  16.756  63.186  1.00  0.00     0.070 A 
HETATM    3  C4  UNL     1       8.325  16.538  63.533  1.00  0.00     0.048 A 
HETATM    4  N1  UNL     1       7.576  15.714  62.785  1.00  0.00    -0.355 N 
ATOM      5  H1  UNL     1       7.993  15.259  61.972  1.00  0.00     0.166 HD
HETATM    6  C5  UNL     1       6.279  15.475  63.084  1.00  0.00     0.047 A 
HETATM    7  C6  UNL     1       5.541  14.608  62.272  1.00  0.00     0.062 A 
HETATM    8  C7  UNL     1       4.229  14.388  62.605  1.00  0.00     0.069 A 
HETATM    9  C14 UNL     1       3.661  15.011  63.717  1.00  0.00     0.143 A 
HETATM   10  F1  UNL     1       2.364  14.737  63.972  1.00  0.00    -0.204 F 
HETATM   11  C15 UNL     1       4.417  15.864  64.501  1.00  0.00     0.060 A 
HETATM   12  C16 UNL     1       5.752  16.109  64.191  1.00  0.00     0.021 A 
HETATM   13  C17 UNL     1       6.483  16.975  65.004  1.00  0.00     0.058 A 
HETATM   14  N4  UNL     1       6.053  17.551  65.986  1.00  0.00    -0.354 N 
ATOM     15  H4  UNL     1       6.885  18.067  66.276  1.00  0.00     0.166 HD
HETATM   16  C25 UNL     1       7.842  17.172  64.616  1.00  0.00     0.021 A 
HETATM   17  C26 UNL     1       8.615  18.034  65.401  1.00  0.00     0.055 A 
HETATM   18  C27 UNL     1       9.928  18.262  65.077  1.00  0.00     0.103 A 
ENDROOT
BRANCH  14  19
HETATM   19  C18 UNL     1       5.193  17.937  66.918  1.00  0.00     0.042 A 
HETATM   20  C19 UNL     1       3.962  18.520  66.538  1.00  0.00     0.054 A 
HETATM   21  C20 UNL     1       3.080  18.908  67.489  1.00  0.00     0.037 A 
HETATM   22 CL1  UNL     1       1.545  19.634  67.033  1.00  0.00    -0.084 Cl
HETATM   23  C21 UNL     1       3.351  18.748  68.828  1.00  0.00     0.048 A 
HETATM   24  C22 UNL     1       4.534  18.186  69.222  1.00  0.00     0.043 A 
HETATM   25 CL2  UNL     1       4.828  18.005  70.958  1.00  0.00    -0.084 Cl
HETATM   26  C23 UNL     1       5.441  17.787  68.290  1.00  0.00    -0.013 A 
HETATM   27  C24 UNL     1       6.727  17.177  68.706  1.00  0.00     0.052 C 
ENDBRANCH  14  19
BRANCH  18  28
HETATM   28  O2  UNL     1      10.727  19.083  65.789  1.00  0.00    -0.348 OA
BRANCH  28  29
HETATM   29  C28 UNL     1      11.007  20.415  65.791  1.00  0.00     0.177 C 
BRANCH  29  30
HETATM   30  C29 UNL     1      12.399  20.820  65.386  1.00  0.00     0.057 C 
BRANCH  30  31
HETATM   31  C30 UNL     1      12.367  21.385  63.962  1.00  0.00     0.273 C 
BRANCH  31  32
HETATM   32  N5  UNL     1      13.744  21.434  63.500  1.00  0.00     0.080 N 
HETATM   33  C31 UNL     1      14.536  20.384  64.132  1.00  0.00     0.309 C 
HETATM   34  C32 UNL     1      13.805  21.302  62.050  1.00  0.00     0.309 C 
ENDBRANCH  31  32
ENDBRANCH  30  31
ENDBRANCH  29  30
ENDBRANCH  28  29
ENDBRANCH  18  28
BRANCH   8  35
HETATM   35  N2  UNL     1       3.444  13.492  61.821  1.00  0.00    -0.386 N 
ATOM     36  H2  UNL     1       2.823  13.862  61.100  1.00  0.00     0.159 HD
BRANCH  35  37
HETATM   37  C8  UNL     1       3.521  12.071  62.039  1.00  0.00     0.140 C 
BRANCH  37  38
HETATM   38  C9  UNL     1       2.589  11.548  63.080  1.00  0.00     0.147 C 
BRANCH  38  39
HETATM   39  N3  UNL     1       3.215  10.607  63.976  1.00  0.00    -0.365 N 
HETATM   40  C10 UNL     1       4.194   9.719  63.706  1.00  0.00     0.090 A 
HETATM   41  C11 UNL     1       4.469   9.038  64.865  1.00  0.00     0.019 A 
HETATM   42  C12 UNL     1       3.646   9.514  65.874  1.00  0.00     0.019 A 
HETATM   43  C13 UNL     1       2.877  10.494  65.277  1.00  0.00     0.090 A 
ENDBRANCH  38  39
ENDBRANCH  37  38
ENDBRANCH  35  37
ENDBRANCH   8  35
BRANCH   1  44
HETATM   44  O1  UNL     1      11.766  17.812  63.588  1.00  0.00    -0.353 OA
HETATM   45  C1  UNL     1      12.123  17.968  62.243  1.00  0.00     0.210 C 
ENDBRANCH   1  44
TORSDOF 11
ENDMDL
MODEL 4
REMARK VINA RESULT: -7.759826693      1.752      2.129
REMARK  11 active torsions:
REMARK  status: ('A' for Active; 'I' for Inactive)
REMARK    1  A    between atoms: O1_2  and  C2_3 
REMARK    2  A    between atoms: C7_10  and  N2_11 
REMARK    3  A    between atoms: N2_11  and  C8_13 
REMARK    4  A    between atoms: C8_13  and  C9_14 
REMARK    5  A    between atoms: C9_14  and  N3_15 
REMARK    6  A    between atoms: N4_25  and  C18_27 
REMARK    7  A    between atoms: C27_38  and  O2_39 
REMARK    8  A    between atoms: O2_39  and  C28_40 
REMARK    9  A    between atoms: C28_40  and  C29_41 
REMARK   10  A    between atoms: C29_41  and  C30_42 
REMARK   11  A    between atoms: C30_42  and  N5_43 
ROOT
HETATM    1  C2  UNL     1      10.306  17.610  63.925  1.00  0.00     0.103 A 
HETATM    2  C3  UNL     1       9.517  16.751  63.203  1.00  0.00     0.070 A 
HETATM    3  C4  UNL     1       8.195  16.548  63.579  1.00  0.00     0.048 A 
HETATM    4  N1  UNL     1       7.430  15.706  62.867  1.00  0.00    -0.355 N 
ATOM      5  H1  UNL     1       7.832  15.227  62.061  1.00  0.00     0.166 HD
HETATM    6  C5  UNL     1       6.138  15.480  63.196  1.00  0.00     0.047 A 
HETATM    7  C6  UNL     1       5.384  14.593  62.421  1.00  0.00     0.062 A 
HETATM    8  C7  UNL     1       4.076  14.387  62.782  1.00  0.00     0.069 A 
HETATM    9  C14 UNL     1       3.531  15.043  63.886  1.00  0.00     0.143 A 
HETATM   10  F1  UNL     1       2.237  14.782  64.172  1.00  0.00    -0.204 F 
HETATM   11  C15 UNL     1       4.303  15.915  64.633  1.00  0.00     0.060 A 
HETATM   12  C16 UNL     1       5.633  16.147  64.294  1.00  0.00     0.021 A 
HETATM   13  C17 UNL     1       6.381  17.031  65.070  1.00  0.00     0.058 A 
HETATM   14  N4  UNL     1       5.970  17.636  66.042  1.00  0.00    -0.354 N 
ATOM     15  H4  UNL     1       6.808  18.157  66.304  1.00  0.00     0.166 HD
HETATM   16  C25 UNL     1       7.734  17.213  64.653  1.00  0.00     0.021 A 
HETATM   17  C26 UNL     1       8.522  18.093  65.400  1.00  0.00     0.055 A 
HETATM   18  C27 UNL     1       9.831  18.308  65.046  1.00  0.00     0.103 A 
ENDROOT
BRANCH  14  19
HETATM   19  C18 UNL     1       5.128  18.051  66.979  1.00  0.00     0.042 A 
HETATM   20  C19 UNL     1       5.365  17.716  68.332  1.00  0.00     0.054 A 
HETATM   21  C20 UNL     1       4.510  18.144  69.290  1.00  0.00     0.037 A 
HETATM   22 CL1  UNL     1       4.791  17.737  70.977  1.00  0.00    -0.084 Cl
HETATM   23  C21 UNL     1       3.406  18.904  68.980  1.00  0.00     0.048 A 
HETATM   24  C22 UNL     1       3.154  19.241  67.679  1.00  0.00     0.043 A 
HETATM   25 CL2  UNL     1       1.719  20.220  67.339  1.00  0.00    -0.084 Cl
HETATM   26  C23 UNL     1       3.995  18.825  66.694  1.00  0.00    -0.013 A 
HETATM   27  C24 UNL     1       3.731  19.185  65.279  1.00  0.00     0.052 C 
ENDBRANCH  14  19
BRANCH  18  28
HETATM   28  O2  UNL     1      10.645  19.144  65.721  1.00  0.00    -0.348 OA
BRANCH  28  29
HETATM   29  C28 UNL     1      10.925  20.477  65.687  1.00  0.00     0.177 C 
BRANCH  29  30
HETATM   30  C29 UNL     1      12.328  20.869  65.312  1.00  0.00     0.057 C 
BRANCH  30  31
HETATM   31  C30 UNL     1      12.330  21.444  63.891  1.00  0.00     0.273 C 
BRANCH  31  32
HETATM   32  N5  UNL     1      13.712  21.445  63.442  1.00  0.00     0.080 N 
HETATM   33  C31 UNL     1      14.466  20.380  64.097  1.00  0.00     0.309 C 
HETATM   34  C32 UNL     1      13.783  21.289  61.995  1.00  0.00     0.309 C 
ENDBRANCH  31  32
ENDBRANCH  30  31
ENDBRANCH  29  30
ENDBRANCH  28  29
ENDBRANCH  18  28
BRANCH   8  35
HETATM   35  N2  UNL     1       3.275  13.474  62.037  1.00  0.00    -0.386 N 
ATOM     36  H2  UNL     1       3.110  12.534  62.399  1.00  0.00     0.159 HD
BRANCH  35  37
HETATM   37  C8  UNL     1       2.698  13.868  60.778  1.00  0.00     0.140 C 
BRANCH  37  38
HETATM   38  C9  UNL     1       1.206  13.861  60.747  1.00  0.00     0.147 C 
BRANCH  38  39
HETATM   39  N3  UNL     1       0.621  14.932  61.515  1.00  0.00    -0.365 N 
HETATM   40  C10 UNL     1       0.965  16.237  61.527  1.00  0.00     0.090 A 
HETATM   41  C11 UNL     1       0.132  16.878  62.409  1.00  0.00     0.019 A 
HETATM   42  C12 UNL     1      -0.747  15.954  62.954  1.00  0.00     0.019 A 
HETATM   43  C13 UNL     1      -0.407  14.749  62.368  1.00  0.00     0.090 A 
ENDBRANCH  38  39
ENDBRANCH  37  38
ENDBRANCH  35  37
ENDBRANCH   8  35
BRANCH   1  44
HETATM   44  O1  UNL     1      11.640  17.810  63.539  1.00  0.00    -0.353 OA
HETATM   45  C1  UNL     1      11.958  18.068  62.199  1.00  0.00     0.210 C 
ENDBRANCH   1  44
TORSDOF 11
ENDMDL
MODEL 5
REMARK VINA RESULT: -7.736251394      0.850      1.160
REMARK  11 active torsions:
REMARK  status: ('A' for Active; 'I' for Inactive)
REMARK    1  A    between atoms: O1_2  and  C2_3 
REMARK    2  A    between atoms: C7_10  and  N2_11 
REMARK    3  A    between atoms: N2_11  and  C8_13 
REMARK    4  A    between atoms: C8_13  and  C9_14 
REMARK    5  A    between atoms: C9_14  and  N3_15 
REMARK    6  A    between atoms: N4_25  and  C18_27 
REMARK    7  A    between atoms: C27_38  and  O2_39 
REMARK    8  A    between atoms: O2_39  and  C28_40 
REMARK    9  A    between atoms: C28_40  and  C29_41 
REMARK   10  A    between atoms: C29_41  and  C30_42 
REMARK   11  A    between atoms: C30_42  and  N5_43 
ROOT
HETATM    1  C2  UNL     1      11.102  18.270  62.848  1.00  0.00     0.103 A 
HETATM    2  C3  UNL     1      10.165  17.553  62.147  1.00  0.00     0.070 A 
HETATM    3  C4  UNL     1       9.006  17.126  62.782  1.00  0.00     0.048 A 
HETATM    4  N1  UNL     1       8.095  16.427  62.088  1.00  0.00    -0.355 N 
ATOM      5  H1  UNL     1       8.268  16.218  61.105  1.00  0.00     0.166 HD
HETATM    6  C5  UNL     1       6.952  15.992  62.665  1.00  0.00     0.047 A 
HETATM    7  C6  UNL     1       6.034  15.267  61.898  1.00  0.00     0.062 A 
HETATM    8  C7  UNL     1       4.885  14.842  62.516  1.00  0.00     0.069 A 
HETATM    9  C14 UNL     1       4.652  15.128  63.861  1.00  0.00     0.143 A 
HETATM   10  F1  UNL     1       3.496  14.672  64.389  1.00  0.00    -0.204 F 
HETATM   11  C15 UNL     1       5.578  15.848  64.593  1.00  0.00     0.060 A 
HETATM   12  C16 UNL     1       6.755  16.294  63.998  1.00  0.00     0.021 A 
HETATM   13  C17 UNL     1       7.667  17.017  64.767  1.00  0.00     0.058 A 
HETATM   14  N4  UNL     1       7.528  17.302  65.942  1.00  0.00    -0.354 N 
ATOM     15  H4  UNL     1       8.392  17.818  66.111  1.00  0.00     0.166 HD
HETATM   16  C25 UNL     1       8.845  17.437  64.080  1.00  0.00     0.021 A 
HETATM   17  C26 UNL     1       9.788  18.167  64.811  1.00  0.00     0.055 A 
HETATM   18  C27 UNL     1      10.940  18.598  64.203  1.00  0.00     0.103 A 
ENDROOT
BRANCH  14  19
HETATM   19  C18 UNL     1       6.969  17.369  67.142  1.00  0.00     0.042 A 
HETATM   20  C19 UNL     1       7.599  16.747  68.245  1.00  0.00     0.054 A 
HETATM   21  C20 UNL     1       7.033  16.821  69.472  1.00  0.00     0.037 A 
HETATM   22 CL1  UNL     1       7.805  16.053  70.853  1.00  0.00    -0.084 Cl
HETATM   23  C21 UNL     1       5.851  17.492  69.679  1.00  0.00     0.048 A 
HETATM   24  C22 UNL     1       5.221  18.103  68.630  1.00  0.00     0.043 A 
HETATM   25 CL2  UNL     1       3.703  18.952  68.955  1.00  0.00    -0.084 Cl
HETATM   26  C23 UNL     1       5.765  18.046  67.384  1.00  0.00    -0.013 A 
HETATM   27  C24 UNL     1       5.091  18.704  66.239  1.00  0.00     0.052 C 
ENDBRANCH  14  19
BRANCH  18  28
HETATM   28  O2  UNL     1      11.888  19.307  64.848  1.00  0.00    -0.348 OA
BRANCH  28  29
HETATM   29  C28 UNL     1      11.914  20.427  65.623  1.00  0.00     0.177 C 
BRANCH  29  30
HETATM   30  C29 UNL     1      13.138  21.297  65.521  1.00  0.00     0.057 C 
BRANCH  30  31
HETATM   31  C30 UNL     1      13.571  21.392  64.055  1.00  0.00     0.273 C 
BRANCH  31  32
HETATM   32  N5  UNL     1      14.989  21.078  64.015  1.00  0.00     0.080 N 
HETATM   33  C31 UNL     1      15.340  20.442  62.749  1.00  0.00     0.309 C 
HETATM   34  C32 UNL     1      15.788  22.282  64.209  1.00  0.00     0.309 C 
ENDBRANCH  31  32
ENDBRANCH  30  31
ENDBRANCH  29  30
ENDBRANCH  28  29
ENDBRANCH  18  28
BRANCH   8  35
HETATM   35  N2  UNL     1       3.932  14.079  61.781  1.00  0.00    -0.386 N 
ATOM     36  H2  UNL     1       3.860  13.073  61.937  1.00  0.00     0.159 HD
BRANCH  35  37
HETATM   37  C8  UNL     1       3.070  14.717  60.819  1.00  0.00     0.140 C 
BRANCH  37  38
HETATM   38  C9  UNL     1       1.619  14.682  61.162  1.00  0.00     0.147 C 
BRANCH  38  39
HETATM   39  N3  UNL     1       1.284  15.527  62.282  1.00  0.00    -0.365 N 
HETATM   40  C10 UNL     1       0.550  15.221  63.371  1.00  0.00     0.090 A 
HETATM   41  C11 UNL     1       0.498  16.338  64.166  1.00  0.00     0.019 A 
HETATM   42  C12 UNL     1       1.216  17.357  63.559  1.00  0.00     0.019 A 
HETATM   43  C13 UNL     1       1.691  16.809  62.383  1.00  0.00     0.090 A 
ENDBRANCH  38  39
ENDBRANCH  37  38
ENDBRANCH  35  37
ENDBRANCH   8  35
BRANCH   1  44
HETATM   44  O1  UNL     1      12.271  18.697  62.200  1.00  0.00    -0.353 OA
HETATM   45  C1  UNL     1      12.896  17.874  61.254  1.00  0.00     0.210 C 
ENDBRANCH   1  44
TORSDOF 11
ENDMDL
