MODEL 1
REMARK VINA RESULT: -9.559140014      0.000      0.000
REMARK  12 active torsions:
REMARK  status: ('A' for Active; 'I' for Inactive)
REMARK    1  A    between atoms: C1_2  and  C2_4 
REMARK    2  A    between atoms: C2_4  and  C3_5 
REMARK    3  A    between atoms: C3_5  and  N1_6 
REMARK    4  A    between atoms: N2_9  and  C6_10 
REMARK    5  A    between atoms: C6_10  and  C7_11 
REMARK    6  A    between atoms: C7_11  and  C8_12 
REMARK       I    between atoms: C8_12  and  N3_14 
REMARK    7  A    between atoms: N3_14  and  C9_16 
REMARK    8  A    between atoms: C13_20  and  C14_21 
REMARK    9  A    between atoms: C14_21  and  N4_22 
REMARK   10  A    between atoms: N7_34  and  C22_35 
REMARK   11  A    between atoms: C22_35  and  C23_36 
REMARK   12  A    between atoms: C23_36  and  N8_37 
ROOT
HETATM    1  C9  UNL     1      14.823  21.522  15.325  1.00  0.00     0.104 A 
HETATM    2  C10 UNL     1      15.557  22.530  14.754  1.00  0.00     0.050 A 
HETATM    3  C11 UNL     1      16.791  22.929  15.272  1.00  0.00     0.014 A 
HETATM    4  C12 UNL     1      17.529  23.941  14.698  1.00  0.00     0.043 A 
HETATM    5  C13 UNL     1      18.736  24.281  15.261  1.00  0.00     0.055 A 
HETATM    6  N5  UNL     1      19.140  23.605  16.349  1.00  0.00    -0.301 N 
ATOM      7  H5  UNL     1      20.036  23.854  16.768  1.00  0.00     0.186 HD
HETATM    8  N6  UNL     1      18.437  22.635  16.902  1.00  0.00    -0.284 N 
ATOM      9  H6  UNL     1      18.798  22.160  17.730  1.00  0.00     0.188 HD
HETATM   10  C21 UNL     1      17.242  22.261  16.387  1.00  0.00     0.135 A 
HETATM   11  N7  UNL     1      16.573  21.280  16.978  1.00  0.00    -0.295 N 
HETATM   12  C30 UNL     1      15.395  20.919  16.463  1.00  0.00     0.276 A 
HETATM   13  O4  UNL     1      14.699  19.984  16.979  1.00  0.00    -0.265 OA
ENDROOT
BRANCH   1  14
HETATM   14  N3  UNL     1      13.598  21.087  14.827  1.00  0.00    -0.323 N 
HETATM   15  C8  UNL     1      13.343  20.120  13.851  1.00  0.00     0.224 C 
HETATM   16  O3  UNL     1      14.266  19.507  13.280  1.00  0.00    -0.273 OA
ATOM     17  H3  UNL     1      12.775  21.536  15.229  1.00  0.00     0.169 HD
BRANCH  15  18
HETATM   18  C7  UNL     1      11.931  19.771  13.440  1.00  0.00     0.133 C 
BRANCH  18  19
HETATM   19  C6  UNL     1      10.946  20.421  14.365  1.00  0.00     0.281 C 
BRANCH  19  20
HETATM   20  N2  UNL     1      10.157  19.526  15.150  1.00  0.00     0.092 N 
HETATM   21  C5  UNL     1      10.730  18.181  15.037  1.00  0.00     0.302 C 
HETATM   22  C4  UNL     1      10.377  17.318  16.218  1.00  0.00     0.302 C 
HETATM   23  N1  UNL     1      10.926  17.867  17.448  1.00  0.00     0.092 N 
HETATM   24  C32 UNL     1      11.338  19.226  17.269  1.00  0.00     0.302 C 
HETATM   25  C31 UNL     1      10.209  19.961  16.543  1.00  0.00     0.302 C 
BRANCH  23  26
HETATM   26  C3  UNL     1      11.932  17.000  17.977  1.00  0.00     0.283 C 
BRANCH  26  27
HETATM   27  C2  UNL     1      12.853  17.683  18.970  1.00  0.00     0.143 C 
BRANCH  27  28
HETATM   28  C1  UNL     1      12.245  17.588  20.316  1.00  0.00     0.174 C 
HETATM   29  O1  UNL     1      12.377  16.565  21.028  1.00  0.00    -0.648 OA
HETATM   30  O2  UNL     1      11.512  18.696  20.758  1.00  0.00    -0.648 OA
ENDBRANCH  27  28
ENDBRANCH  26  27
ENDBRANCH  23  26
ENDBRANCH  19  20
ENDBRANCH  18  19
ENDBRANCH  15  18
ENDBRANCH   1  14
BRANCH  11  31
HETATM   31  C22 UNL     1      17.055  20.586  18.163  1.00  0.00     0.164 C 
BRANCH  31  32
HETATM   32  C23 UNL     1      16.537  21.198  19.427  1.00  0.00     0.292 C 
BRANCH  32  33
HETATM   33  N8  UNL     1      17.614  21.857  20.140  1.00  0.00     0.090 N 
HETATM   34  C24 UNL     1      18.916  21.393  19.698  1.00  0.00     0.272 C 
HETATM   35  C25 UNL     1      19.897  21.816  20.778  1.00  0.00     0.030 C 
HETATM   36  C26 UNL     1      20.546  23.098  20.372  1.00  0.00     0.002 C 
HETATM   37  C27 UNL     1      19.757  24.307  20.746  1.00  0.00     0.002 C 
HETATM   38  C28 UNL     1      18.295  24.078  20.959  1.00  0.00     0.030 C 
HETATM   39  C29 UNL     1      17.608  23.296  19.888  1.00  0.00     0.272 C 
ENDBRANCH  32  33
ENDBRANCH  31  32
ENDBRANCH  11  31
BRANCH   5  40
HETATM   40  C14 UNL     1      19.545  25.367  14.666  1.00  0.00     0.331 C 
BRANCH  40  41
HETATM   41  N4  UNL     1      20.569  25.752  15.581  1.00  0.00     0.103 N 
HETATM   42  C15 UNL     1      20.224  27.014  16.269  1.00  0.00     0.224 C 
HETATM   43  C16 UNL     1      21.450  27.235  17.094  1.00  0.00     0.038 C 
HETATM   44  C20 UNL     1      20.235  27.973  15.112  1.00  0.00     0.038 C 
HETATM   45  C17 UNL     1      22.553  26.676  16.187  1.00  0.00     0.038 C 
HETATM   46  C18 UNL     1      21.797  26.209  14.961  1.00  0.00     0.224 C 
HETATM   47  C19 UNL     1      21.339  27.440  14.223  1.00  0.00     0.038 C 
ENDBRANCH  40  41
ENDBRANCH   5  40
TORSDOF 12
ENDMDL
MODEL 2
REMARK VINA RESULT: -9.419416151      2.758      5.579
REMARK  12 active torsions:
REMARK  status: ('A' for Active; 'I' for Inactive)
REMARK    1  A    between atoms: C1_2  and  C2_4 
REMARK    2  A    between atoms: C2_4  and  C3_5 
REMARK    3  A    between atoms: C3_5  and  N1_6 
REMARK    4  A    between atoms: N2_9  and  C6_10 
REMARK    5  A    between atoms: C6_10  and  C7_11 
REMARK    6  A    between atoms: C7_11  and  C8_12 
REMARK       I    between atoms: C8_12  and  N3_14 
REMARK    7  A    between atoms: N3_14  and  C9_16 
REMARK    8  A    between atoms: C13_20  and  C14_21 
REMARK    9  A    between atoms: C14_21  and  N4_22 
REMARK   10  A    between atoms: N7_34  and  C22_35 
REMARK   11  A    between atoms: C22_35  and  C23_36 
REMARK   12  A    between atoms: C23_36  and  N8_37 
ROOT
HETATM    1  C9  UNL     1      16.754  22.629  18.543  1.00  0.00     0.104 A 
HETATM    2  C10 UNL     1      17.660  22.823  19.553  1.00  0.00     0.050 A 
HETATM    3  C11 UNL     1      18.587  23.866  19.524  1.00  0.00     0.014 A 
HETATM    4  C12 UNL     1      19.497  24.061  20.540  1.00  0.00     0.043 A 
HETATM    5  C13 UNL     1      20.381  25.109  20.445  1.00  0.00     0.055 A 
HETATM    6  N5  UNL     1      20.313  25.898  19.361  1.00  0.00    -0.301 N 
ATOM      7  H5  UNL     1      20.967  26.678  19.288  1.00  0.00     0.186 HD
HETATM    8  N6  UNL     1      19.444  25.716  18.385  1.00  0.00    -0.284 N 
ATOM      9  H6  UNL     1      19.444  26.350  17.585  1.00  0.00     0.188 HD
HETATM   10  C21 UNL     1      18.552  24.698  18.429  1.00  0.00     0.135 A 
HETATM   11  N7  UNL     1      17.697  24.557  17.425  1.00  0.00    -0.295 N 
HETATM   12  C30 UNL     1      16.821  23.550  17.478  1.00  0.00     0.276 A 
HETATM   13  O4  UNL     1      15.971  23.356  16.548  1.00  0.00    -0.265 OA
ENDROOT
BRANCH   1  14
HETATM   14  N3  UNL     1      15.805  21.611  18.546  1.00  0.00    -0.323 N 
HETATM   15  C8  UNL     1      15.942  20.285  18.128  1.00  0.00     0.224 C 
HETATM   16  O3  UNL     1      17.015  19.851  17.666  1.00  0.00    -0.273 OA
ATOM     17  H3  UNL     1      14.884  21.869  18.902  1.00  0.00     0.169 HD
BRANCH  15  18
HETATM   18  C7  UNL     1      14.789  19.310  18.214  1.00  0.00     0.133 C 
BRANCH  18  19
HETATM   19  C6  UNL     1      14.215  19.308  19.599  1.00  0.00     0.281 C 
BRANCH  19  20
HETATM   20  N2  UNL     1      12.792  19.402  19.675  1.00  0.00     0.092 N 
HETATM   21  C5  UNL     1      12.235  19.073  18.359  1.00  0.00     0.302 C 
HETATM   22  C4  UNL     1      10.817  18.577  18.457  1.00  0.00     0.302 C 
HETATM   23  N1  UNL     1      10.748  17.343  19.222  1.00  0.00     0.092 N 
HETATM   24  C32 UNL     1      11.955  17.123  19.961  1.00  0.00     0.302 C 
HETATM   25  C31 UNL     1      12.315  18.436  20.661  1.00  0.00     0.302 C 
BRANCH  23  26
HETATM   26  C3  UNL     1      10.352  16.255  18.384  1.00  0.00     0.283 C 
BRANCH  26  27
HETATM   27  C2  UNL     1      11.493  15.680  17.566  1.00  0.00     0.143 C 
BRANCH  27  28
HETATM   28  C1  UNL     1      11.071  15.621  16.149  1.00  0.00     0.174 C 
HETATM   29  O1  UNL     1      10.385  16.532  15.628  1.00  0.00    -0.648 OA
HETATM   30  O2  UNL     1      11.473  14.498  15.416  1.00  0.00    -0.648 OA
ENDBRANCH  27  28
ENDBRANCH  26  27
ENDBRANCH  23  26
ENDBRANCH  19  20
ENDBRANCH  18  19
ENDBRANCH  15  18
ENDBRANCH   1  14
BRANCH  11  31
HETATM   31  C22 UNL     1      17.674  25.438  16.267  1.00  0.00     0.164 C 
BRANCH  31  32
HETATM   32  C23 UNL     1      18.415  24.862  15.102  1.00  0.00     0.292 C 
BRANCH  32  33
HETATM   33  N8  UNL     1      19.550  25.701  14.768  1.00  0.00     0.090 N 
HETATM   34  C24 UNL     1      19.340  27.078  15.177  1.00  0.00     0.272 C 
HETATM   35  C25 UNL     1      20.363  27.899  14.411  1.00  0.00     0.030 C 
HETATM   36  C26 UNL     1      21.553  28.132  15.282  1.00  0.00     0.002 C 
HETATM   37  C27 UNL     1      22.548  27.023  15.236  1.00  0.00     0.002 C 
HETATM   38  C28 UNL     1      22.013  25.698  14.798  1.00  0.00     0.030 C 
HETATM   39  C29 UNL     1      20.752  25.264  15.473  1.00  0.00     0.272 C 
ENDBRANCH  32  33
ENDBRANCH  31  32
ENDBRANCH  11  31
BRANCH   5  40
HETATM   40  C14 UNL     1      21.371  25.336  21.521  1.00  0.00     0.331 C 
BRANCH  40  41
HETATM   41  N4  UNL     1      22.651  25.587  20.943  1.00  0.00     0.103 N 
HETATM   42  C15 UNL     1      23.463  24.353  20.890  1.00  0.00     0.224 C 
HETATM   43  C16 UNL     1      24.745  24.879  20.330  1.00  0.00     0.038 C 
HETATM   44  C20 UNL     1      23.648  24.079  22.356  1.00  0.00     0.038 C 
HETATM   45  C17 UNL     1      24.813  26.283  20.942  1.00  0.00     0.038 C 
HETATM   46  C18 UNL     1      23.550  26.365  21.774  1.00  0.00     0.224 C 
HETATM   47  C19 UNL     1      23.740  25.463  22.964  1.00  0.00     0.038 C 
ENDBRANCH  40  41
ENDBRANCH   5  40
TORSDOF 12
ENDMDL
MODEL 3
REMARK VINA RESULT: -9.394075661      2.788      5.846
REMARK  12 active torsions:
REMARK  status: ('A' for Active; 'I' for Inactive)
REMARK    1  A    between atoms: C1_2  and  C2_4 
REMARK    2  A    between atoms: C2_4  and  C3_5 
REMARK    3  A    between atoms: C3_5  and  N1_6 
REMARK    4  A    between atoms: N2_9  and  C6_10 
REMARK    5  A    between atoms: C6_10  and  C7_11 
REMARK    6  A    between atoms: C7_11  and  C8_12 
REMARK       I    between atoms: C8_12  and  N3_14 
REMARK    7  A    between atoms: N3_14  and  C9_16 
REMARK    8  A    between atoms: C13_20  and  C14_21 
REMARK    9  A    between atoms: C14_21  and  N4_22 
REMARK   10  A    between atoms: N7_34  and  C22_35 
REMARK   11  A    between atoms: C22_35  and  C23_36 
REMARK   12  A    between atoms: C23_36  and  N8_37 
ROOT
HETATM    1  C9  UNL     1      16.473  22.697  19.150  1.00  0.00     0.104 A 
HETATM    2  C10 UNL     1      17.487  22.931  20.042  1.00  0.00     0.050 A 
HETATM    3  C11 UNL     1      18.462  23.904  19.812  1.00  0.00     0.014 A 
HETATM    4  C12 UNL     1      19.481  24.140  20.709  1.00  0.00     0.043 A 
HETATM    5  C13 UNL     1      20.406  25.114  20.419  1.00  0.00     0.055 A 
HETATM    6  N5  UNL     1      20.270  25.794  19.269  1.00  0.00    -0.301 N 
ATOM      7  H5  UNL     1      20.954  26.519  19.051  1.00  0.00     0.186 HD
HETATM    8  N6  UNL     1      19.296  25.572  18.406  1.00  0.00    -0.284 N 
ATOM      9  H6  UNL     1      19.248  26.122  17.548  1.00  0.00     0.188 HD
HETATM   10  C21 UNL     1      18.359  24.624  18.645  1.00  0.00     0.135 A 
HETATM   11  N7  UNL     1      17.399  24.438  17.749  1.00  0.00    -0.295 N 
HETATM   12  C30 UNL     1      16.480  23.501  17.992  1.00  0.00     0.276 A 
HETATM   13  O4  UNL     1      15.529  23.270  17.175  1.00  0.00    -0.265 OA
ENDROOT
BRANCH   1  14
HETATM   14  N3  UNL     1      15.476  21.748  19.353  1.00  0.00    -0.323 N 
HETATM   15  C8  UNL     1      15.383  20.450  18.840  1.00  0.00     0.224 C 
HETATM   16  O3  UNL     1      16.255  19.982  18.083  1.00  0.00    -0.273 OA
ATOM     17  H3  UNL     1      14.707  22.039  19.957  1.00  0.00     0.169 HD
BRANCH  15  18
HETATM   18  C7  UNL     1      14.216  19.552  19.181  1.00  0.00     0.133 C 
BRANCH  18  19
HETATM   19  C6  UNL     1      13.507  19.127  17.929  1.00  0.00     0.281 C 
BRANCH  19  20
HETATM   20  N2  UNL     1      12.577  20.071  17.399  1.00  0.00     0.092 N 
HETATM   21  C5  UNL     1      12.852  20.240  15.968  1.00  0.00     0.302 C 
HETATM   22  C4  UNL     1      11.640  20.717  15.215  1.00  0.00     0.302 C 
HETATM   23  N1  UNL     1      10.564  19.740  15.286  1.00  0.00     0.092 N 
HETATM   24  C32 UNL     1      10.806  18.778  16.318  1.00  0.00     0.302 C 
HETATM   25  C31 UNL     1      11.227  19.542  17.575  1.00  0.00     0.302 C 
BRANCH  23  26
HETATM   26  C3  UNL     1      10.308  19.183  13.995  1.00  0.00     0.283 C 
BRANCH  26  27
HETATM   27  C2  UNL     1      10.263  20.222  12.890  1.00  0.00     0.143 C 
BRANCH  27  28
HETATM   28  C1  UNL     1       8.866  20.687  12.741  1.00  0.00     0.174 C 
HETATM   29  O1  UNL     1       8.097  20.199  11.880  1.00  0.00    -0.648 OA
HETATM   30  O2  UNL     1       8.442  21.700  13.609  1.00  0.00    -0.648 OA
ENDBRANCH  27  28
ENDBRANCH  26  27
ENDBRANCH  23  26
ENDBRANCH  19  20
ENDBRANCH  18  19
ENDBRANCH  15  18
ENDBRANCH   1  14
BRANCH  11  31
HETATM   31  C22 UNL     1      17.304  25.199  16.511  1.00  0.00     0.164 C 
BRANCH  31  32
HETATM   32  C23 UNL     1      17.958  24.496  15.363  1.00  0.00     0.292 C 
BRANCH  32  33
HETATM   33  N8  UNL     1      19.067  25.284  14.862  1.00  0.00     0.090 N 
HETATM   34  C24 UNL     1      18.950  26.681  15.239  1.00  0.00     0.272 C 
HETATM   35  C25 UNL     1      19.896  27.439  14.324  1.00  0.00     0.030 C 
HETATM   36  C26 UNL     1      21.189  27.663  15.035  1.00  0.00     0.002 C 
HETATM   37  C27 UNL     1      22.139  26.519  14.914  1.00  0.00     0.002 C 
HETATM   38  C28 UNL     1      21.515  25.198  14.596  1.00  0.00     0.030 C 
HETATM   39  C29 UNL     1      20.333  24.832  15.434  1.00  0.00     0.272 C 
ENDBRANCH  32  33
ENDBRANCH  31  32
ENDBRANCH  11  31
BRANCH   5  40
HETATM   40  C14 UNL     1      21.512  25.383  21.363  1.00  0.00     0.331 C 
BRANCH  40  41
HETATM   41  N4  UNL     1      22.753  25.369  20.659  1.00  0.00     0.103 N 
HETATM   42  C15 UNL     1      23.532  24.152  20.974  1.00  0.00     0.224 C 
HETATM   43  C16 UNL     1      24.781  24.403  20.193  1.00  0.00     0.038 C 
HETATM   44  C20 UNL     1      23.815  24.375  22.432  1.00  0.00     0.038 C 
HETATM   45  C17 UNL     1      24.924  25.926  20.293  1.00  0.00     0.038 C 
HETATM   46  C18 UNL     1      23.726  26.338  21.124  1.00  0.00     0.224 C 
HETATM   47  C19 UNL     1      23.981  25.877  22.534  1.00  0.00     0.038 C 
ENDBRANCH  40  41
ENDBRANCH   5  40
TORSDOF 12
ENDMDL
MODEL 4
REMARK VINA RESULT: -9.371048403      3.749     10.857
REMARK  12 active torsions:
REMARK  status: ('A' for Active; 'I' for Inactive)
REMARK    1  A    between atoms: C1_2  and  C2_4 
REMARK    2  A    between atoms: C2_4  and  C3_5 
REMARK    3  A    between atoms: C3_5  and  N1_6 
REMARK    4  A    between atoms: N2_9  and  C6_10 
REMARK    5  A    between atoms: C6_10  and  C7_11 
REMARK    6  A    between atoms: C7_11  and  C8_12 
REMARK       I    between atoms: C8_12  and  N3_14 
REMARK    7  A    between atoms: N3_14  and  C9_16 
REMARK    8  A    between atoms: C13_20  and  C14_21 
REMARK    9  A    between atoms: C14_21  and  N4_22 
REMARK   10  A    between atoms: N7_34  and  C22_35 
REMARK   11  A    between atoms: C22_35  and  C23_36 
REMARK   12  A    between atoms: C23_36  and  N8_37 
ROOT
HETATM    1  C9  UNL     1      16.679  22.514  15.978  1.00  0.00     0.104 A 
HETATM    2  C10 UNL     1      15.801  22.130  14.998  1.00  0.00     0.050 A 
HETATM    3  C11 UNL     1      14.524  21.649  15.297  1.00  0.00     0.014 A 
HETATM    4  C12 UNL     1      13.641  21.265  14.312  1.00  0.00     0.043 A 
HETATM    5  C13 UNL     1      12.401  20.801  14.679  1.00  0.00     0.055 A 
HETATM    6  N5  UNL     1      12.107  20.747  15.988  1.00  0.00    -0.301 N 
ATOM      7  H5  UNL     1      11.186  20.404  16.264  1.00  0.00     0.186 HD
HETATM    8  N6  UNL     1      12.950  21.114  16.936  1.00  0.00    -0.284 N 
ATOM      9  H6  UNL     1      12.667  21.047  17.914  1.00  0.00     0.188 HD
HETATM   10  C21 UNL     1      14.184  21.577  16.628  1.00  0.00     0.135 A 
HETATM   11  N7  UNL     1      14.994  21.935  17.615  1.00  0.00    -0.295 N 
HETATM   12  C30 UNL     1      16.209  22.391  17.302  1.00  0.00     0.276 A 
HETATM   13  O4  UNL     1      17.039  22.753  18.199  1.00  0.00    -0.265 OA
ENDROOT
BRANCH   1  14
HETATM   14  N3  UNL     1      17.952  23.013  15.717  1.00  0.00    -0.323 N 
HETATM   15  C8  UNL     1      18.359  24.342  15.573  1.00  0.00     0.224 C 
HETATM   16  O3  UNL     1      17.552  25.288  15.665  1.00  0.00    -0.273 OA
ATOM     17  H3  UNL     1      18.687  22.313  15.617  1.00  0.00     0.169 HD
BRANCH  15  18
HETATM   18  C7  UNL     1      19.802  24.697  15.296  1.00  0.00     0.133 C 
BRANCH  18  19
HETATM   19  C6  UNL     1      19.894  26.075  14.712  1.00  0.00     0.281 C 
BRANCH  19  20
HETATM   20  N2  UNL     1      20.238  27.111  15.633  1.00  0.00     0.092 N 
HETATM   21  C5  UNL     1      21.051  26.528  16.705  1.00  0.00     0.302 C 
HETATM   22  C4  UNL     1      21.926  27.556  17.370  1.00  0.00     0.302 C 
HETATM   23  N1  UNL     1      22.880  28.117  16.427  1.00  0.00     0.092 N 
HETATM   24  C32 UNL     1      22.511  27.817  15.076  1.00  0.00     0.302 C 
HETATM   25  C31 UNL     1      21.019  28.122  14.925  1.00  0.00     0.302 C 
BRANCH  23  26
HETATM   26  C3  UNL     1      24.213  27.744  16.781  1.00  0.00     0.283 C 
BRANCH  26  27
HETATM   27  C2  UNL     1      24.937  26.986  15.685  1.00  0.00     0.143 C 
BRANCH  27  28
HETATM   28  C1  UNL     1      26.149  27.747  15.310  1.00  0.00     0.174 C 
HETATM   29  O1  UNL     1      26.089  28.946  14.948  1.00  0.00    -0.648 OA
HETATM   30  O2  UNL     1      27.370  27.066  15.379  1.00  0.00    -0.648 OA
ENDBRANCH  27  28
ENDBRANCH  26  27
ENDBRANCH  23  26
ENDBRANCH  19  20
ENDBRANCH  18  19
ENDBRANCH  15  18
ENDBRANCH   1  14
BRANCH  11  31
HETATM   31  C22 UNL     1      14.627  21.846  19.021  1.00  0.00     0.164 C 
BRANCH  31  32
HETATM   32  C23 UNL     1      15.017  20.534  19.626  1.00  0.00     0.292 C 
BRANCH  32  33
HETATM   33  N8  UNL     1      13.940  19.575  19.473  1.00  0.00     0.090 N 
HETATM   34  C24 UNL     1      14.319  18.473  18.606  1.00  0.00     0.272 C 
HETATM   35  C25 UNL     1      13.020  17.802  18.196  1.00  0.00     0.030 C 
HETATM   36  C26 UNL     1      12.775  16.628  19.085  1.00  0.00     0.002 C 
HETATM   37  C27 UNL     1      12.081  16.982  20.357  1.00  0.00     0.002 C 
HETATM   38  C28 UNL     1      12.210  18.409  20.782  1.00  0.00     0.030 C 
HETATM   39  C29 UNL     1      13.598  18.961  20.754  1.00  0.00     0.272 C 
ENDBRANCH  32  33
ENDBRANCH  31  32
ENDBRANCH  11  31
BRANCH   5  40
HETATM   40  C14 UNL     1      11.436  20.378  13.640  1.00  0.00     0.331 C 
BRANCH  40  41
HETATM   41  N4  UNL     1      11.389  18.953  13.587  1.00  0.00     0.103 N 
HETATM   42  C15 UNL     1      12.192  18.434  12.460  1.00  0.00     0.224 C 
HETATM   43  C16 UNL     1      11.930  16.968  12.574  1.00  0.00     0.038 C 
HETATM   44  C20 UNL     1      11.417  18.979  11.294  1.00  0.00     0.038 C 
HETATM   45  C17 UNL     1      10.480  16.937  13.073  1.00  0.00     0.038 C 
HETATM   46  C18 UNL     1      10.112  18.403  13.176  1.00  0.00     0.224 C 
HETATM   47  C19 UNL     1       9.981  18.930  11.771  1.00  0.00     0.038 C 
ENDBRANCH  40  41
ENDBRANCH   5  40
TORSDOF 12
ENDMDL
MODEL 5
REMARK VINA RESULT: -9.306473535      3.308     10.835
REMARK  12 active torsions:
REMARK  status: ('A' for Active; 'I' for Inactive)
REMARK    1  A    between atoms: C1_2  and  C2_4 
REMARK    2  A    between atoms: C2_4  and  C3_5 
REMARK    3  A    between atoms: C3_5  and  N1_6 
REMARK    4  A    between atoms: N2_9  and  C6_10 
REMARK    5  A    between atoms: C6_10  and  C7_11 
REMARK    6  A    between atoms: C7_11  and  C8_12 
REMARK       I    between atoms: C8_12  and  N3_14 
REMARK    7  A    between atoms: N3_14  and  C9_16 
REMARK    8  A    between atoms: C13_20  and  C14_21 
REMARK    9  A    between atoms: C14_21  and  N4_22 
REMARK   10  A    between atoms: N7_34  and  C22_35 
REMARK   11  A    between atoms: C22_35  and  C23_36 
REMARK   12  A    between atoms: C23_36  and  N8_37 
ROOT
HETATM    1  C9  UNL     1      18.371  23.737  19.367  1.00  0.00     0.104 A 
HETATM    2  C10 UNL     1      17.461  22.945  20.018  1.00  0.00     0.050 A 
HETATM    3  C11 UNL     1      16.690  21.996  19.342  1.00  0.00     0.014 A 
HETATM    4  C12 UNL     1      15.777  21.200  19.996  1.00  0.00     0.043 A 
HETATM    5  C13 UNL     1      15.052  20.287  19.268  1.00  0.00     0.055 A 
HETATM    6  N5  UNL     1      15.273  20.215  17.945  1.00  0.00    -0.301 N 
ATOM      7  H5  UNL     1      14.738  19.537  17.401  1.00  0.00     0.186 HD
HETATM    8  N6  UNL     1      16.147  20.976  17.313  1.00  0.00    -0.284 N 
ATOM      9  H6  UNL     1      16.268  20.874  16.305  1.00  0.00     0.188 HD
HETATM   10  C21 UNL     1      16.886  21.890  17.985  1.00  0.00     0.135 A 
HETATM   11  N7  UNL     1      17.752  22.631  17.306  1.00  0.00    -0.295 N 
HETATM   12  C30 UNL     1      18.476  23.531  17.976  1.00  0.00     0.276 A 
HETATM   13  O4  UNL     1      19.327  24.275  17.388  1.00  0.00    -0.265 OA
ENDROOT
BRANCH   1  14
HETATM   14  N3  UNL     1      19.167  24.680  20.009  1.00  0.00    -0.323 N 
HETATM   15  C8  UNL     1      20.422  24.510  20.601  1.00  0.00     0.224 C 
HETATM   16  O3  UNL     1      20.993  23.402  20.618  1.00  0.00    -0.273 OA
ATOM     17  H3  UNL     1      18.783  25.624  20.055  1.00  0.00     0.169 HD
BRANCH  15  18
HETATM   18  C7  UNL     1      21.147  25.665  21.253  1.00  0.00     0.133 C 
BRANCH  18  19
HETATM   19  C6  UNL     1      22.583  25.686  20.821  1.00  0.00     0.281 C 
BRANCH  19  20
HETATM   20  N2  UNL     1      22.983  26.833  20.072  1.00  0.00     0.092 N 
HETATM   21  C5  UNL     1      23.973  26.415  19.075  1.00  0.00     0.302 C 
HETATM   22  C4  UNL     1      24.020  27.354  17.900  1.00  0.00     0.302 C 
HETATM   23  N1  UNL     1      22.749  27.371  17.194  1.00  0.00     0.092 N 
HETATM   24  C32 UNL     1      21.709  26.785  17.986  1.00  0.00     0.302 C 
HETATM   25  C31 UNL     1      21.809  27.377  19.393  1.00  0.00     0.302 C 
BRANCH  23  26
HETATM   26  C3  UNL     1      22.894  26.814  15.887  1.00  0.00     0.283 C 
BRANCH  26  27
HETATM   27  C2  UNL     1      22.328  27.696  14.790  1.00  0.00     0.143 C 
BRANCH  27  28
HETATM   28  C1  UNL     1      20.854  27.582  14.811  1.00  0.00     0.174 C 
HETATM   29  O1  UNL     1      20.123  28.549  15.131  1.00  0.00    -0.648 OA
HETATM   30  O2  UNL     1      20.310  26.342  14.456  1.00  0.00    -0.648 OA
ENDBRANCH  27  28
ENDBRANCH  26  27
ENDBRANCH  23  26
ENDBRANCH  19  20
ENDBRANCH  18  19
ENDBRANCH  15  18
ENDBRANCH   1  14
BRANCH  11  31
HETATM   31  C22 UNL     1      17.944  22.517  15.867  1.00  0.00     0.164 C 
BRANCH  31  32
HETATM   32  C23 UNL     1      17.156  23.538  15.109  1.00  0.00     0.292 C 
BRANCH  32  33
HETATM   33  N8  UNL     1      15.931  22.949  14.605  1.00  0.00     0.090 N 
HETATM   34  C24 UNL     1      16.048  21.510  14.451  1.00  0.00     0.272 C 
HETATM   35  C25 UNL     1      14.903  21.094  13.543  1.00  0.00     0.030 C 
HETATM   36  C26 UNL     1      13.765  20.614  14.382  1.00  0.00     0.002 C 
HETATM   37  C27 UNL     1      12.871  21.710  14.852  1.00  0.00     0.002 C 
HETATM   38  C28 UNL     1      13.486  23.072  14.884  1.00  0.00     0.030 C 
HETATM   39  C29 UNL     1      14.827  23.151  15.539  1.00  0.00     0.272 C 
ENDBRANCH  32  33
ENDBRANCH  31  32
ENDBRANCH  11  31
BRANCH   5  40
HETATM   40  C14 UNL     1      14.062  19.423  19.947  1.00  0.00     0.331 C 
BRANCH  40  41
HETATM   41  N4  UNL     1      13.371  18.638  18.976  1.00  0.00     0.103 N 
HETATM   42  C15 UNL     1      11.911  18.857  19.054  1.00  0.00     0.224 C 
HETATM   43  C16 UNL     1      11.423  17.897  18.018  1.00  0.00     0.038 C 
HETATM   44  C20 UNL     1      11.619  18.294  20.416  1.00  0.00     0.038 C 
HETATM   45  C17 UNL     1      12.430  16.747  18.144  1.00  0.00     0.038 C 
HETATM   46  C18 UNL     1      13.361  17.213  19.244  1.00  0.00     0.224 C 
HETATM   47  C19 UNL     1      12.594  17.141  20.538  1.00  0.00     0.038 C 
ENDBRANCH  40  41
ENDBRANCH   5  40
TORSDOF 12
ENDMDL
