MODEL 1
REMARK VINA RESULT: -9.241480508      0.000      0.000
REMARK  13 active torsions:
REMARK  status: ('A' for Active; 'I' for Inactive)
REMARK    1  A    between atoms: C2_2  and  O1_3 
REMARK    2  A    between atoms: O1_3  and  C3_4 
REMARK    3  A    between atoms: C3_4  and  C4_6 
REMARK    4  A    between atoms: C7_14  and  N3_15 
REMARK    5  A    between atoms: C8_17  and  C9_18 
REMARK    6  A    between atoms: C9_18  and  C10_19 
REMARK    7  A    between atoms: C10_19  and  N4_20 
REMARK       I    between atoms: N5_23  and  C13_24 
REMARK    8  A    between atoms: C13_24  and  C14_26 
REMARK    9  A    between atoms: C14_26  and  C15_27 
REMARK   10  A    between atoms: C15_27  and  C16_28 
REMARK   11  A    between atoms: C16_28  and  C17_29 
REMARK   12  A    between atoms: C17_29  and  C18_30 
REMARK   13  A    between atoms: C18_30  and  N6_31 
ROOT
HETATM    1  C4  UNL     1       5.881  15.888  16.767  1.00  0.00     0.136 A 
HETATM    2  N1  UNL     1       6.121  14.814  15.875  1.00  0.00    -0.291 N 
ATOM      3  H1  UNL     1       5.378  14.134  15.706  1.00  0.00     0.187 HD
HETATM    4  N2  UNL     1       7.259  14.668  15.265  1.00  0.00    -0.265 N 
ATOM      5  H2  UNL     1       7.366  13.873  14.636  1.00  0.00     0.190 HD
HETATM    6  C5  UNL     1       8.285  15.488  15.408  1.00  0.00     0.274 A 
HETATM    7  O3  UNL     1       9.382  15.358  14.813  1.00  0.00    -0.266 OA
HETATM    8  C6  UNL     1       8.130  16.552  16.270  1.00  0.00     0.091 A 
HETATM    9  C7  UNL     1       9.225  17.417  16.440  1.00  0.00     0.122 A 
HETATM   10  N7  UNL     1       9.066  18.416  17.304  1.00  0.00    -0.340 N 
ATOM     11  H7  UNL     1       9.835  19.070  17.448  1.00  0.00     0.167 HD
HETATM   12  C21 UNL     1       7.928  18.593  17.992  1.00  0.00     0.067 A 
HETATM   13  C22 UNL     1       7.892  19.572  18.983  1.00  0.00     0.063 A 
HETATM   14 CL1  UNL     1       9.267  20.634  19.156  1.00  0.00    -0.082 Cl
HETATM   15  C23 UNL     1       6.811  19.711  19.813  1.00  0.00     0.050 A 
HETATM   16  C24 UNL     1       5.735  18.864  19.671  1.00  0.00     0.036 A 
HETATM   17 CL2  UNL     1       4.346  19.023  20.728  1.00  0.00    -0.084 Cl
HETATM   18  C25 UNL     1       5.758  17.891  18.688  1.00  0.00     0.038 A 
HETATM   19  C26 UNL     1       6.821  17.763  17.852  1.00  0.00     0.008 A 
HETATM   20  C27 UNL     1       6.914  16.721  16.948  1.00  0.00     0.030 A 
ENDROOT
BRANCH   9  21
HETATM   21  N3  UNL     1      10.244  17.167  15.774  1.00  0.00    -0.355 N 
HETATM   22  C8  UNL     1      11.527  17.544  15.524  1.00  0.00     0.064 C 
ATOM     23  H3  UNL     1      10.037  16.364  15.181  1.00  0.00     0.166 HD
BRANCH  22  24
HETATM   24  C9  UNL     1      11.739  19.048  15.438  1.00  0.00     0.074 C 
BRANCH  24  25
HETATM   25  C10 UNL     1      13.094  19.363  15.973  1.00  0.00     0.277 C 
BRANCH  25  26
HETATM   26  N4  UNL     1      13.154  20.441  16.916  1.00  0.00     0.091 N 
HETATM   27  C11 UNL     1      12.298  21.495  16.404  1.00  0.00     0.292 C 
HETATM   28  C12 UNL     1      12.062  22.584  17.427  1.00  0.00     0.156 C 
HETATM   29  N5  UNL     1      12.963  22.349  18.528  1.00  0.00    -0.349 N 
HETATM   30  C13 UNL     1      13.923  23.328  18.886  1.00  0.00     0.219 C 
HETATM   31  C19 UNL     1      12.859  21.118  19.255  1.00  0.00     0.156 C 
HETATM   32  O4  UNL     1      13.974  24.444  18.255  1.00  0.00    -0.273 OA
HETATM   33  C20 UNL     1      12.810  19.996  18.234  1.00  0.00     0.292 C 
BRANCH  30  34
HETATM   34  C14 UNL     1      14.853  23.058  19.979  1.00  0.00     0.103 C 
BRANCH  34  35
HETATM   35  C15 UNL     1      15.094  24.265  20.871  1.00  0.00     0.009 C 
BRANCH  35  36
HETATM   36  C16 UNL     1      16.518  24.658  20.800  1.00  0.00     0.002 C 
BRANCH  36  37
HETATM   37  C17 UNL     1      16.935  25.598  19.730  1.00  0.00     0.027 C 
BRANCH  37  38
HETATM   38  C18 UNL     1      17.674  25.062  18.569  1.00  0.00     0.229 C 
BRANCH  38  39
HETATM   39  N6  UNL     1      16.887  24.974  17.387  1.00  0.00    -0.079 N 
ATOM     40  H63 UNL     1      17.378  24.449  16.664  1.00  0.00     0.274 HD
ATOM     41  H62 UNL     1      16.087  24.359  17.530  1.00  0.00     0.274 HD
ATOM     42  H61 UNL     1      16.586  25.882  17.032  1.00  0.00     0.274 HD
ENDBRANCH  38  39
ENDBRANCH  37  38
ENDBRANCH  36  37
ENDBRANCH  35  36
ENDBRANCH  34  35
ENDBRANCH  30  34
ENDBRANCH  25  26
ENDBRANCH  24  25
ENDBRANCH  22  24
ENDBRANCH   9  21
BRANCH   1  43
HETATM   43  C3  UNL     1       4.508  16.040  17.114  1.00  0.00     0.312 C 
HETATM   44  O2  UNL     1       3.718  15.756  18.022  1.00  0.00    -0.258 OA
BRANCH  43  45
HETATM   45  O1  UNL     1       3.719  16.742  16.094  1.00  0.00    -0.317 OA
BRANCH  45  46
HETATM   46  C2  UNL     1       2.440  16.251  15.736  1.00  0.00     0.175 C 
HETATM   47  C1  UNL     1       2.694  15.155  14.724  1.00  0.00     0.034 C 
ENDBRANCH  45  46
ENDBRANCH  43  45
ENDBRANCH   1  43
TORSDOF 13
ENDMDL
MODEL 2
REMARK VINA RESULT: -9.112840276      3.362     10.367
REMARK  13 active torsions:
REMARK  status: ('A' for Active; 'I' for Inactive)
REMARK    1  A    between atoms: C2_2  and  O1_3 
REMARK    2  A    between atoms: O1_3  and  C3_4 
REMARK    3  A    between atoms: C3_4  and  C4_6 
REMARK    4  A    between atoms: C7_14  and  N3_15 
REMARK    5  A    between atoms: C8_17  and  C9_18 
REMARK    6  A    between atoms: C9_18  and  C10_19 
REMARK    7  A    between atoms: C10_19  and  N4_20 
REMARK       I    between atoms: N5_23  and  C13_24 
REMARK    8  A    between atoms: C13_24  and  C14_26 
REMARK    9  A    between atoms: C14_26  and  C15_27 
REMARK   10  A    between atoms: C15_27  and  C16_28 
REMARK   11  A    between atoms: C16_28  and  C17_29 
REMARK   12  A    between atoms: C17_29  and  C18_30 
REMARK   13  A    between atoms: C18_30  and  N6_31 
ROOT
HETATM    1  C4  UNL     1      15.818  22.521  15.052  1.00  0.00     0.136 A 
HETATM    2  N1  UNL     1      15.205  21.979  13.895  1.00  0.00    -0.291 N 
ATOM      3  H1  UNL     1      15.682  22.060  12.997  1.00  0.00     0.187 HD
HETATM    4  N2  UNL     1      14.053  21.380  13.945  1.00  0.00    -0.265 N 
ATOM      5  H2  UNL     1      13.667  21.013  13.076  1.00  0.00     0.190 HD
HETATM    6  C5  UNL     1      13.351  21.218  15.053  1.00  0.00     0.274 A 
HETATM    7  O3  UNL     1      12.243  20.633  15.108  1.00  0.00    -0.266 OA
HETATM    8  C6  UNL     1      13.878  21.731  16.218  1.00  0.00     0.091 A 
HETATM    9  C7  UNL     1      13.128  21.578  17.396  1.00  0.00     0.122 A 
HETATM   10  N7  UNL     1      13.639  22.111  18.502  1.00  0.00    -0.340 N 
ATOM     11  H7  UNL     1      13.127  22.013  19.379  1.00  0.00     0.167 HD
HETATM   12  C21 UNL     1      14.804  22.774  18.504  1.00  0.00     0.067 A 
HETATM   13  C22 UNL     1      15.199  23.429  19.670  1.00  0.00     0.063 A 
HETATM   14 CL1  UNL     1      14.246  23.204  21.114  1.00  0.00    -0.082 Cl
HETATM   15  C23 UNL     1      16.306  24.236  19.698  1.00  0.00     0.050 A 
HETATM   16  C24 UNL     1      17.047  24.410  18.551  1.00  0.00     0.036 A 
HETATM   17 CL2  UNL     1      18.462  25.442  18.566  1.00  0.00    -0.084 Cl
HETATM   18  C25 UNL     1      16.667  23.761  17.388  1.00  0.00     0.038 A 
HETATM   19  C26 UNL     1      15.580  22.947  17.362  1.00  0.00     0.008 A 
HETATM   20  C27 UNL     1      15.115  22.391  16.184  1.00  0.00     0.030 A 
ENDROOT
BRANCH   9  21
HETATM   21  N3  UNL     1      12.052  20.963  17.297  1.00  0.00    -0.355 N 
HETATM   22  C8  UNL     1      10.829  20.767  17.862  1.00  0.00     0.064 C 
ATOM     23  H3  UNL     1      12.107  20.375  16.466  1.00  0.00     0.166 HD
BRANCH  22  24
HETATM   24  C9  UNL     1      10.842  20.667  19.379  1.00  0.00     0.074 C 
BRANCH  24  25
HETATM   25  C10 UNL     1       9.436  20.533  19.854  1.00  0.00     0.277 C 
BRANCH  25  26
HETATM   26  N4  UNL     1       8.724  19.387  19.371  1.00  0.00     0.091 N 
HETATM   27  C11 UNL     1       8.857  18.353  20.382  1.00  0.00     0.292 C 
HETATM   28  C12 UNL     1       7.937  17.182  20.122  1.00  0.00     0.156 C 
HETATM   29  N5  UNL     1       7.374  17.353  18.806  1.00  0.00    -0.349 N 
HETATM   30  C13 UNL     1       7.592  16.375  17.804  1.00  0.00     0.219 C 
HETATM   31  C19 UNL     1       6.586  18.520  18.538  1.00  0.00     0.156 C 
HETATM   32  O4  UNL     1       8.261  15.313  18.072  1.00  0.00    -0.273 OA
HETATM   33  C20 UNL     1       7.368  19.718  19.047  1.00  0.00     0.292 C 
BRANCH  30  34
HETATM   34  C14 UNL     1       7.047  16.583  16.465  1.00  0.00     0.103 C 
BRANCH  34  35
HETATM   35  C15 UNL     1       7.789  15.806  15.389  1.00  0.00     0.009 C 
BRANCH  35  36
HETATM   36  C16 UNL     1       8.617  16.733  14.590  1.00  0.00     0.002 C 
BRANCH  36  37
HETATM   37  C17 UNL     1      10.084  16.738  14.818  1.00  0.00     0.027 C 
BRANCH  37  38
HETATM   38  C18 UNL     1      10.619  17.525  15.948  1.00  0.00     0.229 C 
BRANCH  38  39
HETATM   39  N6  UNL     1      12.022  17.750  15.868  1.00  0.00    -0.079 N 
ATOM     40  H63 UNL     1      12.531  16.867  15.890  1.00  0.00     0.274 HD
ATOM     41  H62 UNL     1      12.283  18.072  14.936  1.00  0.00     0.274 HD
ATOM     42  H61 UNL     1      12.372  18.387  16.582  1.00  0.00     0.274 HD
ENDBRANCH  38  39
ENDBRANCH  37  38
ENDBRANCH  36  37
ENDBRANCH  35  36
ENDBRANCH  34  35
ENDBRANCH  30  34
ENDBRANCH  25  26
ENDBRANCH  24  25
ENDBRANCH  22  24
ENDBRANCH   9  21
BRANCH   1  43
HETATM   43  C3  UNL     1      17.182  22.879  14.855  1.00  0.00     0.312 C 
HETATM   44  O2  UNL     1      18.318  22.396  14.947  1.00  0.00    -0.258 OA
BRANCH  43  45
HETATM   45  O1  UNL     1      17.368  24.267  14.414  1.00  0.00    -0.317 OA
BRANCH  45  46
HETATM   46  C2  UNL     1      17.742  24.535  13.075  1.00  0.00     0.175 C 
HETATM   47  C1  UNL     1      16.612  25.357  12.494  1.00  0.00     0.034 C 
ENDBRANCH  45  46
ENDBRANCH  43  45
ENDBRANCH   1  43
TORSDOF 13
ENDMDL
MODEL 3
REMARK VINA RESULT: -8.997442458      3.236      9.735
REMARK  13 active torsions:
REMARK  status: ('A' for Active; 'I' for Inactive)
REMARK    1  A    between atoms: C2_2  and  O1_3 
REMARK    2  A    between atoms: O1_3  and  C3_4 
REMARK    3  A    between atoms: C3_4  and  C4_6 
REMARK    4  A    between atoms: C7_14  and  N3_15 
REMARK    5  A    between atoms: C8_17  and  C9_18 
REMARK    6  A    between atoms: C9_18  and  C10_19 
REMARK    7  A    between atoms: C10_19  and  N4_20 
REMARK       I    between atoms: N5_23  and  C13_24 
REMARK    8  A    between atoms: C13_24  and  C14_26 
REMARK    9  A    between atoms: C14_26  and  C15_27 
REMARK   10  A    between atoms: C15_27  and  C16_28 
REMARK   11  A    between atoms: C16_28  and  C17_29 
REMARK   12  A    between atoms: C17_29  and  C18_30 
REMARK   13  A    between atoms: C18_30  and  N6_31 
ROOT
HETATM    1  C4  UNL     1      13.953  21.615  15.693  1.00  0.00     0.136 A 
HETATM    2  N1  UNL     1      12.898  21.099  14.900  1.00  0.00    -0.291 N 
ATOM      3  H1  UNL     1      13.071  20.900  13.915  1.00  0.00     0.187 HD
HETATM    4  N2  UNL     1      11.717  20.873  15.392  1.00  0.00    -0.265 N 
ATOM      5  H2  UNL     1      11.003  20.502  14.767  1.00  0.00     0.190 HD
HETATM    6  C5  UNL     1      11.385  21.093  16.652  1.00  0.00     0.274 A 
HETATM    7  O3  UNL     1      10.249  20.867  17.133  1.00  0.00    -0.266 OA
HETATM    8  C6  UNL     1      12.357  21.607  17.482  1.00  0.00     0.091 A 
HETATM    9  C7  UNL     1      12.005  21.861  18.819  1.00  0.00     0.122 A 
HETATM   10  N7  UNL     1      12.948  22.390  19.594  1.00  0.00    -0.340 N 
ATOM     11  H7  UNL     1      12.732  22.580  20.573  1.00  0.00     0.167 HD
HETATM   12  C21 UNL     1      14.173  22.681  19.132  1.00  0.00     0.067 A 
HETATM   13  C22 UNL     1      15.055  23.368  19.965  1.00  0.00     0.063 A 
HETATM   14 CL1  UNL     1      14.584  23.653  21.621  1.00  0.00    -0.082 Cl
HETATM   15  C23 UNL     1      16.266  23.816  19.510  1.00  0.00     0.050 A 
HETATM   16  C24 UNL     1      16.625  23.590  18.200  1.00  0.00     0.036 A 
HETATM   17 CL2  UNL     1      18.168  24.161  17.599  1.00  0.00    -0.084 Cl
HETATM   18  C25 UNL     1      15.758  22.906  17.365  1.00  0.00     0.038 A 
HETATM   19  C26 UNL     1      14.564  22.444  17.819  1.00  0.00     0.008 A 
HETATM   20  C27 UNL     1      13.636  21.870  16.969  1.00  0.00     0.030 A 
ENDROOT
BRANCH   9  21
HETATM   21  N3  UNL     1      10.843  21.574  19.155  1.00  0.00    -0.355 N 
HETATM   22  C8  UNL     1      10.084  20.898  20.059  1.00  0.00     0.064 C 
ATOM     23  H3  UNL     1      10.210  22.022  18.492  1.00  0.00     0.166 HD
BRANCH  22  24
HETATM   24  C9  UNL     1      10.618  19.524  20.433  1.00  0.00     0.074 C 
BRANCH  24  25
HETATM   25  C10 UNL     1       9.471  18.670  20.849  1.00  0.00     0.277 C 
BRANCH  25  26
HETATM   26  N4  UNL     1       8.746  18.042  19.785  1.00  0.00     0.091 N 
HETATM   27  C11 UNL     1       8.181  16.818  20.326  1.00  0.00     0.292 C 
HETATM   28  C12 UNL     1       7.176  16.191  19.386  1.00  0.00     0.156 C 
HETATM   29  N5  UNL     1       7.264  16.887  18.127  1.00  0.00    -0.349 N 
HETATM   30  C13 UNL     1       7.608  16.184  16.945  1.00  0.00     0.219 C 
HETATM   31  C19 UNL     1       6.987  18.293  18.093  1.00  0.00     0.156 C 
HETATM   32  O4  UNL     1       7.808  14.917  16.983  1.00  0.00    -0.273 OA
HETATM   33  C20 UNL     1       7.777  18.934  19.221  1.00  0.00     0.292 C 
BRANCH  30  34
HETATM   34  C14 UNL     1       7.730  16.911  15.685  1.00  0.00     0.103 C 
BRANCH  34  35
HETATM   35  C15 UNL     1       8.356  16.083  14.574  1.00  0.00     0.009 C 
BRANCH  35  36
HETATM   36  C16 UNL     1       9.823  16.266  14.585  1.00  0.00     0.002 C 
BRANCH  36  37
HETATM   37  C17 UNL     1      10.366  17.553  15.087  1.00  0.00     0.027 C 
BRANCH  37  38
HETATM   38  C18 UNL     1      11.488  17.519  16.046  1.00  0.00     0.229 C 
BRANCH  38  39
HETATM   39  N6  UNL     1      11.076  17.629  17.404  1.00  0.00    -0.079 N 
ATOM     40  H63 UNL     1      11.802  17.281  18.030  1.00  0.00     0.274 HD
ATOM     41  H62 UNL     1      11.053  18.606  17.696  1.00  0.00     0.274 HD
ATOM     42  H61 UNL     1      10.185  17.173  17.595  1.00  0.00     0.274 HD
ENDBRANCH  38  39
ENDBRANCH  37  38
ENDBRANCH  36  37
ENDBRANCH  35  36
ENDBRANCH  34  35
ENDBRANCH  30  34
ENDBRANCH  25  26
ENDBRANCH  24  25
ENDBRANCH  22  24
ENDBRANCH   9  21
BRANCH   1  43
HETATM   43  C3  UNL     1      15.228  21.531  15.065  1.00  0.00     0.312 C 
HETATM   44  O2  UNL     1      16.254  20.839  15.079  1.00  0.00    -0.258 OA
BRANCH  43  45
HETATM   45  O1  UNL     1      15.469  22.593  14.080  1.00  0.00    -0.317 OA
BRANCH  45  46
HETATM   46  C2  UNL     1      16.783  23.079  13.879  1.00  0.00     0.175 C 
HETATM   47  C1  UNL     1      16.644  24.252  12.933  1.00  0.00     0.034 C 
ENDBRANCH  45  46
ENDBRANCH  43  45
ENDBRANCH   1  43
TORSDOF 13
ENDMDL
MODEL 4
REMARK VINA RESULT: -8.947024990      2.826      4.385
REMARK  13 active torsions:
REMARK  status: ('A' for Active; 'I' for Inactive)
REMARK    1  A    between atoms: C2_2  and  O1_3 
REMARK    2  A    between atoms: O1_3  and  C3_4 
REMARK    3  A    between atoms: C3_4  and  C4_6 
REMARK    4  A    between atoms: C7_14  and  N3_15 
REMARK    5  A    between atoms: C8_17  and  C9_18 
REMARK    6  A    between atoms: C9_18  and  C10_19 
REMARK    7  A    between atoms: C10_19  and  N4_20 
REMARK       I    between atoms: N5_23  and  C13_24 
REMARK    8  A    between atoms: C13_24  and  C14_26 
REMARK    9  A    between atoms: C14_26  and  C15_27 
REMARK   10  A    between atoms: C15_27  and  C16_28 
REMARK   11  A    between atoms: C16_28  and  C17_29 
REMARK   12  A    between atoms: C17_29  and  C18_30 
REMARK   13  A    between atoms: C18_30  and  N6_31 
ROOT
HETATM    1  C4  UNL     1       7.671  19.291  20.574  1.00  0.00     0.136 A 
HETATM    2  N1  UNL     1       8.315  20.380  21.210  1.00  0.00    -0.291 N 
ATOM      3  H1  UNL     1       8.052  20.623  22.166  1.00  0.00     0.187 HD
HETATM    4  N2  UNL     1       9.232  21.080  20.611  1.00  0.00    -0.265 N 
ATOM      5  H2  UNL     1       9.656  21.852  21.125  1.00  0.00     0.190 HD
HETATM    6  C5  UNL     1       9.649  20.854  19.378  1.00  0.00     0.274 A 
HETATM    7  O3  UNL     1      10.540  21.520  18.800  1.00  0.00    -0.266 OA
HETATM    8  C6  UNL     1       9.058  19.816  18.691  1.00  0.00     0.091 A 
HETATM    9  C7  UNL     1       9.486  19.581  17.373  1.00  0.00     0.122 A 
HETATM   10  N7  UNL     1       8.877  18.597  16.716  1.00  0.00    -0.340 N 
ATOM     11  H7  UNL     1       9.166  18.391  15.759  1.00  0.00     0.167 HD
HETATM   12  C21 UNL     1       7.898  17.866  17.268  1.00  0.00     0.067 A 
HETATM   13  C22 UNL     1       7.212  16.954  16.467  1.00  0.00     0.063 A 
HETATM   14 CL1  UNL     1       7.780  16.683  14.840  1.00  0.00    -0.082 Cl
HETATM   15  C23 UNL     1       6.114  16.279  16.931  1.00  0.00     0.050 A 
HETATM   16  C24 UNL     1       5.672  16.505  18.215  1.00  0.00     0.036 A 
HETATM   17 CL2  UNL     1       4.266  15.655  18.824  1.00  0.00    -0.084 Cl
HETATM   18  C25 UNL     1       6.347  17.406  19.021  1.00  0.00     0.038 A 
HETATM   19  C26 UNL     1       7.447  18.063  18.569  1.00  0.00     0.008 A 
HETATM   20  C27 UNL     1       8.059  19.054  19.314  1.00  0.00     0.030 A 
ENDROOT
BRANCH   9  21
HETATM   21  N3  UNL     1      10.388  20.317  16.938  1.00  0.00    -0.355 N 
HETATM   22  C8  UNL     1      11.250  20.525  15.906  1.00  0.00     0.064 C 
ATOM     23  H3  UNL     1      10.542  21.055  17.624  1.00  0.00     0.166 HD
BRANCH  22  24
HETATM   24  C9  UNL     1      11.906  19.264  15.366  1.00  0.00     0.074 C 
BRANCH  24  25
HETATM   25  C10 UNL     1      13.310  19.213  15.863  1.00  0.00     0.277 C 
BRANCH  25  26
HETATM   26  N4  UNL     1      13.720  20.318  16.678  1.00  0.00     0.091 N 
HETATM   27  C11 UNL     1      14.039  19.779  17.987  1.00  0.00     0.292 C 
HETATM   28  C12 UNL     1      14.735  20.793  18.866  1.00  0.00     0.156 C 
HETATM   29  N5  UNL     1      14.656  22.071  18.203  1.00  0.00    -0.349 N 
HETATM   30  C13 UNL     1      14.006  23.162  18.831  1.00  0.00     0.219 C 
HETATM   31  C19 UNL     1      15.256  22.216  16.909  1.00  0.00     0.156 C 
HETATM   32  O4  UNL     1      13.513  23.030  20.009  1.00  0.00    -0.273 OA
HETATM   33  C20 UNL     1      14.795  21.042  16.065  1.00  0.00     0.292 C 
BRANCH  30  34
HETATM   34  C14 UNL     1      13.901  24.438  18.130  1.00  0.00     0.103 C 
BRANCH  34  35
HETATM   35  C15 UNL     1      14.520  25.596  18.897  1.00  0.00     0.009 C 
BRANCH  35  36
HETATM   36  C16 UNL     1      15.971  25.656  18.620  1.00  0.00     0.002 C 
BRANCH  36  37
HETATM   37  C17 UNL     1      16.907  25.192  19.674  1.00  0.00     0.027 C 
BRANCH  37  38
HETATM   38  C18 UNL     1      16.472  25.265  21.084  1.00  0.00     0.229 C 
BRANCH  38  39
HETATM   39  N6  UNL     1      16.073  24.008  21.619  1.00  0.00    -0.079 N 
ATOM     40  H63 UNL     1      16.855  23.549  22.085  1.00  0.00     0.274 HD
ATOM     41  H62 UNL     1      15.451  24.136  22.417  1.00  0.00     0.274 HD
ATOM     42  H61 UNL     1      15.650  23.389  20.928  1.00  0.00     0.274 HD
ENDBRANCH  38  39
ENDBRANCH  37  38
ENDBRANCH  36  37
ENDBRANCH  35  36
ENDBRANCH  34  35
ENDBRANCH  30  34
ENDBRANCH  25  26
ENDBRANCH  24  25
ENDBRANCH  22  24
ENDBRANCH   9  21
BRANCH   1  43
HETATM   43  C3  UNL     1       6.913  18.481  21.467  1.00  0.00     0.312 C 
HETATM   44  O2  UNL     1       5.755  18.346  21.882  1.00  0.00    -0.258 OA
BRANCH  43  45
HETATM   45  O1  UNL     1       7.714  17.468  22.166  1.00  0.00    -0.317 OA
BRANCH  45  46
HETATM   46  C2  UNL     1       7.173  16.180  22.394  1.00  0.00     0.175 C 
HETATM   47  C1  UNL     1       7.958  15.245  21.502  1.00  0.00     0.034 C 
ENDBRANCH  45  46
ENDBRANCH  43  45
ENDBRANCH   1  43
TORSDOF 13
ENDMDL
MODEL 5
REMARK VINA RESULT: -8.931149816      1.128      1.427
REMARK  13 active torsions:
REMARK  status: ('A' for Active; 'I' for Inactive)
REMARK    1  A    between atoms: C2_2  and  O1_3 
REMARK    2  A    between atoms: O1_3  and  C3_4 
REMARK    3  A    between atoms: C3_4  and  C4_6 
REMARK    4  A    between atoms: C7_14  and  N3_15 
REMARK    5  A    between atoms: C8_17  and  C9_18 
REMARK    6  A    between atoms: C9_18  and  C10_19 
REMARK    7  A    between atoms: C10_19  and  N4_20 
REMARK       I    between atoms: N5_23  and  C13_24 
REMARK    8  A    between atoms: C13_24  and  C14_26 
REMARK    9  A    between atoms: C14_26  and  C15_27 
REMARK   10  A    between atoms: C15_27  and  C16_28 
REMARK   11  A    between atoms: C16_28  and  C17_29 
REMARK   12  A    between atoms: C17_29  and  C18_30 
REMARK   13  A    between atoms: C18_30  and  N6_31 
ROOT
HETATM    1  C4  UNL     1       6.067  15.804  16.651  1.00  0.00     0.136 A 
HETATM    2  N1  UNL     1       6.443  14.834  15.688  1.00  0.00    -0.291 N 
ATOM      3  H1  UNL     1       5.788  14.088  15.454  1.00  0.00     0.187 HD
HETATM    4  N2  UNL     1       7.599  14.868  15.096  1.00  0.00    -0.265 N 
ATOM      5  H2  UNL     1       7.808  14.140  14.413  1.00  0.00     0.190 HD
HETATM    6  C5  UNL     1       8.520  15.788  15.322  1.00  0.00     0.274 A 
HETATM    7  O3  UNL     1       9.633  15.830  14.745  1.00  0.00    -0.266 OA
HETATM    8  C6  UNL     1       8.230  16.758  16.256  1.00  0.00     0.091 A 
HETATM    9  C7  UNL     1       9.213  17.729  16.514  1.00  0.00     0.122 A 
HETATM   10  N7  UNL     1       8.926  18.635  17.444  1.00  0.00    -0.340 N 
ATOM     11  H7  UNL     1       9.612  19.361  17.654  1.00  0.00     0.167 HD
HETATM   12  C21 UNL     1       7.766  18.627  18.117  1.00  0.00     0.067 A 
HETATM   13  C22 UNL     1       7.601  19.518  19.176  1.00  0.00     0.063 A 
HETATM   14 CL1  UNL     1       8.840  20.716  19.457  1.00  0.00    -0.082 Cl
HETATM   15  C23 UNL     1       6.500  19.468  19.989  1.00  0.00     0.050 A 
HETATM   16  C24 UNL     1       5.532  18.516  19.761  1.00  0.00     0.036 A 
HETATM   17 CL2  UNL     1       4.119  18.433  20.794  1.00  0.00    -0.084 Cl
HETATM   18  C25 UNL     1       5.683  17.629  18.710  1.00  0.00     0.038 A 
HETATM   19  C26 UNL     1       6.766  17.688  17.891  1.00  0.00     0.008 A 
HETATM   20  C27 UNL     1       6.993  16.734  16.916  1.00  0.00     0.030 A 
ENDROOT
BRANCH   9  21
HETATM   21  N3  UNL     1      10.264  17.650  15.855  1.00  0.00    -0.355 N 
HETATM   22  C8  UNL     1      11.498  18.189  15.664  1.00  0.00     0.064 C 
ATOM     23  H3  UNL     1      10.159  16.876  15.198  1.00  0.00     0.166 HD
BRANCH  22  24
HETATM   24  C9  UNL     1      11.537  19.708  15.698  1.00  0.00     0.074 C 
BRANCH  24  25
HETATM   25  C10 UNL     1      12.935  20.150  15.431  1.00  0.00     0.277 C 
BRANCH  25  26
HETATM   26  N4  UNL     1      13.543  20.942  16.458  1.00  0.00     0.091 N 
HETATM   27  C11 UNL     1      13.726  20.073  17.607  1.00  0.00     0.292 C 
HETATM   28  C12 UNL     1      14.595  20.709  18.669  1.00  0.00     0.156 C 
HETATM   29  N5  UNL     1      14.782  22.092  18.307  1.00  0.00    -0.349 N 
HETATM   30  C13 UNL     1      14.351  23.123  19.179  1.00  0.00     0.219 C 
HETATM   31  C19 UNL     1      15.421  22.400  17.061  1.00  0.00     0.156 C 
HETATM   32  O4  UNL     1      13.822  22.831  20.311  1.00  0.00    -0.273 OA
HETATM   33  C20 UNL     1      14.750  21.558  15.991  1.00  0.00     0.292 C 
BRANCH  30  34
HETATM   34  C14 UNL     1      14.514  24.518  18.780  1.00  0.00     0.103 C 
BRANCH  34  35
HETATM   35  C15 UNL     1      15.318  25.335  19.779  1.00  0.00     0.009 C 
BRANCH  35  36
HETATM   36  C16 UNL     1      16.679  24.769  19.902  1.00  0.00     0.002 C 
BRANCH  36  37
HETATM   37  C17 UNL     1      17.632  24.981  18.784  1.00  0.00     0.027 C 
BRANCH  37  38
HETATM   38  C18 UNL     1      17.762  26.339  18.217  1.00  0.00     0.229 C 
BRANCH  38  39
HETATM   39  N6  UNL     1      19.101  26.819  18.201  1.00  0.00    -0.079 N 
ATOM     40  H63 UNL     1      19.750  26.073  17.950  1.00  0.00     0.274 HD
ATOM     41  H62 UNL     1      19.251  27.447  17.411  1.00  0.00     0.274 HD
ATOM     42  H61 UNL     1      19.383  27.264  19.074  1.00  0.00     0.274 HD
ENDBRANCH  38  39
ENDBRANCH  37  38
ENDBRANCH  36  37
ENDBRANCH  35  36
ENDBRANCH  34  35
ENDBRANCH  30  34
ENDBRANCH  25  26
ENDBRANCH  24  25
ENDBRANCH  22  24
ENDBRANCH   9  21
BRANCH   1  43
HETATM   43  C3  UNL     1       4.681  15.770  16.977  1.00  0.00     0.312 C 
HETATM   44  O2  UNL     1       3.906  15.253  17.791  1.00  0.00    -0.258 OA
BRANCH  43  45
HETATM   45  O1  UNL     1       3.847  16.580  16.081  1.00  0.00    -0.317 OA
BRANCH  45  46
HETATM   46  C2  UNL     1       2.917  15.946  15.223  1.00  0.00     0.175 C 
HETATM   47  C1  UNL     1       1.591  16.627  15.485  1.00  0.00     0.034 C 
ENDBRANCH  45  46
ENDBRANCH  43  45
ENDBRANCH   1  43
TORSDOF 13
ENDMDL
