MODEL 1
REMARK VINA RESULT: -8.390697737      0.000      0.000
REMARK  13 active torsions:
REMARK  status: ('A' for Active; 'I' for Inactive)
REMARK    1  A    between atoms: O1_2  and  C2_3 
REMARK    2  A    between atoms: C2_3  and  C3_4 
REMARK    3  A    between atoms: C3_4  and  O2_5 
REMARK    4  A    between atoms: O2_5  and  C4_6 
REMARK    5  A    between atoms: C4_6  and  C5_7 
REMARK    6  A    between atoms: C5_7  and  N1_8 
REMARK    7  A    between atoms: N2_11  and  C8_12 
REMARK    8  A    between atoms: C10_14  and  N3_15 
REMARK    9  A    between atoms: N3_15  and  C11_17 
REMARK   10  A    between atoms: C15_29  and  N7_30 
REMARK   11  A    between atoms: C16_35  and  C17_36 
REMARK   12  A    between atoms: C17_36  and  N9_37 
REMARK   13  A    between atoms: N9_37  and  C19_40 
ROOT
HETATM    1  C8  UNL     1      12.483  19.853  17.147  1.00  0.00     0.124 A 
HETATM    2  C9  UNL     1      13.593  19.978  16.374  1.00  0.00     0.098 A 
HETATM    3  C10 UNL     1      14.786  20.573  16.771  1.00  0.00     0.126 A 
HETATM    4  N6  UNL     1      14.854  21.067  18.027  1.00  0.00    -0.177 N 
ATOM      5  H6  UNL     1      15.706  21.513  18.369  1.00  0.00     0.185 HD
HETATM    6  C15 UNL     1      13.770  20.956  18.815  1.00  0.00     0.679 A 
HETATM    7  N8  UNL     1      12.619  20.383  18.427  1.00  0.00    -0.177 N 
ATOM      8  H8  UNL     1      11.835  20.335  19.078  1.00  0.00     0.185 HD
ENDROOT
BRANCH   1   9
HETATM    9  N2  UNL     1      11.308  19.230  16.769  1.00  0.00    -0.330 N 
HETATM   10  C7  UNL     1      11.122  18.856  15.311  1.00  0.00     0.157 C 
HETATM   11  C6  UNL     1      10.963  17.344  15.581  1.00  0.00     0.295 C 
HETATM   12  N1  UNL     1      10.143  17.297  16.743  1.00  0.00     0.120 N 
HETATM   13  C16 UNL     1      10.078  18.714  17.277  1.00  0.00     0.381 C 
BRANCH  12  14
HETATM   14  C5  UNL     1       8.803  16.901  16.365  1.00  0.00     0.301 C 
BRANCH  14  15
HETATM   15  C4  UNL     1       8.759  15.769  15.394  1.00  0.00     0.198 C 
BRANCH  15  16
HETATM   16  O2  UNL     1       7.930  14.731  15.816  1.00  0.00    -0.387 OA
BRANCH  16  17
HETATM   17  C3  UNL     1       6.764  15.113  16.414  1.00  0.00     0.193 C 
BRANCH  17  18
HETATM   18  C2  UNL     1       5.730  15.615  15.431  1.00  0.00     0.193 C 
BRANCH  18  19
HETATM   19  O1  UNL     1       5.082  16.761  15.827  1.00  0.00    -0.394 OA
HETATM   20  C1  UNL     1       5.172  17.084  17.158  1.00  0.00     0.201 C 
ENDBRANCH  18  19
ENDBRANCH  17  18
ENDBRANCH  16  17
ENDBRANCH  15  16
ENDBRANCH  14  15
ENDBRANCH  12  14
BRANCH  13  21
HETATM   21  C17 UNL     1       9.782  18.680  18.700  1.00  0.00     0.303 C 
BRANCH  21  22
HETATM   22  N9  UNL     1       9.087  19.719  19.345  1.00  0.00     0.036 N 
HETATM   23  C18 UNL     1       7.678  19.749  19.140  1.00  0.00     0.363 C 
HETATM   24  O3  UNL     1       9.597  20.954  19.167  1.00  0.00    -0.060 OA
BRANCH  22  25
HETATM   25  C19 UNL     1       9.230  19.539  20.833  1.00  0.00     0.252 C 
HETATM   26  C20 UNL     1      10.604  18.950  21.049  1.00  0.00     0.050 C 
HETATM   27  C21 UNL     1       8.219  18.483  21.271  1.00  0.00     0.050 C 
ENDBRANCH  22  25
ENDBRANCH  21  22
ENDBRANCH  13  21
ENDBRANCH   1   9
BRANCH   3  28
HETATM   28  N3  UNL     1      15.900  20.697  15.882  1.00  0.00    -0.327 N 
ATOM     29  H3  UNL     1      16.310  19.869  15.449  1.00  0.00     0.169 HD
BRANCH  28  30
HETATM   30  C11 UNL     1      16.376  21.857  15.639  1.00  0.00     0.128 A 
HETATM   31  N4  UNL     1      17.077  22.519  16.551  1.00  0.00    -0.337 N 
HETATM   32  C12 UNL     1      17.559  23.778  16.311  1.00  0.00     0.183 A 
ATOM     33  H4  UNL     1      17.261  22.080  17.453  1.00  0.00     0.168 HD
HETATM   34  N5  UNL     1      17.326  24.380  15.122  1.00  0.00    -0.342 N 
HETATM   35  C13 UNL     1      16.630  23.736  14.201  1.00  0.00     0.125 A 
ATOM     36  H5  UNL     1      17.683  25.317  14.939  1.00  0.00     0.167 HD
HETATM   37 CL1  UNL     1      16.309  24.510  12.663  1.00  0.00    -0.063 Cl
HETATM   38  C14 UNL     1      16.129  22.448  14.423  1.00  0.00     0.093 A 
HETATM   39 BR1  UNL     1      15.150  21.548  13.073  1.00  0.00    -0.044 Br
ENDBRANCH  28  30
ENDBRANCH   3  28
BRANCH   6  40
HETATM   40  N7  UNL     1      13.872  21.424  20.035  1.00  0.00    -0.234 N 
ATOM     41  H72 UNL     1      14.740  21.876  20.324  1.00  0.00     0.174 HD
ATOM     42  H71 UNL     1      13.055  21.324  20.638  1.00  0.00     0.174 HD
ENDBRANCH   6  40
TORSDOF 13
ENDMDL
MODEL 2
REMARK VINA RESULT: -8.385312649      4.440      9.710
REMARK  13 active torsions:
REMARK  status: ('A' for Active; 'I' for Inactive)
REMARK    1  A    between atoms: O1_2  and  C2_3 
REMARK    2  A    between atoms: C2_3  and  C3_4 
REMARK    3  A    between atoms: C3_4  and  O2_5 
REMARK    4  A    between atoms: O2_5  and  C4_6 
REMARK    5  A    between atoms: C4_6  and  C5_7 
REMARK    6  A    between atoms: C5_7  and  N1_8 
REMARK    7  A    between atoms: N2_11  and  C8_12 
REMARK    8  A    between atoms: C10_14  and  N3_15 
REMARK    9  A    between atoms: N3_15  and  C11_17 
REMARK   10  A    between atoms: C15_29  and  N7_30 
REMARK   11  A    between atoms: C16_35  and  C17_36 
REMARK   12  A    between atoms: C17_36  and  N9_37 
REMARK   13  A    between atoms: N9_37  and  C19_40 
ROOT
HETATM    1  C8  UNL     1      12.230  20.612  18.285  1.00  0.00     0.124 A 
HETATM    2  C9  UNL     1      11.226  20.299  17.424  1.00  0.00     0.098 A 
HETATM    3  C10 UNL     1      10.244  19.340  17.649  1.00  0.00     0.126 A 
HETATM    4  N6  UNL     1      10.283  18.664  18.819  1.00  0.00    -0.177 N 
ATOM      5  H6  UNL     1       9.585  17.951  19.035  1.00  0.00     0.185 HD
HETATM    6  C15 UNL     1      11.265  18.954  19.690  1.00  0.00     0.679 A 
HETATM    7  N8  UNL     1      12.213  19.878  19.468  1.00  0.00    -0.177 N 
ATOM      8  H8  UNL     1      12.930  20.046  20.175  1.00  0.00     0.185 HD
ENDROOT
BRANCH   1   9
HETATM    9  N2  UNL     1      13.187  21.589  18.081  1.00  0.00    -0.330 N 
HETATM   10  C7  UNL     1      13.087  22.877  18.875  1.00  0.00     0.157 C 
HETATM   11  C6  UNL     1      14.464  22.721  19.556  1.00  0.00     0.295 C 
HETATM   12  N1  UNL     1      15.304  22.248  18.508  1.00  0.00     0.120 N 
HETATM   13  C16 UNL     1      14.385  21.878  17.361  1.00  0.00     0.381 C 
BRANCH  12  14
HETATM   14  C5  UNL     1      16.161  23.325  18.063  1.00  0.00     0.301 C 
BRANCH  14  15
HETATM   15  C4  UNL     1      16.711  24.158  19.173  1.00  0.00     0.198 C 
BRANCH  15  16
HETATM   16  O2  UNL     1      18.013  24.590  18.925  1.00  0.00    -0.387 OA
BRANCH  16  17
HETATM   17  C3  UNL     1      18.178  25.357  17.808  1.00  0.00     0.193 C 
BRANCH  17  18
HETATM   18  C2  UNL     1      17.782  26.802  18.016  1.00  0.00     0.193 C 
BRANCH  18  19
HETATM   19  O1  UNL     1      17.779  27.559  16.869  1.00  0.00    -0.394 OA
HETATM   20  C1  UNL     1      18.213  26.936  15.725  1.00  0.00     0.201 C 
ENDBRANCH  18  19
ENDBRANCH  17  18
ENDBRANCH  16  17
ENDBRANCH  15  16
ENDBRANCH  14  15
ENDBRANCH  12  14
BRANCH  13  21
HETATM   21  C17 UNL     1      15.039  20.889  16.519  1.00  0.00     0.303 C 
BRANCH  21  22
HETATM   22  N9  UNL     1      14.979  20.943  15.115  1.00  0.00     0.036 N 
HETATM   23  C18 UNL     1      13.695  21.201  14.555  1.00  0.00     0.363 C 
HETATM   24  O3  UNL     1      15.555  19.910  14.470  1.00  0.00    -0.060 OA
BRANCH  22  25
HETATM   25  C19 UNL     1      15.815  22.104  14.646  1.00  0.00     0.252 C 
HETATM   26  C20 UNL     1      15.404  22.360  13.215  1.00  0.00     0.050 C 
HETATM   27  C21 UNL     1      17.270  21.645  14.615  1.00  0.00     0.050 C 
ENDBRANCH  22  25
ENDBRANCH  21  22
ENDBRANCH  13  21
ENDBRANCH   1   9
BRANCH   3  28
HETATM   28  N3  UNL     1       9.240  19.045  16.674  1.00  0.00    -0.327 N 
ATOM     29  H3  UNL     1       8.531  19.738  16.436  1.00  0.00     0.169 HD
BRANCH  28  30
HETATM   30  C11 UNL     1       9.243  17.901  16.105  1.00  0.00     0.128 A 
HETATM   31  N4  UNL     1      10.184  17.571  15.229  1.00  0.00    -0.337 N 
HETATM   32  C12 UNL     1      10.174  16.361  14.588  1.00  0.00     0.183 A 
ATOM     33  H4  UNL     1      10.932  18.234  15.028  1.00  0.00     0.168 HD
HETATM   34  N5  UNL     1       9.190  15.467  14.839  1.00  0.00    -0.342 N 
HETATM   35  C13 UNL     1       8.245  15.778  15.708  1.00  0.00     0.125 A 
ATOM     36  H5  UNL     1       9.179  14.564  14.363  1.00  0.00     0.167 HD
HETATM   37 CL1  UNL     1       6.958  14.635  16.031  1.00  0.00    -0.063 Cl
HETATM   38  C14 UNL     1       8.235  17.007  16.377  1.00  0.00     0.093 A 
HETATM   39 BR1  UNL     1       6.873  17.412  17.631  1.00  0.00    -0.044 Br
ENDBRANCH  28  30
ENDBRANCH   3  28
BRANCH   6  40
HETATM   40  N7  UNL     1      11.265  18.298  20.825  1.00  0.00    -0.234 N 
ATOM     41  H72 UNL     1      10.784  18.698  21.631  1.00  0.00     0.174 HD
ATOM     42  H71 UNL     1      11.743  17.397  20.838  1.00  0.00     0.174 HD
ENDBRANCH   6  40
TORSDOF 13
ENDMDL
MODEL 3
REMARK VINA RESULT: -8.307929465      1.853      2.760
REMARK  13 active torsions:
REMARK  status: ('A' for Active; 'I' for Inactive)
REMARK    1  A    between atoms: O1_2  and  C2_3 
REMARK    2  A    between atoms: C2_3  and  C3_4 
REMARK    3  A    between atoms: C3_4  and  O2_5 
REMARK    4  A    between atoms: O2_5  and  C4_6 
REMARK    5  A    between atoms: C4_6  and  C5_7 
REMARK    6  A    between atoms: C5_7  and  N1_8 
REMARK    7  A    between atoms: N2_11  and  C8_12 
REMARK    8  A    between atoms: C10_14  and  N3_15 
REMARK    9  A    between atoms: N3_15  and  C11_17 
REMARK   10  A    between atoms: C15_29  and  N7_30 
REMARK   11  A    between atoms: C16_35  and  C17_36 
REMARK   12  A    between atoms: C17_36  and  N9_37 
REMARK   13  A    between atoms: N9_37  and  C19_40 
ROOT
HETATM    1  C8  UNL     1      10.358  18.262  16.875  1.00  0.00     0.124 A 
HETATM    2  C9  UNL     1      10.872  19.159  15.995  1.00  0.00     0.098 A 
HETATM    3  C10 UNL     1      12.173  19.651  16.016  1.00  0.00     0.126 A 
HETATM    4  N6  UNL     1      12.999  19.201  16.987  1.00  0.00    -0.177 N 
ATOM      5  H6  UNL     1      13.963  19.528  17.047  1.00  0.00     0.185 HD
HETATM    6  C15 UNL     1      12.516  18.310  17.872  1.00  0.00     0.679 A 
HETATM    7  N8  UNL     1      11.258  17.841  17.849  1.00  0.00    -0.177 N 
ATOM      8  H8  UNL     1      10.960  17.166  18.554  1.00  0.00     0.185 HD
ENDROOT
BRANCH   1   9
HETATM    9  N2  UNL     1       9.076  17.743  16.837  1.00  0.00    -0.330 N 
HETATM   10  C7  UNL     1       8.571  17.158  15.532  1.00  0.00     0.157 C 
HETATM   11  C6  UNL     1       8.323  15.747  16.106  1.00  0.00     0.295 C 
HETATM   12  N1  UNL     1       7.749  16.001  17.383  1.00  0.00     0.120 N 
HETATM   13  C16 UNL     1       7.927  17.484  17.643  1.00  0.00     0.381 C 
BRANCH  12  14
HETATM   14  C5  UNL     1       6.329  15.726  17.330  1.00  0.00     0.301 C 
BRANCH  14  15
HETATM   15  C4  UNL     1       5.506  16.886  16.879  1.00  0.00     0.198 C 
BRANCH  15  16
HETATM   16  O2  UNL     1       4.951  16.691  15.615  1.00  0.00    -0.387 OA
BRANCH  16  17
HETATM   17  C3  UNL     1       4.266  15.524  15.445  1.00  0.00     0.193 C 
BRANCH  17  18
HETATM   18  C2  UNL     1       2.812  15.735  15.085  1.00  0.00     0.193 C 
BRANCH  18  19
HETATM   19  O1  UNL     1       2.320  16.975  15.420  1.00  0.00    -0.394 OA
HETATM   20  C1  UNL     1       1.575  17.045  16.571  1.00  0.00     0.201 C 
ENDBRANCH  18  19
ENDBRANCH  17  18
ENDBRANCH  16  17
ENDBRANCH  15  16
ENDBRANCH  14  15
ENDBRANCH  12  14
BRANCH  13  21
HETATM   21  C17 UNL     1       7.917  17.727  19.077  1.00  0.00     0.303 C 
BRANCH  21  22
HETATM   22  N9  UNL     1       7.258  18.833  19.643  1.00  0.00     0.036 N 
HETATM   23  C18 UNL     1       6.196  18.533  20.542  1.00  0.00     0.363 C 
HETATM   24  O3  UNL     1       6.860  19.779  18.770  1.00  0.00    -0.060 OA
BRANCH  22  25
HETATM   25  C19 UNL     1       8.243  19.592  20.492  1.00  0.00     0.252 C 
HETATM   26  C20 UNL     1       8.915  20.578  19.567  1.00  0.00     0.050 C 
HETATM   27  C21 UNL     1       9.316  18.608  20.949  1.00  0.00     0.050 C 
ENDBRANCH  22  25
ENDBRANCH  21  22
ENDBRANCH  13  21
ENDBRANCH   1   9
BRANCH   3  28
HETATM   28  N3  UNL     1      12.628  20.624  15.072  1.00  0.00    -0.327 N 
ATOM     29  H3  UNL     1      12.199  20.688  14.149  1.00  0.00     0.169 HD
BRANCH  28  30
HETATM   30  C11 UNL     1      13.579  21.412  15.399  1.00  0.00     0.128 A 
HETATM   31  N4  UNL     1      13.676  21.899  16.631  1.00  0.00    -0.337 N 
HETATM   32  C12 UNL     1      14.670  22.772  16.980  1.00  0.00     0.183 A 
ATOM     33  H4  UNL     1      12.993  21.615  17.333  1.00  0.00     0.168 HD
HETATM   34  N5  UNL     1      15.586  23.161  16.064  1.00  0.00    -0.342 N 
HETATM   35  C13 UNL     1      15.506  22.687  14.833  1.00  0.00     0.125 A 
ATOM     36  H5  UNL     1      16.329  23.812  16.320  1.00  0.00     0.167 HD
HETATM   37 CL1  UNL     1      16.676  23.196  13.633  1.00  0.00    -0.063 Cl
HETATM   38  C14 UNL     1      14.499  21.792  14.453  1.00  0.00     0.093 A 
HETATM   39 BR1  UNL     1      14.425  21.119  12.683  1.00  0.00    -0.044 Br
ENDBRANCH  28  30
ENDBRANCH   3  28
BRANCH   6  40
HETATM   40  N7  UNL     1      13.345  17.875  18.789  1.00  0.00    -0.234 N 
ATOM     41  H72 UNL     1      14.348  18.005  18.655  1.00  0.00     0.174 HD
ATOM     42  H71 UNL     1      12.934  17.433  19.612  1.00  0.00     0.174 HD
ENDBRANCH   6  40
TORSDOF 13
ENDMDL
MODEL 4
REMARK VINA RESULT: -8.261345711      2.504      3.056
REMARK  13 active torsions:
REMARK  status: ('A' for Active; 'I' for Inactive)
REMARK    1  A    between atoms: O1_2  and  C2_3 
REMARK    2  A    between atoms: C2_3  and  C3_4 
REMARK    3  A    between atoms: C3_4  and  O2_5 
REMARK    4  A    between atoms: O2_5  and  C4_6 
REMARK    5  A    between atoms: C4_6  and  C5_7 
REMARK    6  A    between atoms: C5_7  and  N1_8 
REMARK    7  A    between atoms: N2_11  and  C8_12 
REMARK    8  A    between atoms: C10_14  and  N3_15 
REMARK    9  A    between atoms: N3_15  and  C11_17 
REMARK   10  A    between atoms: C15_29  and  N7_30 
REMARK   11  A    between atoms: C16_35  and  C17_36 
REMARK   12  A    between atoms: C17_36  and  N9_37 
REMARK   13  A    between atoms: N9_37  and  C19_40 
ROOT
HETATM    1  C8  UNL     1      12.550  20.149  16.678  1.00  0.00     0.124 A 
HETATM    2  C9  UNL     1      12.828  21.462  16.883  1.00  0.00     0.098 A 
HETATM    3  C10 UNL     1      14.085  22.046  16.764  1.00  0.00     0.126 A 
HETATM    4  N6  UNL     1      15.118  21.247  16.413  1.00  0.00    -0.177 N 
ATOM      5  H6  UNL     1      16.060  21.625  16.310  1.00  0.00     0.185 HD
HETATM    6  C15 UNL     1      14.870  19.942  16.203  1.00  0.00     0.679 A 
HETATM    7  N8  UNL     1      13.656  19.382  16.321  1.00  0.00    -0.177 N 
ATOM      8  H8  UNL     1      13.542  18.383  16.148  1.00  0.00     0.185 HD
ENDROOT
BRANCH   1   9
HETATM    9  N2  UNL     1      11.296  19.571  16.761  1.00  0.00    -0.330 N 
HETATM   10  C7  UNL     1      10.715  18.922  15.518  1.00  0.00     0.157 C 
HETATM   11  C6  UNL     1      10.584  17.520  16.151  1.00  0.00     0.295 C 
HETATM   12  N1  UNL     1      10.103  17.787  17.463  1.00  0.00     0.120 N 
HETATM   13  C16 UNL     1      10.230  19.284  17.666  1.00  0.00     0.381 C 
BRANCH  12  14
HETATM   14  C5  UNL     1       8.699  17.446  17.535  1.00  0.00     0.301 C 
BRANCH  14  15
HETATM   15  C4  UNL     1       8.379  16.419  18.570  1.00  0.00     0.198 C 
BRANCH  15  16
HETATM   16  O2  UNL     1       7.738  15.302  18.037  1.00  0.00    -0.387 OA
BRANCH  16  17
HETATM   17  C3  UNL     1       6.756  15.563  17.127  1.00  0.00     0.193 C 
BRANCH  17  18
HETATM   18  C2  UNL     1       6.949  14.829  15.819  1.00  0.00     0.193 C 
BRANCH  18  19
HETATM   19  O1  UNL     1       8.255  14.494  15.545  1.00  0.00    -0.394 OA
HETATM   20  C1  UNL     1       8.841  15.138  14.484  1.00  0.00     0.201 C 
ENDBRANCH  18  19
ENDBRANCH  17  18
ENDBRANCH  16  17
ENDBRANCH  15  16
ENDBRANCH  14  15
ENDBRANCH  12  14
BRANCH  13  21
HETATM   21  C17 UNL     1      10.325  19.572  19.088  1.00  0.00     0.303 C 
BRANCH  21  22
HETATM   22  N9  UNL     1       9.373  20.363  19.756  1.00  0.00     0.036 N 
HETATM   23  C18 UNL     1       8.039  20.281  19.266  1.00  0.00     0.363 C 
HETATM   24  O3  UNL     1       9.714  21.656  19.930  1.00  0.00    -0.060 OA
BRANCH  22  25
HETATM   25  C19 UNL     1       9.264  19.880  21.178  1.00  0.00     0.252 C 
HETATM   26  C20 UNL     1      10.426  18.939  21.386  1.00  0.00     0.050 C 
HETATM   27  C21 UNL     1       7.990  19.047  21.288  1.00  0.00     0.050 C 
ENDBRANCH  22  25
ENDBRANCH  21  22
ENDBRANCH  13  21
ENDBRANCH   1   9
BRANCH   3  28
HETATM   28  N3  UNL     1      14.302  23.434  17.032  1.00  0.00    -0.327 N 
ATOM     29  H3  UNL     1      13.563  24.115  16.856  1.00  0.00     0.169 HD
BRANCH  28  30
HETATM   30  C11 UNL     1      15.432  23.809  17.495  1.00  0.00     0.128 A 
HETATM   31  N4  UNL     1      16.466  24.027  16.693  1.00  0.00    -0.337 N 
HETATM   32  C12 UNL     1      17.690  24.394  17.184  1.00  0.00     0.183 A 
ATOM     33  H4  UNL     1      16.347  23.918  15.685  1.00  0.00     0.168 HD
HETATM   34  N5  UNL     1      17.871  24.543  18.516  1.00  0.00    -0.342 N 
HETATM   35  C13 UNL     1      16.853  24.330  19.331  1.00  0.00     0.125 A 
ATOM     36  H5  UNL     1      18.782  24.816  18.886  1.00  0.00     0.167 HD
HETATM   37 CL1  UNL     1      17.078  24.505  21.059  1.00  0.00    -0.063 Cl
HETATM   38  C14 UNL     1      15.592  23.956  18.852  1.00  0.00     0.093 A 
HETATM   39 BR1  UNL     1      14.149  23.677  20.049  1.00  0.00    -0.044 Br
ENDBRANCH  28  30
ENDBRANCH   3  28
BRANCH   6  40
HETATM   40  N7  UNL     1      15.886  19.196  15.842  1.00  0.00    -0.234 N 
ATOM     41  H72 UNL     1      16.119  18.371  16.395  1.00  0.00     0.174 HD
ATOM     42  H71 UNL     1      16.390  19.477  15.000  1.00  0.00     0.174 HD
ENDBRANCH   6  40
TORSDOF 13
ENDMDL
MODEL 5
REMARK VINA RESULT: -8.228937065      1.220      1.449
REMARK  13 active torsions:
REMARK  status: ('A' for Active; 'I' for Inactive)
REMARK    1  A    between atoms: O1_2  and  C2_3 
REMARK    2  A    between atoms: C2_3  and  C3_4 
REMARK    3  A    between atoms: C3_4  and  O2_5 
REMARK    4  A    between atoms: O2_5  and  C4_6 
REMARK    5  A    between atoms: C4_6  and  C5_7 
REMARK    6  A    between atoms: C5_7  and  N1_8 
REMARK    7  A    between atoms: N2_11  and  C8_12 
REMARK    8  A    between atoms: C10_14  and  N3_15 
REMARK    9  A    between atoms: N3_15  and  C11_17 
REMARK   10  A    between atoms: C15_29  and  N7_30 
REMARK   11  A    between atoms: C16_35  and  C17_36 
REMARK   12  A    between atoms: C17_36  and  N9_37 
REMARK   13  A    between atoms: N9_37  and  C19_40 
ROOT
HETATM    1  C8  UNL     1      12.369  19.840  17.061  1.00  0.00     0.124 A 
HETATM    2  C9  UNL     1      13.486  19.950  16.296  1.00  0.00     0.098 A 
HETATM    3  C10 UNL     1      14.701  20.482  16.718  1.00  0.00     0.126 A 
HETATM    4  N6  UNL     1      14.784  20.924  17.993  1.00  0.00    -0.177 N 
ATOM      5  H6  UNL     1      15.652  21.321  18.353  1.00  0.00     0.185 HD
HETATM    6  C15 UNL     1      13.693  20.826  18.774  1.00  0.00     0.679 A 
HETATM    7  N8  UNL     1      12.522  20.314  18.362  1.00  0.00    -0.177 N 
ATOM      8  H8  UNL     1      11.734  20.273  19.009  1.00  0.00     0.185 HD
ENDROOT
BRANCH   1   9
HETATM    9  N2  UNL     1      11.171  19.280  16.658  1.00  0.00    -0.330 N 
HETATM   10  C7  UNL     1      10.950  19.031  15.178  1.00  0.00     0.157 C 
HETATM   11  C6  UNL     1      10.755  17.507  15.328  1.00  0.00     0.295 C 
HETATM   12  N1  UNL     1       9.954  17.385  16.498  1.00  0.00     0.120 N 
HETATM   13  C16 UNL     1       9.937  18.755  17.146  1.00  0.00     0.381 C 
BRANCH  12  14
HETATM   14  C5  UNL     1       8.598  17.056  16.115  1.00  0.00     0.301 C 
BRANCH  14  15
HETATM   15  C4  UNL     1       8.275  15.603  16.230  1.00  0.00     0.198 C 
BRANCH  15  16
HETATM   16  O2  UNL     1       8.043  15.208  17.546  1.00  0.00    -0.387 OA
BRANCH  16  17
HETATM   17  C3  UNL     1       7.103  15.928  18.223  1.00  0.00     0.193 C 
BRANCH  17  18
HETATM   18  C2  UNL     1       7.293  15.891  19.723  1.00  0.00     0.193 C 
BRANCH  18  19
HETATM   19  O1  UNL     1       6.121  15.910  20.443  1.00  0.00    -0.394 OA
HETATM   20  C1  UNL     1       5.123  16.720  19.962  1.00  0.00     0.201 C 
ENDBRANCH  18  19
ENDBRANCH  17  18
ENDBRANCH  16  17
ENDBRANCH  15  16
ENDBRANCH  14  15
ENDBRANCH  12  14
BRANCH  13  21
HETATM   21  C17 UNL     1       9.665  18.612  18.568  1.00  0.00     0.303 C 
BRANCH  21  22
HETATM   22  N9  UNL     1       8.969  19.592  19.298  1.00  0.00     0.036 N 
HETATM   23  C18 UNL     1       7.561  19.640  19.094  1.00  0.00     0.363 C 
HETATM   24  O3  UNL     1       9.479  20.837  19.229  1.00  0.00    -0.060 OA
BRANCH  22  25
HETATM   25  C19 UNL     1       9.108  19.283  20.765  1.00  0.00     0.252 C 
HETATM   26  C20 UNL     1       8.746  20.554  21.494  1.00  0.00     0.050 C 
HETATM   27  C21 UNL     1      10.585  19.015  21.044  1.00  0.00     0.050 C 
ENDBRANCH  22  25
ENDBRANCH  21  22
ENDBRANCH  13  21
ENDBRANCH   1   9
BRANCH   3  28
HETATM   28  N3  UNL     1      15.822  20.595  15.838  1.00  0.00    -0.327 N 
ATOM     29  H3  UNL     1      16.222  19.764  15.402  1.00  0.00     0.169 HD
BRANCH  28  30
HETATM   30  C11 UNL     1      16.315  21.750  15.604  1.00  0.00     0.128 A 
HETATM   31  N4  UNL     1      17.041  22.385  16.515  1.00  0.00    -0.337 N 
HETATM   32  C12 UNL     1      17.543  23.638  16.287  1.00  0.00     0.183 A 
ATOM     33  H4  UNL     1      17.231  21.929  17.408  1.00  0.00     0.168 HD
HETATM   34  N5  UNL     1      17.304  24.262  15.110  1.00  0.00    -0.342 N 
HETATM   35  C13 UNL     1      16.583  23.645  14.191  1.00  0.00     0.125 A 
ATOM     36  H5  UNL     1      17.676  25.196  14.936  1.00  0.00     0.167 HD
HETATM   37 CL1  UNL     1      16.253  24.448  12.669  1.00  0.00    -0.063 Cl
HETATM   38  C14 UNL     1      16.061  22.363  14.401  1.00  0.00     0.093 A 
HETATM   39 BR1  UNL     1      15.045  21.502  13.053  1.00  0.00    -0.044 Br
ENDBRANCH  28  30
ENDBRANCH   3  28
BRANCH   6  40
HETATM   40  N7  UNL     1      13.809  21.242  20.011  1.00  0.00    -0.234 N 
ATOM     41  H72 UNL     1      13.655  22.228  20.222  1.00  0.00     0.174 HD
ATOM     42  H71 UNL     1      14.037  20.539  20.716  1.00  0.00     0.174 HD
ENDBRANCH   6  40
TORSDOF 13
ENDMDL
