MODEL 1
REMARK VINA RESULT: -7.976181215      0.000      0.000
REMARK  13 active torsions:
REMARK  status: ('A' for Active; 'I' for Inactive)
REMARK    1  A    between atoms: C3_3  and  C4_4 
REMARK    2  A    between atoms: C4_4  and  O1_5 
REMARK    3  A    between atoms: O1_5  and  C5_6 
REMARK    4  A    between atoms: N1_10  and  C9_12 
REMARK    5  A    between atoms: C11_17  and  C12_18 
REMARK    6  A    between atoms: C12_18  and  C13_19 
REMARK    7  A    between atoms: C18_29  and  O2_30 
REMARK    8  A    between atoms: O2_30  and  C19_31 
REMARK    9  A    between atoms: C19_31  and  C20_32 
REMARK   10  A    between atoms: C20_32  and  O3_33 
REMARK   11  A    between atoms: O3_33  and  C21_34 
REMARK   12  A    between atoms: C21_34  and  C22_35 
REMARK   13  A    between atoms: C22_35  and  N5_36 
ROOT
HETATM    1  C1  UNL     1       6.277  18.339  21.592  1.00  0.00     0.112 C 
HETATM    2  C2  UNL     1       7.442  19.094  21.118  1.00  0.00    -0.109 C 
HETATM    3  C3  UNL     1       8.395  19.739  20.722  1.00  0.00    -0.080 C 
ENDROOT
BRANCH   3   4
HETATM    4  C4  UNL     1       9.532  20.525  20.217  1.00  0.00     0.269 C 
BRANCH   4   5
HETATM    5  O1  UNL     1       9.441  20.809  18.862  1.00  0.00    -0.337 OA
BRANCH   5   6
HETATM    6  C5  UNL     1       9.884  19.984  17.873  1.00  0.00     0.104 A 
HETATM    7  C6  UNL     1       9.104  19.016  17.292  1.00  0.00     0.057 A 
HETATM    8  C7  UNL     1       9.630  18.218  16.304  1.00  0.00     0.037 A 
HETATM    9  C8  UNL     1       8.804  17.233  15.736  1.00  0.00     0.115 A 
HETATM   10  C16 UNL     1      10.931  18.383  15.894  1.00  0.00     0.050 A 
HETATM   11  N1  UNL     1       7.615  17.136  16.155  1.00  0.00    -0.369 N 
HETATM   12  N3  UNL     1       9.339  16.463  14.778  1.00  0.00    -0.338 N 
ATOM     13  H1  UNL     1       7.351  17.797  16.886  1.00  0.00     0.161 HD
HETATM   14  C15 UNL     1      10.603  16.611  14.366  1.00  0.00     0.182 A 
ATOM     15  H3  UNL     1       8.762  15.740  14.347  1.00  0.00     0.168 HD
HETATM   16  N4  UNL     1      11.372  17.561  14.927  1.00  0.00    -0.351 N 
ATOM     17  H4  UNL     1      12.334  17.663  14.604  1.00  0.00     0.166 HD
HETATM   18  C17 UNL     1      11.708  19.366  16.489  1.00  0.00     0.070 A 
HETATM   19  C18 UNL     1      11.228  20.197  17.490  1.00  0.00     0.104 A 
BRANCH  11  20
HETATM   20  C9  UNL     1       6.604  16.242  15.752  1.00  0.00     0.111 C 
HETATM   21  C10 UNL     1       6.841  14.887  16.438  1.00  0.00     0.258 C 
HETATM   22  N2  UNL     1       5.576  14.247  16.253  1.00  0.00    -0.066 N 
HETATM   23  C11 UNL     1       4.571  15.255  16.581  1.00  0.00     0.211 C 
ATOM     24  H22 UNL     1       5.457  13.838  15.326  1.00  0.00     0.278 HD
ATOM     25  H21 UNL     1       5.474  13.382  16.782  1.00  0.00     0.278 HD
HETATM   26  C14 UNL     1       5.207  16.570  16.253  1.00  0.00     0.064 C 
BRANCH  23  27
HETATM   27  C12 UNL     1       3.319  15.013  15.819  1.00  0.00     0.013 C 
BRANCH  27  28
HETATM   28  C13 UNL     1       2.713  15.974  15.130  1.00  0.00     0.054 C 
HETATM   29 BR1  UNL     1       1.089  16.792  15.682  1.00  0.00    -0.064 Br
ENDBRANCH  27  28
ENDBRANCH  23  27
ENDBRANCH  11  20
BRANCH  19  30
HETATM   30  O2  UNL     1      11.949  21.097  18.035  1.00  0.00    -0.346 OA
BRANCH  30  31
HETATM   31  C19 UNL     1      12.683  21.999  18.617  1.00  0.00     0.202 C 
BRANCH  31  32
HETATM   32  C20 UNL     1      13.873  21.560  19.432  1.00  0.00     0.194 C 
BRANCH  32  33
HETATM   33  O3  UNL     1      15.077  22.064  19.190  1.00  0.00    -0.384 OA
BRANCH  33  34
HETATM   34  C21 UNL     1      15.270  23.377  18.892  1.00  0.00     0.212 C 
BRANCH  34  35
HETATM   35  C22 UNL     1      16.470  23.600  17.987  1.00  0.00     0.089 C 
BRANCH  35  36
HETATM   36  N5  UNL     1      16.225  23.358  16.649  1.00  0.00    -0.349 N 
HETATM   37  C23 UNL     1      15.819  22.498  15.874  1.00  0.00     0.139 C 
HETATM   38  N6  UNL     1      15.360  21.181  16.099  1.00  0.00    -0.370 N 
HETATM   39  S1  UNL     1      15.709  22.676  14.085  1.00  0.00    -0.093 SA
HETATM   40  C24 UNL     1      15.827  20.301  15.043  1.00  0.00     0.132 C 
ATOM     41  H6  UNL     1      14.784  20.891  16.888  1.00  0.00     0.161 HD
HETATM   42  C25 UNL     1      15.359  20.905  13.717  1.00  0.00     0.102 C 
ATOM     43  H5  UNL     1      16.469  24.193  16.115  1.00  0.00     0.167 HD
ENDBRANCH  35  36
ENDBRANCH  34  35
ENDBRANCH  33  34
ENDBRANCH  32  33
ENDBRANCH  31  32
ENDBRANCH  30  31
ENDBRANCH  19  30
ENDBRANCH   5   6
ENDBRANCH   4   5
ENDBRANCH   3   4
TORSDOF 13
ENDMDL
MODEL 2
REMARK VINA RESULT: -7.852450711      1.965      2.864
REMARK  13 active torsions:
REMARK  status: ('A' for Active; 'I' for Inactive)
REMARK    1  A    between atoms: C3_3  and  C4_4 
REMARK    2  A    between atoms: C4_4  and  O1_5 
REMARK    3  A    between atoms: O1_5  and  C5_6 
REMARK    4  A    between atoms: N1_10  and  C9_12 
REMARK    5  A    between atoms: C11_17  and  C12_18 
REMARK    6  A    between atoms: C12_18  and  C13_19 
REMARK    7  A    between atoms: C18_29  and  O2_30 
REMARK    8  A    between atoms: O2_30  and  C19_31 
REMARK    9  A    between atoms: C19_31  and  C20_32 
REMARK   10  A    between atoms: C20_32  and  O3_33 
REMARK   11  A    between atoms: O3_33  and  C21_34 
REMARK   12  A    between atoms: C21_34  and  C22_35 
REMARK   13  A    between atoms: C22_35  and  N5_36 
ROOT
HETATM    1  C1  UNL     1       8.395  20.126  21.391  1.00  0.00     0.112 C 
HETATM    2  C2  UNL     1       9.387  20.492  20.375  1.00  0.00    -0.109 C 
HETATM    3  C3  UNL     1      10.207  20.819  19.538  1.00  0.00    -0.080 C 
ENDROOT
BRANCH   3   4
HETATM    4  C4  UNL     1      11.178  21.231  18.512  1.00  0.00     0.269 C 
BRANCH   4   5
HETATM    5  O1  UNL     1      10.702  21.080  17.216  1.00  0.00    -0.337 OA
BRANCH   5   6
HETATM    6  C5  UNL     1      10.557  19.882  16.587  1.00  0.00     0.104 A 
HETATM    7  C6  UNL     1       9.451  19.084  16.729  1.00  0.00     0.057 A 
HETATM    8  C7  UNL     1       9.386  17.882  16.064  1.00  0.00     0.037 A 
HETATM    9  C8  UNL     1       8.239  17.087  16.239  1.00  0.00     0.115 A 
HETATM   10  C16 UNL     1      10.421  17.475  15.257  1.00  0.00     0.050 A 
HETATM   11  N1  UNL     1       7.320  17.521  16.991  1.00  0.00    -0.369 N 
HETATM   12  N3  UNL     1       8.199  15.918  15.584  1.00  0.00    -0.338 N 
ATOM     13  H1  UNL     1       7.493  18.432  17.416  1.00  0.00     0.161 HD
HETATM   14  C15 UNL     1       9.197  15.507  14.795  1.00  0.00     0.182 A 
ATOM     15  H3  UNL     1       7.379  15.321  15.692  1.00  0.00     0.168 HD
HETATM   16  N4  UNL     1      10.283  16.288  14.646  1.00  0.00    -0.351 N 
ATOM     17  H4  UNL     1      11.038  15.962  14.040  1.00  0.00     0.166 HD
HETATM   18  C17 UNL     1      11.533  18.293  15.121  1.00  0.00     0.070 A 
HETATM   19  C18 UNL     1      11.650  19.513  15.770  1.00  0.00     0.104 A 
BRANCH  11  20
HETATM   20  C9  UNL     1       6.090  16.921  17.324  1.00  0.00     0.111 C 
HETATM   21  C10 UNL     1       6.292  16.036  18.564  1.00  0.00     0.258 C 
HETATM   22  N2  UNL     1       4.943  15.828  18.990  1.00  0.00    -0.066 N 
HETATM   23  C11 UNL     1       4.299  17.137  18.916  1.00  0.00     0.211 C 
ATOM     24  H22 UNL     1       4.456  15.102  18.463  1.00  0.00     0.278 HD
ATOM     25  H21 UNL     1       4.867  15.386  19.906  1.00  0.00     0.278 HD
HETATM   26  C14 UNL     1       5.018  17.872  17.827  1.00  0.00     0.064 C 
BRANCH  23  27
HETATM   27  C12 UNL     1       2.844  16.990  18.652  1.00  0.00     0.013 C 
BRANCH  27  28
HETATM   28  C13 UNL     1       2.267  17.500  17.570  1.00  0.00     0.054 C 
HETATM   29 BR1  UNL     1       1.960  16.504  15.980  1.00  0.00    -0.064 Br
ENDBRANCH  27  28
ENDBRANCH  23  27
ENDBRANCH  11  20
BRANCH  19  30
HETATM   30  O2  UNL     1      12.678  20.259  15.643  1.00  0.00    -0.346 OA
BRANCH  30  31
HETATM   31  C19 UNL     1      13.742  20.994  15.511  1.00  0.00     0.202 C 
BRANCH  31  32
HETATM   32  C20 UNL     1      15.069  20.323  15.265  1.00  0.00     0.194 C 
BRANCH  32  33
HETATM   33  O3  UNL     1      16.167  21.048  15.089  1.00  0.00    -0.384 OA
BRANCH  33  34
HETATM   34  C21 UNL     1      16.131  22.315  14.593  1.00  0.00     0.212 C 
BRANCH  34  35
HETATM   35  C22 UNL     1      17.130  23.236  15.273  1.00  0.00     0.089 C 
BRANCH  35  36
HETATM   36  N5  UNL     1      16.670  23.807  16.443  1.00  0.00    -0.349 N 
HETATM   37  C23 UNL     1      16.222  23.530  17.551  1.00  0.00     0.139 C 
HETATM   38  N6  UNL     1      15.958  22.286  18.166  1.00  0.00    -0.370 N 
HETATM   39  S1  UNL     1      15.708  24.725  18.797  1.00  0.00    -0.093 SA
HETATM   40  C24 UNL     1      14.732  22.359  18.939  1.00  0.00     0.132 C 
ATOM     41  H6  UNL     1      16.544  21.456  18.079  1.00  0.00     0.161 HD
HETATM   42  C25 UNL     1      14.893  23.517  19.925  1.00  0.00     0.102 C 
ATOM     43  H5  UNL     1      16.721  24.823  16.355  1.00  0.00     0.167 HD
ENDBRANCH  35  36
ENDBRANCH  34  35
ENDBRANCH  33  34
ENDBRANCH  32  33
ENDBRANCH  31  32
ENDBRANCH  30  31
ENDBRANCH  19  30
ENDBRANCH   5   6
ENDBRANCH   4   5
ENDBRANCH   3   4
TORSDOF 13
ENDMDL
MODEL 3
REMARK VINA RESULT: -7.842363431      2.133      3.300
REMARK  13 active torsions:
REMARK  status: ('A' for Active; 'I' for Inactive)
REMARK    1  A    between atoms: C3_3  and  C4_4 
REMARK    2  A    between atoms: C4_4  and  O1_5 
REMARK    3  A    between atoms: O1_5  and  C5_6 
REMARK    4  A    between atoms: N1_10  and  C9_12 
REMARK    5  A    between atoms: C11_17  and  C12_18 
REMARK    6  A    between atoms: C12_18  and  C13_19 
REMARK    7  A    between atoms: C18_29  and  O2_30 
REMARK    8  A    between atoms: O2_30  and  C19_31 
REMARK    9  A    between atoms: C19_31  and  C20_32 
REMARK   10  A    between atoms: C20_32  and  O3_33 
REMARK   11  A    between atoms: O3_33  and  C21_34 
REMARK   12  A    between atoms: C21_34  and  C22_35 
REMARK   13  A    between atoms: C22_35  and  N5_36 
ROOT
HETATM    1  C1  UNL     1      14.044  22.582  20.081  1.00  0.00     0.112 C 
HETATM    2  C2  UNL     1      12.761  21.981  19.703  1.00  0.00    -0.109 C 
HETATM    3  C3  UNL     1      11.694  21.475  19.411  1.00  0.00    -0.080 C 
ENDROOT
BRANCH   3   4
HETATM    4  C4  UNL     1      10.414  20.835  19.067  1.00  0.00     0.269 C 
BRANCH   4   5
HETATM    5  O1  UNL     1      10.150  20.838  17.704  1.00  0.00    -0.337 OA
BRANCH   5   6
HETATM    6  C5  UNL     1      10.192  19.731  16.912  1.00  0.00     0.104 A 
HETATM    7  C6  UNL     1       9.226  18.757  16.925  1.00  0.00     0.057 A 
HETATM    8  C7  UNL     1       9.347  17.665  16.099  1.00  0.00     0.037 A 
HETATM    9  C8  UNL     1       8.342  16.684  16.144  1.00  0.00     0.115 A 
HETATM   10  C16 UNL     1      10.428  17.543  15.258  1.00  0.00     0.050 A 
HETATM   11  N1  UNL     1       7.372  16.858  16.936  1.00  0.00    -0.369 N 
HETATM   12  N3  UNL     1       8.483  15.626  15.333  1.00  0.00    -0.338 N 
ATOM     13  H1  UNL     1       7.402  17.716  17.486  1.00  0.00     0.161 HD
HETATM   14  C15 UNL     1       9.527  15.491  14.509  1.00  0.00     0.182 A 
ATOM     15  H3  UNL     1       7.768  14.898  15.344  1.00  0.00     0.168 HD
HETATM   16  N4  UNL     1      10.475  16.446  14.486  1.00  0.00    -0.351 N 
ATOM     17  H4  UNL     1      11.267  16.331  13.853  1.00  0.00     0.166 HD
HETATM   18  C17 UNL     1      11.396  18.537  15.255  1.00  0.00     0.070 A 
HETATM   19  C18 UNL     1      11.323  19.657  16.068  1.00  0.00     0.104 A 
BRANCH  11  20
HETATM   20  C9  UNL     1       6.254  16.031  17.163  1.00  0.00     0.111 C 
HETATM   21  C10 UNL     1       5.752  16.262  18.597  1.00  0.00     0.258 C 
HETATM   22  N2  UNL     1       4.447  15.682  18.540  1.00  0.00    -0.066 N 
HETATM   23  C11 UNL     1       3.855  16.160  17.293  1.00  0.00     0.211 C 
ATOM     24  H22 UNL     1       4.448  14.665  18.629  1.00  0.00     0.278 HD
ATOM     25  H21 UNL     1       3.877  15.876  19.363  1.00  0.00     0.278 HD
HETATM   26  C14 UNL     1       5.010  16.385  16.367  1.00  0.00     0.064 C 
BRANCH  23  27
HETATM   27  C12 UNL     1       2.876  15.174  16.767  1.00  0.00     0.013 C 
BRANCH  27  28
HETATM   28  C13 UNL     1       3.208  14.264  15.858  1.00  0.00     0.054 C 
HETATM   29 BR1  UNL     1       3.381  12.412  16.246  1.00  0.00    -0.064 Br
ENDBRANCH  27  28
ENDBRANCH  23  27
ENDBRANCH  11  20
BRANCH  19  30
HETATM   30  O2  UNL     1      12.219  20.566  16.061  1.00  0.00    -0.346 OA
BRANCH  30  31
HETATM   31  C19 UNL     1      13.135  21.488  16.026  1.00  0.00     0.202 C 
BRANCH  31  32
HETATM   32  C20 UNL     1      14.530  21.153  16.489  1.00  0.00     0.194 C 
BRANCH  32  33
HETATM   33  O3  UNL     1      15.579  21.434  15.726  1.00  0.00    -0.384 OA
BRANCH  33  34
HETATM   34  C21 UNL     1      15.492  22.253  14.643  1.00  0.00     0.212 C 
BRANCH  34  35
HETATM   35  C22 UNL     1      16.825  22.889  14.284  1.00  0.00     0.089 C 
BRANCH  35  36
HETATM   36  N5  UNL     1      17.237  23.875  15.158  1.00  0.00    -0.349 N 
HETATM   37  C23 UNL     1      17.533  24.073  16.332  1.00  0.00     0.139 C 
HETATM   38  N6  UNL     1      17.574  23.204  17.444  1.00  0.00    -0.370 N 
HETATM   39  S1  UNL     1      18.013  25.663  17.032  1.00  0.00    -0.093 SA
HETATM   40  C24 UNL     1      17.090  23.885  18.631  1.00  0.00     0.132 C 
ATOM     41  H6  UNL     1      17.896  22.237  17.417  1.00  0.00     0.161 HD
HETATM   42  C25 UNL     1      17.938  25.147  18.799  1.00  0.00     0.102 C 
ATOM     43  H5  UNL     1      17.328  24.752  14.644  1.00  0.00     0.167 HD
ENDBRANCH  35  36
ENDBRANCH  34  35
ENDBRANCH  33  34
ENDBRANCH  32  33
ENDBRANCH  31  32
ENDBRANCH  30  31
ENDBRANCH  19  30
ENDBRANCH   5   6
ENDBRANCH   4   5
ENDBRANCH   3   4
TORSDOF 13
ENDMDL
MODEL 4
REMARK VINA RESULT: -7.782905149      2.711      4.483
REMARK  13 active torsions:
REMARK  status: ('A' for Active; 'I' for Inactive)
REMARK    1  A    between atoms: C3_3  and  C4_4 
REMARK    2  A    between atoms: C4_4  and  O1_5 
REMARK    3  A    between atoms: O1_5  and  C5_6 
REMARK    4  A    between atoms: N1_10  and  C9_12 
REMARK    5  A    between atoms: C11_17  and  C12_18 
REMARK    6  A    between atoms: C12_18  and  C13_19 
REMARK    7  A    between atoms: C18_29  and  O2_30 
REMARK    8  A    between atoms: O2_30  and  C19_31 
REMARK    9  A    between atoms: C19_31  and  C20_32 
REMARK   10  A    between atoms: C20_32  and  O3_33 
REMARK   11  A    between atoms: O3_33  and  C21_34 
REMARK   12  A    between atoms: C21_34  and  C22_35 
REMARK   13  A    between atoms: C22_35  and  N5_36 
ROOT
HETATM    1  C1  UNL     1      15.015  24.084  20.736  1.00  0.00     0.112 C 
HETATM    2  C2  UNL     1      14.153  22.973  20.316  1.00  0.00    -0.109 C 
HETATM    3  C3  UNL     1      13.459  22.040  19.961  1.00  0.00    -0.080 C 
ENDROOT
BRANCH   3   4
HETATM    4  C4  UNL     1      12.629  20.914  19.502  1.00  0.00     0.269 C 
BRANCH   4   5
HETATM    5  O1  UNL     1      12.073  21.120  18.248  1.00  0.00    -0.337 OA
BRANCH   5   6
HETATM    6  C5  UNL     1      11.500  20.143  17.492  1.00  0.00     0.104 A 
HETATM    7  C6  UNL     1      10.225  19.681  17.696  1.00  0.00     0.057 A 
HETATM    8  C7  UNL     1       9.723  18.685  16.893  1.00  0.00     0.037 A 
HETATM    9  C8  UNL     1       8.414  18.232  17.135  1.00  0.00     0.115 A 
HETATM   10  C16 UNL     1      10.490  18.148  15.886  1.00  0.00     0.050 A 
HETATM   11  N1  UNL     1       7.759  18.771  18.073  1.00  0.00    -0.369 N 
HETATM   12  N3  UNL     1       7.947  17.257  16.342  1.00  0.00    -0.338 N 
ATOM     13  H1  UNL     1       8.248  19.505  18.585  1.00  0.00     0.161 HD
HETATM   14  C15 UNL     1       8.679  16.724  15.359  1.00  0.00     0.182 A 
ATOM     15  H3  UNL     1       7.000  16.909  16.495  1.00  0.00     0.168 HD
HETATM   16  N4  UNL     1       9.929  17.176  15.149  1.00  0.00    -0.351 N 
ATOM     17  H4  UNL     1      10.477  16.760  14.395  1.00  0.00     0.166 HD
HETATM   18  C17 UNL     1      11.777  18.625  15.691  1.00  0.00     0.070 A 
HETATM   19  C18 UNL     1      12.332  19.627  16.472  1.00  0.00     0.104 A 
BRANCH  11  20
HETATM   20  C9  UNL     1       6.448  18.498  18.509  1.00  0.00     0.111 C 
HETATM   21  C10 UNL     1       6.508  17.436  19.619  1.00  0.00     0.258 C 
HETATM   22  N2  UNL     1       5.208  17.557  20.201  1.00  0.00    -0.066 N 
HETATM   23  C11 UNL     1       4.969  18.991  20.343  1.00  0.00     0.211 C 
ATOM     24  H22 UNL     1       4.479  17.071  19.678  1.00  0.00     0.278 HD
ATOM     25  H21 UNL     1       5.100  17.037  21.072  1.00  0.00     0.278 HD
HETATM   26  C14 UNL     1       5.757  19.634  19.243  1.00  0.00     0.064 C 
BRANCH  23  27
HETATM   27  C12 UNL     1       3.517  19.290  20.265  1.00  0.00     0.013 C 
BRANCH  27  28
HETATM   28  C13 UNL     1       3.004  20.063  19.314  1.00  0.00     0.054 C 
HETATM   29 BR1  UNL     1       2.404  21.841  19.621  1.00  0.00    -0.064 Br
ENDBRANCH  27  28
ENDBRANCH  23  27
ENDBRANCH  11  20
BRANCH  19  30
HETATM   30  O2  UNL     1      13.519  20.059  16.288  1.00  0.00    -0.346 OA
BRANCH  30  31
HETATM   31  C19 UNL     1      14.731  20.480  16.078  1.00  0.00     0.202 C 
BRANCH  31  32
HETATM   32  C20 UNL     1      15.603  19.742  15.095  1.00  0.00     0.194 C 
BRANCH  32  33
HETATM   33  O3  UNL     1      16.046  20.348  14.000  1.00  0.00    -0.384 OA
BRANCH  33  34
HETATM   34  C21 UNL     1      16.426  21.655  13.996  1.00  0.00     0.212 C 
BRANCH  34  35
HETATM   35  C22 UNL     1      17.797  21.866  14.615  1.00  0.00     0.089 C 
BRANCH  35  36
HETATM   36  N5  UNL     1      17.774  22.477  15.853  1.00  0.00    -0.349 N 
HETATM   37  C23 UNL     1      17.635  23.567  16.397  1.00  0.00     0.139 C 
HETATM   38  N6  UNL     1      17.402  24.855  15.863  1.00  0.00    -0.370 N 
HETATM   39  S1  UNL     1      17.724  23.866  18.172  1.00  0.00    -0.093 SA
HETATM   40  C24 UNL     1      18.154  25.849  16.606  1.00  0.00     0.132 C 
ATOM     41  H6  UNL     1      16.794  25.056  15.071  1.00  0.00     0.161 HD
HETATM   42  C25 UNL     1      17.756  25.706  18.076  1.00  0.00     0.102 C 
ATOM     43  H5  UNL     1      17.926  21.769  16.572  1.00  0.00     0.167 HD
ENDBRANCH  35  36
ENDBRANCH  34  35
ENDBRANCH  33  34
ENDBRANCH  32  33
ENDBRANCH  31  32
ENDBRANCH  30  31
ENDBRANCH  19  30
ENDBRANCH   5   6
ENDBRANCH   4   5
ENDBRANCH   3   4
TORSDOF 13
ENDMDL
MODEL 5
REMARK VINA RESULT: -7.734518036      4.655     10.142
REMARK  13 active torsions:
REMARK  status: ('A' for Active; 'I' for Inactive)
REMARK    1  A    between atoms: C3_3  and  C4_4 
REMARK    2  A    between atoms: C4_4  and  O1_5 
REMARK    3  A    between atoms: O1_5  and  C5_6 
REMARK    4  A    between atoms: N1_10  and  C9_12 
REMARK    5  A    between atoms: C11_17  and  C12_18 
REMARK    6  A    between atoms: C12_18  and  C13_19 
REMARK    7  A    between atoms: C18_29  and  O2_30 
REMARK    8  A    between atoms: O2_30  and  C19_31 
REMARK    9  A    between atoms: C19_31  and  C20_32 
REMARK   10  A    between atoms: C20_32  and  O3_33 
REMARK   11  A    between atoms: O3_33  and  C21_34 
REMARK   12  A    between atoms: C21_34  and  C22_35 
REMARK   13  A    between atoms: C22_35  and  N5_36 
ROOT
HETATM    1  C1  UNL     1       4.628  18.898  19.809  1.00  0.00     0.112 C 
HETATM    2  C2  UNL     1       5.967  19.496  19.802  1.00  0.00    -0.109 C 
HETATM    3  C3  UNL     1       7.069  20.010  19.809  1.00  0.00    -0.080 C 
ENDROOT
BRANCH   3   4
HETATM    4  C4  UNL     1       8.391  20.657  19.805  1.00  0.00     0.269 C 
BRANCH   4   5
HETATM    5  O1  UNL     1       9.442  19.754  19.888  1.00  0.00    -0.337 OA
BRANCH   5   6
HETATM    6  C5  UNL     1      10.398  19.598  18.930  1.00  0.00     0.104 A 
HETATM    7  C6  UNL     1      11.460  20.452  18.779  1.00  0.00     0.057 A 
HETATM    8  C7  UNL     1      12.378  20.229  17.780  1.00  0.00     0.037 A 
HETATM    9  C8  UNL     1      13.451  21.128  17.650  1.00  0.00     0.115 A 
HETATM   10  C16 UNL     1      12.240  19.155  16.934  1.00  0.00     0.050 A 
HETATM   11  N1  UNL     1      13.523  22.093  18.464  1.00  0.00    -0.369 N 
HETATM   12  N3  UNL     1      14.331  20.893  16.667  1.00  0.00    -0.338 N 
ATOM     13  H1  UNL     1      12.781  22.136  19.162  1.00  0.00     0.161 HD
HETATM   14  C15 UNL     1      14.212  19.853  15.835  1.00  0.00     0.182 A 
ATOM     15  H3  UNL     1      15.120  21.529  16.550  1.00  0.00     0.168 HD
HETATM   16  N4  UNL     1      13.175  19.008  15.982  1.00  0.00    -0.351 N 
ATOM     17  H4  UNL     1      13.096  18.218  15.340  1.00  0.00     0.166 HD
HETATM   18  C17 UNL     1      11.161  18.299  17.099  1.00  0.00     0.070 A 
HETATM   19  C18 UNL     1      10.207  18.478  18.089  1.00  0.00     0.104 A 
BRANCH  11  20
HETATM   20  C9  UNL     1      14.488  23.117  18.541  1.00  0.00     0.111 C 
HETATM   21  C10 UNL     1      13.827  24.448  18.153  1.00  0.00     0.258 C 
HETATM   22  N2  UNL     1      14.780  25.395  18.642  1.00  0.00    -0.066 N 
HETATM   23  C11 UNL     1      15.148  24.931  19.978  1.00  0.00     0.211 C 
ATOM     24  H22 UNL     1      15.579  25.529  18.022  1.00  0.00     0.278 HD
ATOM     25  H21 UNL     1      14.447  26.358  18.622  1.00  0.00     0.278 HD
HETATM   26  C14 UNL     1      14.979  23.443  19.941  1.00  0.00     0.064 C 
BRANCH  23  27
HETATM   27  C12 UNL     1      16.533  25.348  20.314  1.00  0.00     0.013 C 
BRANCH  27  28
HETATM   28  C13 UNL     1      17.568  25.058  19.533  1.00  0.00     0.054 C 
HETATM   29 BR1  UNL     1      18.108  26.139  18.066  1.00  0.00    -0.064 Br
ENDBRANCH  27  28
ENDBRANCH  23  27
ENDBRANCH  11  20
BRANCH  19  30
HETATM   30  O2  UNL     1       9.215  17.689  18.234  1.00  0.00    -0.346 OA
BRANCH  30  31
HETATM   31  C19 UNL     1       8.220  16.869  18.401  1.00  0.00     0.202 C 
BRANCH  31  32
HETATM   32  C20 UNL     1       8.130  15.640  17.533  1.00  0.00     0.194 C 
BRANCH  32  33
HETATM   33  O3  UNL     1       8.726  15.608  16.348  1.00  0.00    -0.384 OA
BRANCH  33  34
HETATM   34  C21 UNL     1       8.134  15.064  15.250  1.00  0.00     0.212 C 
BRANCH  34  35
HETATM   35  C22 UNL     1       6.974  15.902  14.738  1.00  0.00     0.089 C 
BRANCH  35  36
HETATM   36  N5  UNL     1       5.728  15.394  15.044  1.00  0.00    -0.349 N 
HETATM   37  C23 UNL     1       4.793  15.516  15.829  1.00  0.00     0.139 C 
HETATM   38  N6  UNL     1       4.601  16.390  16.923  1.00  0.00    -0.370 N 
HETATM   39  S1  UNL     1       3.291  14.520  15.827  1.00  0.00    -0.093 SA
HETATM   40  C24 UNL     1       3.942  15.692  18.012  1.00  0.00     0.132 C 
ATOM     41  H6  UNL     1       4.884  17.369  16.944  1.00  0.00     0.161 HD
HETATM   42  C25 UNL     1       2.645  15.107  17.449  1.00  0.00     0.102 C 
ATOM     43  H5  UNL     1       5.504  14.651  14.382  1.00  0.00     0.167 HD
ENDBRANCH  35  36
ENDBRANCH  34  35
ENDBRANCH  33  34
ENDBRANCH  32  33
ENDBRANCH  31  32
ENDBRANCH  30  31
ENDBRANCH  19  30
ENDBRANCH   5   6
ENDBRANCH   4   5
ENDBRANCH   3   4
TORSDOF 13
ENDMDL
