MODEL 1
REMARK VINA RESULT: -8.297996402      0.000      0.000
REMARK  9 active torsions:
REMARK  status: ('A' for Active; 'I' for Inactive)
REMARK    1  A    between atoms: C2_2  and  O1_3 
REMARK    2  A    between atoms: O1_3  and  C3_4 
REMARK    3  A    between atoms: C3_4  and  C4_6 
REMARK    4  A    between atoms: C4_6  and  C5_7 
REMARK    5  A    between atoms: C5_7  and  C6_8 
REMARK    6  A    between atoms: C7_9  and  C8_10 
REMARK    7  A    between atoms: C8_10  and  O3_11 
REMARK    8  A    between atoms: C16_21  and  C18_23 
REMARK    9  A    between atoms: C18_23  and  O5_24 
ROOT
HETATM    1  C8  UNL     1     -25.113  22.220   3.725  1.00  0.00     0.080 C 
HETATM    2  C9  UNL     1     -25.057  21.415   2.464  1.00  0.00     0.050 C 
HETATM    3  C10 UNL     1     -25.482  22.295   1.315  1.00  0.00     0.082 C 
HETATM    4  C11 UNL     1     -25.757  23.678   1.722  1.00  0.00     0.131 C 
HETATM    5  O4  UNL     1     -25.349  24.632   1.088  1.00  0.00    -0.298 OA
HETATM    6  C12 UNL     1     -26.567  24.014   2.959  1.00  0.00     0.062 C 
HETATM    7  C13 UNL     1     -27.907  24.401   2.434  1.00  0.00     0.013 C 
HETATM    8  C14 UNL     1     -28.844  24.988   3.482  1.00  0.00     0.011 C 
HETATM    9  C15 UNL     1     -28.826  24.071   4.635  1.00  0.00     0.056 C 
HETATM   10  C16 UNL     1     -29.719  24.162   5.782  1.00  0.00     0.086 C 
HETATM   11  C17 UNL     1     -30.612  22.921   6.000  1.00  0.00     0.049 C 
HETATM   12  O6  UNL     1     -28.615  23.992   6.622  1.00  0.00    -0.367 OA
HETATM   13  C19 UNL     1     -27.694  24.224   5.572  1.00  0.00     0.065 C 
HETATM   14  C20 UNL     1     -27.030  25.515   5.808  1.00  0.00     0.046 C 
HETATM   15  C21 UNL     1     -26.720  23.093   5.321  1.00  0.00     0.047 C 
HETATM   16  C22 UNL     1     -26.519  22.825   3.851  1.00  0.00     0.038 C 
ENDROOT
BRANCH   1  17
HETATM   17  C7  UNL     1     -24.769  21.412   4.908  1.00  0.00     0.007 C 
HETATM   18  C6  UNL     1     -24.190  20.236   4.725  1.00  0.00    -0.027 C 
BRANCH  18  19
HETATM   19  C5  UNL     1     -23.817  19.373   5.876  1.00  0.00     0.037 C 
BRANCH  19  20
HETATM   20  C4  UNL     1     -23.342  18.010   5.494  1.00  0.00     0.115 C 
BRANCH  20  21
HETATM   21  C3  UNL     1     -21.904  17.987   5.241  1.00  0.00     0.259 C 
HETATM   22  O2  UNL     1     -21.210  18.916   5.780  1.00  0.00    -0.265 OA
BRANCH  21  23
HETATM   23  O1  UNL     1     -21.203  17.077   4.483  1.00  0.00    -0.322 OA
BRANCH  23  24
HETATM   24  C2  UNL     1     -21.685  16.573   3.248  1.00  0.00     0.174 C 
HETATM   25  C1  UNL     1     -21.478  17.639   2.196  1.00  0.00     0.034 C 
ENDBRANCH  23  24
ENDBRANCH  21  23
ENDBRANCH  20  21
ENDBRANCH  19  20
ENDBRANCH  18  19
ENDBRANCH   1  17
BRANCH   1  26
HETATM   26  O3  UNL     1     -24.149  23.251   3.655  1.00  0.00    -0.385 OA
ATOM     27  H3  UNL     1     -23.384  22.933   4.121  1.00  0.00     0.211 HD
ENDBRANCH   1  26
BRANCH  10  28
HETATM   28  C18 UNL     1     -30.534  25.370   6.041  1.00  0.00     0.202 C 
BRANCH  28  29
HETATM   29  O5  UNL     1     -30.734  25.735   7.340  1.00  0.00    -0.398 OA
ATOM     30  H5  UNL     1     -31.557  25.490   7.746  1.00  0.00     0.209 HD
ENDBRANCH  28  29
ENDBRANCH  10  28
TORSDOF 9
ENDMDL
MODEL 2
REMARK VINA RESULT: -8.061737122      2.427      4.971
REMARK  9 active torsions:
REMARK  status: ('A' for Active; 'I' for Inactive)
REMARK    1  A    between atoms: C2_2  and  O1_3 
REMARK    2  A    between atoms: O1_3  and  C3_4 
REMARK    3  A    between atoms: C3_4  and  C4_6 
REMARK    4  A    between atoms: C4_6  and  C5_7 
REMARK    5  A    between atoms: C5_7  and  C6_8 
REMARK    6  A    between atoms: C7_9  and  C8_10 
REMARK    7  A    between atoms: C8_10  and  O3_11 
REMARK    8  A    between atoms: C16_21  and  C18_23 
REMARK    9  A    between atoms: C18_23  and  O5_24 
ROOT
HETATM    1  C8  UNL     1     -26.162  22.698   3.940  1.00  0.00     0.080 C 
HETATM    2  C9  UNL     1     -25.359  23.667   4.751  1.00  0.00     0.050 C 
HETATM    3  C10 UNL     1     -25.972  25.037   4.605  1.00  0.00     0.082 C 
HETATM    4  C11 UNL     1     -27.194  25.036   3.792  1.00  0.00     0.131 C 
HETATM    5  O4  UNL     1     -28.194  25.642   4.127  1.00  0.00    -0.298 OA
HETATM    6  C12 UNL     1     -27.295  24.281   2.482  1.00  0.00     0.062 C 
HETATM    7  C13 UNL     1     -27.164  25.334   1.434  1.00  0.00     0.013 C 
HETATM    8  C14 UNL     1     -27.447  24.846   0.019  1.00  0.00     0.011 C 
HETATM    9  C15 UNL     1     -26.658  23.617  -0.177  1.00  0.00     0.056 C 
HETATM   10  C16 UNL     1     -26.496  22.928  -1.450  1.00  0.00     0.086 C 
HETATM   11  C17 UNL     1     -25.036  22.826  -1.943  1.00  0.00     0.049 C 
HETATM   12  O6  UNL     1     -26.766  21.721  -0.800  1.00  0.00    -0.367 OA
HETATM   13  C19 UNL     1     -27.245  22.373   0.361  1.00  0.00     0.065 C 
HETATM   14  C20 UNL     1     -28.697  22.158   0.455  1.00  0.00     0.046 C 
HETATM   15  C21 UNL     1     -26.510  22.019   1.636  1.00  0.00     0.047 C 
HETATM   16  C22 UNL     1     -26.248  23.226   2.501  1.00  0.00     0.038 C 
ENDROOT
BRANCH   1  17
HETATM   17  C7  UNL     1     -25.590  21.342   3.980  1.00  0.00     0.007 C 
HETATM   18  C6  UNL     1     -24.738  21.042   4.948  1.00  0.00    -0.027 C 
BRANCH  18  19
HETATM   19  C5  UNL     1     -24.125  19.691   5.045  1.00  0.00     0.037 C 
BRANCH  19  20
HETATM   20  C4  UNL     1     -22.640  19.677   4.891  1.00  0.00     0.115 C 
BRANCH  20  21
HETATM   21  C3  UNL     1     -22.237  19.328   3.532  1.00  0.00     0.259 C 
HETATM   22  O2  UNL     1     -21.419  20.122   2.952  1.00  0.00    -0.265 OA
BRANCH  21  23
HETATM   23  O1  UNL     1     -22.638  18.237   2.795  1.00  0.00    -0.322 OA
BRANCH  23  24
HETATM   24  C2  UNL     1     -21.728  17.263   2.309  1.00  0.00     0.174 C 
HETATM   25  C1  UNL     1     -21.034  16.639   3.499  1.00  0.00     0.034 C 
ENDBRANCH  23  24
ENDBRANCH  21  23
ENDBRANCH  20  21
ENDBRANCH  19  20
ENDBRANCH  18  19
ENDBRANCH   1  17
BRANCH   1  26
HETATM   26  O3  UNL     1     -27.458  22.599   4.496  1.00  0.00    -0.385 OA
ATOM     27  H3  UNL     1     -28.067  22.733   3.778  1.00  0.00     0.211 HD
ENDBRANCH   1  26
BRANCH  10  28
HETATM   28  C18 UNL     1     -27.359  23.230  -2.614  1.00  0.00     0.202 C 
BRANCH  28  29
HETATM   29  O5  UNL     1     -27.350  22.351  -3.657  1.00  0.00    -0.398 OA
ATOM     30  H5  UNL     1     -27.760  22.624  -4.469  1.00  0.00     0.209 HD
ENDBRANCH  28  29
ENDBRANCH  10  28
TORSDOF 9
ENDMDL
MODEL 3
REMARK VINA RESULT: -8.043432231      2.362      5.505
REMARK  9 active torsions:
REMARK  status: ('A' for Active; 'I' for Inactive)
REMARK    1  A    between atoms: C2_2  and  O1_3 
REMARK    2  A    between atoms: O1_3  and  C3_4 
REMARK    3  A    between atoms: C3_4  and  C4_6 
REMARK    4  A    between atoms: C4_6  and  C5_7 
REMARK    5  A    between atoms: C5_7  and  C6_8 
REMARK    6  A    between atoms: C7_9  and  C8_10 
REMARK    7  A    between atoms: C8_10  and  O3_11 
REMARK    8  A    between atoms: C16_21  and  C18_23 
REMARK    9  A    between atoms: C18_23  and  O5_24 
ROOT
HETATM    1  C8  UNL     1     -25.264  21.593   4.263  1.00  0.00     0.080 C 
HETATM    2  C9  UNL     1     -25.420  22.334   5.554  1.00  0.00     0.050 C 
HETATM    3  C10 UNL     1     -26.203  23.595   5.290  1.00  0.00     0.082 C 
HETATM    4  C11 UNL     1     -26.648  23.714   3.897  1.00  0.00     0.131 C 
HETATM    5  O4  UNL     1     -27.778  24.058   3.606  1.00  0.00    -0.298 OA
HETATM    6  C12 UNL     1     -25.734  23.418   2.725  1.00  0.00     0.062 C 
HETATM    7  C13 UNL     1     -25.332  24.761   2.216  1.00  0.00     0.013 C 
HETATM    8  C14 UNL     1     -24.572  24.728   0.897  1.00  0.00     0.011 C 
HETATM    9  C15 UNL     1     -23.498  23.729   1.045  1.00  0.00     0.056 C 
HETATM   10  C16 UNL     1     -22.427  23.513   0.083  1.00  0.00     0.086 C 
HETATM   11  C17 UNL     1     -21.006  23.749   0.641  1.00  0.00     0.049 C 
HETATM   12  O6  UNL     1     -22.653  22.138   0.179  1.00  0.00    -0.367 OA
HETATM   13  C19 UNL     1     -23.888  22.318   0.848  1.00  0.00     0.065 C 
HETATM   14  C20 UNL     1     -24.975  21.917  -0.059  1.00  0.00     0.046 C 
HETATM   15  C21 UNL     1     -23.976  21.660   2.208  1.00  0.00     0.047 C 
HETATM   16  C22 UNL     1     -24.642  22.544   3.231  1.00  0.00     0.038 C 
ENDROOT
BRANCH   1  17
HETATM   17  C7  UNL     1     -24.455  20.373   4.424  1.00  0.00     0.007 C 
HETATM   18  C6  UNL     1     -24.041  20.043   5.637  1.00  0.00    -0.027 C 
BRANCH  18  19
HETATM   19  C5  UNL     1     -23.221  18.825   5.868  1.00  0.00     0.037 C 
BRANCH  19  20
HETATM   20  C4  UNL     1     -23.437  17.740   4.865  1.00  0.00     0.115 C 
BRANCH  20  21
HETATM   21  C3  UNL     1     -22.283  17.573   3.987  1.00  0.00     0.259 C 
HETATM   22  O2  UNL     1     -21.225  17.084   4.513  1.00  0.00    -0.265 OA
BRANCH  21  23
HETATM   23  O1  UNL     1     -22.198  17.884   2.649  1.00  0.00    -0.322 OA
BRANCH  23  24
HETATM   24  C2  UNL     1     -20.996  18.327   2.038  1.00  0.00     0.174 C 
HETATM   25  C1  UNL     1     -20.879  19.817   2.266  1.00  0.00     0.034 C 
ENDBRANCH  23  24
ENDBRANCH  21  23
ENDBRANCH  20  21
ENDBRANCH  19  20
ENDBRANCH  18  19
ENDBRANCH   1  17
BRANCH   1  26
HETATM   26  O3  UNL     1     -26.538  21.167   3.821  1.00  0.00    -0.385 OA
ATOM     27  H3  UNL     1     -27.048  21.957   3.677  1.00  0.00     0.211 HD
ENDBRANCH   1  26
BRANCH  10  28
HETATM   28  C18 UNL     1     -22.485  24.073  -1.287  1.00  0.00     0.202 C 
BRANCH  28  29
HETATM   29  O5  UNL     1     -22.498  23.196  -2.331  1.00  0.00    -0.398 OA
ATOM     30  H5  UNL     1     -21.817  23.281  -2.988  1.00  0.00     0.209 HD
ENDBRANCH  28  29
ENDBRANCH  10  28
TORSDOF 9
ENDMDL
MODEL 4
REMARK VINA RESULT: -8.025207298      2.291      4.909
REMARK  9 active torsions:
REMARK  status: ('A' for Active; 'I' for Inactive)
REMARK    1  A    between atoms: C2_2  and  O1_3 
REMARK    2  A    between atoms: O1_3  and  C3_4 
REMARK    3  A    between atoms: C3_4  and  C4_6 
REMARK    4  A    between atoms: C4_6  and  C5_7 
REMARK    5  A    between atoms: C5_7  and  C6_8 
REMARK    6  A    between atoms: C7_9  and  C8_10 
REMARK    7  A    between atoms: C8_10  and  O3_11 
REMARK    8  A    between atoms: C16_21  and  C18_23 
REMARK    9  A    between atoms: C18_23  and  O5_24 
ROOT
HETATM    1  C8  UNL     1     -26.212  22.759   4.004  1.00  0.00     0.080 C 
HETATM    2  C9  UNL     1     -25.433  23.735   4.828  1.00  0.00     0.050 C 
HETATM    3  C10 UNL     1     -26.059  25.098   4.677  1.00  0.00     0.082 C 
HETATM    4  C11 UNL     1     -27.269  25.085   3.845  1.00  0.00     0.131 C 
HETATM    5  O4  UNL     1     -28.281  25.678   4.166  1.00  0.00    -0.298 OA
HETATM    6  C12 UNL     1     -27.342  24.331   2.532  1.00  0.00     0.062 C 
HETATM    7  C13 UNL     1     -27.207  25.387   1.488  1.00  0.00     0.013 C 
HETATM    8  C14 UNL     1     -27.463  24.900   0.068  1.00  0.00     0.011 C 
HETATM    9  C15 UNL     1     -26.657  23.680  -0.118  1.00  0.00     0.056 C 
HETATM   10  C16 UNL     1     -26.468  22.996  -1.390  1.00  0.00     0.086 C 
HETATM   11  C17 UNL     1     -25.000  22.912  -1.861  1.00  0.00     0.049 C 
HETATM   12  O6  UNL     1     -26.733  21.784  -0.747  1.00  0.00    -0.367 OA
HETATM   13  C19 UNL     1     -27.238  22.428   0.409  1.00  0.00     0.065 C 
HETATM   14  C20 UNL     1     -28.688  22.197   0.480  1.00  0.00     0.046 C 
HETATM   15  C21 UNL     1     -26.518  22.080   1.694  1.00  0.00     0.047 C 
HETATM   16  C22 UNL     1     -26.283  23.289   2.565  1.00  0.00     0.038 C 
ENDROOT
BRANCH   1  17
HETATM   17  C7  UNL     1     -25.626  21.409   4.050  1.00  0.00     0.007 C 
HETATM   18  C6  UNL     1     -24.752  21.130   5.005  1.00  0.00    -0.027 C 
BRANCH  18  19
HETATM   19  C5  UNL     1     -24.124  19.787   5.107  1.00  0.00     0.037 C 
BRANCH  19  20
HETATM   20  C4  UNL     1     -23.131  19.656   6.214  1.00  0.00     0.115 C 
BRANCH  20  21
HETATM   21  C3  UNL     1     -22.368  18.414   6.116  1.00  0.00     0.259 C 
HETATM   22  O2  UNL     1     -22.537  17.560   7.053  1.00  0.00    -0.265 OA
BRANCH  21  23
HETATM   23  O1  UNL     1     -21.482  18.052   5.127  1.00  0.00    -0.322 OA
BRANCH  23  24
HETATM   24  C2  UNL     1     -21.855  17.249   4.019  1.00  0.00     0.174 C 
HETATM   25  C1  UNL     1     -20.653  16.425   3.615  1.00  0.00     0.034 C 
ENDBRANCH  23  24
ENDBRANCH  21  23
ENDBRANCH  20  21
ENDBRANCH  19  20
ENDBRANCH  18  19
ENDBRANCH   1  17
BRANCH   1  26
HETATM   26  O3  UNL     1     -27.516  22.643   4.540  1.00  0.00    -0.385 OA
ATOM     27  H3  UNL     1     -27.916  23.501   4.455  1.00  0.00     0.211 HD
ENDBRANCH   1  26
BRANCH  10  28
HETATM   28  C18 UNL     1     -27.317  23.290  -2.567  1.00  0.00     0.202 C 
BRANCH  28  29
HETATM   29  O5  UNL     1     -27.364  22.362  -3.564  1.00  0.00    -0.398 OA
ATOM     30  H5  UNL     1     -28.064  21.720  -3.539  1.00  0.00     0.209 HD
ENDBRANCH  28  29
ENDBRANCH  10  28
TORSDOF 9
ENDMDL
MODEL 5
REMARK VINA RESULT: -7.911066878      2.610      6.529
REMARK  9 active torsions:
REMARK  status: ('A' for Active; 'I' for Inactive)
REMARK    1  A    between atoms: C2_2  and  O1_3 
REMARK    2  A    between atoms: O1_3  and  C3_4 
REMARK    3  A    between atoms: C3_4  and  C4_6 
REMARK    4  A    between atoms: C4_6  and  C5_7 
REMARK    5  A    between atoms: C5_7  and  C6_8 
REMARK    6  A    between atoms: C7_9  and  C8_10 
REMARK    7  A    between atoms: C8_10  and  O3_11 
REMARK    8  A    between atoms: C16_21  and  C18_23 
REMARK    9  A    between atoms: C18_23  and  O5_24 
ROOT
HETATM    1  C8  UNL     1     -25.262  23.125   3.471  1.00  0.00     0.080 C 
HETATM    2  C9  UNL     1     -24.980  21.810   4.128  1.00  0.00     0.050 C 
HETATM    3  C10 UNL     1     -24.066  21.013   3.232  1.00  0.00     0.082 C 
HETATM    4  C11 UNL     1     -23.656  21.749   2.030  1.00  0.00     0.131 C 
HETATM    5  O4  UNL     1     -22.504  21.759   1.639  1.00  0.00    -0.298 OA
HETATM    6  C12 UNL     1     -24.636  22.546   1.193  1.00  0.00     0.062 C 
HETATM    7  C13 UNL     1     -24.897  21.686   0.003  1.00  0.00     0.013 C 
HETATM    8  C14 UNL     1     -25.698  22.368  -1.098  1.00  0.00     0.011 C 
HETATM    9  C15 UNL     1     -26.874  22.982  -0.455  1.00  0.00     0.056 C 
HETATM   10  C16 UNL     1     -27.994  23.578  -1.170  1.00  0.00     0.086 C 
HETATM   11  C17 UNL     1     -29.359  22.911  -0.895  1.00  0.00     0.049 C 
HETATM   12  O6  UNL     1     -27.924  24.676  -0.310  1.00  0.00    -0.367 OA
HETATM   13  C19 UNL     1     -26.656  24.293   0.188  1.00  0.00     0.065 C 
HETATM   14  C20 UNL     1     -25.653  25.255  -0.295  1.00  0.00     0.046 C 
HETATM   15  C21 UNL     1     -26.600  24.079   1.685  1.00  0.00     0.047 C 
HETATM   16  C22 UNL     1     -25.803  22.855   2.060  1.00  0.00     0.038 C 
ENDROOT
BRANCH   1  17
HETATM   17  C7  UNL     1     -26.200  23.943   4.258  1.00  0.00     0.007 C 
HETATM   18  C6  UNL     1     -26.615  23.481   5.427  1.00  0.00    -0.027 C 
BRANCH  18  19
HETATM   19  C5  UNL     1     -27.563  24.257   6.271  1.00  0.00     0.037 C 
BRANCH  19  20
HETATM   20  C4  UNL     1     -28.851  24.595   5.596  1.00  0.00     0.115 C 
BRANCH  20  21
HETATM   21  C3  UNL     1     -29.769  23.459   5.579  1.00  0.00     0.259 C 
HETATM   22  O2  UNL     1     -30.640  23.410   6.514  1.00  0.00    -0.265 OA
BRANCH  21  23
HETATM   23  O1  UNL     1     -29.807  22.427   4.669  1.00  0.00    -0.322 OA
BRANCH  23  24
HETATM   24  C2  UNL     1     -29.649  22.629   3.273  1.00  0.00     0.174 C 
HETATM   25  C1  UNL     1     -29.009  21.388   2.693  1.00  0.00     0.034 C 
ENDBRANCH  23  24
ENDBRANCH  21  23
ENDBRANCH  20  21
ENDBRANCH  19  20
ENDBRANCH  18  19
ENDBRANCH   1  17
BRANCH   1  26
HETATM   26  O3  UNL     1     -24.060  23.866   3.393  1.00  0.00    -0.385 OA
ATOM     27  H3  UNL     1     -24.261  24.735   3.721  1.00  0.00     0.211 HD
ENDBRANCH   1  26
BRANCH  10  28
HETATM   28  C18 UNL     1     -27.917  23.895  -2.614  1.00  0.00     0.202 C 
BRANCH  28  29
HETATM   29  O5  UNL     1     -28.971  23.536  -3.401  1.00  0.00    -0.398 OA
ATOM     30  H5  UNL     1     -29.023  23.914  -4.271  1.00  0.00     0.209 HD
ENDBRANCH  28  29
ENDBRANCH  10  28
TORSDOF 9
ENDMDL
