MODEL 1
REMARK VINA RESULT: -5.598381911      0.000      0.000
REMARK  1 active torsions:
REMARK  status: ('A' for Active; 'I' for Inactive)
REMARK    1  A    between atoms: N1_1  and  C1_4 
ROOT
HETATM    1  C1  UNL     1      28.904  67.907  96.410  1.00  0.00     0.716 A 
HETATM    2  N2  UNL     1      27.762  67.832  95.712  1.00  0.00    -0.117 N 
ATOM      3  H2  UNL     1      27.590  68.268  94.806  1.00  0.00     0.206 HD
HETATM    4  N3  UNL     1      26.891  67.097  96.393  1.00  0.00    -0.115 N 
ATOM      5  H3  UNL     1      25.941  66.878  96.095  1.00  0.00     0.206 HD
HETATM    6  C2  UNL     1      27.464  66.686  97.544  1.00  0.00     0.737 A 
HETATM    7  N4  UNL     1      27.307  65.984  98.685  1.00  0.00    -0.126 N 
ATOM      8  H4  UNL     1      26.460  65.486  98.959  1.00  0.00     0.206 HD
HETATM    9  N5  UNL     1      28.430  66.041  99.400  1.00  0.00    -0.236 N 
ATOM     10  H5  UNL     1      28.605  65.605 100.306  1.00  0.00     0.192 HD
HETATM   11  C3  UNL     1      29.287  66.793  98.679  1.00  0.00     0.377 A 
HETATM   12  O1  UNL     1      30.474  67.078  99.033  1.00  0.00    -0.243 OA
HETATM   13  N6  UNL     1      28.718  67.201  97.536  1.00  0.00     0.081 N 
ENDROOT
BRANCH   1  14
HETATM   14  N1  UNL     1      30.009  68.526  96.107  1.00  0.00    -0.232 N 
ATOM     15  H12 UNL     1      30.056  69.377  95.547  1.00  0.00     0.174 HD
ATOM     16  H11 UNL     1      30.968  68.287  96.360  1.00  0.00     0.174 HD
ENDBRANCH   1  14
TORSDOF 1
ENDMDL
MODEL 2
REMARK VINA RESULT: -5.542718752      1.622      3.026
REMARK  1 active torsions:
REMARK  status: ('A' for Active; 'I' for Inactive)
REMARK    1  A    between atoms: N1_1  and  C1_4 
ROOT
HETATM    1  C1  UNL     1      29.732  66.079  98.686  1.00  0.00     0.716 A 
HETATM    2  N2  UNL     1      28.980  66.036  99.795  1.00  0.00    -0.117 N 
ATOM      3  H2  UNL     1      29.311  65.784 100.726  1.00  0.00     0.206 HD
HETATM    4  N3  UNL     1      27.735  66.375  99.482  1.00  0.00    -0.115 N 
ATOM      5  H3  UNL     1      26.954  66.425 100.136  1.00  0.00     0.206 HD
HETATM    6  C2  UNL     1      27.669  66.644  98.161  1.00  0.00     0.737 A 
HETATM    7  N4  UNL     1      26.880  67.017  97.133  1.00  0.00    -0.126 N 
ATOM      8  H4  UNL     1      25.884  67.228  97.200  1.00  0.00     0.206 HD
HETATM    9  N5  UNL     1      27.603  67.069  96.015  1.00  0.00    -0.236 N 
ATOM     10  H5  UNL     1      27.275  67.321  95.082  1.00  0.00     0.192 HD
HETATM   11  C3  UNL     1      28.856  66.720  96.370  1.00  0.00     0.377 A 
HETATM   12  O1  UNL     1      29.843  66.651  95.572  1.00  0.00    -0.243 OA
HETATM   13  N6  UNL     1      28.922  66.453  97.683  1.00  0.00     0.081 N 
ENDROOT
BRANCH   1  14
HETATM   14  N1  UNL     1      31.001  65.821  98.547  1.00  0.00    -0.232 N 
ATOM     15  H12 UNL     1      31.524  65.176  99.139  1.00  0.00     0.174 HD
ATOM     16  H11 UNL     1      31.659  66.193  97.862  1.00  0.00     0.174 HD
ENDBRANCH   1  14
TORSDOF 1
ENDMDL
MODEL 3
REMARK VINA RESULT: -5.420273992      1.030      1.047
REMARK  1 active torsions:
REMARK  status: ('A' for Active; 'I' for Inactive)
REMARK    1  A    between atoms: N1_1  and  C1_4 
ROOT
HETATM    1  C1  UNL     1      28.759  66.834  96.292  1.00  0.00     0.716 A 
HETATM    2  N2  UNL     1      27.467  67.116  96.075  1.00  0.00    -0.117 N 
ATOM      3  H2  UNL     1      27.061  67.386  95.178  1.00  0.00     0.206 HD
HETATM    4  N3  UNL     1      26.802  66.989  97.217  1.00  0.00    -0.115 N 
ATOM      5  H3  UNL     1      25.802  67.144  97.339  1.00  0.00     0.206 HD
HETATM    6  C2  UNL     1      27.662  66.619  98.190  1.00  0.00     0.737 A 
HETATM    7  N4  UNL     1      27.811  66.308  99.493  1.00  0.00    -0.126 N 
ATOM      8  H4  UNL     1      27.061  66.293 100.185  1.00  0.00     0.206 HD
HETATM    9  N5  UNL     1      29.089  66.021  99.739  1.00  0.00    -0.236 N 
ATOM     10  H5  UNL     1      29.497  65.752 100.634  1.00  0.00     0.192 HD
HETATM   11  C3  UNL     1      29.730  66.162  98.560  1.00  0.00     0.377 A 
HETATM   12  O1  UNL     1      30.974  65.973  98.386  1.00  0.00    -0.243 OA
HETATM   13  N6  UNL     1      28.875  66.529  97.594  1.00  0.00     0.081 N 
ENDROOT
BRANCH   1  14
HETATM   14  N1  UNL     1      29.751  66.838  95.448  1.00  0.00    -0.232 N 
ATOM     15  H12 UNL     1      30.289  67.667  95.197  1.00  0.00     0.174 HD
ATOM     16  H11 UNL     1      30.145  66.060  94.918  1.00  0.00     0.174 HD
ENDBRANCH   1  14
TORSDOF 1
ENDMDL
MODEL 4
REMARK VINA RESULT: -4.914754712      1.937      3.367
REMARK  1 active torsions:
REMARK  status: ('A' for Active; 'I' for Inactive)
REMARK    1  A    between atoms: N1_1  and  C1_4 
ROOT
HETATM    1  C1  UNL     1      29.447  66.980  99.360  1.00  0.00     0.716 A 
HETATM    2  N2  UNL     1      30.575  66.282  99.168  1.00  0.00    -0.117 N 
ATOM      3  H2  UNL     1      31.322  66.163  99.853  1.00  0.00     0.206 HD
HETATM    4  N3  UNL     1      30.560  65.773  97.943  1.00  0.00    -0.115 N 
ATOM      5  H3  UNL     1      31.296  65.198  97.532  1.00  0.00     0.206 HD
HETATM    6  C2  UNL     1      29.416  66.137  97.326  1.00  0.00     0.737 A 
HETATM    7  N4  UNL     1      28.679  66.064  96.199  1.00  0.00    -0.126 N 
ATOM      8  H4  UNL     1      28.945  65.560  95.353  1.00  0.00     0.206 HD
HETATM    9  N5  UNL     1      27.549  66.750  96.362  1.00  0.00    -0.236 N 
ATOM     10  H5  UNL     1      26.799  66.871  95.680  1.00  0.00     0.192 HD
HETATM   11  C3  UNL     1      27.599  67.251  97.613  1.00  0.00     0.377 A 
HETATM   12  O1  UNL     1      26.695  67.969  98.143  1.00  0.00    -0.243 OA
HETATM   13  N6  UNL     1      28.736  66.889  98.225  1.00  0.00     0.081 N 
ENDROOT
BRANCH   1  14
HETATM   14  N1  UNL     1      29.061  67.637 100.417  1.00  0.00    -0.232 N 
ATOM     15  H12 UNL     1      28.103  67.651 100.766  1.00  0.00     0.174 HD
ATOM     16  H11 UNL     1      29.612  68.221 101.046  1.00  0.00     0.174 HD
ENDBRANCH   1  14
TORSDOF 1
ENDMDL
MODEL 5
REMARK VINA RESULT: -4.452577809      1.839      3.712
REMARK  1 active torsions:
REMARK  status: ('A' for Active; 'I' for Inactive)
REMARK    1  A    between atoms: N1_1  and  C1_4 
ROOT
HETATM    1  C1  UNL     1      27.914  66.374  98.626  1.00  0.00     0.716 A 
HETATM    2  N2  UNL     1      28.899  66.397  99.534  1.00  0.00    -0.117 N 
ATOM      3  H2  UNL     1      28.870  65.955 100.453  1.00  0.00     0.206 HD
HETATM    4  N3  UNL     1      29.920  67.088  99.041  1.00  0.00    -0.115 N 
ATOM      5  H3  UNL     1      30.802  67.264  99.522  1.00  0.00     0.206 HD
HETATM    6  C2  UNL     1      29.604  67.522  97.803  1.00  0.00     0.737 A 
HETATM    7  N4  UNL     1      30.013  68.212  96.720  1.00  0.00    -0.126 N 
ATOM      8  H4  UNL     1      30.921  68.669  96.620  1.00  0.00     0.206 HD
HETATM    9  N5  UNL     1      29.051  68.206  95.798  1.00  0.00    -0.236 N 
ATOM     10  H5  UNL     1      29.078  68.647  94.879  1.00  0.00     0.192 HD
HETATM   11  C3  UNL     1      28.035  67.498  96.332  1.00  0.00     0.377 A 
HETATM   12  O1  UNL     1      26.929  67.268  95.751  1.00  0.00    -0.243 OA
HETATM   13  N6  UNL     1      28.350  67.068  97.562  1.00  0.00     0.081 N 
ENDROOT
BRANCH   1  14
HETATM   14  N1  UNL     1      26.743  65.809  98.703  1.00  0.00    -0.232 N 
ATOM     15  H12 UNL     1      26.307  65.507  99.574  1.00  0.00     0.174 HD
ATOM     16  H11 UNL     1      26.091  65.580  97.952  1.00  0.00     0.174 HD
ENDBRANCH   1  14
TORSDOF 1
ENDMDL
