MODEL 1
REMARK VINA RESULT: -4.525510223      0.000      0.000
REMARK  2 active torsions:
REMARK  status: ('A' for Active; 'I' for Inactive)
REMARK    1  A    between atoms: N2_3  and  C2_5 
REMARK    2  A    between atoms: C3_8  and  N4_9 
ROOT
HETATM    1  N1  UNL     1      28.068  68.773  95.180  1.00  0.00    -0.172 NA
HETATM    2  C1  UNL     1      28.041  67.784  95.782  1.00  0.00     0.183 C 
HETATM    3  N2  UNL     1      28.003  66.572  96.510  1.00  0.00    -0.277 N 
ATOM      4  H2  UNL     1      27.403  65.802  96.217  1.00  0.00     0.179 HD
ENDROOT
BRANCH   3   5
HETATM    5  C2  UNL     1      28.752  66.472  97.557  1.00  0.00     0.155 A 
HETATM    6  N3  UNL     1      29.919  65.805  97.574  1.00  0.00    -0.174 N 
HETATM    7  C3  UNL     1      30.690  65.706  98.669  1.00  0.00     0.677 A 
ATOM      8  H3  UNL     1      30.233  65.353  96.715  1.00  0.00     0.186 HD
HETATM    9  N5  UNL     1      30.266  66.304  99.796  1.00  0.00    -0.200 N 
HETATM   10  C4  UNL     1      29.105  66.988  99.847  1.00  0.00     0.136 A 
ATOM     11  H5  UNL     1      30.840  66.240 100.637  1.00  0.00     0.183 HD
HETATM   12  C5  UNL     1      28.299  67.098  98.723  1.00  0.00     0.107 A 
HETATM   13  N6  UNL     1      27.081  67.795  98.709  1.00  0.00    -0.097 NA
BRANCH   7  14
HETATM   14  N4  UNL     1      31.799  65.048  98.605  1.00  0.00    -0.234 N 
ATOM     15  H42 UNL     1      32.517  65.106  99.326  1.00  0.00     0.174 HD
ATOM     16  H41 UNL     1      31.974  64.441  97.803  1.00  0.00     0.174 HD
ENDBRANCH   7  14
ENDBRANCH   3   5
TORSDOF 2
ENDMDL
MODEL 2
REMARK VINA RESULT: -4.325145537      1.190      1.234
REMARK  2 active torsions:
REMARK  status: ('A' for Active; 'I' for Inactive)
REMARK    1  A    between atoms: N2_3  and  C2_5 
REMARK    2  A    between atoms: C3_8  and  N4_9 
ROOT
HETATM    1  N1  UNL     1      30.328  68.985  94.811  1.00  0.00    -0.172 NA
HETATM    2  C1  UNL     1      29.616  68.177  95.237  1.00  0.00     0.183 C 
HETATM    3  N2  UNL     1      28.743  67.190  95.749  1.00  0.00    -0.277 N 
ATOM      4  H2  UNL     1      27.993  66.804  95.176  1.00  0.00     0.179 HD
ENDROOT
BRANCH   3   5
HETATM    5  C2  UNL     1      28.925  66.792  96.964  1.00  0.00     0.155 A 
HETATM    6  N3  UNL     1      30.055  66.201  97.390  1.00  0.00    -0.174 N 
HETATM    7  C3  UNL     1      30.233  65.791  98.657  1.00  0.00     0.677 A 
ATOM      8  H3  UNL     1      30.811  66.057  96.721  1.00  0.00     0.186 HD
HETATM    9  N5  UNL     1      29.230  65.984  99.531  1.00  0.00    -0.200 N 
HETATM   10  C4  UNL     1      28.071  66.570  99.168  1.00  0.00     0.136 A 
ATOM     11  H5  UNL     1      29.349  65.679 100.497  1.00  0.00     0.183 HD
HETATM   12  C5  UNL     1      27.873  66.999  97.863  1.00  0.00     0.107 A 
HETATM   13  N6  UNL     1      26.692  67.615  97.421  1.00  0.00    -0.097 NA
BRANCH   7  14
HETATM   14  N4  UNL     1      31.349  65.231  98.989  1.00  0.00    -0.234 N 
ATOM     15  H42 UNL     1      31.515  64.231  98.885  1.00  0.00     0.174 HD
ATOM     16  H41 UNL     1      32.100  65.804  99.373  1.00  0.00     0.174 HD
ENDBRANCH   7  14
ENDBRANCH   3   5
TORSDOF 2
ENDMDL
MODEL 3
REMARK VINA RESULT: -4.058567896      1.288      3.900
REMARK  2 active torsions:
REMARK  status: ('A' for Active; 'I' for Inactive)
REMARK    1  A    between atoms: N2_3  and  C2_5 
REMARK    2  A    between atoms: C3_8  and  N4_9 
ROOT
HETATM    1  N1  UNL     1      31.609  64.937  98.946  1.00  0.00    -0.172 NA
HETATM    2  C1  UNL     1      30.746  65.707  99.005  1.00  0.00     0.183 C 
HETATM    3  N2  UNL     1      29.695  66.649  99.085  1.00  0.00    -0.277 N 
ATOM      4  H2  UNL     1      29.374  67.003  99.987  1.00  0.00     0.179 HD
ENDROOT
BRANCH   3   5
HETATM    5  C2  UNL     1      29.153  67.047  97.982  1.00  0.00     0.155 A 
HETATM    6  N3  UNL     1      29.810  67.753  97.046  1.00  0.00    -0.174 N 
HETATM    7  C3  UNL     1      29.236  68.163  95.903  1.00  0.00     0.677 A 
ATOM      8  H3  UNL     1      30.788  67.990  97.212  1.00  0.00     0.186 HD
HETATM    9  N5  UNL     1      27.946  67.848  95.695  1.00  0.00    -0.200 N 
HETATM   10  C4  UNL     1      27.230  67.143  96.594  1.00  0.00     0.136 A 
ATOM     11  H5  UNL     1      27.495  68.151  94.832  1.00  0.00     0.183 HD
HETATM   12  C5  UNL     1      27.810  66.713  97.779  1.00  0.00     0.107 A 
HETATM   13  N6  UNL     1      27.122  65.976  98.755  1.00  0.00    -0.097 NA
BRANCH   7  14
HETATM   14  N4  UNL     1      29.934  68.838  95.051  1.00  0.00    -0.234 N 
ATOM     15  H42 UNL     1      29.512  69.358  94.282  1.00  0.00     0.174 HD
ATOM     16  H41 UNL     1      30.950  68.859  95.144  1.00  0.00     0.174 HD
ENDBRANCH   7  14
ENDBRANCH   3   5
TORSDOF 2
ENDMDL
MODEL 4
REMARK VINA RESULT: -3.128940791      1.488      3.868
REMARK  2 active torsions:
REMARK  status: ('A' for Active; 'I' for Inactive)
REMARK    1  A    between atoms: N2_3  and  C2_5 
REMARK    2  A    between atoms: C3_8  and  N4_9 
ROOT
HETATM    1  N1  UNL     1      29.961  67.589 100.868  1.00  0.00    -0.172 NA
HETATM    2  C1  UNL     1      29.861  66.970  99.894  1.00  0.00     0.183 C 
HETATM    3  N2  UNL     1      29.743  66.207  98.711  1.00  0.00    -0.277 N 
ATOM      4  H2  UNL     1      30.083  65.246  98.668  1.00  0.00     0.179 HD
ENDROOT
BRANCH   3   5
HETATM    5  C2  UNL     1      29.189  66.763  97.685  1.00  0.00     0.155 A 
HETATM    6  N3  UNL     1      29.861  67.512  96.794  1.00  0.00    -0.174 N 
HETATM    7  C3  UNL     1      29.275  68.086  95.730  1.00  0.00     0.677 A 
ATOM      8  H3  UNL     1      30.862  67.651  96.932  1.00  0.00     0.186 HD
HETATM    9  N5  UNL     1      27.955  67.898  95.558  1.00  0.00    -0.200 N 
HETATM   10  C4  UNL     1      27.222  67.159  96.415  1.00  0.00     0.136 A 
ATOM     11  H5  UNL     1      27.494  68.327  94.755  1.00  0.00     0.183 HD
HETATM   12  C5  UNL     1      27.815  66.560  97.518  1.00  0.00     0.107 A 
HETATM   13  N6  UNL     1      27.110  65.779  98.447  1.00  0.00    -0.097 NA
BRANCH   7  14
HETATM   14  N4  UNL     1      29.990  68.792  94.918  1.00  0.00    -0.234 N 
ATOM     15  H42 UNL     1      29.694  69.003  93.966  1.00  0.00     0.174 HD
ATOM     16  H41 UNL     1      30.888  69.157  95.233  1.00  0.00     0.174 HD
ENDBRANCH   7  14
ENDBRANCH   3   5
TORSDOF 2
ENDMDL
MODEL 5
REMARK VINA RESULT: -2.528501624      1.825      2.483
REMARK  2 active torsions:
REMARK  status: ('A' for Active; 'I' for Inactive)
REMARK    1  A    between atoms: N2_3  and  C2_5 
REMARK    2  A    between atoms: C3_8  and  N4_9 
ROOT
HETATM    1  N1  UNL     1      31.304  69.527  94.547  1.00  0.00    -0.172 NA
HETATM    2  C1  UNL     1      30.681  68.562  94.696  1.00  0.00     0.183 C 
HETATM    3  N2  UNL     1      29.924  67.381  94.868  1.00  0.00    -0.277 N 
ATOM      4  H2  UNL     1      29.782  66.730  94.095  1.00  0.00     0.179 HD
ENDROOT
BRANCH   3   5
HETATM    5  C2  UNL     1      29.418  67.151  96.033  1.00  0.00     0.155 A 
HETATM    6  N3  UNL     1      29.973  66.320  96.932  1.00  0.00    -0.174 N 
HETATM    7  C3  UNL     1      29.437  66.087  98.142  1.00  0.00     0.677 A 
ATOM      8  H3  UNL     1      30.840  65.843  96.684  1.00  0.00     0.186 HD
HETATM    9  N5  UNL     1      28.294  66.719  98.459  1.00  0.00    -0.200 N 
HETATM   10  C4  UNL     1      27.685  67.564  97.602  1.00  0.00     0.136 A 
ATOM     11  H5  UNL     1      27.874  66.554  99.374  1.00  0.00     0.183 HD
HETATM   12  C5  UNL     1      28.227  67.814  96.350  1.00  0.00     0.107 A 
HETATM   13  N6  UNL     1      27.645  68.681  95.413  1.00  0.00    -0.097 NA
BRANCH   7  14
HETATM   14  N4  UNL     1      30.032  65.275  98.951  1.00  0.00    -0.234 N 
ATOM     15  H42 UNL     1      30.387  64.366  98.656  1.00  0.00     0.174 HD
ATOM     16  H41 UNL     1      30.156  65.544  99.927  1.00  0.00     0.174 HD
ENDBRANCH   7  14
ENDBRANCH   3   5
TORSDOF 2
ENDMDL
