MODEL 1
REMARK VINA RESULT: -8.621550057      0.000      0.000
REMARK  15 active torsions:
REMARK  status: ('A' for Active; 'I' for Inactive)
REMARK    1  A    between atoms: O1_2  and  C2_3 
REMARK    2  A    between atoms: C2_3  and  C3_5 
REMARK    3  A    between atoms: C3_5  and  S1_6 
REMARK    4  A    between atoms: C3_5  and  C5_9 
REMARK    5  A    between atoms: C5_9  and  N3_13 
REMARK    6  A    between atoms: N3_13  and  C6_15 
REMARK    7  A    between atoms: C10_24  and  O5_25 
REMARK    8  A    between atoms: C13_31  and  C14_32 
REMARK    9  A    between atoms: C14_32  and  C15_33 
REMARK   10  A    between atoms: C15_33  and  C16_34 
REMARK   11  A    between atoms: C15_33  and  N7_38 
REMARK   12  A    between atoms: C16_34  and  C17_35 
REMARK   13  A    between atoms: C17_35  and  S2_36 
REMARK       I    between atoms: N7_38  and  C19_40 
REMARK   14  A    between atoms: C19_40  and  C20_42 
REMARK   15  A    between atoms: C22_50  and  N11_51 
ROOT
HETATM    1  S1  UNL     1      46.436 -17.838  30.716  1.00  0.00    -0.028 SA
HETATM    2  C4  UNL     1      45.904 -16.422  29.804  1.00  0.00     0.134 C 
HETATM    3  N1  UNL     1      45.550 -15.497  29.187  1.00  0.00    -0.184 NA
ENDROOT
BRANCH   1   4
HETATM    4  C3  UNL     1      47.918 -17.431  31.693  1.00  0.00     0.228 C 
BRANCH   4   5
HETATM    5  C2  UNL     1      48.741 -16.410  31.036  1.00  0.00     0.280 C 
HETATM    6  O2  UNL     1      49.483 -16.739  30.063  1.00  0.00    -0.263 OA
BRANCH   5   7
HETATM    7  O1  UNL     1      48.759 -15.075  31.421  1.00  0.00    -0.325 OA
HETATM    8  C1  UNL     1      50.005 -14.437  31.642  1.00  0.00     0.213 C 
ENDBRANCH   5   7
ENDBRANCH   4   5
BRANCH   4   9
HETATM    9  C5  UNL     1      47.541 -17.046  33.082  1.00  0.00     0.097 C 
HETATM   10  N2  UNL     1      48.441 -16.418  33.783  1.00  0.00    -0.388 N 
ATOM     11  H22 UNL     1      49.363 -16.197  33.407  1.00  0.00     0.157 HD
ATOM     12  H21 UNL     1      48.183 -16.154  34.734  1.00  0.00     0.157 HD
BRANCH   9  13
HETATM   13  N3  UNL     1      46.261 -17.354  33.605  1.00  0.00    -0.349 N 
ATOM     14  H3  UNL     1      45.985 -18.325  33.752  1.00  0.00     0.163 HD
BRANCH  13  15
HETATM   15  C6  UNL     1      45.345 -16.279  33.929  1.00  0.00     0.270 C 
HETATM   16  O3  UNL     1      45.537 -15.257  33.074  1.00  0.00    -0.336 OA
HETATM   17  C7  UNL     1      44.583 -14.254  33.062  1.00  0.00     0.256 C 
HETATM   18  N4  UNL     1      43.710 -14.593  31.913  1.00  0.00    -0.347 N 
HETATM   19  C24 UNL     1      43.736 -14.256  34.303  1.00  0.00     0.201 C 
HETATM   20  C8  UNL     1      43.166 -15.797  31.846  1.00  0.00     0.164 C 
ATOM     21  H4  UNL     1      43.532 -13.906  31.181  1.00  0.00     0.163 HD
HETATM   22  N5  UNL     1      42.333 -16.043  30.694  1.00  0.00    -0.079 NA
HETATM   23  C9  UNL     1      43.276 -16.922  32.771  1.00  0.00     0.231 C 
HETATM   24  O4  UNL     1      42.799 -17.993  32.373  1.00  0.00    -0.286 OA
HETATM   25  C10 UNL     1      43.920 -16.775  34.100  1.00  0.00     0.196 C 
HETATM   26  C12 UNL     1      43.211 -15.572  34.753  1.00  0.00     0.186 C 
HETATM   27  N6  UNL     1      41.823 -15.776  34.607  1.00  0.00    -0.289 N 
HETATM   28  O6  UNL     1      41.070 -14.708  34.352  1.00  0.00    -0.252 OA
ATOM     29  H6  UNL     1      41.412 -16.706  34.693  1.00  0.00     0.188 HD
HETATM   30  C13 UNL     1      41.691 -13.597  34.919  1.00  0.00     0.290 C 
HETATM   31  O8  UNL     1      42.755 -13.265  34.129  1.00  0.00    -0.347 OA
BRANCH  25  32
HETATM   32  O5  UNL     1      43.932 -17.810  34.927  1.00  0.00    -0.370 OA
HETATM   33  C11 UNL     1      44.342 -17.777  36.194  1.00  0.00     0.203 C 
ENDBRANCH  25  32
BRANCH  30  34
HETATM   34  C14 UNL     1      40.757 -12.514  35.301  1.00  0.00     0.088 C 
BRANCH  34  35
HETATM   35  C15 UNL     1      39.738 -12.096  34.306  1.00  0.00     0.090 C 
BRANCH  35  36
HETATM   36  C16 UNL     1      38.371 -12.598  34.660  1.00  0.00     0.035 C 
BRANCH  36  37
HETATM   37  C17 UNL     1      38.248 -12.888  36.149  1.00  0.00     0.075 C 
BRANCH  37  38
HETATM   38  S2  UNL     1      37.005 -11.735  36.805  1.00  0.00    -0.173 SA
HETATM   39  C18 UNL     1      36.745 -10.368  35.623  1.00  0.00     0.089 C 
ENDBRANCH  37  38
ENDBRANCH  36  37
ENDBRANCH  35  36
BRANCH  35  40
HETATM   40  N7  UNL     1      40.083 -12.496  32.955  1.00  0.00    -0.350 N 
HETATM   41  C19 UNL     1      39.514 -11.924  31.801  1.00  0.00     0.287 C 
HETATM   42  O7  UNL     1      38.661 -11.019  31.951  1.00  0.00    -0.264 OA
ATOM     43  H7  UNL     1      40.777 -13.234  32.834  1.00  0.00     0.163 HD
BRANCH  41  44
HETATM   44  C20 UNL     1      39.908 -12.372  30.441  1.00  0.00     0.191 A 
HETATM   45  N8  UNL     1      40.345 -13.617  30.241  1.00  0.00    -0.279 N 
HETATM   46  N9  UNL     1      40.703 -14.045  29.056  1.00  0.00    -0.280 N 
ATOM     47  H8  UNL     1      40.403 -14.255  31.036  1.00  0.00     0.189 HD
HETATM   48  C21 UNL     1      40.634 -13.211  27.999  1.00  0.00     0.180 A 
ATOM     49  H9  UNL     1      41.033 -15.003  28.934  1.00  0.00     0.188 HD
HETATM   50  N10 UNL     1      40.920 -13.338  26.688  1.00  0.00    -0.172 N 
HETATM   51  C23 UNL     1      40.184 -11.914  28.174  1.00  0.00     0.169 A 
HETATM   52  C22 UNL     1      40.666 -12.181  26.058  1.00  0.00     0.679 A 
ATOM     53  H10 UNL     1      41.276 -14.185  26.243  1.00  0.00     0.186 HD
HETATM   54  N12 UNL     1      40.208 -11.286  26.964  1.00  0.00    -0.173 N 
ATOM     55  H12 UNL     1      39.934 -10.322  26.777  1.00  0.00     0.186 HD
HETATM   56  N13 UNL     1      39.830 -11.528  29.406  1.00  0.00    -0.319 N 
ATOM     57  H13 UNL     1      39.496 -10.577  29.558  1.00  0.00     0.169 HD
BRANCH  52  58
HETATM   58  N11 UNL     1      40.837 -11.972  24.800  1.00  0.00    -0.234 N 
ATOM     59 2H11 UNL     1      41.572 -11.407  24.376  1.00  0.00     0.174 HD
ATOM     60 1H11 UNL     1      40.249 -12.352  24.059  1.00  0.00     0.174 HD
ENDBRANCH  52  58
ENDBRANCH  41  44
ENDBRANCH  35  40
ENDBRANCH  34  35
ENDBRANCH  30  34
ENDBRANCH  13  15
ENDBRANCH   9  13
ENDBRANCH   4   9
ENDBRANCH   1   4
TORSDOF 15
ENDMDL
MODEL 2
REMARK VINA RESULT: -8.590889316      3.259      6.313
REMARK  15 active torsions:
REMARK  status: ('A' for Active; 'I' for Inactive)
REMARK    1  A    between atoms: O1_2  and  C2_3 
REMARK    2  A    between atoms: C2_3  and  C3_5 
REMARK    3  A    between atoms: C3_5  and  S1_6 
REMARK    4  A    between atoms: C3_5  and  C5_9 
REMARK    5  A    between atoms: C5_9  and  N3_13 
REMARK    6  A    between atoms: N3_13  and  C6_15 
REMARK    7  A    between atoms: C10_24  and  O5_25 
REMARK    8  A    between atoms: C13_31  and  C14_32 
REMARK    9  A    between atoms: C14_32  and  C15_33 
REMARK   10  A    between atoms: C15_33  and  C16_34 
REMARK   11  A    between atoms: C15_33  and  N7_38 
REMARK   12  A    between atoms: C16_34  and  C17_35 
REMARK   13  A    between atoms: C17_35  and  S2_36 
REMARK       I    between atoms: N7_38  and  C19_40 
REMARK   14  A    between atoms: C19_40  and  C20_42 
REMARK   15  A    between atoms: C22_50  and  N11_51 
ROOT
HETATM    1  S1  UNL     1      44.376 -18.538  39.018  1.00  0.00    -0.028 SA
HETATM    2  C4  UNL     1      43.042 -17.914  39.992  1.00  0.00     0.134 C 
HETATM    3  N1  UNL     1      42.152 -17.515  40.633  1.00  0.00    -0.184 NA
ENDROOT
BRANCH   1   4
HETATM    4  C3  UNL     1      45.034 -17.224  37.943  1.00  0.00     0.228 C 
BRANCH   4   5
HETATM    5  C2  UNL     1      46.501 -17.184  37.967  1.00  0.00     0.280 C 
HETATM    6  O2  UNL     1      47.090 -16.277  38.627  1.00  0.00    -0.263 OA
BRANCH   5   7
HETATM    7  O1  UNL     1      47.303 -18.099  37.296  1.00  0.00    -0.325 OA
HETATM    8  C1  UNL     1      47.990 -19.092  38.040  1.00  0.00     0.213 C 
ENDBRANCH   5   7
ENDBRANCH   4   5
BRANCH   4   9
HETATM    9  C5  UNL     1      44.495 -17.355  36.562  1.00  0.00     0.097 C 
HETATM   10  N2  UNL     1      44.734 -18.473  35.939  1.00  0.00    -0.388 N 
ATOM     11  H22 UNL     1      45.266 -19.229  36.370  1.00  0.00     0.157 HD
ATOM     12  H21 UNL     1      44.365 -18.562  34.992  1.00  0.00     0.157 HD
BRANCH   9  13
HETATM   13  N3  UNL     1      43.756 -16.304  35.962  1.00  0.00    -0.349 N 
ATOM     14  H3  UNL     1      43.407 -15.532  36.530  1.00  0.00     0.163 HD
BRANCH  13  15
HETATM   15  C6  UNL     1      43.499 -16.335  34.537  1.00  0.00     0.270 C 
HETATM   16  O3  UNL     1      42.231 -16.731  34.320  1.00  0.00    -0.336 OA
HETATM   17  C7  UNL     1      41.727 -16.570  33.041  1.00  0.00     0.256 C 
HETATM   18  N4  UNL     1      40.952 -15.308  33.110  1.00  0.00    -0.347 N 
HETATM   19  C24 UNL     1      42.812 -16.392  32.018  1.00  0.00     0.201 C 
HETATM   20  C8  UNL     1      41.542 -14.210  33.553  1.00  0.00     0.164 C 
ATOM     21  H4  UNL     1      39.975 -15.287  32.819  1.00  0.00     0.163 HD
HETATM   22  N5  UNL     1      40.714 -13.028  33.589  1.00  0.00    -0.079 NA
HETATM   23  C9  UNL     1      42.914 -14.007  34.011  1.00  0.00     0.231 C 
HETATM   24  O4  UNL     1      43.149 -12.912  34.536  1.00  0.00    -0.286 OA
HETATM   25  C10 UNL     1      43.949 -15.059  33.848  1.00  0.00     0.196 C 
HETATM   26  C12 UNL     1      43.899 -15.436  32.354  1.00  0.00     0.186 C 
HETATM   27  N6  UNL     1      43.925 -14.232  31.619  1.00  0.00    -0.289 N 
HETATM   28  O6  UNL     1      43.173 -14.168  30.522  1.00  0.00    -0.252 OA
ATOM     29  H6  UNL     1      44.497 -13.441  31.916  1.00  0.00     0.188 HD
HETATM   30  C13 UNL     1      43.057 -15.456  30.003  1.00  0.00     0.290 C 
HETATM   31  O8  UNL     1      42.177 -16.145  30.788  1.00  0.00    -0.347 OA
BRANCH  25  32
HETATM   32  O5  UNL     1      45.194 -14.797  34.218  1.00  0.00    -0.370 OA
HETATM   33  C11 UNL     1      46.272 -15.470  33.818  1.00  0.00     0.203 C 
ENDBRANCH  25  32
BRANCH  30  34
HETATM   34  C14 UNL     1      42.847 -15.499  28.539  1.00  0.00     0.088 C 
BRANCH  34  35
HETATM   35  C15 UNL     1      41.534 -15.045  28.014  1.00  0.00     0.090 C 
BRANCH  35  36
HETATM   36  C16 UNL     1      41.444 -15.192  26.525  1.00  0.00     0.035 C 
BRANCH  36  37
HETATM   37  C17 UNL     1      42.285 -14.144  25.808  1.00  0.00     0.075 C 
BRANCH  37  38
HETATM   38  S2  UNL     1      41.181 -13.311  24.627  1.00  0.00    -0.173 SA
HETATM   39  C18 UNL     1      40.401 -11.866  25.424  1.00  0.00     0.089 C 
ENDBRANCH  37  38
ENDBRANCH  36  37
ENDBRANCH  35  36
BRANCH  35  40
HETATM   40  N7  UNL     1      41.221 -13.683  28.403  1.00  0.00    -0.350 N 
HETATM   41  C19 UNL     1      40.166 -13.341  29.270  1.00  0.00     0.287 C 
HETATM   42  O7  UNL     1      39.457 -14.265  29.730  1.00  0.00    -0.264 OA
ATOM     43  H7  UNL     1      41.798 -12.931  28.028  1.00  0.00     0.163 HD
BRANCH  41  44
HETATM   44  C20 UNL     1      39.893 -11.928  29.636  1.00  0.00     0.191 A 
HETATM   45  N8  UNL     1      40.115 -10.948  28.756  1.00  0.00    -0.279 N 
HETATM   46  N9  UNL     1      39.888  -9.691  29.046  1.00  0.00    -0.280 N 
ATOM     47  H8  UNL     1      40.471 -11.186  27.831  1.00  0.00     0.189 HD
HETATM   48  C21 UNL     1      39.418  -9.364  30.267  1.00  0.00     0.180 A 
ATOM     49  H9  UNL     1      40.065  -8.964  28.353  1.00  0.00     0.188 HD
HETATM   50  N10 UNL     1      39.092  -8.199  30.862  1.00  0.00    -0.172 N 
HETATM   51  C23 UNL     1      39.178 -10.357  31.201  1.00  0.00     0.169 A 
HETATM   52  C22 UNL     1      38.666  -8.436  32.113  1.00  0.00     0.679 A 
ATOM     53  H10 UNL     1      39.159  -7.278  30.428  1.00  0.00     0.186 HD
HETATM   54  N12 UNL     1      38.712  -9.770  32.340  1.00  0.00    -0.173 N 
ATOM     55  H12 UNL     1      38.449 -10.246  33.202  1.00  0.00     0.186 HD
HETATM   56  N13 UNL     1      39.427 -11.626  30.853  1.00  0.00    -0.319 N 
ATOM     57  H13 UNL     1      39.257 -12.373  31.525  1.00  0.00     0.169 HD
BRANCH  52  58
HETATM   58  N11 UNL     1      38.282  -7.535  32.945  1.00  0.00    -0.234 N 
ATOM     59 2H11 UNL     1      38.729  -7.301  33.832  1.00  0.00     0.174 HD
ATOM     60 1H11 UNL     1      37.470  -6.930  32.820  1.00  0.00     0.174 HD
ENDBRANCH  52  58
ENDBRANCH  41  44
ENDBRANCH  35  40
ENDBRANCH  34  35
ENDBRANCH  30  34
ENDBRANCH  13  15
ENDBRANCH   9  13
ENDBRANCH   4   9
ENDBRANCH   1   4
TORSDOF 15
ENDMDL
MODEL 3
REMARK VINA RESULT: -8.579178409      3.040      5.335
REMARK  15 active torsions:
REMARK  status: ('A' for Active; 'I' for Inactive)
REMARK    1  A    between atoms: O1_2  and  C2_3 
REMARK    2  A    between atoms: C2_3  and  C3_5 
REMARK    3  A    between atoms: C3_5  and  S1_6 
REMARK    4  A    between atoms: C3_5  and  C5_9 
REMARK    5  A    between atoms: C5_9  and  N3_13 
REMARK    6  A    between atoms: N3_13  and  C6_15 
REMARK    7  A    between atoms: C10_24  and  O5_25 
REMARK    8  A    between atoms: C13_31  and  C14_32 
REMARK    9  A    between atoms: C14_32  and  C15_33 
REMARK   10  A    between atoms: C15_33  and  C16_34 
REMARK   11  A    between atoms: C15_33  and  N7_38 
REMARK   12  A    between atoms: C16_34  and  C17_35 
REMARK   13  A    between atoms: C17_35  and  S2_36 
REMARK       I    between atoms: N7_38  and  C19_40 
REMARK   14  A    between atoms: C19_40  and  C20_42 
REMARK   15  A    between atoms: C22_50  and  N11_51 
ROOT
HETATM    1  S1  UNL     1      49.108 -15.036  32.041  1.00  0.00    -0.028 SA
HETATM    2  C4  UNL     1      48.886 -16.518  31.107  1.00  0.00     0.134 C 
HETATM    3  N1  UNL     1      48.730 -17.489  30.478  1.00  0.00    -0.184 NA
ENDROOT
BRANCH   1   4
HETATM    4  C3  UNL     1      48.822 -15.362  33.809  1.00  0.00     0.228 C 
BRANCH   4   5
HETATM    5  C2  UNL     1      49.223 -14.225  34.645  1.00  0.00     0.280 C 
HETATM    6  O2  UNL     1      48.638 -14.027  35.751  1.00  0.00    -0.263 OA
BRANCH   5   7
HETATM    7  O1  UNL     1      50.227 -13.331  34.293  1.00  0.00    -0.325 OA
HETATM    8  C1  UNL     1      50.862 -12.570  35.307  1.00  0.00     0.213 C 
ENDBRANCH   5   7
ENDBRANCH   4   5
BRANCH   4   9
HETATM    9  C5  UNL     1      47.409 -15.767  34.047  1.00  0.00     0.097 C 
HETATM   10  N2  UNL     1      47.191 -17.027  34.294  1.00  0.00    -0.388 N 
ATOM     11  H22 UNL     1      47.947 -17.711  34.324  1.00  0.00     0.157 HD
ATOM     12  H21 UNL     1      46.222 -17.304  34.456  1.00  0.00     0.157 HD
BRANCH   9  13
HETATM   13  N3  UNL     1      46.359 -14.816  34.004  1.00  0.00    -0.349 N 
ATOM     14  H3  UNL     1      46.296 -14.087  34.715  1.00  0.00     0.163 HD
BRANCH  13  15
HETATM   15  C6  UNL     1      45.373 -14.889  32.945  1.00  0.00     0.270 C 
HETATM   16  O3  UNL     1      45.601 -15.985  32.198  1.00  0.00    -0.336 OA
HETATM   17  C7  UNL     1      44.612 -16.360  31.305  1.00  0.00     0.256 C 
HETATM   18  N4  UNL     1      43.866 -17.426  32.014  1.00  0.00    -0.347 N 
HETATM   19  C24 UNL     1      43.653 -15.242  31.011  1.00  0.00     0.201 C 
HETATM   20  C8  UNL     1      43.380 -17.185  33.221  1.00  0.00     0.164 C 
ATOM     21  H4  UNL     1      43.728 -18.337  31.577  1.00  0.00     0.163 HD
HETATM   22  N5  UNL     1      42.670 -18.278  33.839  1.00  0.00    -0.079 NA
HETATM   23  C9  UNL     1      43.449 -15.969  34.028  1.00  0.00     0.231 C 
HETATM   24  O4  UNL     1      43.057 -16.077  35.197  1.00  0.00    -0.286 OA
HETATM   25  C10 UNL     1      43.960 -14.693  33.466  1.00  0.00     0.196 C 
HETATM   26  C12 UNL     1      43.144 -14.473  32.177  1.00  0.00     0.186 C 
HETATM   27  N6  UNL     1      41.785 -14.661  32.507  1.00  0.00    -0.289 N 
HETATM   28  O6  UNL     1      41.016 -15.272  31.607  1.00  0.00    -0.252 OA
ATOM     29  H6  UNL     1      41.407 -14.343  33.399  1.00  0.00     0.188 HD
HETATM   30  C13 UNL     1      41.534 -15.003  30.342  1.00  0.00     0.290 C 
HETATM   31  O8  UNL     1      42.652 -15.769  30.178  1.00  0.00    -0.347 OA
BRANCH  25  32
HETATM   32  O5  UNL     1      43.937 -13.604  34.220  1.00  0.00    -0.370 OA
HETATM   33  C11 UNL     1      42.871 -13.144  34.873  1.00  0.00     0.203 C 
ENDBRANCH  25  32
BRANCH  30  34
HETATM   34  C14 UNL     1      40.525 -15.023  29.260  1.00  0.00     0.088 C 
BRANCH  34  35
HETATM   35  C15 UNL     1      40.071 -13.719  28.713  1.00  0.00     0.090 C 
BRANCH  35  36
HETATM   36  C16 UNL     1      40.826 -13.338  27.476  1.00  0.00     0.035 C 
BRANCH  36  37
HETATM   37  C17 UNL     1      41.536 -14.537  26.861  1.00  0.00     0.075 C 
BRANCH  37  38
HETATM   38  S2  UNL     1      41.912 -14.092  25.138  1.00  0.00    -0.173 SA
HETATM   39  C18 UNL     1      41.555 -12.323  24.864  1.00  0.00     0.089 C 
ENDBRANCH  37  38
ENDBRANCH  36  37
ENDBRANCH  35  36
BRANCH  35  40
HETATM   40  N7  UNL     1      40.144 -12.651  29.692  1.00  0.00    -0.350 N 
HETATM   41  C19 UNL     1      39.030 -12.169  30.406  1.00  0.00     0.287 C 
HETATM   42  O7  UNL     1      37.914 -12.693  30.182  1.00  0.00    -0.264 OA
ATOM     43  H7  UNL     1      41.052 -12.225  29.874  1.00  0.00     0.163 HD
BRANCH  41  44
HETATM   44  C20 UNL     1      39.163 -11.074  31.400  1.00  0.00     0.191 A 
HETATM   45  N8  UNL     1      39.409 -11.352  32.682  1.00  0.00    -0.279 N 
HETATM   46  N9  UNL     1      39.530 -10.412  33.585  1.00  0.00    -0.280 N 
ATOM     47  H8  UNL     1      39.506 -12.327  32.966  1.00  0.00     0.189 HD
HETATM   48  C21 UNL     1      39.403  -9.120  33.221  1.00  0.00     0.180 A 
ATOM     49  H9  UNL     1      39.719 -10.655  34.557  1.00  0.00     0.188 HD
HETATM   50  N10 UNL     1      39.468  -7.950  33.888  1.00  0.00    -0.172 N 
HETATM   51  C23 UNL     1      39.148  -8.798  31.900  1.00  0.00     0.169 A 
HETATM   52  C22 UNL     1      39.265  -6.934  33.036  1.00  0.00     0.679 A 
ATOM     53  H10 UNL     1      39.645  -7.852  34.888  1.00  0.00     0.186 HD
HETATM   54  N12 UNL     1      39.064  -7.442  31.797  1.00  0.00    -0.173 N 
ATOM     55  H12 UNL     1      38.885  -6.909  30.947  1.00  0.00     0.186 HD
HETATM   56  N13 UNL     1      39.033  -9.798  31.017  1.00  0.00    -0.319 N 
ATOM     57  H13 UNL     1      38.845  -9.585  30.038  1.00  0.00     0.169 HD
BRANCH  52  58
HETATM   58  N11 UNL     1      39.262  -5.689  33.358  1.00  0.00    -0.234 N 
ATOM     59 2H11 UNL     1      38.444  -5.127  33.594  1.00  0.00     0.174 HD
ATOM     60 1H11 UNL     1      40.092  -5.098  33.420  1.00  0.00     0.174 HD
ENDBRANCH  52  58
ENDBRANCH  41  44
ENDBRANCH  35  40
ENDBRANCH  34  35
ENDBRANCH  30  34
ENDBRANCH  13  15
ENDBRANCH   9  13
ENDBRANCH   4   9
ENDBRANCH   1   4
TORSDOF 15
ENDMDL
MODEL 4
REMARK VINA RESULT: -8.462973260      4.034      8.816
REMARK  15 active torsions:
REMARK  status: ('A' for Active; 'I' for Inactive)
REMARK    1  A    between atoms: O1_2  and  C2_3 
REMARK    2  A    between atoms: C2_3  and  C3_5 
REMARK    3  A    between atoms: C3_5  and  S1_6 
REMARK    4  A    between atoms: C3_5  and  C5_9 
REMARK    5  A    between atoms: C5_9  and  N3_13 
REMARK    6  A    between atoms: N3_13  and  C6_15 
REMARK    7  A    between atoms: C10_24  and  O5_25 
REMARK    8  A    between atoms: C13_31  and  C14_32 
REMARK    9  A    between atoms: C14_32  and  C15_33 
REMARK   10  A    between atoms: C15_33  and  C16_34 
REMARK   11  A    between atoms: C15_33  and  N7_38 
REMARK   12  A    between atoms: C16_34  and  C17_35 
REMARK   13  A    between atoms: C17_35  and  S2_36 
REMARK       I    between atoms: N7_38  and  C19_40 
REMARK   14  A    between atoms: C19_40  and  C20_42 
REMARK   15  A    between atoms: C22_50  and  N11_51 
ROOT
HETATM    1  S1  UNL     1      40.209 -12.543  29.062  1.00  0.00    -0.028 SA
HETATM    2  C4  UNL     1      39.470 -12.310  30.649  1.00  0.00     0.134 C 
HETATM    3  N1  UNL     1      38.992 -12.145  31.701  1.00  0.00    -0.184 NA
ENDROOT
BRANCH   1   4
HETATM    4  C3  UNL     1      40.403 -14.320  28.717  1.00  0.00     0.228 C 
BRANCH   4   5
HETATM    5  C2  UNL     1      41.199 -14.556  27.507  1.00  0.00     0.280 C 
HETATM    6  O2  UNL     1      41.783 -15.670  27.353  1.00  0.00    -0.263 OA
BRANCH   5   7
HETATM    7  O1  UNL     1      41.358 -13.615  26.497  1.00  0.00    -0.325 OA
HETATM    8  C1  UNL     1      41.933 -14.015  25.265  1.00  0.00     0.213 C 
ENDBRANCH   5   7
ENDBRANCH   4   5
BRANCH   4   9
HETATM    9  C5  UNL     1      40.954 -15.029  29.904  1.00  0.00     0.097 C 
HETATM   10  N2  UNL     1      40.095 -15.572  30.718  1.00  0.00    -0.388 N 
ATOM     11  H22 UNL     1      39.089 -15.518  30.557  1.00  0.00     0.157 HD
ATOM     12  H21 UNL     1      40.473 -16.058  31.532  1.00  0.00     0.157 HD
BRANCH   9  13
HETATM   13  N3  UNL     1      42.352 -15.104  30.128  1.00  0.00    -0.349 N 
ATOM     14  H3  UNL     1      42.974 -15.430  29.388  1.00  0.00     0.163 HD
BRANCH  13  15
HETATM   15  C6  UNL     1      42.890 -14.713  31.415  1.00  0.00     0.270 C 
HETATM   16  O3  UNL     1      41.889 -14.632  32.311  1.00  0.00    -0.336 OA
HETATM   17  C7  UNL     1      42.241 -14.529  33.646  1.00  0.00     0.256 C 
HETATM   18  N4  UNL     1      42.123 -15.912  34.163  1.00  0.00    -0.347 N 
HETATM   19  C24 UNL     1      43.665 -14.086  33.829  1.00  0.00     0.201 C 
HETATM   20  C8  UNL     1      42.773 -16.890  33.552  1.00  0.00     0.164 C 
ATOM     21  H4  UNL     1      41.547 -16.110  34.981  1.00  0.00     0.163 HD
HETATM   22  N5  UNL     1      42.601 -18.205  34.120  1.00  0.00    -0.079 NA
HETATM   23  C9  UNL     1      43.650 -16.840  32.385  1.00  0.00     0.231 C 
HETATM   24  O4  UNL     1      43.989 -17.936  31.920  1.00  0.00    -0.286 OA
HETATM   25  C10 UNL     1      44.097 -15.548  31.805  1.00  0.00     0.196 C 
HETATM   26  C12 UNL     1      44.690 -14.765  32.993  1.00  0.00     0.186 C 
HETATM   27  N6  UNL     1      45.572 -15.635  33.668  1.00  0.00    -0.289 N 
HETATM   28  O6  UNL     1      45.604 -15.565  34.997  1.00  0.00    -0.252 OA
ATOM     29  H6  UNL     1      46.163 -16.291  33.157  1.00  0.00     0.188 HD
HETATM   30  C13 UNL     1      45.275 -14.264  35.369  1.00  0.00     0.290 C 
HETATM   31  O8  UNL     1      43.927 -14.112  35.209  1.00  0.00    -0.347 OA
BRANCH  25  32
HETATM   32  O5  UNL     1      44.947 -15.560  30.789  1.00  0.00    -0.370 OA
HETATM   33  C11 UNL     1      45.819 -14.594  30.505  1.00  0.00     0.203 C 
ENDBRANCH  25  32
BRANCH  30  34
HETATM   34  C14 UNL     1      45.864 -13.838  36.658  1.00  0.00     0.088 C 
BRANCH  34  35
HETATM   35  C15 UNL     1      47.146 -14.462  37.073  1.00  0.00     0.090 C 
BRANCH  35  36
HETATM   36  C16 UNL     1      47.235 -14.622  38.560  1.00  0.00     0.035 C 
BRANCH  36  37
HETATM   37  C17 UNL     1      46.925 -16.049  38.991  1.00  0.00     0.075 C 
BRANCH  37  38
HETATM   38  S2  UNL     1      45.247 -16.029  39.692  1.00  0.00    -0.173 SA
HETATM   39  C18 UNL     1      44.038 -16.522  38.417  1.00  0.00     0.089 C 
ENDBRANCH  37  38
ENDBRANCH  36  37
ENDBRANCH  35  36
BRANCH  35  40
HETATM   40  N7  UNL     1      48.302 -13.739  36.577  1.00  0.00    -0.350 N 
HETATM   41  C19 UNL     1      49.002 -14.095  35.408  1.00  0.00     0.287 C 
HETATM   42  O7  UNL     1      48.605 -15.091  34.762  1.00  0.00    -0.264 OA
ATOM     43  H7  UNL     1      48.625 -12.929  37.104  1.00  0.00     0.163 HD
BRANCH  41  44
HETATM   44  C20 UNL     1      50.179 -13.316  34.945  1.00  0.00     0.191 A 
HETATM   45  N8  UNL     1      50.732 -13.572  33.757  1.00  0.00    -0.279 N 
HETATM   46  N9  UNL     1      51.771 -12.907  33.318  1.00  0.00    -0.280 N 
ATOM     47  H8  UNL     1      50.333 -14.307  33.174  1.00  0.00     0.189 HD
HETATM   48  C21 UNL     1      52.308 -11.933  34.081  1.00  0.00     0.180 A 
ATOM     49  H9  UNL     1      52.172 -13.124  32.406  1.00  0.00     0.188 HD
HETATM   50  N10 UNL     1      53.349 -11.089  33.925  1.00  0.00    -0.172 N 
HETATM   51  C23 UNL     1      51.758 -11.644  35.317  1.00  0.00     0.169 A 
HETATM   52  C22 UNL     1      53.456 -10.302  35.006  1.00  0.00     0.679 A 
ATOM     53  H10 UNL     1      53.960 -11.055  33.109  1.00  0.00     0.186 HD
HETATM   54  N12 UNL     1      52.477 -10.632  35.880  1.00  0.00    -0.173 N 
ATOM     55  H12 UNL     1      52.309 -10.204  36.790  1.00  0.00     0.186 HD
HETATM   56  N13 UNL     1      50.695 -12.354  35.718  1.00  0.00    -0.319 N 
ATOM     57  H13 UNL     1      50.273 -12.158  36.625  1.00  0.00     0.169 HD
BRANCH  52  58
HETATM   58  N11 UNL     1      54.349  -9.391  35.170  1.00  0.00    -0.234 N 
ATOM     59 2H11 UNL     1      55.123  -9.416  35.835  1.00  0.00     0.174 HD
ATOM     60 1H11 UNL     1      54.395  -8.517  34.648  1.00  0.00     0.174 HD
ENDBRANCH  52  58
ENDBRANCH  41  44
ENDBRANCH  35  40
ENDBRANCH  34  35
ENDBRANCH  30  34
ENDBRANCH  13  15
ENDBRANCH   9  13
ENDBRANCH   4   9
ENDBRANCH   1   4
TORSDOF 15
ENDMDL
MODEL 5
REMARK VINA RESULT: -8.275386048      1.128      1.803
REMARK  15 active torsions:
REMARK  status: ('A' for Active; 'I' for Inactive)
REMARK    1  A    between atoms: O1_2  and  C2_3 
REMARK    2  A    between atoms: C2_3  and  C3_5 
REMARK    3  A    between atoms: C3_5  and  S1_6 
REMARK    4  A    between atoms: C3_5  and  C5_9 
REMARK    5  A    between atoms: C5_9  and  N3_13 
REMARK    6  A    between atoms: N3_13  and  C6_15 
REMARK    7  A    between atoms: C10_24  and  O5_25 
REMARK    8  A    between atoms: C13_31  and  C14_32 
REMARK    9  A    between atoms: C14_32  and  C15_33 
REMARK   10  A    between atoms: C15_33  and  C16_34 
REMARK   11  A    between atoms: C15_33  and  N7_38 
REMARK   12  A    between atoms: C16_34  and  C17_35 
REMARK   13  A    between atoms: C17_35  and  S2_36 
REMARK       I    between atoms: N7_38  and  C19_40 
REMARK   14  A    between atoms: C19_40  and  C20_42 
REMARK   15  A    between atoms: C22_50  and  N11_51 
ROOT
HETATM    1  S1  UNL     1      49.443 -15.479  31.803  1.00  0.00    -0.028 SA
HETATM    2  C4  UNL     1      49.419 -14.555  33.308  1.00  0.00     0.134 C 
HETATM    3  N1  UNL     1      49.416 -13.954  34.308  1.00  0.00    -0.184 NA
ENDROOT
BRANCH   1   4
HETATM    4  C3  UNL     1      47.746 -15.920  31.313  1.00  0.00     0.228 C 
BRANCH   4   5
HETATM    5  C2  UNL     1      47.646 -16.190  29.875  1.00  0.00     0.280 C 
HETATM    6  O2  UNL     1      48.704 -16.295  29.185  1.00  0.00    -0.263 OA
BRANCH   5   7
HETATM    7  O1  UNL     1      46.438 -16.340  29.205  1.00  0.00    -0.325 OA
HETATM    8  C1  UNL     1      45.647 -15.194  28.940  1.00  0.00     0.213 C 
ENDBRANCH   5   7
ENDBRANCH   4   5
BRANCH   4   9
HETATM    9  C5  UNL     1      47.239 -17.053  32.137  1.00  0.00     0.097 C 
HETATM   10  N2  UNL     1      47.131 -18.208  31.546  1.00  0.00    -0.388 N 
ATOM     11  H22 UNL     1      47.379 -18.340  30.566  1.00  0.00     0.157 HD
ATOM     12  H21 UNL     1      46.784 -18.984  32.111  1.00  0.00     0.157 HD
BRANCH   9  13
HETATM   13  N3  UNL     1      46.894 -16.870  33.499  1.00  0.00    -0.349 N 
ATOM     14  H3  UNL     1      47.372 -17.402  34.227  1.00  0.00     0.163 HD
BRANCH  13  15
HETATM   15  C6  UNL     1      45.856 -15.922  33.852  1.00  0.00     0.270 C 
HETATM   16  O3  UNL     1      45.870 -14.900  32.977  1.00  0.00    -0.336 OA
HETATM   17  C7  UNL     1      44.789 -14.035  32.996  1.00  0.00     0.256 C 
HETATM   18  N4  UNL     1      43.922 -14.510  31.893  1.00  0.00    -0.347 N 
HETATM   19  C24 UNL     1      44.006 -14.129  34.274  1.00  0.00     0.201 C 
HETATM   20  C8  UNL     1      43.543 -15.777  31.865  1.00  0.00     0.164 C 
ATOM     21  H4  UNL     1      43.620 -13.866  31.161  1.00  0.00     0.163 HD
HETATM   22  N5  UNL     1      42.702 -16.154  30.755  1.00  0.00    -0.079 NA
HETATM   23  C9  UNL     1      43.844 -16.860  32.797  1.00  0.00     0.231 C 
HETATM   24  O4  UNL     1      43.500 -17.993  32.435  1.00  0.00    -0.286 OA
HETATM   25  C10 UNL     1      44.521 -16.603  34.093  1.00  0.00     0.196 C 
HETATM   26  C12 UNL     1      43.684 -15.495  34.763  1.00  0.00     0.186 C 
HETATM   27  N6  UNL     1      42.331 -15.888  34.684  1.00  0.00    -0.289 N 
HETATM   28  O6  UNL     1      41.430 -14.935  34.450  1.00  0.00    -0.252 OA
ATOM     29  H6  UNL     1      42.054 -16.862  34.799  1.00  0.00     0.188 HD
HETATM   30  C13 UNL     1      41.919 -13.741  34.975  1.00  0.00     0.290 C 
HETATM   31  O8  UNL     1      42.892 -13.282  34.134  1.00  0.00    -0.347 OA
BRANCH  25  32
HETATM   32  O5  UNL     1      44.708 -17.612  34.932  1.00  0.00    -0.370 OA
HETATM   33  C11 UNL     1      44.566 -17.549  36.255  1.00  0.00     0.203 C 
ENDBRANCH  25  32
BRANCH  30  34
HETATM   34  C14 UNL     1      40.865 -12.787  35.387  1.00  0.00     0.088 C 
BRANCH  34  35
HETATM   35  C15 UNL     1      39.743 -12.546  34.444  1.00  0.00     0.090 C 
BRANCH  35  36
HETATM   36  C16 UNL     1      38.497 -13.267  34.860  1.00  0.00     0.035 C 
BRANCH  36  37
HETATM   37  C17 UNL     1      38.150 -12.993  36.316  1.00  0.00     0.075 C 
BRANCH  37  38
HETATM   38  S2  UNL     1      37.013 -11.574  36.324  1.00  0.00    -0.173 SA
HETATM   39  C18 UNL     1      37.940 -10.041  36.673  1.00  0.00     0.089 C 
ENDBRANCH  37  38
ENDBRANCH  36  37
ENDBRANCH  35  36
BRANCH  35  40
HETATM   40  N7  UNL     1      40.085 -12.886  33.076  1.00  0.00    -0.350 N 
HETATM   41  C19 UNL     1      39.601 -12.187  31.953  1.00  0.00     0.287 C 
HETATM   42  O7  UNL     1      38.830 -11.219  32.148  1.00  0.00    -0.264 OA
ATOM     43  H7  UNL     1      40.712 -13.674  32.918  1.00  0.00     0.163 HD
BRANCH  41  44
HETATM   44  C20 UNL     1      39.987 -12.578  30.573  1.00  0.00     0.191 A 
HETATM   45  N8  UNL     1      40.474 -13.797  30.329  1.00  0.00    -0.279 N 
HETATM   46  N9  UNL     1      40.827 -14.174  29.125  1.00  0.00    -0.280 N 
ATOM     47  H8  UNL     1      40.575 -14.453  31.103  1.00  0.00     0.189 HD
HETATM   48  C21 UNL     1      40.700 -13.314  28.095  1.00  0.00     0.180 A 
ATOM     49  H9  UNL     1      41.195 -15.112  28.969  1.00  0.00     0.188 HD
HETATM   50  N10 UNL     1      40.965 -13.390  26.775  1.00  0.00    -0.172 N 
HETATM   51  C23 UNL     1      40.197 -12.044  28.316  1.00  0.00     0.169 A 
HETATM   52  C22 UNL     1      40.649 -12.228  26.184  1.00  0.00     0.679 A 
ATOM     53  H10 UNL     1      41.349 -14.207  26.299  1.00  0.00     0.186 HD
HETATM   54  N12 UNL     1      40.170 -11.381  27.125  1.00  0.00    -0.173 N 
ATOM     55  H12 UNL     1      39.850 -10.425  26.972  1.00  0.00     0.186 HD
HETATM   56  N13 UNL     1      39.851 -11.710  29.565  1.00  0.00    -0.319 N 
ATOM     57  H13 UNL     1      39.479 -10.779  29.752  1.00  0.00     0.169 HD
BRANCH  52  58
HETATM   58  N11 UNL     1      40.785 -11.976  24.930  1.00  0.00    -0.234 N 
ATOM     59 2H11 UNL     1      40.539 -12.596  24.159  1.00  0.00     0.174 HD
ATOM     60 1H11 UNL     1      41.162 -11.110  24.545  1.00  0.00     0.174 HD
ENDBRANCH  52  58
ENDBRANCH  41  44
ENDBRANCH  35  40
ENDBRANCH  34  35
ENDBRANCH  30  34
ENDBRANCH  13  15
ENDBRANCH   9  13
ENDBRANCH   4   9
ENDBRANCH   1   4
TORSDOF 15
ENDMDL
