MODEL 1
REMARK VINA RESULT: -7.029115734      0.000      0.000
REMARK  8 active torsions:
REMARK  status: ('A' for Active; 'I' for Inactive)
REMARK    1  A    between atoms: O1_1  and  C1_3 
REMARK    2  A    between atoms: C1_3  and  O2_4 
REMARK    3  A    between atoms: C1_3  and  N1_6 
REMARK    4  A    between atoms: N1_6  and  C2_9 
REMARK    5  A    between atoms: C2_9  and  C3_10 
REMARK    6  A    between atoms: C5_12  and  C6_13 
REMARK    7  A    between atoms: C6_13  and  O3_14 
REMARK    8  A    between atoms: C6_13  and  C7_16 
ROOT
HETATM    1  C3  UNL     1       1.455  -7.723  -7.498  1.00  0.00     0.018 A 
HETATM    2  C4  UNL     1       1.977  -7.044  -6.269  1.00  0.00     0.014 A 
HETATM    3  C5  UNL     1       1.894  -8.578  -6.408  1.00  0.00     0.021 A 
ENDROOT
BRANCH   1   4
HETATM    4  C2  UNL     1       0.006  -7.437  -7.801  1.00  0.00     0.243 C 
BRANCH   4   5
HETATM    5  N1  UNL     1      -0.188  -6.017  -7.744  1.00  0.00    -0.025 N 
ATOM      6  H12 UNL     1       0.677  -5.544  -7.484  1.00  0.00     0.283 HD
ATOM      7  H11 UNL     1      -0.766  -5.763  -6.942  1.00  0.00     0.283 HD
BRANCH   5   8
HETATM    8  C1  UNL     1      -0.731  -5.460  -8.966  1.00  0.00     0.464 C 
BRANCH   8   9
HETATM    9  O1  UNL     1      -0.917  -4.090  -8.727  1.00  0.00    -0.350 OA
ATOM     10  H1  UNL     1      -1.377  -3.995  -7.902  1.00  0.00     0.214 HD
ENDBRANCH   8   9
BRANCH   8  11
HETATM   11  O2  UNL     1       0.115  -5.595 -10.038  1.00  0.00    -0.350 OA
ATOM     12  H2  UNL     1      -0.073  -6.425 -10.460  1.00  0.00     0.214 HD
ENDBRANCH   8  11
ENDBRANCH   5   8
ENDBRANCH   4   5
ENDBRANCH   1   4
BRANCH   3  13
HETATM   13  C6  UNL     1       1.001  -9.263  -5.447  1.00  0.00     0.126 C 
BRANCH  13  14
HETATM   14  O3  UNL     1       1.127  -8.672  -4.192  1.00  0.00    -0.395 OA
ATOM     15  H3  UNL     1       0.341  -8.833  -3.685  1.00  0.00     0.210 HD
ENDBRANCH  13  14
BRANCH  13  16
HETATM   16  C7  UNL     1       1.194 -10.723  -5.301  1.00  0.00     0.015 C 
HETATM   17  C8  UNL     1       1.456 -11.454  -6.587  1.00  0.00     0.007 C 
HETATM   18  C9  UNL     1       1.647 -12.870  -6.032  1.00  0.00     0.000 C 
HETATM   19  C10 UNL     1       2.374 -12.657  -4.719  1.00  0.00     0.000 C 
HETATM   20  C11 UNL     1       2.354 -11.150  -4.474  1.00  0.00     0.007 C 
ENDBRANCH  13  16
ENDBRANCH   3  13
TORSDOF 8
ENDMDL
MODEL 2
REMARK VINA RESULT: -6.836426371      5.842      7.739
REMARK  8 active torsions:
REMARK  status: ('A' for Active; 'I' for Inactive)
REMARK    1  A    between atoms: O1_1  and  C1_3 
REMARK    2  A    between atoms: C1_3  and  O2_4 
REMARK    3  A    between atoms: C1_3  and  N1_6 
REMARK    4  A    between atoms: N1_6  and  C2_9 
REMARK    5  A    between atoms: C2_9  and  C3_10 
REMARK    6  A    between atoms: C5_12  and  C6_13 
REMARK    7  A    between atoms: C6_13  and  O3_14 
REMARK    8  A    between atoms: C6_13  and  C7_16 
ROOT
HETATM    1  C3  UNL     1      -3.559  -5.884  -8.167  1.00  0.00     0.018 A 
HETATM    2  C4  UNL     1      -3.376  -6.024  -6.687  1.00  0.00     0.014 A 
HETATM    3  C5  UNL     1      -4.488  -6.756  -7.467  1.00  0.00     0.021 A 
ENDROOT
BRANCH   1   4
HETATM    4  C2  UNL     1      -3.909  -4.491  -8.624  1.00  0.00     0.243 C 
BRANCH   4   5
HETATM    5  N1  UNL     1      -2.775  -3.955  -9.321  1.00  0.00    -0.025 N 
ATOM      6  H12 UNL     1      -2.971  -3.013  -9.660  1.00  0.00     0.283 HD
ATOM      7  H11 UNL     1      -2.641  -4.431 -10.214  1.00  0.00     0.283 HD
BRANCH   5   8
HETATM    8  C1  UNL     1      -1.556  -3.976  -8.540  1.00  0.00     0.464 C 
BRANCH   8   9
HETATM    9  O1  UNL     1      -0.583  -4.593  -9.341  1.00  0.00    -0.350 OA
ATOM     10  H1  UNL     1      -0.941  -5.414  -9.659  1.00  0.00     0.214 HD
ENDBRANCH   8   9
BRANCH   8  11
HETATM   11  O2  UNL     1      -1.105  -2.720  -8.215  1.00  0.00    -0.350 OA
ATOM     12  H2  UNL     1      -1.203  -2.165  -8.979  1.00  0.00     0.214 HD
ENDBRANCH   8  11
ENDBRANCH   5   8
ENDBRANCH   4   5
ENDBRANCH   1   4
BRANCH   3  13
HETATM   13  C6  UNL     1      -5.874  -6.401  -7.093  1.00  0.00     0.126 C 
BRANCH  13  14
HETATM   14  O3  UNL     1      -6.075  -6.670  -5.741  1.00  0.00    -0.395 OA
ATOM     15  H3  UNL     1      -6.617  -7.445  -5.648  1.00  0.00     0.210 HD
ENDBRANCH  13  14
BRANCH  13  16
HETATM   16  C7  UNL     1      -6.950  -7.062  -7.867  1.00  0.00     0.015 C 
HETATM   17  C8  UNL     1      -8.003  -6.131  -8.397  1.00  0.00     0.007 C 
HETATM   18  C9  UNL     1      -8.870  -7.144  -9.153  1.00  0.00     0.000 C 
HETATM   19  C10 UNL     1      -7.870  -8.122  -9.737  1.00  0.00     0.000 C 
HETATM   20  C11 UNL     1      -6.527  -7.769  -9.104  1.00  0.00     0.007 C 
ENDBRANCH  13  16
ENDBRANCH   3  13
TORSDOF 8
ENDMDL
MODEL 3
REMARK VINA RESULT: -6.805421883      8.399     10.924
REMARK  8 active torsions:
REMARK  status: ('A' for Active; 'I' for Inactive)
REMARK    1  A    between atoms: O1_1  and  C1_3 
REMARK    2  A    between atoms: C1_3  and  O2_4 
REMARK    3  A    between atoms: C1_3  and  N1_6 
REMARK    4  A    between atoms: N1_6  and  C2_9 
REMARK    5  A    between atoms: C2_9  and  C3_10 
REMARK    6  A    between atoms: C5_12  and  C6_13 
REMARK    7  A    between atoms: C6_13  and  O3_14 
REMARK    8  A    between atoms: C6_13  and  C7_16 
ROOT
HETATM    1  C3  UNL     1      -3.917  -2.587  -8.705  1.00  0.00     0.018 A 
HETATM    2  C4  UNL     1      -4.635  -3.208  -7.546  1.00  0.00     0.014 A 
HETATM    3  C5  UNL     1      -5.363  -2.698  -8.807  1.00  0.00     0.021 A 
ENDROOT
BRANCH   1   4
HETATM    4  C2  UNL     1      -3.202  -1.301  -8.380  1.00  0.00     0.243 C 
BRANCH   4   5
HETATM    5  N1  UNL     1      -1.794  -1.574  -8.342  1.00  0.00    -0.025 N 
ATOM      6  H12 UNL     1      -1.483  -1.993  -9.219  1.00  0.00     0.283 HD
ATOM      7  H11 UNL     1      -1.592  -2.345  -7.705  1.00  0.00     0.283 HD
BRANCH   5   8
HETATM    8  C1  UNL     1      -0.991  -0.414  -8.015  1.00  0.00     0.464 C 
BRANCH   8   9
HETATM    9  O1  UNL     1       0.334  -0.866  -7.915  1.00  0.00    -0.350 OA
ATOM     10  H1  UNL     1       0.848  -0.182  -7.502  1.00  0.00     0.214 HD
ENDBRANCH   8   9
BRANCH   8  11
HETATM   11  O2  UNL     1      -1.036   0.560  -8.982  1.00  0.00    -0.350 OA
ATOM     12  H2  UNL     1      -1.918   0.910  -9.006  1.00  0.00     0.214 HD
ENDBRANCH   8  11
ENDBRANCH   5   8
ENDBRANCH   4   5
ENDBRANCH   1   4
BRANCH   3  13
HETATM   13  C6  UNL     1      -6.321  -1.591  -8.592  1.00  0.00     0.126 C 
BRANCH  13  14
HETATM   14  O3  UNL     1      -7.426  -2.062  -7.886  1.00  0.00    -0.395 OA
ATOM     15  H3  UNL     1      -8.188  -1.539  -8.102  1.00  0.00     0.210 HD
ENDBRANCH  13  14
BRANCH  13  16
HETATM   16  C7  UNL     1      -6.802  -0.897  -9.808  1.00  0.00     0.015 C 
HETATM   17  C8  UNL     1      -6.019  -1.197 -11.054  1.00  0.00     0.007 C 
HETATM   18  C9  UNL     1      -6.825  -0.368 -12.059  1.00  0.00     0.000 C 
HETATM   19  C10 UNL     1      -8.261  -0.521 -11.597  1.00  0.00     0.000 C 
HETATM   20  C11 UNL     1      -8.187  -1.219 -10.241  1.00  0.00     0.007 C 
ENDBRANCH  13  16
ENDBRANCH   3  13
TORSDOF 8
ENDMDL
MODEL 4
REMARK VINA RESULT: -6.787270272      6.235     11.084
REMARK  8 active torsions:
REMARK  status: ('A' for Active; 'I' for Inactive)
REMARK    1  A    between atoms: O1_1  and  C1_3 
REMARK    2  A    between atoms: C1_3  and  O2_4 
REMARK    3  A    between atoms: C1_3  and  N1_6 
REMARK    4  A    between atoms: N1_6  and  C2_9 
REMARK    5  A    between atoms: C2_9  and  C3_10 
REMARK    6  A    between atoms: C5_12  and  C6_13 
REMARK    7  A    between atoms: C6_13  and  O3_14 
REMARK    8  A    between atoms: C6_13  and  C7_16 
ROOT
HETATM    1  C3  UNL     1      -4.949  -2.762  -8.454  1.00  0.00     0.018 A 
HETATM    2  C4  UNL     1      -4.367  -1.399  -8.243  1.00  0.00     0.014 A 
HETATM    3  C5  UNL     1      -5.537  -1.670  -9.210  1.00  0.00     0.021 A 
ENDROOT
BRANCH   1   4
HETATM    4  C2  UNL     1      -3.992  -3.764  -9.047  1.00  0.00     0.243 C 
BRANCH   4   5
HETATM    5  N1  UNL     1      -2.676  -3.462  -8.562  1.00  0.00    -0.025 N 
ATOM      6  H12 UNL     1      -2.724  -2.936  -7.690  1.00  0.00     0.283 HD
ATOM      7  H11 UNL     1      -2.223  -2.766  -9.156  1.00  0.00     0.283 HD
BRANCH   5   8
HETATM    8  C1  UNL     1      -1.835  -4.632  -8.410  1.00  0.00     0.464 C 
BRANCH   8   9
HETATM    9  O1  UNL     1      -0.691  -4.400  -9.188  1.00  0.00    -0.350 OA
ATOM     10  H1  UNL     1      -0.724  -4.978  -9.941  1.00  0.00     0.214 HD
ENDBRANCH   8   9
BRANCH   8  11
HETATM   11  O2  UNL     1      -1.434  -4.839  -7.114  1.00  0.00    -0.350 OA
ATOM     12  H2  UNL     1      -1.453  -4.004  -6.663  1.00  0.00     0.214 HD
ENDBRANCH   8  11
ENDBRANCH   5   8
ENDBRANCH   4   5
ENDBRANCH   1   4
BRANCH   3  13
HETATM   13  C6  UNL     1      -5.272  -1.379 -10.636  1.00  0.00     0.126 C 
BRANCH  13  14
HETATM   14  O3  UNL     1      -4.146  -0.565 -10.744  1.00  0.00    -0.395 OA
ATOM     15  H3  UNL     1      -3.539  -0.769 -10.043  1.00  0.00     0.210 HD
ENDBRANCH  13  14
BRANCH  13  16
HETATM   16  C7  UNL     1      -6.379  -0.750 -11.392  1.00  0.00     0.015 C 
HETATM   17  C8  UNL     1      -6.657  -1.372 -12.731  1.00  0.00     0.007 C 
HETATM   18  C9  UNL     1      -7.852  -0.513 -13.159  1.00  0.00     0.000 C 
HETATM   19  C10 UNL     1      -8.619  -0.280 -11.873  1.00  0.00     0.000 C 
HETATM   20  C11 UNL     1      -7.721  -0.803 -10.754  1.00  0.00     0.007 C 
ENDBRANCH  13  16
ENDBRANCH   3  13
TORSDOF 8
ENDMDL
MODEL 5
REMARK VINA RESULT: -6.752585075      2.577      3.690
REMARK  8 active torsions:
REMARK  status: ('A' for Active; 'I' for Inactive)
REMARK    1  A    between atoms: O1_1  and  C1_3 
REMARK    2  A    between atoms: C1_3  and  O2_4 
REMARK    3  A    between atoms: C1_3  and  N1_6 
REMARK    4  A    between atoms: N1_6  and  C2_9 
REMARK    5  A    between atoms: C2_9  and  C3_10 
REMARK    6  A    between atoms: C5_12  and  C6_13 
REMARK    7  A    between atoms: C6_13  and  O3_14 
REMARK    8  A    between atoms: C6_13  and  C7_16 
ROOT
HETATM    1  C3  UNL     1      -1.443  -6.516  -8.322  1.00  0.00     0.018 A 
HETATM    2  C4  UNL     1      -0.291  -5.910  -9.062  1.00  0.00     0.014 A 
HETATM    3  C5  UNL     1      -0.177  -7.227  -8.267  1.00  0.00     0.021 A 
ENDROOT
BRANCH   1   4
HETATM    4  C2  UNL     1      -1.974  -5.671  -7.193  1.00  0.00     0.243 C 
BRANCH   4   5
HETATM    5  N1  UNL     1      -3.081  -6.365  -6.601  1.00  0.00    -0.025 N 
ATOM      6  H12 UNL     1      -2.892  -6.577  -5.621  1.00  0.00     0.283 HD
ATOM      7  H11 UNL     1      -3.150  -7.314  -6.968  1.00  0.00     0.283 HD
BRANCH   5   8
HETATM    8  C1  UNL     1      -4.341  -5.666  -6.741  1.00  0.00     0.464 C 
BRANCH   8   9
HETATM    9  O1  UNL     1      -5.195  -6.190  -5.758  1.00  0.00    -0.350 OA
ATOM     10  H1  UNL     1      -5.911  -6.634  -6.196  1.00  0.00     0.214 HD
ENDBRANCH   8   9
BRANCH   8  11
HETATM   11  O2  UNL     1      -4.231  -4.314  -6.531  1.00  0.00    -0.350 OA
ATOM     12  H2  UNL     1      -3.307  -4.094  -6.507  1.00  0.00     0.214 HD
ENDBRANCH   8  11
ENDBRANCH   5   8
ENDBRANCH   4   5
ENDBRANCH   1   4
BRANCH   3  13
HETATM   13  C6  UNL     1       0.763  -7.208  -7.124  1.00  0.00     0.126 C 
BRANCH  13  14
HETATM   14  O3  UNL     1       1.943  -6.571  -7.503  1.00  0.00    -0.395 OA
ATOM     15  H3  UNL     1       2.287  -6.076  -6.769  1.00  0.00     0.210 HD
ENDBRANCH  13  14
BRANCH  13  16
HETATM   16  C7  UNL     1       1.107  -8.523  -6.538  1.00  0.00     0.015 C 
HETATM   17  C8  UNL     1       1.694  -8.460  -5.157  1.00  0.00     0.007 C 
HETATM   18  C9  UNL     1       1.858  -9.960  -4.889  1.00  0.00     0.000 C 
HETATM   19  C10 UNL     1       0.640 -10.586  -5.540  1.00  0.00     0.000 C 
HETATM   20  C11 UNL     1      -0.024  -9.467  -6.338  1.00  0.00     0.007 C 
ENDBRANCH  13  16
ENDBRANCH   3  13
TORSDOF 8
ENDMDL
