MODEL 1
REMARK VINA RESULT: -8.216720830      0.000      0.000
REMARK  15 active torsions:
REMARK  status: ('A' for Active; 'I' for Inactive)
REMARK    1  A    between atoms: C2_2  and  C3_4 
REMARK    2  A    between atoms: C3_4  and  N1_5 
REMARK    3  A    between atoms: C6_10  and  N3_11 
REMARK    4  A    between atoms: N4_16  and  C8_17 
REMARK    5  A    between atoms: C8_17  and  C9_18 
REMARK    6  A    between atoms: C9_18  and  O3_19 
REMARK    7  A    between atoms: C9_18  and  O4_21 
REMARK    8  A    between atoms: O4_21  and  C10_22 
REMARK    9  A    between atoms: C10_22  and  C11_23 
REMARK   10  A    between atoms: C11_23  and  N5_24 
REMARK   11  A    between atoms: C11_23  and  O5_28 
REMARK   12  A    between atoms: O5_28  and  C12_29 
REMARK   13  A    between atoms: C20_42  and  S1_43 
REMARK   14  A    between atoms: S1_43  and  C21_46 
REMARK   15  A    between atoms: C21_46  and  C23_48 
ROOT
HETATM    1  N1  UNL     1      -1.194  -5.230 -23.705  1.00  0.00    -0.269 N 
HETATM    2  N2  UNL     1      -2.285  -5.641 -24.334  1.00  0.00    -0.294 N 
ATOM      3  H2  UNL     1      -3.062  -6.153 -23.918  1.00  0.00     0.187 HD
HETATM    4  C4  UNL     1      -2.186  -5.268 -25.600  1.00  0.00     0.086 A 
HETATM    5  C5  UNL     1      -0.981  -4.590 -25.804  1.00  0.00     0.106 A 
HETATM    6  C6  UNL     1      -0.372  -4.588 -24.553  1.00  0.00     0.134 A 
HETATM    7  C7  UNL     1      -0.660  -4.123 -27.034  1.00  0.00     0.264 A 
HETATM    8  O2  UNL     1       0.434  -3.517 -27.186  1.00  0.00    -0.267 OA
HETATM    9  N4  UNL     1      -1.445  -4.258 -28.152  1.00  0.00    -0.308 N 
HETATM   10  C14 UNL     1      -2.592  -4.911 -27.932  1.00  0.00     0.056 A 
HETATM   11  C15 UNL     1      -3.276  -5.036 -29.122  1.00  0.00     0.034 C 
HETATM   12  C16 UNL     1      -4.205  -6.005 -29.415  1.00  0.00     0.051 C 
HETATM   13  C17 UNL     1      -4.875  -6.854 -28.542  1.00  0.00     0.118 A 
HETATM   14  N6  UNL     1      -5.581  -7.737 -29.207  1.00  0.00    -0.307 N 
ATOM     15  H6  UNL     1      -5.551  -7.714 -30.226  1.00  0.00     0.170 HD
HETATM   16  C18 UNL     1      -6.329  -8.656 -28.623  1.00  0.00     0.274 A 
HETATM   17  O7  UNL     1      -6.992  -9.489 -29.315  1.00  0.00    -0.266 OA
HETATM   18  C19 UNL     1      -6.348  -8.659 -27.239  1.00  0.00     0.153 A 
HETATM   19  N7  UNL     1      -7.137  -9.734 -26.695  1.00  0.00    -0.093 NA
HETATM   20  C20 UNL     1      -5.629  -7.753 -26.469  1.00  0.00     0.170 A 
HETATM   21  N8  UNL     1      -4.906  -6.875 -27.168  1.00  0.00    -0.251 N 
HETATM   22  C24 UNL     1      -4.169  -6.067 -26.369  1.00  0.00     0.269 C 
HETATM   23  O12 UNL     1      -4.605  -5.907 -25.267  1.00  0.00    -0.266 OA
HETATM   24  C25 UNL     1      -2.991  -5.421 -26.693  1.00  0.00     0.089 A 
ENDROOT
BRANCH   9  25
HETATM   25  C8  UNL     1      -1.002  -3.715 -29.408  1.00  0.00     0.193 C 
BRANCH  25  26
HETATM   26  C9  UNL     1       0.112  -4.434 -30.088  1.00  0.00     0.275 C 
BRANCH  26  27
HETATM   27  O3  UNL     1      -0.085  -5.834 -29.965  1.00  0.00    -0.370 OA
ATOM     28  H3  UNL     1      -0.943  -6.063 -30.301  1.00  0.00     0.212 HD
ENDBRANCH  26  27
BRANCH  26  29
HETATM   29  O4  UNL     1       0.124  -4.235 -31.470  1.00  0.00    -0.355 OA
BRANCH  29  30
HETATM   30  C10 UNL     1      -1.057  -3.920 -32.047  1.00  0.00     0.232 C 
BRANCH  30  31
HETATM   31  C11 UNL     1      -1.292  -2.541 -32.526  1.00  0.00     0.351 C 
BRANCH  31  32
HETATM   32  N5  UNL     1      -0.404  -2.377 -33.717  1.00  0.00    -0.050 N 
ATOM     33  H53 UNL     1      -0.639  -2.995 -34.493  1.00  0.00     0.277 HD
ATOM     34  H52 UNL     1      -0.546  -1.499 -34.218  1.00  0.00     0.277 HD
ATOM     35  H51 UNL     1       0.545  -2.500 -33.367  1.00  0.00     0.277 HD
ENDBRANCH  31  32
BRANCH  31  36
HETATM   36  O5  UNL     1      -2.592  -2.358 -33.077  1.00  0.00    -0.286 OA
BRANCH  36  37
HETATM   37  C12 UNL     1      -2.916  -1.132 -33.605  1.00  0.00     0.256 C 
HETATM   38  C13 UNL     1      -3.117   0.062 -32.744  1.00  0.00     0.126 C 
HETATM   39  O6  UNL     1      -3.047  -1.004 -34.844  1.00  0.00    -0.266 OA
ENDBRANCH  36  37
ENDBRANCH  31  36
ENDBRANCH  30  31
ENDBRANCH  29  30
ENDBRANCH  26  29
ENDBRANCH  25  26
ENDBRANCH   9  25
BRANCH   6  40
HETATM   40  N3  UNL     1       0.769  -4.064 -24.274  1.00  0.00    -0.383 N 
ATOM     41  H32 UNL     1       1.392  -4.359 -23.523  1.00  0.00     0.157 HD
ATOM     42  H31 UNL     1       1.218  -3.284 -24.754  1.00  0.00     0.157 HD
ENDBRANCH   6  40
BRANCH   1  43
HETATM   43  C3  UNL     1      -0.941  -5.459 -22.276  1.00  0.00     0.228 C 
BRANCH  43  44
HETATM   44  C2  UNL     1      -2.191  -5.811 -21.587  1.00  0.00     0.142 C 
HETATM   45  C1  UNL     1      -3.017  -4.823 -20.840  1.00  0.00     0.093 C 
HETATM   46  O1  UNL     1      -2.577  -6.966 -21.623  1.00  0.00    -0.297 OA
ENDBRANCH  43  44
ENDBRANCH   1  43
BRANCH  20  47
HETATM   47  S1  UNL     1      -5.721  -7.723 -24.638  1.00  0.00     0.207 S 
HETATM   48  O8  UNL     1      -5.944 -10.073 -24.398  1.00  0.00    -0.220 OA
HETATM   49  O9  UNL     1      -5.428  -7.370 -23.184  1.00  0.00    -0.220 OA
BRANCH  47  50
HETATM   50  C21 UNL     1      -7.538  -7.806 -24.506  1.00  0.00     0.211 C 
HETATM   51  C22 UNL     1      -8.364  -6.587 -25.079  1.00  0.00     0.038 C 
BRANCH  50  52
HETATM   52  C23 UNL     1      -7.987  -7.673 -23.080  1.00  0.00     0.192 C 
HETATM   53  O10 UNL     1      -8.317  -6.574 -22.636  1.00  0.00    -0.647 OA
HETATM   54  O11 UNL     1      -8.055  -8.751 -22.209  1.00  0.00    -0.647 OA
ENDBRANCH  50  52
ENDBRANCH  47  50
ENDBRANCH  20  47
TORSDOF 15
ENDMDL
MODEL 2
REMARK VINA RESULT: -7.941180655      1.324      2.014
REMARK  15 active torsions:
REMARK  status: ('A' for Active; 'I' for Inactive)
REMARK    1  A    between atoms: C2_2  and  C3_4 
REMARK    2  A    between atoms: C3_4  and  N1_5 
REMARK    3  A    between atoms: C6_10  and  N3_11 
REMARK    4  A    between atoms: N4_16  and  C8_17 
REMARK    5  A    between atoms: C8_17  and  C9_18 
REMARK    6  A    between atoms: C9_18  and  O3_19 
REMARK    7  A    between atoms: C9_18  and  O4_21 
REMARK    8  A    between atoms: O4_21  and  C10_22 
REMARK    9  A    between atoms: C10_22  and  C11_23 
REMARK   10  A    between atoms: C11_23  and  N5_24 
REMARK   11  A    between atoms: C11_23  and  O5_28 
REMARK   12  A    between atoms: O5_28  and  C12_29 
REMARK   13  A    between atoms: C20_42  and  S1_43 
REMARK   14  A    between atoms: S1_43  and  C21_46 
REMARK   15  A    between atoms: C21_46  and  C23_48 
ROOT
HETATM    1  N1  UNL     1      -1.780  -5.473 -23.017  1.00  0.00    -0.269 N 
HETATM    2  N2  UNL     1      -2.804  -5.833 -23.776  1.00  0.00    -0.294 N 
ATOM      3  H2  UNL     1      -3.638  -6.331 -23.465  1.00  0.00     0.187 HD
HETATM    4  C4  UNL     1      -2.551  -5.432 -25.011  1.00  0.00     0.086 A 
HETATM    5  C5  UNL     1      -1.312  -4.787 -25.059  1.00  0.00     0.106 A 
HETATM    6  C6  UNL     1      -0.850  -4.836 -23.748  1.00  0.00     0.134 A 
HETATM    7  C7  UNL     1      -0.841  -4.299 -26.231  1.00  0.00     0.264 A 
HETATM    8  O2  UNL     1       0.280  -3.723 -26.241  1.00  0.00    -0.267 OA
HETATM    9  N4  UNL     1      -1.498  -4.381 -27.433  1.00  0.00    -0.308 N 
HETATM   10  C14 UNL     1      -2.680  -5.002 -27.362  1.00  0.00     0.056 A 
HETATM   11  C15 UNL     1      -3.228  -5.074 -28.625  1.00  0.00     0.034 C 
HETATM   12  C16 UNL     1      -4.145  -6.006 -29.048  1.00  0.00     0.051 C 
HETATM   13  C17 UNL     1      -4.934  -6.856 -28.282  1.00  0.00     0.118 A 
HETATM   14  N6  UNL     1      -5.585  -7.699 -29.047  1.00  0.00    -0.307 N 
ATOM     15  H6  UNL     1      -5.439  -7.651 -30.056  1.00  0.00     0.170 HD
HETATM   16  C18 UNL     1      -6.421  -8.608 -28.578  1.00  0.00     0.274 A 
HETATM   17  O7  UNL     1      -7.024  -9.402 -29.363  1.00  0.00    -0.266 OA
HETATM   18  C19 UNL     1      -6.596  -8.646 -27.205  1.00  0.00     0.153 A 
HETATM   19  N7  UNL     1      -7.472  -9.708 -26.785  1.00  0.00    -0.093 NA
HETATM   20  C20 UNL     1      -5.943  -7.783 -26.333  1.00  0.00     0.170 A 
HETATM   21  N8  UNL     1      -5.121  -6.911 -26.921  1.00  0.00    -0.251 N 
HETATM   22  C24 UNL     1      -4.457  -6.147 -26.022  1.00  0.00     0.269 C 
HETATM   23  O12 UNL     1      -5.010  -6.002 -24.971  1.00  0.00    -0.266 OA
HETATM   24  C25 UNL     1      -3.232  -5.531 -26.192  1.00  0.00     0.089 A 
ENDROOT
BRANCH   9  25
HETATM   25  C8  UNL     1      -0.900  -3.820 -28.615  1.00  0.00     0.193 C 
BRANCH  25  26
HETATM   26  C9  UNL     1      -1.277  -2.417 -28.950  1.00  0.00     0.275 C 
BRANCH  26  27
HETATM   27  O3  UNL     1      -0.432  -1.520 -28.247  1.00  0.00    -0.370 OA
ATOM     28  H3  UNL     1      -0.301  -0.736 -28.767  1.00  0.00     0.212 HD
ENDBRANCH  26  27
BRANCH  26  29
HETATM   29  O4  UNL     1      -1.038  -2.095 -30.288  1.00  0.00    -0.355 OA
BRANCH  29  30
HETATM   30  C10 UNL     1      -1.919  -2.576 -31.194  1.00  0.00     0.232 C 
BRANCH  30  31
HETATM   31  C11 UNL     1      -1.437  -3.429 -32.301  1.00  0.00     0.351 C 
BRANCH  31  32
HETATM   32  N5  UNL     1      -0.409  -2.611 -33.015  1.00  0.00    -0.050 N 
ATOM     33  H53 UNL     1      -0.072  -3.038 -33.877  1.00  0.00     0.277 HD
ATOM     34  H52 UNL     1      -0.781  -1.762 -33.439  1.00  0.00     0.277 HD
ATOM     35  H51 UNL     1       0.325  -2.438 -32.328  1.00  0.00     0.277 HD
ENDBRANCH  31  32
BRANCH  31  36
HETATM   36  O5  UNL     1      -0.687  -4.552 -31.852  1.00  0.00    -0.286 OA
BRANCH  36  37
HETATM   37  C12 UNL     1      -1.350  -5.728 -31.602  1.00  0.00     0.256 C 
HETATM   38  C13 UNL     1      -2.635  -6.059 -32.270  1.00  0.00     0.126 C 
HETATM   39  O6  UNL     1      -0.869  -6.553 -30.792  1.00  0.00    -0.266 OA
ENDBRANCH  36  37
ENDBRANCH  31  36
ENDBRANCH  30  31
ENDBRANCH  29  30
ENDBRANCH  26  29
ENDBRANCH  25  26
ENDBRANCH   9  25
BRANCH   6  40
HETATM   40  N3  UNL     1       0.267  -4.355 -23.327  1.00  0.00    -0.383 N 
ATOM     41  H32 UNL     1       1.162  -4.845 -23.321  1.00  0.00     0.157 HD
ATOM     42  H31 UNL     1       0.426  -3.425 -22.941  1.00  0.00     0.157 HD
ENDBRANCH   6  40
BRANCH   1  43
HETATM   43  C3  UNL     1      -1.697  -5.746 -21.575  1.00  0.00     0.228 C 
BRANCH  43  44
HETATM   44  C2  UNL     1      -2.912  -6.434 -21.116  1.00  0.00     0.142 C 
HETATM   45  C1  UNL     1      -3.942  -5.785 -20.258  1.00  0.00     0.093 C 
HETATM   46  O1  UNL     1      -3.094  -7.592 -21.448  1.00  0.00    -0.297 OA
ENDBRANCH  43  44
ENDBRANCH   1  43
BRANCH  20  47
HETATM   47  S1  UNL     1      -6.242  -7.797 -24.525  1.00  0.00     0.207 S 
HETATM   48  O8  UNL     1      -6.615 -10.136 -24.389  1.00  0.00    -0.220 OA
HETATM   49  O9  UNL     1      -6.098  -7.500 -23.036  1.00  0.00    -0.220 OA
BRANCH  47  50
HETATM   50  C21 UNL     1      -8.063  -7.781 -24.600  1.00  0.00     0.211 C 
HETATM   51  C22 UNL     1      -8.753  -6.497 -25.210  1.00  0.00     0.038 C 
BRANCH  50  52
HETATM   52  C23 UNL     1      -8.664  -7.673 -23.229  1.00  0.00     0.192 C 
HETATM   53  O10 UNL     1      -9.007  -6.577 -22.788  1.00  0.00    -0.647 OA
HETATM   54  O11 UNL     1      -8.863  -8.773 -22.406  1.00  0.00    -0.647 OA
ENDBRANCH  50  52
ENDBRANCH  47  50
ENDBRANCH  20  47
TORSDOF 15
ENDMDL
MODEL 3
REMARK VINA RESULT: -7.866966480      8.040     13.043
REMARK  15 active torsions:
REMARK  status: ('A' for Active; 'I' for Inactive)
REMARK    1  A    between atoms: C2_2  and  C3_4 
REMARK    2  A    between atoms: C3_4  and  N1_5 
REMARK    3  A    between atoms: C6_10  and  N3_11 
REMARK    4  A    between atoms: N4_16  and  C8_17 
REMARK    5  A    between atoms: C8_17  and  C9_18 
REMARK    6  A    between atoms: C9_18  and  O3_19 
REMARK    7  A    between atoms: C9_18  and  O4_21 
REMARK    8  A    between atoms: O4_21  and  C10_22 
REMARK    9  A    between atoms: C10_22  and  C11_23 
REMARK   10  A    between atoms: C11_23  and  N5_24 
REMARK   11  A    between atoms: C11_23  and  O5_28 
REMARK   12  A    between atoms: O5_28  and  C12_29 
REMARK   13  A    between atoms: C20_42  and  S1_43 
REMARK   14  A    between atoms: S1_43  and  C21_46 
REMARK   15  A    between atoms: C21_46  and  C23_48 
ROOT
HETATM    1  N1  UNL     1     -13.954  -6.629 -16.525  1.00  0.00    -0.269 N 
HETATM    2  N2  UNL     1     -13.064  -5.669 -16.731  1.00  0.00    -0.294 N 
ATOM      3  H2  UNL     1     -12.810  -4.934 -16.072  1.00  0.00     0.187 HD
HETATM    4  C4  UNL     1     -12.565  -5.836 -17.945  1.00  0.00     0.086 A 
HETATM    5  C5  UNL     1     -13.154  -6.946 -18.555  1.00  0.00     0.106 A 
HETATM    6  C6  UNL     1     -14.045  -7.429 -17.602  1.00  0.00     0.134 A 
HETATM    7  C7  UNL     1     -12.801  -7.302 -19.813  1.00  0.00     0.264 A 
HETATM    8  O2  UNL     1     -13.352  -8.308 -20.336  1.00  0.00    -0.267 OA
HETATM    9  N4  UNL     1     -11.873  -6.644 -20.581  1.00  0.00    -0.308 N 
HETATM   10  C14 UNL     1     -11.324  -5.585 -19.976  1.00  0.00     0.056 A 
HETATM   11  C15 UNL     1     -10.450  -4.971 -20.848  1.00  0.00     0.034 C 
HETATM   12  C16 UNL     1     -10.070  -3.651 -20.804  1.00  0.00     0.051 C 
HETATM   13  C17 UNL     1     -10.210  -2.744 -19.761  1.00  0.00     0.118 A 
HETATM   14  N6  UNL     1      -9.852  -1.540 -20.143  1.00  0.00    -0.307 N 
ATOM     15  H6  UNL     1      -9.543  -1.410 -21.106  1.00  0.00     0.170 HD
HETATM   16  C18 UNL     1      -9.871  -0.490 -19.343  1.00  0.00     0.274 A 
HETATM   17  O7  UNL     1      -9.516   0.654 -19.764  1.00  0.00    -0.266 OA
HETATM   18  C19 UNL     1     -10.295  -0.703 -18.042  1.00  0.00     0.153 A 
HETATM   19  N7  UNL     1     -10.344   0.510 -17.267  1.00  0.00    -0.093 NA
HETATM   20  C20 UNL     1     -10.686  -1.948 -17.566  1.00  0.00     0.170 A 
HETATM   21  N8  UNL     1     -10.629  -2.933 -18.465  1.00  0.00    -0.251 N 
HETATM   22  C24 UNL     1     -11.091  -4.106 -17.971  1.00  0.00     0.269 C 
HETATM   23  O12 UNL     1     -11.006  -4.225 -16.783  1.00  0.00    -0.266 OA
HETATM   24  C25 UNL     1     -11.637  -5.157 -18.683  1.00  0.00     0.089 A 
ENDROOT
BRANCH   9  25
HETATM   25  C8  UNL     1     -11.575  -7.119 -21.906  1.00  0.00     0.193 C 
BRANCH  25  26
HETATM   26  C9  UNL     1     -10.530  -8.176 -22.014  1.00  0.00     0.275 C 
BRANCH  26  27
HETATM   27  O3  UNL     1     -10.818  -9.012 -23.124  1.00  0.00    -0.370 OA
ATOM     28  H3  UNL     1     -10.103  -8.968 -23.747  1.00  0.00     0.212 HD
ENDBRANCH  26  27
BRANCH  26  29
HETATM   29  O4  UNL     1      -9.268  -7.663 -22.323  1.00  0.00    -0.355 OA
BRANCH  29  30
HETATM   30  C10 UNL     1      -8.203  -8.403 -21.940  1.00  0.00     0.232 C 
BRANCH  30  31
HETATM   31  C11 UNL     1      -7.527  -9.274 -22.924  1.00  0.00     0.351 C 
BRANCH  31  32
HETATM   32  N5  UNL     1      -8.060 -10.648 -22.672  1.00  0.00    -0.050 N 
ATOM     33  H53 UNL     1      -7.682 -11.086 -21.833  1.00  0.00     0.277 HD
ATOM     34  H52 UNL     1      -9.038 -10.662 -22.384  1.00  0.00     0.277 HD
ATOM     35  H51 UNL     1      -7.876 -11.171 -23.527  1.00  0.00     0.277 HD
ENDBRANCH  31  32
BRANCH  31  36
HETATM   36  O5  UNL     1      -7.935  -9.022 -24.264  1.00  0.00    -0.286 OA
BRANCH  36  37
HETATM   37  C12 UNL     1      -7.089  -9.370 -25.287  1.00  0.00     0.256 C 
HETATM   38  C13 UNL     1      -7.027  -8.589 -26.550  1.00  0.00     0.126 C 
HETATM   39  O6  UNL     1      -6.343 -10.369 -25.166  1.00  0.00    -0.266 OA
ENDBRANCH  36  37
ENDBRANCH  31  36
ENDBRANCH  30  31
ENDBRANCH  29  30
ENDBRANCH  26  29
ENDBRANCH  25  26
ENDBRANCH   9  25
BRANCH   6  40
HETATM   40  N3  UNL     1     -14.810  -8.454 -17.739  1.00  0.00    -0.383 N 
ATOM     41  H32 UNL     1     -14.703  -9.346 -17.258  1.00  0.00     0.157 HD
ATOM     42  H31 UNL     1     -15.629  -8.530 -18.343  1.00  0.00     0.157 HD
ENDBRANCH   6  40
BRANCH   1  43
HETATM   43  C3  UNL     1     -14.722  -6.776 -15.282  1.00  0.00     0.228 C 
BRANCH  43  44
HETATM   44  C2  UNL     1     -13.858  -7.281 -14.204  1.00  0.00     0.142 C 
HETATM   45  C1  UNL     1     -13.873  -8.696 -13.742  1.00  0.00     0.093 C 
HETATM   46  O1  UNL     1     -13.089  -6.511 -13.657  1.00  0.00    -0.297 OA
ENDBRANCH  43  44
ENDBRANCH   1  43
BRANCH  20  47
HETATM   47  S1  UNL     1     -11.174  -2.229 -15.822  1.00  0.00     0.207 S 
HETATM   48  O8  UNL     1     -11.947  -0.015 -15.459  1.00  0.00    -0.220 OA
HETATM   49  O9  UNL     1     -11.756  -2.883 -14.573  1.00  0.00    -0.220 OA
BRANCH  47  50
HETATM   50  C21 UNL     1      -9.668  -1.543 -15.057  1.00  0.00     0.211 C 
HETATM   51  C22 UNL     1      -8.292  -2.228 -15.421  1.00  0.00     0.038 C 
BRANCH  50  52
HETATM   52  C23 UNL     1      -9.626  -1.830 -13.584  1.00  0.00     0.192 C 
HETATM   53  O10 UNL     1      -9.038  -2.825 -13.164  1.00  0.00    -0.647 OA
HETATM   54  O11 UNL     1     -10.231  -1.011 -12.640  1.00  0.00    -0.647 OA
ENDBRANCH  50  52
ENDBRANCH  47  50
ENDBRANCH  20  47
TORSDOF 15
ENDMDL
MODEL 4
REMARK VINA RESULT: -7.847399676      8.505     13.518
REMARK  15 active torsions:
REMARK  status: ('A' for Active; 'I' for Inactive)
REMARK    1  A    between atoms: C2_2  and  C3_4 
REMARK    2  A    between atoms: C3_4  and  N1_5 
REMARK    3  A    between atoms: C6_10  and  N3_11 
REMARK    4  A    between atoms: N4_16  and  C8_17 
REMARK    5  A    between atoms: C8_17  and  C9_18 
REMARK    6  A    between atoms: C9_18  and  O3_19 
REMARK    7  A    between atoms: C9_18  and  O4_21 
REMARK    8  A    between atoms: O4_21  and  C10_22 
REMARK    9  A    between atoms: C10_22  and  C11_23 
REMARK   10  A    between atoms: C11_23  and  N5_24 
REMARK   11  A    between atoms: C11_23  and  O5_28 
REMARK   12  A    between atoms: O5_28  and  C12_29 
REMARK   13  A    between atoms: C20_42  and  S1_43 
REMARK   14  A    between atoms: S1_43  and  C21_46 
REMARK   15  A    between atoms: C21_46  and  C23_48 
ROOT
HETATM    1  N1  UNL     1     -13.925  -7.167 -16.146  1.00  0.00    -0.269 N 
HETATM    2  N2  UNL     1     -13.106  -6.126 -16.185  1.00  0.00    -0.294 N 
ATOM      3  H2  UNL     1     -12.895  -5.498 -15.410  1.00  0.00     0.187 HD
HETATM    4  C4  UNL     1     -12.612  -6.047 -17.410  1.00  0.00     0.086 A 
HETATM    5  C5  UNL     1     -13.131  -7.076 -18.201  1.00  0.00     0.106 A 
HETATM    6  C6  UNL     1     -13.974  -7.775 -17.343  1.00  0.00     0.134 A 
HETATM    7  C7  UNL     1     -12.770  -7.186 -19.501  1.00  0.00     0.264 A 
HETATM    8  O2  UNL     1     -13.256  -8.124 -20.188  1.00  0.00    -0.267 OA
HETATM    9  N4  UNL     1     -11.899  -6.343 -20.145  1.00  0.00    -0.308 N 
HETATM   10  C14 UNL     1     -11.417  -5.367 -19.368  1.00  0.00     0.056 A 
HETATM   11  C15 UNL     1     -10.598  -4.553 -20.123  1.00  0.00     0.034 C 
HETATM   12  C16 UNL     1     -10.309  -3.237 -19.853  1.00  0.00     0.051 C 
HETATM   13  C17 UNL     1     -10.499  -2.533 -18.670  1.00  0.00     0.118 A 
HETATM   14  N6  UNL     1     -10.229  -1.260 -18.840  1.00  0.00    -0.307 N 
ATOM     15  H6  UNL     1      -9.942  -0.946 -19.767  1.00  0.00     0.170 HD
HETATM   16  C18 UNL     1     -10.311  -0.366 -17.872  1.00  0.00     0.274 A 
HETATM   17  O7  UNL     1     -10.040   0.855 -18.091  1.00  0.00    -0.266 OA
HETATM   18  C19 UNL     1     -10.703  -0.827 -16.626  1.00  0.00     0.153 A 
HETATM   19  N7  UNL     1     -10.825   0.229 -15.655  1.00  0.00    -0.093 NA
HETATM   20  C20 UNL     1     -11.001  -2.160 -16.371  1.00  0.00     0.170 A 
HETATM   21  N8  UNL     1     -10.887  -2.970 -17.426  1.00  0.00    -0.251 N 
HETATM   22  C24 UNL     1     -11.261  -4.240 -17.139  1.00  0.00     0.269 C 
HETATM   23  O12 UNL     1     -11.153  -4.554 -15.990  1.00  0.00    -0.266 OA
HETATM   24  C25 UNL     1     -11.742  -5.189 -18.020  1.00  0.00     0.089 A 
ENDROOT
BRANCH   9  25
HETATM   25  C8  UNL     1     -11.585  -6.562 -21.532  1.00  0.00     0.193 C 
BRANCH  25  26
HETATM   26  C9  UNL     1     -10.874  -7.830 -21.861  1.00  0.00     0.275 C 
BRANCH  26  27
HETATM   27  O3  UNL     1     -11.599  -8.533 -22.858  1.00  0.00    -0.370 OA
ATOM     28  H3  UNL     1     -11.092  -9.281 -23.149  1.00  0.00     0.212 HD
ENDBRANCH  26  27
BRANCH  26  29
HETATM   29  O4  UNL     1      -9.632  -7.616 -22.463  1.00  0.00    -0.355 OA
BRANCH  29  30
HETATM   30  C10 UNL     1      -8.618  -8.415 -22.062  1.00  0.00     0.232 C 
BRANCH  30  31
HETATM   31  C11 UNL     1      -8.049  -9.402 -23.004  1.00  0.00     0.351 C 
BRANCH  31  32
HETATM   32  N5  UNL     1      -9.064 -10.496 -23.096  1.00  0.00    -0.050 N 
ATOM     33  H53 UNL     1      -8.751 -11.380 -22.697  1.00  0.00     0.277 HD
ATOM     34  H52 UNL     1      -9.866 -10.365 -22.480  1.00  0.00     0.277 HD
ATOM     35  H51 UNL     1      -9.310 -10.555 -24.083  1.00  0.00     0.277 HD
ENDBRANCH  31  32
BRANCH  31  36
HETATM   36  O5  UNL     1      -7.985  -8.921 -24.342  1.00  0.00    -0.286 OA
BRANCH  36  37
HETATM   37  C12 UNL     1      -7.078  -9.488 -25.203  1.00  0.00     0.256 C 
HETATM   38  C13 UNL     1      -6.909  -8.996 -26.595  1.00  0.00     0.126 C 
HETATM   39  O6  UNL     1      -6.366 -10.443 -24.817  1.00  0.00    -0.266 OA
ENDBRANCH  36  37
ENDBRANCH  31  36
ENDBRANCH  30  31
ENDBRANCH  29  30
ENDBRANCH  26  29
ENDBRANCH  25  26
ENDBRANCH   9  25
BRANCH   6  40
HETATM   40  N3  UNL     1     -14.669  -8.813 -17.654  1.00  0.00    -0.383 N 
ATOM     41  H32 UNL     1     -14.547  -9.748 -17.267  1.00  0.00     0.157 HD
ATOM     42  H31 UNL     1     -15.435  -8.857 -18.325  1.00  0.00     0.157 HD
ENDBRANCH   6  40
BRANCH   1  43
HETATM   43  C3  UNL     1     -14.666  -7.578 -14.945  1.00  0.00     0.228 C 
BRANCH  43  44
HETATM   44  C2  UNL     1     -13.893  -8.568 -14.183  1.00  0.00     0.142 C 
HETATM   45  C1  UNL     1     -13.413  -8.334 -12.793  1.00  0.00     0.093 C 
HETATM   46  O1  UNL     1     -13.627  -9.636 -14.705  1.00  0.00    -0.297 OA
ENDBRANCH  43  44
ENDBRANCH   1  43
BRANCH  20  47
HETATM   47  S1  UNL     1     -11.447  -2.768 -14.700  1.00  0.00     0.207 S 
HETATM   48  O8  UNL     1     -12.301  -0.689 -13.939  1.00  0.00    -0.220 OA
HETATM   49  O9  UNL     1     -11.980  -3.659 -13.583  1.00  0.00    -0.220 OA
BRANCH  47  50
HETATM   50  C21 UNL     1      -9.956  -2.167 -13.840  1.00  0.00     0.211 C 
HETATM   51  C22 UNL     1      -8.557  -2.669 -14.375  1.00  0.00     0.038 C 
BRANCH  50  52
HETATM   52  C23 UNL     1      -9.845  -2.758 -12.465  1.00  0.00     0.192 C 
HETATM   53  O10 UNL     1      -9.215  -3.800 -12.289  1.00  0.00    -0.647 OA
HETATM   54  O11 UNL     1     -10.428  -2.178 -11.347  1.00  0.00    -0.647 OA
ENDBRANCH  50  52
ENDBRANCH  47  50
ENDBRANCH  20  47
TORSDOF 15
ENDMDL
MODEL 5
REMARK VINA RESULT: -7.768255696      8.778     13.687
REMARK  15 active torsions:
REMARK  status: ('A' for Active; 'I' for Inactive)
REMARK    1  A    between atoms: C2_2  and  C3_4 
REMARK    2  A    between atoms: C3_4  and  N1_5 
REMARK    3  A    between atoms: C6_10  and  N3_11 
REMARK    4  A    between atoms: N4_16  and  C8_17 
REMARK    5  A    between atoms: C8_17  and  C9_18 
REMARK    6  A    between atoms: C9_18  and  O3_19 
REMARK    7  A    between atoms: C9_18  and  O4_21 
REMARK    8  A    between atoms: O4_21  and  C10_22 
REMARK    9  A    between atoms: C10_22  and  C11_23 
REMARK   10  A    between atoms: C11_23  and  N5_24 
REMARK   11  A    between atoms: C11_23  and  O5_28 
REMARK   12  A    between atoms: O5_28  and  C12_29 
REMARK   13  A    between atoms: C20_42  and  S1_43 
REMARK   14  A    between atoms: S1_43  and  C21_46 
REMARK   15  A    between atoms: C21_46  and  C23_48 
ROOT
HETATM    1  N1  UNL     1     -13.913  -7.401 -16.574  1.00  0.00    -0.269 N 
HETATM    2  N2  UNL     1     -13.195  -6.308 -16.360  1.00  0.00    -0.294 N 
ATOM      3  H2  UNL     1     -13.138  -5.788 -15.485  1.00  0.00     0.187 HD
HETATM    4  C4  UNL     1     -12.564  -6.014 -17.485  1.00  0.00     0.086 A 
HETATM    5  C5  UNL     1     -12.886  -6.950 -18.472  1.00  0.00     0.106 A 
HETATM    6  C6  UNL     1     -13.760  -7.828 -17.839  1.00  0.00     0.134 A 
HETATM    7  C7  UNL     1     -12.360  -6.840 -19.715  1.00  0.00     0.264 A 
HETATM    8  O2  UNL     1     -12.671  -7.699 -20.583  1.00  0.00    -0.267 OA
HETATM    9  N4  UNL     1     -11.498  -5.850 -20.115  1.00  0.00    -0.308 N 
HETATM   10  C14 UNL     1     -11.205  -4.966 -19.154  1.00  0.00     0.056 A 
HETATM   11  C15 UNL     1     -10.379  -3.993 -19.674  1.00  0.00     0.034 C 
HETATM   12  C16 UNL     1     -10.246  -2.713 -19.190  1.00  0.00     0.051 C 
HETATM   13  C17 UNL     1     -10.643  -2.208 -17.958  1.00  0.00     0.118 A 
HETATM   14  N6  UNL     1     -10.472  -0.907 -17.915  1.00  0.00    -0.307 N 
ATOM     15  H6  UNL     1     -10.104  -0.439 -18.743  1.00  0.00     0.170 HD
HETATM   16  C18 UNL     1     -10.753  -0.174 -16.853  1.00  0.00     0.274 A 
HETATM   17  O7  UNL     1     -10.571   1.082 -16.865  1.00  0.00    -0.266 OA
HETATM   18  C19 UNL     1     -11.250  -0.841 -15.746  1.00  0.00     0.153 A 
HETATM   19  N7  UNL     1     -11.587   0.048 -14.665  1.00  0.00    -0.093 NA
HETATM   20  C20 UNL     1     -11.454  -2.215 -15.718  1.00  0.00     0.170 A 
HETATM   21  N8  UNL     1     -11.139  -2.851 -16.848  1.00  0.00    -0.251 N 
HETATM   22  C24 UNL     1     -11.427  -4.173 -16.791  1.00  0.00     0.269 C 
HETATM   23  O12 UNL     1     -11.432  -4.644 -15.692  1.00  0.00    -0.266 OA
HETATM   24  C25 UNL     1     -11.708  -5.014 -17.851  1.00  0.00     0.089 A 
ENDROOT
BRANCH   9  25
HETATM   25  C8  UNL     1     -10.998  -5.838 -21.464  1.00  0.00     0.193 C 
BRANCH  25  26
HETATM   26  C9  UNL     1      -9.760  -6.626 -21.721  1.00  0.00     0.275 C 
BRANCH  26  27
HETATM   27  O3  UNL     1     -10.079  -8.008 -21.768  1.00  0.00    -0.370 OA
ATOM     28  H3  UNL     1     -10.228  -8.268 -22.669  1.00  0.00     0.212 HD
ENDBRANCH  26  27
BRANCH  26  29
HETATM   29  O4  UNL     1      -9.214  -6.384 -22.984  1.00  0.00    -0.355 OA
BRANCH  29  30
HETATM   30  C10 UNL     1      -7.874  -6.521 -23.103  1.00  0.00     0.232 C 
BRANCH  30  31
HETATM   31  C11 UNL     1      -7.308  -7.814 -23.543  1.00  0.00     0.351 C 
BRANCH  31  32
HETATM   32  N5  UNL     1      -6.942  -8.537 -22.287  1.00  0.00    -0.050 N 
ATOM     33  H53 UNL     1      -5.948  -8.747 -22.210  1.00  0.00     0.277 HD
ATOM     34  H52 UNL     1      -7.008  -7.961 -21.448  1.00  0.00     0.277 HD
ATOM     35  H51 UNL     1      -7.539  -9.363 -22.266  1.00  0.00     0.277 HD
ENDBRANCH  31  32
BRANCH  31  36
HETATM   36  O5  UNL     1      -8.277  -8.675 -24.129  1.00  0.00    -0.286 OA
BRANCH  36  37
HETATM   37  C12 UNL     1      -8.068 -10.031 -24.081  1.00  0.00     0.256 C 
HETATM   38  C13 UNL     1      -9.150 -10.976 -23.701  1.00  0.00     0.126 C 
HETATM   39  O6  UNL     1      -6.941 -10.498 -24.365  1.00  0.00    -0.266 OA
ENDBRANCH  36  37
ENDBRANCH  31  36
ENDBRANCH  30  31
ENDBRANCH  29  30
ENDBRANCH  26  29
ENDBRANCH  25  26
ENDBRANCH   9  25
BRANCH   6  40
HETATM   40  N3  UNL     1     -14.313  -8.856 -18.380  1.00  0.00    -0.383 N 
ATOM     41  H32 UNL     1     -14.965  -8.839 -19.163  1.00  0.00     0.157 HD
ATOM     42  H31 UNL     1     -14.186  -9.831 -18.110  1.00  0.00     0.157 HD
ENDBRANCH   6  40
BRANCH   1  43
HETATM   43  C3  UNL     1     -14.755  -8.037 -15.552  1.00  0.00     0.228 C 
BRANCH  43  44
HETATM   44  C2  UNL     1     -13.961  -8.984 -14.755  1.00  0.00     0.142 C 
HETATM   45  C1  UNL     1     -13.740  -8.833 -13.290  1.00  0.00     0.093 C 
HETATM   46  O1  UNL     1     -13.455  -9.943 -15.311  1.00  0.00    -0.297 OA
ENDBRANCH  43  44
ENDBRANCH   1  43
BRANCH  20  47
HETATM   47  S1  UNL     1     -12.044  -3.094 -14.221  1.00  0.00     0.207 S 
HETATM   48  O8  UNL     1     -13.328  -1.276 -13.399  1.00  0.00    -0.220 OA
HETATM   49  O9  UNL     1     -12.589  -4.190 -13.311  1.00  0.00    -0.220 OA
BRANCH  47  50
HETATM   50  C21 UNL     1     -10.817  -2.405 -13.061  1.00  0.00     0.211 C 
HETATM   51  C22 UNL     1      -9.294  -2.712 -13.348  1.00  0.00     0.038 C 
BRANCH  50  52
HETATM   52  C23 UNL     1     -10.888  -3.085 -11.725  1.00  0.00     0.192 C 
HETATM   53  O10 UNL     1     -10.152  -4.039 -11.477  1.00  0.00    -0.647 OA
HETATM   54  O11 UNL     1     -11.762  -2.686 -10.724  1.00  0.00    -0.647 OA
ENDBRANCH  50  52
ENDBRANCH  47  50
ENDBRANCH  20  47
TORSDOF 15
ENDMDL
