MODEL 1
REMARK VINA RESULT: -7.383161808      0.000      0.000
REMARK  6 active torsions:
REMARK  status: ('A' for Active; 'I' for Inactive)
REMARK    1  A    between atoms: C2_2  and  O1_3 
REMARK    2  A    between atoms: O1_3  and  C3_4 
REMARK    3  A    between atoms: C4_7  and  N2_8 
REMARK    4  A    between atoms: N2_8  and  C5_10 
REMARK    5  A    between atoms: C11_20  and  N4_21 
REMARK    6  A    between atoms: C14_26  and  N6_27 
ROOT
HETATM    1  C3  UNL     1      -5.300   2.207  16.039  1.00  0.00     0.183 A 
HETATM    2  N1  UNL     1      -5.662   3.449  15.751  1.00  0.00    -0.168 N 
ATOM      3  H1  UNL     1      -6.066   4.038  16.479  1.00  0.00     0.186 HD
HETATM    4  C4  UNL     1      -5.503   3.939  14.519  1.00  0.00     0.686 A 
HETATM    5  N3  UNL     1      -4.978   3.179  13.566  1.00  0.00    -0.175 N 
ATOM      6  H3  UNL     1      -4.871   3.580  12.634  1.00  0.00     0.186 HD
HETATM    7  C11 UNL     1      -4.577   1.895  13.763  1.00  0.00     0.145 A 
HETATM    8  C16 UNL     1      -4.751   1.415  15.041  1.00  0.00     0.129 A 
HETATM    9 CL3  UNL     1      -4.284  -0.210  15.459  1.00  0.00    -0.076 Cl
ENDROOT
BRANCH   7  10
HETATM   10  N4  UNL     1      -4.042   1.190  12.680  1.00  0.00    -0.357 N 
HETATM   11  C12 UNL     1      -3.405   1.998  11.607  1.00  0.00     0.168 C 
HETATM   12  C13 UNL     1      -2.068   1.355  11.302  1.00  0.00     0.077 C 
HETATM   13  N5  UNL     1      -2.236   0.018  10.949  1.00  0.00    -0.373 N 
HETATM   14  C14 UNL     1      -3.460  -0.616  11.146  1.00  0.00     0.299 C 
ATOM     15  H5  UNL     1      -1.457  -0.500  10.542  1.00  0.00     0.160 HD
HETATM   16  C15 UNL     1      -4.065  -0.234  12.528  1.00  0.00     0.179 C 
BRANCH  14  17
HETATM   17  N6  UNL     1      -3.288  -2.063  11.203  1.00  0.00    -0.057 N 
ATOM     18  H63 UNL     1      -2.728  -2.408  10.424  1.00  0.00     0.276 HD
ATOM     19  H62 UNL     1      -2.674  -2.340  11.969  1.00  0.00     0.276 HD
ATOM     20  H61 UNL     1      -4.193  -2.532  11.255  1.00  0.00     0.276 HD
ENDBRANCH  14  17
ENDBRANCH   7  10
BRANCH   4  21
HETATM   21  N2  UNL     1      -5.853   5.151  14.220  1.00  0.00    -0.191 N 
ATOM     22  H2  UNL     1      -6.823   5.451  14.313  1.00  0.00     0.184 HD
BRANCH  21  23
HETATM   23  C5  UNL     1      -4.858   6.050  13.760  1.00  0.00     0.052 A 
HETATM   24  C6  UNL     1      -3.873   6.548  14.618  1.00  0.00     0.054 A 
HETATM   25  C7  UNL     1      -2.921   7.413  14.156  1.00  0.00     0.037 A 
HETATM   26 CL1  UNL     1      -1.701   8.021  15.254  1.00  0.00    -0.084 Cl
HETATM   27  C8  UNL     1      -2.892   7.829  12.834  1.00  0.00     0.048 A 
HETATM   28  C9  UNL     1      -3.850   7.355  11.962  1.00  0.00     0.037 A 
HETATM   29 CL2  UNL     1      -3.838   7.868  10.272  1.00  0.00    -0.084 Cl
HETATM   30  C10 UNL     1      -4.798   6.486  12.446  1.00  0.00     0.054 A 
ENDBRANCH  21  23
ENDBRANCH   4  21
BRANCH   1  31
HETATM   31  O1  UNL     1      -5.480   1.731  17.333  1.00  0.00    -0.334 OA
BRANCH  31  32
HETATM   32  C2  UNL     1      -6.724   1.809  18.005  1.00  0.00     0.173 C 
HETATM   33  C1  UNL     1      -7.752   1.106  17.175  1.00  0.00     0.034 C 
ENDBRANCH  31  32
ENDBRANCH   1  31
TORSDOF 6
ENDMDL
MODEL 2
REMARK VINA RESULT: -7.378747577      0.110      1.772
REMARK  6 active torsions:
REMARK  status: ('A' for Active; 'I' for Inactive)
REMARK    1  A    between atoms: C2_2  and  O1_3 
REMARK    2  A    between atoms: O1_3  and  C3_4 
REMARK    3  A    between atoms: C4_7  and  N2_8 
REMARK    4  A    between atoms: N2_8  and  C5_10 
REMARK    5  A    between atoms: C11_20  and  N4_21 
REMARK    6  A    between atoms: C14_26  and  N6_27 
ROOT
HETATM    1  C3  UNL     1      -5.205   2.113  16.077  1.00  0.00     0.183 A 
HETATM    2  N1  UNL     1      -5.582   3.355  15.810  1.00  0.00    -0.168 N 
ATOM      3  H1  UNL     1      -5.968   3.936  16.554  1.00  0.00     0.186 HD
HETATM    4  C4  UNL     1      -5.462   3.856  14.579  1.00  0.00     0.686 A 
HETATM    5  N3  UNL     1      -4.961   3.105  13.604  1.00  0.00    -0.175 N 
ATOM      6  H3  UNL     1      -4.882   3.515  12.673  1.00  0.00     0.186 HD
HETATM    7  C11 UNL     1      -4.547   1.823  13.779  1.00  0.00     0.145 A 
HETATM    8  C16 UNL     1      -4.682   1.332  15.057  1.00  0.00     0.129 A 
HETATM    9 CL3  UNL     1      -4.194  -0.294  15.449  1.00  0.00    -0.076 Cl
ENDROOT
BRANCH   7  10
HETATM   10  N4  UNL     1      -4.040   1.129  12.676  1.00  0.00    -0.357 N 
HETATM   11  C12 UNL     1      -3.459   1.950  11.581  1.00  0.00     0.168 C 
HETATM   12  C13 UNL     1      -2.123   1.333  11.225  1.00  0.00     0.077 C 
HETATM   13  N5  UNL     1      -2.279  -0.007  10.875  1.00  0.00    -0.373 N 
HETATM   14  C14 UNL     1      -3.483  -0.664  11.117  1.00  0.00     0.299 C 
ATOM     15  H5  UNL     1      -1.507  -0.510  10.439  1.00  0.00     0.160 HD
HETATM   16  C15 UNL     1      -4.042  -0.295  12.521  1.00  0.00     0.179 C 
BRANCH  14  17
HETATM   17  N6  UNL     1      -3.283  -2.108  11.165  1.00  0.00    -0.057 N 
ATOM     18  H63 UNL     1      -3.476  -2.546  10.264  1.00  0.00     0.276 HD
ATOM     19  H62 UNL     1      -2.295  -2.349  11.245  1.00  0.00     0.276 HD
ATOM     20  H61 UNL     1      -3.836  -2.524  11.915  1.00  0.00     0.276 HD
ENDBRANCH  14  17
ENDBRANCH   7  10
BRANCH   4  21
HETATM   21  N2  UNL     1      -5.826   5.068  14.299  1.00  0.00    -0.191 N 
ATOM     22  H2  UNL     1      -6.795   5.361  14.418  1.00  0.00     0.184 HD
BRANCH  21  23
HETATM   23  C5  UNL     1      -4.848   5.978  13.824  1.00  0.00     0.052 A 
HETATM   24  C6  UNL     1      -4.818   6.381  12.485  1.00  0.00     0.054 A 
HETATM   25  C7  UNL     1      -3.867   7.260  12.046  1.00  0.00     0.037 A 
HETATM   26 CL1  UNL     1      -3.853   7.748  10.365  1.00  0.00    -0.084 Cl
HETATM   27  C8  UNL     1      -2.906   7.783  12.897  1.00  0.00     0.048 A 
HETATM   28  C9  UNL     1      -2.910   7.403  14.224  1.00  0.00     0.037 A 
HETATM   29 CL2  UNL     1      -1.697   8.052  15.332  1.00  0.00    -0.084 Cl
HETATM   30  C10 UNL     1      -3.873   6.520  14.646  1.00  0.00     0.054 A 
ENDBRANCH  21  23
ENDBRANCH   4  21
BRANCH   1  31
HETATM   31  O1  UNL     1      -5.345   1.626  17.373  1.00  0.00    -0.334 OA
BRANCH  31  32
HETATM   32  C2  UNL     1      -6.565   1.707  18.087  1.00  0.00     0.173 C 
HETATM   33  C1  UNL     1      -7.643   1.091  17.250  1.00  0.00     0.034 C 
ENDBRANCH  31  32
ENDBRANCH   1  31
TORSDOF 6
ENDMDL
MODEL 3
REMARK VINA RESULT: -7.064711454      4.110      6.416
REMARK  6 active torsions:
REMARK  status: ('A' for Active; 'I' for Inactive)
REMARK    1  A    between atoms: C2_2  and  O1_3 
REMARK    2  A    between atoms: O1_3  and  C3_4 
REMARK    3  A    between atoms: C4_7  and  N2_8 
REMARK    4  A    between atoms: N2_8  and  C5_10 
REMARK    5  A    between atoms: C11_20  and  N4_21 
REMARK    6  A    between atoms: C14_26  and  N6_27 
ROOT
HETATM    1  C3  UNL     1      -1.770   3.972   9.094  1.00  0.00     0.183 A 
HETATM    2  N1  UNL     1      -2.679   4.612   8.373  1.00  0.00    -0.168 N 
ATOM      3  H1  UNL     1      -2.398   5.090   7.517  1.00  0.00     0.186 HD
HETATM    4  C4  UNL     1      -3.959   4.639   8.753  1.00  0.00     0.686 A 
HETATM    5  N3  UNL     1      -4.332   4.020   9.867  1.00  0.00    -0.175 N 
ATOM      6  H3  UNL     1      -5.316   4.058  10.132  1.00  0.00     0.186 HD
HETATM    7  C11 UNL     1      -3.476   3.337  10.672  1.00  0.00     0.145 A 
HETATM    8  C16 UNL     1      -2.164   3.325  10.257  1.00  0.00     0.129 A 
HETATM    9 CL3  UNL     1      -0.940   2.492  11.176  1.00  0.00    -0.076 Cl
ENDROOT
BRANCH   7  10
HETATM   10  N4  UNL     1      -3.985   2.728  11.823  1.00  0.00    -0.357 N 
HETATM   11  C12 UNL     1      -4.845   1.533  11.621  1.00  0.00     0.168 C 
HETATM   12  C13 UNL     1      -4.352   0.466  12.576  1.00  0.00     0.077 C 
HETATM   13  N5  UNL     1      -4.373   0.934  13.888  1.00  0.00    -0.373 N 
HETATM   14  C14 UNL     1      -4.569   2.288  14.151  1.00  0.00     0.299 C 
ATOM     15  H5  UNL     1      -4.245   0.282  14.661  1.00  0.00     0.160 HD
HETATM   16  C15 UNL     1      -3.747   3.167  13.165  1.00  0.00     0.179 C 
BRANCH  14  17
HETATM   17  N6  UNL     1      -4.059   2.636  15.473  1.00  0.00    -0.057 N 
ATOM     18  H63 UNL     1      -4.440   3.523  15.803  1.00  0.00     0.276 HD
ATOM     19  H62 UNL     1      -4.439   2.026  16.196  1.00  0.00     0.276 HD
ATOM     20  H61 UNL     1      -3.039   2.637  15.477  1.00  0.00     0.276 HD
ENDBRANCH  14  17
ENDBRANCH   7  10
BRANCH   4  21
HETATM   21  N2  UNL     1      -4.861   5.261   8.060  1.00  0.00    -0.191 N 
ATOM     22  H2  UNL     1      -5.096   4.954   7.117  1.00  0.00     0.184 HD
BRANCH  21  23
HETATM   23  C5  UNL     1      -5.514   6.376   8.643  1.00  0.00     0.052 A 
HETATM   24  C6  UNL     1      -6.883   6.594   8.463  1.00  0.00     0.054 A 
HETATM   25  C7  UNL     1      -7.495   7.675   9.033  1.00  0.00     0.037 A 
HETATM   26 CL1  UNL     1      -9.212   7.922   8.791  1.00  0.00    -0.084 Cl
HETATM   27  C8  UNL     1      -6.794   8.590   9.803  1.00  0.00     0.048 A 
HETATM   28  C9  UNL     1      -5.442   8.402   9.999  1.00  0.00     0.037 A 
HETATM   29 CL2  UNL     1      -4.523   9.552  10.975  1.00  0.00    -0.084 Cl
HETATM   30  C10 UNL     1      -4.845   7.310   9.418  1.00  0.00     0.054 A 
ENDBRANCH  21  23
ENDBRANCH   4  21
BRANCH   1  31
HETATM   31  O1  UNL     1      -0.447   3.965   8.666  1.00  0.00    -0.334 OA
BRANCH  31  32
HETATM   32  C2  UNL     1       0.470   4.986   9.018  1.00  0.00     0.173 C 
HETATM   33  C1  UNL     1       1.692   4.343   9.597  1.00  0.00     0.034 C 
ENDBRANCH  31  32
ENDBRANCH   1  31
TORSDOF 6
ENDMDL
MODEL 4
REMARK VINA RESULT: -7.026587057      4.111      6.238
REMARK  6 active torsions:
REMARK  status: ('A' for Active; 'I' for Inactive)
REMARK    1  A    between atoms: C2_2  and  O1_3 
REMARK    2  A    between atoms: O1_3  and  C3_4 
REMARK    3  A    between atoms: C4_7  and  N2_8 
REMARK    4  A    between atoms: N2_8  and  C5_10 
REMARK    5  A    between atoms: C11_20  and  N4_21 
REMARK    6  A    between atoms: C14_26  and  N6_27 
ROOT
HETATM    1  C3  UNL     1      -1.775   3.978   9.099  1.00  0.00     0.183 A 
HETATM    2  N1  UNL     1      -2.684   4.621   8.379  1.00  0.00    -0.168 N 
ATOM      3  H1  UNL     1      -2.403   5.101   7.525  1.00  0.00     0.186 HD
HETATM    4  C4  UNL     1      -3.963   4.647   8.759  1.00  0.00     0.686 A 
HETATM    5  N3  UNL     1      -4.337   4.024   9.871  1.00  0.00    -0.175 N 
ATOM      6  H3  UNL     1      -5.322   4.062  10.136  1.00  0.00     0.186 HD
HETATM    7  C11 UNL     1      -3.482   3.339  10.674  1.00  0.00     0.145 A 
HETATM    8  C16 UNL     1      -2.169   3.328  10.260  1.00  0.00     0.129 A 
HETATM    9 CL3  UNL     1      -0.946   2.491  11.176  1.00  0.00    -0.076 Cl
ENDROOT
BRANCH   7  10
HETATM   10  N4  UNL     1      -3.991   2.726  11.823  1.00  0.00    -0.357 N 
HETATM   11  C12 UNL     1      -4.850   1.531  11.617  1.00  0.00     0.168 C 
HETATM   12  C13 UNL     1      -4.358   0.461  12.569  1.00  0.00     0.077 C 
HETATM   13  N5  UNL     1      -4.380   0.926  13.882  1.00  0.00    -0.373 N 
HETATM   14  C14 UNL     1      -4.576   2.279  14.149  1.00  0.00     0.299 C 
ATOM     15  H5  UNL     1      -4.252   0.271  14.654  1.00  0.00     0.160 HD
HETATM   16  C15 UNL     1      -3.754   3.162  13.167  1.00  0.00     0.179 C 
BRANCH  14  17
HETATM   17  N6  UNL     1      -4.068   2.623  15.472  1.00  0.00    -0.057 N 
ATOM     18  H63 UNL     1      -4.636   2.213  16.214  1.00  0.00     0.276 HD
ATOM     19  H62 UNL     1      -3.187   2.150  15.673  1.00  0.00     0.276 HD
ATOM     20  H61 UNL     1      -3.986   3.635  15.575  1.00  0.00     0.276 HD
ENDBRANCH  14  17
ENDBRANCH   7  10
BRANCH   4  21
HETATM   21  N2  UNL     1      -4.865   5.271   8.068  1.00  0.00    -0.191 N 
ATOM     22  H2  UNL     1      -5.104   4.964   7.125  1.00  0.00     0.184 HD
BRANCH  21  23
HETATM   23  C5  UNL     1      -5.514   6.389   8.651  1.00  0.00     0.052 A 
HETATM   24  C6  UNL     1      -4.811   7.312   9.431  1.00  0.00     0.054 A 
HETATM   25  C7  UNL     1      -5.454   8.385   9.985  1.00  0.00     0.037 A 
HETATM   26 CL1  UNL     1      -4.549   9.525  10.957  1.00  0.00    -0.084 Cl
HETATM   27  C8  UNL     1      -6.811   8.600   9.799  1.00  0.00     0.048 A 
HETATM   28  C9  UNL     1      -7.530   7.706   9.033  1.00  0.00     0.037 A 
HETATM   29 CL2  UNL     1      -9.260   7.954   8.779  1.00  0.00    -0.084 Cl
HETATM   30  C10 UNL     1      -6.867   6.635   8.486  1.00  0.00     0.054 A 
ENDBRANCH  21  23
ENDBRANCH   4  21
BRANCH   1  31
HETATM   31  O1  UNL     1      -0.452   3.973   8.672  1.00  0.00    -0.334 OA
BRANCH  31  32
HETATM   32  C2  UNL     1       0.466   4.990   9.031  1.00  0.00     0.173 C 
HETATM   33  C1  UNL     1       1.690   4.341   9.598  1.00  0.00     0.034 C 
ENDBRANCH  31  32
ENDBRANCH   1  31
TORSDOF 6
ENDMDL
MODEL 5
REMARK VINA RESULT: -6.827645025      3.936      6.176
REMARK  6 active torsions:
REMARK  status: ('A' for Active; 'I' for Inactive)
REMARK    1  A    between atoms: C2_2  and  O1_3 
REMARK    2  A    between atoms: O1_3  and  C3_4 
REMARK    3  A    between atoms: C4_7  and  N2_8 
REMARK    4  A    between atoms: N2_8  and  C5_10 
REMARK    5  A    between atoms: C11_20  and  N4_21 
REMARK    6  A    between atoms: C14_26  and  N6_27 
ROOT
HETATM    1  C3  UNL     1      -1.916   3.933   9.144  1.00  0.00     0.183 A 
HETATM    2  N1  UNL     1      -2.821   4.681   8.529  1.00  0.00    -0.168 N 
ATOM      3  H1  UNL     1      -2.557   5.209   7.697  1.00  0.00     0.186 HD
HETATM    4  C4  UNL     1      -4.073   4.750   8.984  1.00  0.00     0.686 A 
HETATM    5  N3  UNL     1      -4.425   4.066  10.066  1.00  0.00    -0.175 N 
ATOM      6  H3  UNL     1      -5.389   4.140  10.391  1.00  0.00     0.186 HD
HETATM    7  C11 UNL     1      -3.570   3.273  10.765  1.00  0.00     0.145 A 
HETATM    8  C16 UNL     1      -2.285   3.219  10.275  1.00  0.00     0.129 A 
HETATM    9 CL3  UNL     1      -1.069   2.245  11.053  1.00  0.00    -0.076 Cl
ENDROOT
BRANCH   7  10
HETATM   10  N4  UNL     1      -4.054   2.603  11.893  1.00  0.00    -0.357 N 
HETATM   11  C12 UNL     1      -4.864   1.381  11.648  1.00  0.00     0.168 C 
HETATM   12  C13 UNL     1      -4.327   0.302  12.565  1.00  0.00     0.077 C 
HETATM   13  N5  UNL     1      -4.367   0.723  13.893  1.00  0.00    -0.373 N 
HETATM   14  C14 UNL     1      -4.619   2.057  14.203  1.00  0.00     0.299 C 
ATOM     15  H5  UNL     1      -4.212   0.049  14.643  1.00  0.00     0.160 HD
HETATM   16  C15 UNL     1      -3.834   3.004  13.250  1.00  0.00     0.179 C 
BRANCH  14  17
HETATM   17  N6  UNL     1      -4.125   2.379  15.537  1.00  0.00    -0.057 N 
ATOM     18  H63 UNL     1      -4.375   3.329  15.813  1.00  0.00     0.276 HD
ATOM     19  H62 UNL     1      -4.631   1.869  16.260  1.00  0.00     0.276 HD
ATOM     20  H61 UNL     1      -3.118   2.221  15.597  1.00  0.00     0.276 HD
ENDBRANCH  14  17
ENDBRANCH   7  10
BRANCH   4  21
HETATM   21  N2  UNL     1      -4.971   5.477   8.395  1.00  0.00    -0.191 N 
ATOM     22  H2  UNL     1      -5.401   5.169   7.523  1.00  0.00     0.184 HD
BRANCH  21  23
HETATM   23  C5  UNL     1      -5.344   6.709   8.990  1.00  0.00     0.052 A 
HETATM   24  C6  UNL     1      -4.834   7.925   8.525  1.00  0.00     0.054 A 
HETATM   25  C7  UNL     1      -5.205   9.103   9.111  1.00  0.00     0.037 A 
HETATM   26 CL1  UNL     1      -4.551  10.611   8.509  1.00  0.00    -0.084 Cl
HETATM   27  C8  UNL     1      -6.092   9.142  10.176  1.00  0.00     0.048 A 
HETATM   28  C9  UNL     1      -6.612   7.958  10.656  1.00  0.00     0.037 A 
HETATM   29 CL2  UNL     1      -7.744   7.977  12.013  1.00  0.00    -0.084 Cl
HETATM   30  C10 UNL     1      -6.227   6.785  10.054  1.00  0.00     0.054 A 
ENDBRANCH  21  23
ENDBRANCH   4  21
BRANCH   1  31
HETATM   31  O1  UNL     1      -0.620   3.885   8.641  1.00  0.00    -0.334 OA
BRANCH  31  32
HETATM   32  C2  UNL     1       0.328   4.909   8.884  1.00  0.00     0.173 C 
HETATM   33  C1  UNL     1       1.509   4.302   9.576  1.00  0.00     0.034 C 
ENDBRANCH  31  32
ENDBRANCH   1  31
TORSDOF 6
ENDMDL
