MODEL 1
REMARK VINA RESULT: -6.219357568      0.000      0.000
REMARK  8 active torsions:
REMARK  status: ('A' for Active; 'I' for Inactive)
REMARK    1  A    between atoms: O1_1  and  C1_3 
REMARK    2  A    between atoms: C1_3  and  C2_4 
REMARK    3  A    between atoms: C3_6  and  O3_7 
REMARK    4  A    between atoms: O3_7  and  C4_8 
REMARK    5  A    between atoms: C4_8  and  C5_9 
REMARK    6  A    between atoms: C11_19  and  O4_20 
REMARK    7  A    between atoms: C12_23  and  O5_24 
REMARK    8  A    between atoms: C13_26  and  O6_27 
ROOT
HETATM    1  C2  UNL     1      -1.863   6.009  13.215  1.00  0.00     0.179 C 
HETATM    2  O2  UNL     1      -3.032   6.340  12.611  1.00  0.00    -0.347 OA
HETATM    3  C3  UNL     1      -4.114   5.547  12.877  1.00  0.00     0.313 C 
HETATM    4  C11 UNL     1      -4.197   5.387  14.397  1.00  0.00     0.212 C 
HETATM    5 CL5  UNL     1      -3.804   6.924  15.218  1.00  0.00    -0.080 Cl
HETATM    6  C12 UNL     1      -3.094   4.382  14.703  1.00  0.00     0.204 C 
HETATM    7  C13 UNL     1      -1.822   4.866  14.120  1.00  0.00     0.182 C 
ENDROOT
BRANCH   3   8
HETATM    8  O3  UNL     1      -5.285   6.115  12.451  1.00  0.00    -0.352 OA
BRANCH   8   9
HETATM    9  C4  UNL     1      -4.967   7.236  11.687  1.00  0.00     0.213 C 
BRANCH   9  10
HETATM   10  C5  UNL     1      -5.667   7.157  10.374  1.00  0.00     0.012 A 
HETATM   11  C6  UNL     1      -6.987   7.562  10.247  1.00  0.00     0.066 A 
HETATM   12 CL1  UNL     1      -7.823   8.171  11.660  1.00  0.00    -0.082 Cl
HETATM   13  C7  UNL     1      -7.604   7.477   9.025  1.00  0.00     0.058 A 
HETATM   14 CL2  UNL     1      -9.266   7.992   8.888  1.00  0.00    -0.082 Cl
HETATM   15  C8  UNL     1      -6.915   6.993   7.935  1.00  0.00     0.051 A 
HETATM   16  C9  UNL     1      -5.594   6.577   8.019  1.00  0.00     0.058 A 
HETATM   17 CL3  UNL     1      -4.723   5.964   6.630  1.00  0.00    -0.082 Cl
HETATM   18  C10 UNL     1      -5.001   6.678   9.277  1.00  0.00     0.066 A 
HETATM   19 CL4  UNL     1      -3.317   6.142   9.356  1.00  0.00    -0.082 Cl
ENDBRANCH   9  10
ENDBRANCH   8   9
ENDBRANCH   3   8
BRANCH   4  20
HETATM   20  O4  UNL     1      -5.420   4.899  14.800  1.00  0.00    -0.368 OA
ATOM     21  H4  UNL     1      -5.351   4.364  15.581  1.00  0.00     0.212 HD
ENDBRANCH   4  20
BRANCH   1  22
HETATM   22  C1  UNL     1      -0.817   5.817  12.105  1.00  0.00     0.198 C 
BRANCH  22  23
HETATM   23  O1  UNL     1       0.469   5.895  12.640  1.00  0.00    -0.398 OA
ATOM     24  H1  UNL     1       0.814   6.773  12.535  1.00  0.00     0.209 HD
ENDBRANCH  22  23
ENDBRANCH   1  22
BRANCH   6  25
HETATM   25  O5  UNL     1      -3.528   3.158  14.197  1.00  0.00    -0.388 OA
ATOM     26  H5  UNL     1      -2.792   2.562  14.272  1.00  0.00     0.210 HD
ENDBRANCH   6  25
BRANCH   7  27
HETATM   27  O6  UNL     1      -1.225   3.767  13.455  1.00  0.00    -0.390 OA
ATOM     28  H6  UNL     1      -1.227   3.013  14.034  1.00  0.00     0.210 HD
ENDBRANCH   7  27
TORSDOF 8
ENDMDL
MODEL 2
REMARK VINA RESULT: -6.145751871      0.072      2.435
REMARK  8 active torsions:
REMARK  status: ('A' for Active; 'I' for Inactive)
REMARK    1  A    between atoms: O1_1  and  C1_3 
REMARK    2  A    between atoms: C1_3  and  C2_4 
REMARK    3  A    between atoms: C3_6  and  O3_7 
REMARK    4  A    between atoms: O3_7  and  C4_8 
REMARK    5  A    between atoms: C4_8  and  C5_9 
REMARK    6  A    between atoms: C11_19  and  O4_20 
REMARK    7  A    between atoms: C12_23  and  O5_24 
REMARK    8  A    between atoms: C13_26  and  O6_27 
ROOT
HETATM    1  C2  UNL     1      -1.809   5.999  13.174  1.00  0.00     0.179 C 
HETATM    2  O2  UNL     1      -2.973   6.346  12.572  1.00  0.00    -0.347 OA
HETATM    3  C3  UNL     1      -4.067   5.572  12.842  1.00  0.00     0.313 C 
HETATM    4  C11 UNL     1      -4.150   5.420  14.362  1.00  0.00     0.212 C 
HETATM    5 CL5  UNL     1      -3.731   6.953  15.177  1.00  0.00    -0.080 Cl
HETATM    6  C12 UNL     1      -3.064   4.398  14.671  1.00  0.00     0.204 C 
HETATM    7  C13 UNL     1      -1.785   4.859  14.083  1.00  0.00     0.182 C 
ENDROOT
BRANCH   3   8
HETATM    8  O3  UNL     1      -5.230   6.158  12.416  1.00  0.00    -0.352 OA
BRANCH   8   9
HETATM    9  C4  UNL     1      -4.895   7.253  11.621  1.00  0.00     0.213 C 
BRANCH   9  10
HETATM   10  C5  UNL     1      -5.598   7.148  10.311  1.00  0.00     0.012 A 
HETATM   11  C6  UNL     1      -4.940   6.671   9.189  1.00  0.00     0.066 A 
HETATM   12 CL1  UNL     1      -3.263   6.190   9.333  1.00  0.00    -0.082 Cl
HETATM   13  C7  UNL     1      -5.615   6.586   7.997  1.00  0.00     0.058 A 
HETATM   14 CL2  UNL     1      -4.767   5.981   6.596  1.00  0.00    -0.082 Cl
HETATM   15  C8  UNL     1      -6.935   6.973   7.920  1.00  0.00     0.051 A 
HETATM   16  C9  UNL     1      -7.629   7.456   9.020  1.00  0.00     0.058 A 
HETATM   17 CL3  UNL     1      -9.307   7.945   8.917  1.00  0.00    -0.082 Cl
HETATM   18  C10 UNL     1      -6.911   7.528  10.213  1.00  0.00     0.066 A 
HETATM   19 CL4  UNL     1      -7.820   8.147  11.598  1.00  0.00    -0.082 Cl
ENDBRANCH   9  10
ENDBRANCH   8   9
ENDBRANCH   3   8
BRANCH   4  20
HETATM   20  O4  UNL     1      -5.381   4.954  14.770  1.00  0.00    -0.368 OA
ATOM     21  H4  UNL     1      -5.408   4.788  15.705  1.00  0.00     0.212 HD
ENDBRANCH   4  20
BRANCH   1  22
HETATM   22  C1  UNL     1      -0.768   5.786  12.063  1.00  0.00     0.198 C 
BRANCH  22  23
HETATM   23  O1  UNL     1       0.518   5.790  12.604  1.00  0.00    -0.398 OA
ATOM     24  H1  UNL     1       0.938   4.952  12.454  1.00  0.00     0.209 HD
ENDBRANCH  22  23
ENDBRANCH   1  22
BRANCH   6  25
HETATM   25  O5  UNL     1      -3.519   3.179  14.171  1.00  0.00    -0.388 OA
ATOM     26  H5  UNL     1      -3.705   3.321  13.250  1.00  0.00     0.210 HD
ENDBRANCH   6  25
BRANCH   7  27
HETATM   27  O6  UNL     1      -1.207   3.747  13.422  1.00  0.00    -0.390 OA
ATOM     28  H6  UNL     1      -0.363   3.554  13.815  1.00  0.00     0.210 HD
ENDBRANCH   7  27
TORSDOF 8
ENDMDL
MODEL 3
REMARK VINA RESULT: -6.071196466      1.410      2.922
REMARK  8 active torsions:
REMARK  status: ('A' for Active; 'I' for Inactive)
REMARK    1  A    between atoms: O1_1  and  C1_3 
REMARK    2  A    between atoms: C1_3  and  C2_4 
REMARK    3  A    between atoms: C3_6  and  O3_7 
REMARK    4  A    between atoms: O3_7  and  C4_8 
REMARK    5  A    between atoms: C4_8  and  C5_9 
REMARK    6  A    between atoms: C11_19  and  O4_20 
REMARK    7  A    between atoms: C12_23  and  O5_24 
REMARK    8  A    between atoms: C13_26  and  O6_27 
ROOT
HETATM    1  C2  UNL     1      -2.732   4.119  13.017  1.00  0.00     0.179 C 
HETATM    2  O2  UNL     1      -3.395   5.268  12.737  1.00  0.00    -0.347 OA
HETATM    3  C3  UNL     1      -4.750   5.180  12.575  1.00  0.00     0.313 C 
HETATM    4  C11 UNL     1      -5.299   4.394  13.767  1.00  0.00     0.212 C 
HETATM    5 CL5  UNL     1      -4.458   4.857  15.273  1.00  0.00    -0.080 Cl
HETATM    6  C12 UNL     1      -4.932   2.953  13.435  1.00  0.00     0.204 C 
HETATM    7  C13 UNL     1      -3.481   2.875  13.155  1.00  0.00     0.182 C 
ENDROOT
BRANCH   3   8
HETATM    8  O3  UNL     1      -5.349   6.411  12.573  1.00  0.00    -0.352 OA
BRANCH   8   9
HETATM    9  C4  UNL     1      -4.698   7.206  11.633  1.00  0.00     0.213 C 
BRANCH   9  10
HETATM   10  C5  UNL     1      -5.396   7.095  10.320  1.00  0.00     0.012 A 
HETATM   11  C6  UNL     1      -4.746   6.573   9.213  1.00  0.00     0.066 A 
HETATM   12 CL1  UNL     1      -3.086   6.044   9.379  1.00  0.00    -0.082 Cl
HETATM   13  C7  UNL     1      -5.416   6.483   8.019  1.00  0.00     0.058 A 
HETATM   14 CL2  UNL     1      -4.578   5.822   6.637  1.00  0.00    -0.082 Cl
HETATM   15  C8  UNL     1      -6.722   6.909   7.925  1.00  0.00     0.051 A 
HETATM   16  C9  UNL     1      -7.408   7.437   9.009  1.00  0.00     0.058 A 
HETATM   17 CL3  UNL     1      -9.069   7.976   8.884  1.00  0.00    -0.082 Cl
HETATM   18  C10 UNL     1      -6.695   7.513  10.205  1.00  0.00     0.066 A 
HETATM   19 CL4  UNL     1      -7.594   8.190  11.570  1.00  0.00    -0.082 Cl
ENDBRANCH   9  10
ENDBRANCH   8   9
ENDBRANCH   3   8
BRANCH   4  20
HETATM   20  O4  UNL     1      -6.664   4.528  13.892  1.00  0.00    -0.368 OA
ATOM     21  H4  UNL     1      -7.133   4.048  13.219  1.00  0.00     0.212 HD
ENDBRANCH   4  20
BRANCH   1  22
HETATM   22  C1  UNL     1      -1.650   3.944  11.938  1.00  0.00     0.198 C 
BRANCH  22  23
HETATM   23  O1  UNL     1      -0.632   3.114  12.410  1.00  0.00    -0.398 OA
ATOM     24  H1  UNL     1      -0.932   2.632  13.171  1.00  0.00     0.209 HD
ENDBRANCH  22  23
ENDBRANCH   1  22
BRANCH   6  25
HETATM   25  O5  UNL     1      -5.744   2.579  12.364  1.00  0.00    -0.388 OA
ATOM     26  H5  UNL     1      -6.480   3.179  12.366  1.00  0.00     0.210 HD
ENDBRANCH   6  25
BRANCH   7  27
HETATM   27  O6  UNL     1      -3.325   2.104  11.977  1.00  0.00    -0.390 OA
ATOM     28  H6  UNL     1      -4.051   2.279  11.390  1.00  0.00     0.210 HD
ENDBRANCH   7  27
TORSDOF 8
ENDMDL
MODEL 4
REMARK VINA RESULT: -6.035984519      1.401      1.605
REMARK  8 active torsions:
REMARK  status: ('A' for Active; 'I' for Inactive)
REMARK    1  A    between atoms: O1_1  and  C1_3 
REMARK    2  A    between atoms: C1_3  and  C2_4 
REMARK    3  A    between atoms: C3_6  and  O3_7 
REMARK    4  A    between atoms: O3_7  and  C4_8 
REMARK    5  A    between atoms: C4_8  and  C5_9 
REMARK    6  A    between atoms: C11_19  and  O4_20 
REMARK    7  A    between atoms: C12_23  and  O5_24 
REMARK    8  A    between atoms: C13_26  and  O6_27 
ROOT
HETATM    1  C2  UNL     1      -2.738   4.149  13.019  1.00  0.00     0.179 C 
HETATM    2  O2  UNL     1      -3.405   5.297  12.747  1.00  0.00    -0.347 OA
HETATM    3  C3  UNL     1      -4.760   5.204  12.586  1.00  0.00     0.313 C 
HETATM    4  C11 UNL     1      -5.304   4.410  13.776  1.00  0.00     0.212 C 
HETATM    5 CL5  UNL     1      -4.463   4.868  15.283  1.00  0.00    -0.080 Cl
HETATM    6  C12 UNL     1      -4.933   2.972  13.436  1.00  0.00     0.204 C 
HETATM    7  C13 UNL     1      -3.482   2.901  13.153  1.00  0.00     0.182 C 
ENDROOT
BRANCH   3   8
HETATM    8  O3  UNL     1      -5.365   6.433  12.592  1.00  0.00    -0.352 OA
BRANCH   8   9
HETATM    9  C4  UNL     1      -4.726   7.232  11.646  1.00  0.00     0.213 C 
BRANCH   9  10
HETATM   10  C5  UNL     1      -5.441   7.126  10.343  1.00  0.00     0.012 A 
HETATM   11  C6  UNL     1      -6.755   7.550  10.218  1.00  0.00     0.066 A 
HETATM   12 CL1  UNL     1      -7.564   8.215  11.620  1.00  0.00    -0.082 Cl
HETATM   13  C7  UNL     1      -7.387   7.440   9.005  1.00  0.00     0.058 A 
HETATM   14 CL2  UNL     1      -9.041   7.981   8.871  1.00  0.00    -0.082 Cl
HETATM   15  C8  UNL     1      -6.718   6.913   7.923  1.00  0.00     0.051 A 
HETATM   16  C9  UNL     1      -5.404   6.476   8.005  1.00  0.00     0.058 A 
HETATM   17 CL3  UNL     1      -4.559   5.807   6.626  1.00  0.00    -0.082 Cl
HETATM   18  C10 UNL     1      -4.796   6.604   9.254  1.00  0.00     0.066 A 
HETATM   19 CL4  UNL     1      -3.120   6.040   9.331  1.00  0.00    -0.082 Cl
ENDBRANCH   9  10
ENDBRANCH   8   9
ENDBRANCH   3   8
BRANCH   4  20
HETATM   20  O4  UNL     1      -6.670   4.538  13.903  1.00  0.00    -0.368 OA
ATOM     21  H4  UNL     1      -6.911   5.307  14.407  1.00  0.00     0.212 HD
ENDBRANCH   4  20
BRANCH   1  22
HETATM   22  C1  UNL     1      -1.657   3.984  11.938  1.00  0.00     0.198 C 
BRANCH  22  23
HETATM   23  O1  UNL     1      -0.635   3.157  12.405  1.00  0.00    -0.398 OA
ATOM     24  H1  UNL     1      -0.899   2.736  13.214  1.00  0.00     0.209 HD
ENDBRANCH  22  23
ENDBRANCH   1  22
BRANCH   6  25
HETATM   25  O5  UNL     1      -5.745   2.601  12.364  1.00  0.00    -0.388 OA
ATOM     26  H5  UNL     1      -5.634   1.663  12.258  1.00  0.00     0.210 HD
ENDBRANCH   6  25
BRANCH   7  27
HETATM   27  O6  UNL     1      -3.325   2.136  11.971  1.00  0.00    -0.390 OA
ATOM     28  H6  UNL     1      -3.685   1.268  12.110  1.00  0.00     0.210 HD
ENDBRANCH   7  27
TORSDOF 8
ENDMDL
MODEL 5
REMARK VINA RESULT: -6.031376612      3.859      6.131
REMARK  8 active torsions:
REMARK  status: ('A' for Active; 'I' for Inactive)
REMARK    1  A    between atoms: O1_1  and  C1_3 
REMARK    2  A    between atoms: C1_3  and  C2_4 
REMARK    3  A    between atoms: C3_6  and  O3_7 
REMARK    4  A    between atoms: O3_7  and  C4_8 
REMARK    5  A    between atoms: C4_8  and  C5_9 
REMARK    6  A    between atoms: C11_19  and  O4_20 
REMARK    7  A    between atoms: C12_23  and  O5_24 
REMARK    8  A    between atoms: C13_26  and  O6_27 
ROOT
HETATM    1  C2  UNL     1      -1.775   5.632  10.295  1.00  0.00     0.179 C 
HETATM    2  O2  UNL     1      -2.903   5.456  11.027  1.00  0.00    -0.347 OA
HETATM    3  C3  UNL     1      -2.823   4.607  12.096  1.00  0.00     0.313 C 
HETATM    4  C11 UNL     1      -1.588   5.011  12.904  1.00  0.00     0.212 C 
HETATM    5 CL5  UNL     1      -1.426   6.788  12.970  1.00  0.00    -0.080 Cl
HETATM    6  C12 UNL     1      -0.434   4.453  12.080  1.00  0.00     0.204 C 
HETATM    7  C13 UNL     1      -0.551   4.945  10.689  1.00  0.00     0.182 C 
ENDROOT
BRANCH   3   8
HETATM    8  O3  UNL     1      -3.914   4.712  12.918  1.00  0.00    -0.352 OA
BRANCH   8   9
HETATM    9  C4  UNL     1      -4.886   3.825  12.459  1.00  0.00     0.213 C 
BRANCH   9  10
HETATM   10  C5  UNL     1      -4.719   2.510  13.140  1.00  0.00     0.012 A 
HETATM   11  C6  UNL     1      -4.498   1.355  12.407  1.00  0.00     0.066 A 
HETATM   12 CL1  UNL     1      -4.417   1.464  10.662  1.00  0.00    -0.082 Cl
HETATM   13  C7  UNL     1      -4.348   0.159  13.063  1.00  0.00     0.058 A 
HETATM   14 CL2  UNL     1      -4.070  -1.284  12.120  1.00  0.00    -0.082 Cl
HETATM   15  C8  UNL     1      -4.417   0.110  14.438  1.00  0.00     0.051 A 
HETATM   16  C9  UNL     1      -4.637   1.243  15.208  1.00  0.00     0.058 A 
HETATM   17 CL3  UNL     1      -4.724   1.176  16.955  1.00  0.00    -0.082 Cl
HETATM   18  C10 UNL     1      -4.785   2.439  14.507  1.00  0.00     0.066 A 
HETATM   19 CL4  UNL     1      -5.064   3.867  15.513  1.00  0.00    -0.082 Cl
ENDBRANCH   9  10
ENDBRANCH   8   9
ENDBRANCH   3   8
BRANCH   4  20
HETATM   20  O4  UNL     1      -1.592   4.459  14.165  1.00  0.00    -0.368 OA
ATOM     21  H4  UNL     1      -1.666   3.512  14.141  1.00  0.00     0.212 HD
ENDBRANCH   4  20
BRANCH   1  22
HETATM   22  C1  UNL     1      -2.117   5.269   8.840  1.00  0.00     0.198 C 
BRANCH  22  23
HETATM   23  O1  UNL     1      -2.983   4.177   8.809  1.00  0.00    -0.398 OA
ATOM     24  H1  UNL     1      -2.994   3.793   7.940  1.00  0.00     0.209 HD
ENDBRANCH  22  23
ENDBRANCH   1  22
BRANCH   6  25
HETATM   25  O5  UNL     1      -0.498   3.066  12.205  1.00  0.00    -0.388 OA
ATOM     26  H5  UNL     1       0.242   2.720  11.721  1.00  0.00     0.210 HD
ENDBRANCH   6  25
BRANCH   7  27
HETATM   27  O6  UNL     1      -0.345   3.833   9.836  1.00  0.00    -0.390 OA
ATOM     28  H6  UNL     1      -0.005   3.106  10.345  1.00  0.00     0.210 HD
ENDBRANCH   7  27
TORSDOF 8
ENDMDL
