MODEL 1
REMARK VINA RESULT: -8.524041555      0.000      0.000
REMARK  9 active torsions:
REMARK  status: ('A' for Active; 'I' for Inactive)
REMARK    1  A    between atoms: C2_2  and  C3_3 
REMARK    2  A    between atoms: C2_2  and  N1_26 
REMARK    3  A    between atoms: C3_3  and  C4_4 
REMARK    4  A    between atoms: C4_4  and  C5_5 
REMARK    5  A    between atoms: C6_6  and  C7_7 
REMARK    6  A    between atoms: C7_7  and  C8_8 
REMARK    7  A    between atoms: C8_8  and  C9_9 
REMARK    8  A    between atoms: C16_21  and  O3_22 
REMARK    9  A    between atoms: N1_26  and  C19_28 
ROOT
HETATM    1  C5  UNL     1      16.229   7.544  12.427  1.00  0.00    -0.062 C 
HETATM    2  C6  UNL     1      17.196   7.162  11.280  1.00  0.00     0.050 C 
HETATM    3  C10 UNL     1      17.308   5.698  11.170  1.00  0.00     0.178 C 
HETATM    4  F1  UNL     1      17.893   5.242  10.015  1.00  0.00    -0.249 F 
HETATM    5  C11 UNL     1      15.966   5.012  11.271  1.00  0.00     0.049 C 
HETATM    6  C12 UNL     1      15.234   5.334  12.526  1.00  0.00     0.075 C 
HETATM    7  C13 UNL     1      14.991   4.079  13.282  1.00  0.00     0.248 C 
HETATM    8  F2  UNL     1      14.494   3.150  12.384  1.00  0.00    -0.206 F 
HETATM    9  F3  UNL     1      14.139   4.120  14.328  1.00  0.00    -0.206 F 
HETATM   10  C14 UNL     1      16.349   3.560  13.704  1.00  0.00     0.082 C 
HETATM   11  C15 UNL     1      16.923   4.520  14.654  1.00  0.00     0.038 C 
HETATM   12  C16 UNL     1      16.822   5.979  14.358  1.00  0.00     0.131 C 
HETATM   13  C17 UNL     1      15.855   6.463  13.363  1.00  0.00     0.015 C 
HETATM   14  C18 UNL     1      14.639   7.023  14.146  1.00  0.00     0.023 C 
ENDROOT
BRANCH   1  15
HETATM   15  C4  UNL     1      16.476   8.895  12.866  1.00  0.00     0.002 C 
BRANCH  15  16
HETATM   16  C3  UNL     1      16.117  10.087  12.509  1.00  0.00    -0.002 C 
BRANCH  16  17
HETATM   17  C2  UNL     1      14.675  10.522  12.361  1.00  0.00     0.096 C 
HETATM   18  C1  UNL     1      14.313  10.718  10.913  1.00  0.00     0.036 C 
BRANCH  17  19
HETATM   19  N1  UNL     1      14.381  11.672  13.116  1.00  0.00    -0.407 N 
ATOM     20  H1  UNL     1      14.835  12.555  12.885  1.00  0.00     0.154 HD
BRANCH  19  21
HETATM   21  C19 UNL     1      13.474  11.620  14.181  1.00  0.00     0.015 C 
HETATM   22  C20 UNL     1      13.517  12.883  15.059  1.00  0.00     0.037 C 
HETATM   23  C21 UNL     1      12.056  11.695  13.539  1.00  0.00     0.037 C 
HETATM   24  C22 UNL     1      13.442  10.404  15.030  1.00  0.00     0.037 C 
ENDBRANCH  19  21
ENDBRANCH  17  19
ENDBRANCH  16  17
ENDBRANCH  15  16
ENDBRANCH   1  15
BRANCH   2  25
HETATM   25  C7  UNL     1      16.648   7.834  10.058  1.00  0.00     0.022 C 
BRANCH  25  26
HETATM   26  C8  UNL     1      17.510   8.728   9.268  1.00  0.00     0.114 C 
BRANCH  26  27
HETATM   27  C9  UNL     1      17.091   8.526   7.812  1.00  0.00     0.172 C 
HETATM   28  O1  UNL     1      16.143   7.768   7.502  1.00  0.00    -0.648 OA
HETATM   29  O2  UNL     1      17.760   9.181   6.796  1.00  0.00    -0.648 OA
ENDBRANCH  26  27
ENDBRANCH  25  26
ENDBRANCH   2  25
BRANCH  12  30
HETATM   30  O3  UNL     1      16.647   6.535  15.655  1.00  0.00    -0.394 OA
ATOM     31  H3  UNL     1      15.760   6.872  15.609  1.00  0.00     0.210 HD
ENDBRANCH  12  30
TORSDOF 9
ENDMDL
MODEL 2
REMARK VINA RESULT: -8.451319680      0.482      1.062
REMARK  9 active torsions:
REMARK  status: ('A' for Active; 'I' for Inactive)
REMARK    1  A    between atoms: C2_2  and  C3_3 
REMARK    2  A    between atoms: C2_2  and  N1_26 
REMARK    3  A    between atoms: C3_3  and  C4_4 
REMARK    4  A    between atoms: C4_4  and  C5_5 
REMARK    5  A    between atoms: C6_6  and  C7_7 
REMARK    6  A    between atoms: C7_7  and  C8_8 
REMARK    7  A    between atoms: C8_8  and  C9_9 
REMARK    8  A    between atoms: C16_21  and  O3_22 
REMARK    9  A    between atoms: N1_26  and  C19_28 
ROOT
HETATM    1  C5  UNL     1      16.430   7.418  12.421  1.00  0.00    -0.062 C 
HETATM    2  C6  UNL     1      17.506   6.962  11.405  1.00  0.00     0.050 C 
HETATM    3  C10 UNL     1      17.566   5.492  11.348  1.00  0.00     0.178 C 
HETATM    4  F1  UNL     1      18.260   4.975  10.283  1.00  0.00    -0.249 F 
HETATM    5  C11 UNL     1      16.192   4.864  11.310  1.00  0.00     0.049 C 
HETATM    6  C12 UNL     1      15.333   5.255  12.461  1.00  0.00     0.075 C 
HETATM    7  C13 UNL     1      14.949   4.036  13.216  1.00  0.00     0.248 C 
HETATM    8  F2  UNL     1      14.520   3.099  12.290  1.00  0.00    -0.206 F 
HETATM    9  F3  UNL     1      13.984   4.144  14.153  1.00  0.00    -0.206 F 
HETATM   10  C14 UNL     1      16.225   3.475  13.808  1.00  0.00     0.082 C 
HETATM   11  C15 UNL     1      16.725   4.441  14.793  1.00  0.00     0.038 C 
HETATM   12  C16 UNL     1      16.725   5.892  14.448  1.00  0.00     0.131 C 
HETATM   13  C17 UNL     1      15.902   6.383  13.335  1.00  0.00     0.015 C 
HETATM   14  C18 UNL     1      14.629   7.017  13.953  1.00  0.00     0.023 C 
ENDROOT
BRANCH   1  15
HETATM   15  C4  UNL     1      16.684   8.772  12.849  1.00  0.00     0.002 C 
BRANCH  15  16
HETATM   16  C3  UNL     1      16.309   9.961  12.500  1.00  0.00    -0.002 C 
BRANCH  16  17
HETATM   17  C2  UNL     1      14.869  10.350  12.249  1.00  0.00     0.096 C 
HETATM   18  C1  UNL     1      14.579  10.436  10.774  1.00  0.00     0.036 C 
BRANCH  17  19
HETATM   19  N1  UNL     1      14.512  11.542  12.905  1.00  0.00    -0.407 N 
ATOM     20  H1  UNL     1      15.047  12.392  12.730  1.00  0.00     0.154 HD
BRANCH  19  21
HETATM   21  C19 UNL     1      13.433  11.577  13.796  1.00  0.00     0.015 C 
HETATM   22  C20 UNL     1      13.474  10.430  14.822  1.00  0.00     0.037 C 
HETATM   23  C21 UNL     1      13.650  12.840  14.682  1.00  0.00     0.037 C 
HETATM   24  C22 UNL     1      12.063  11.728  13.248  1.00  0.00     0.037 C 
ENDBRANCH  19  21
ENDBRANCH  17  19
ENDBRANCH  16  17
ENDBRANCH  15  16
ENDBRANCH   1  15
BRANCH   2  25
HETATM   25  C7  UNL     1      17.135   7.616  10.110  1.00  0.00     0.022 C 
BRANCH  25  26
HETATM   26  C8  UNL     1      18.064   8.568   9.480  1.00  0.00     0.114 C 
BRANCH  26  27
HETATM   27  C9  UNL     1      17.298   9.176   8.305  1.00  0.00     0.172 C 
HETATM   28  O1  UNL     1      17.426  10.382   7.994  1.00  0.00    -0.648 OA
HETATM   29  O2  UNL     1      16.437   8.397   7.555  1.00  0.00    -0.648 OA
ENDBRANCH  26  27
ENDBRANCH  25  26
ENDBRANCH   2  25
BRANCH  12  30
HETATM   30  O3  UNL     1      16.424   6.496  15.701  1.00  0.00    -0.394 OA
ATOM     31  H3  UNL     1      16.700   5.826  16.316  1.00  0.00     0.210 HD
ENDBRANCH  12  30
TORSDOF 9
ENDMDL
MODEL 3
REMARK VINA RESULT: -8.236277076      1.794      2.482
REMARK  9 active torsions:
REMARK  status: ('A' for Active; 'I' for Inactive)
REMARK    1  A    between atoms: C2_2  and  C3_3 
REMARK    2  A    between atoms: C2_2  and  N1_26 
REMARK    3  A    between atoms: C3_3  and  C4_4 
REMARK    4  A    between atoms: C4_4  and  C5_5 
REMARK    5  A    between atoms: C6_6  and  C7_7 
REMARK    6  A    between atoms: C7_7  and  C8_8 
REMARK    7  A    between atoms: C8_8  and  C9_9 
REMARK    8  A    between atoms: C16_21  and  O3_22 
REMARK    9  A    between atoms: N1_26  and  C19_28 
ROOT
HETATM    1  C5  UNL     1      15.352   7.508  13.354  1.00  0.00    -0.062 C 
HETATM    2  C6  UNL     1      16.409   8.116  12.400  1.00  0.00     0.050 C 
HETATM    3  C10 UNL     1      17.149   7.048  11.708  1.00  0.00     0.178 C 
HETATM    4  F1  UNL     1      17.895   7.456  10.631  1.00  0.00    -0.249 F 
HETATM    5  C11 UNL     1      16.238   5.952  11.208  1.00  0.00     0.049 C 
HETATM    6  C12 UNL     1      15.415   5.333  12.283  1.00  0.00     0.075 C 
HETATM    7  C13 UNL     1      15.729   3.884  12.361  1.00  0.00     0.248 C 
HETATM    8  F2  UNL     1      15.702   3.390  11.067  1.00  0.00    -0.206 F 
HETATM    9  F3  UNL     1      14.926   3.097  13.107  1.00  0.00    -0.206 F 
HETATM   10  C14 UNL     1      17.170   3.778  12.813  1.00  0.00     0.082 C 
HETATM   11  C15 UNL     1      17.251   4.301  14.182  1.00  0.00     0.038 C 
HETATM   12  C16 UNL     1      16.532   5.564  14.517  1.00  0.00     0.131 C 
HETATM   13  C17 UNL     1      15.469   6.062  13.635  1.00  0.00     0.015 C 
HETATM   14  C18 UNL     1      14.116   5.678  14.289  1.00  0.00     0.023 C 
ENDROOT
BRANCH   1  15
HETATM   15  C4  UNL     1      14.978   8.465  14.367  1.00  0.00     0.002 C 
BRANCH  15  16
HETATM   16  C3  UNL     1      13.904   8.788  15.014  1.00  0.00    -0.002 C 
BRANCH  16  17
HETATM   17  C2  UNL     1      13.389  10.206  15.133  1.00  0.00     0.096 C 
HETATM   18  C1  UNL     1      13.781  11.028  13.935  1.00  0.00     0.036 C 
BRANCH  17  19
HETATM   19  N1  UNL     1      13.797  10.827  16.328  1.00  0.00    -0.407 N 
ATOM     20  H1  UNL     1      14.757  10.711  16.652  1.00  0.00     0.154 HD
BRANCH  19  21
HETATM   21  C19 UNL     1      12.902  11.600  17.077  1.00  0.00     0.015 C 
HETATM   22  C20 UNL     1      12.119  10.769  18.109  1.00  0.00     0.037 C 
HETATM   23  C21 UNL     1      13.781  12.522  17.974  1.00  0.00     0.037 C 
HETATM   24  C22 UNL     1      11.989  12.525  16.362  1.00  0.00     0.037 C 
ENDBRANCH  19  21
ENDBRANCH  17  19
ENDBRANCH  16  17
ENDBRANCH  15  16
ENDBRANCH   1  15
BRANCH   2  25
HETATM   25  C7  UNL     1      15.646   9.029  11.490  1.00  0.00     0.022 C 
BRANCH  25  26
HETATM   26  C8  UNL     1      16.111  10.411  11.285  1.00  0.00     0.114 C 
BRANCH  26  27
HETATM   27  C9  UNL     1      16.907  10.390   9.981  1.00  0.00     0.172 C 
HETATM   28  O1  UNL     1      18.007  10.980   9.875  1.00  0.00    -0.648 OA
HETATM   29  O2  UNL     1      16.422   9.712   8.878  1.00  0.00    -0.648 OA
ENDBRANCH  26  27
ENDBRANCH  25  26
ENDBRANCH   2  25
BRANCH  12  30
HETATM   30  O3  UNL     1      16.108   5.320  15.853  1.00  0.00    -0.394 OA
ATOM     31  H3  UNL     1      15.772   6.169  16.114  1.00  0.00     0.210 HD
ENDBRANCH  12  30
TORSDOF 9
ENDMDL
MODEL 4
REMARK VINA RESULT: -8.199996643      3.159      5.284
REMARK  9 active torsions:
REMARK  status: ('A' for Active; 'I' for Inactive)
REMARK    1  A    between atoms: C2_2  and  C3_3 
REMARK    2  A    between atoms: C2_2  and  N1_26 
REMARK    3  A    between atoms: C3_3  and  C4_4 
REMARK    4  A    between atoms: C4_4  and  C5_5 
REMARK    5  A    between atoms: C6_6  and  C7_7 
REMARK    6  A    between atoms: C7_7  and  C8_8 
REMARK    7  A    between atoms: C8_8  and  C9_9 
REMARK    8  A    between atoms: C16_21  and  O3_22 
REMARK    9  A    between atoms: N1_26  and  C19_28 
ROOT
HETATM    1  C5  UNL     1      16.088   7.286  10.780  1.00  0.00    -0.062 C 
HETATM    2  C6  UNL     1      16.468   8.632  10.116  1.00  0.00     0.050 C 
HETATM    3  C10 UNL     1      17.133   8.397   8.824  1.00  0.00     0.178 C 
HETATM    4  F1  UNL     1      17.246   9.499   8.015  1.00  0.00    -0.249 F 
HETATM    5  C11 UNL     1      16.438   7.334   8.007  1.00  0.00     0.049 C 
HETATM    6  C12 UNL     1      16.315   6.031   8.716  1.00  0.00     0.075 C 
HETATM    7  C13 UNL     1      17.018   4.984   7.934  1.00  0.00     0.248 C 
HETATM    8  F2  UNL     1      16.616   5.120   6.615  1.00  0.00    -0.206 F 
HETATM    9  F3  UNL     1      16.827   3.694   8.280  1.00  0.00    -0.206 F 
HETATM   10  C14 UNL     1      18.488   5.344   7.956  1.00  0.00     0.082 C 
HETATM   11  C15 UNL     1      18.961   5.223   9.340  1.00  0.00     0.038 C 
HETATM   12  C16 UNL     1      18.118   5.771  10.441  1.00  0.00     0.131 C 
HETATM   13  C17 UNL     1      16.699   6.070  10.204  1.00  0.00     0.015 C 
HETATM   14  C18 UNL     1      15.880   4.897  10.803  1.00  0.00     0.023 C 
ENDROOT
BRANCH   1  15
HETATM   15  C4  UNL     1      15.902   7.459  12.199  1.00  0.00     0.002 C 
BRANCH  15  16
HETATM   16  C3  UNL     1      16.607   7.874  13.204  1.00  0.00    -0.002 C 
BRANCH  16  17
HETATM   17  C2  UNL     1      17.156   6.961  14.279  1.00  0.00     0.096 C 
HETATM   18  C1  UNL     1      18.661   7.003  14.309  1.00  0.00     0.036 C 
BRANCH  17  19
HETATM   19  N1  UNL     1      16.689   5.640  14.152  1.00  0.00    -0.407 N 
ATOM     20  H1  UNL     1      17.088   5.033  13.436  1.00  0.00     0.154 HD
BRANCH  19  21
HETATM   21  C19 UNL     1      15.685   5.150  14.994  1.00  0.00     0.015 C 
HETATM   22  C20 UNL     1      14.418   4.731  14.226  1.00  0.00     0.037 C 
HETATM   23  C21 UNL     1      16.216   3.793  15.547  1.00  0.00     0.037 C 
HETATM   24  C22 UNL     1      15.321   5.934  16.199  1.00  0.00     0.037 C 
ENDBRANCH  19  21
ENDBRANCH  17  19
ENDBRANCH  16  17
ENDBRANCH  15  16
ENDBRANCH   1  15
BRANCH   2  25
HETATM   25  C7  UNL     1      15.188   9.404  10.020  1.00  0.00     0.022 C 
BRANCH  25  26
HETATM   26  C8  UNL     1      15.131  10.790  10.513  1.00  0.00     0.114 C 
BRANCH  26  27
HETATM   27  C9  UNL     1      13.957  10.833  11.490  1.00  0.00     0.172 C 
HETATM   28  O1  UNL     1      12.825  11.236  11.136  1.00  0.00    -0.648 OA
HETATM   29  O2  UNL     1      14.124  10.425  12.800  1.00  0.00    -0.648 OA
ENDBRANCH  26  27
ENDBRANCH  25  26
ENDBRANCH   2  25
BRANCH  12  30
HETATM   30  O3  UNL     1      18.345   4.833  11.486  1.00  0.00    -0.394 OA
ATOM     31  H3  UNL     1      18.468   5.399  12.239  1.00  0.00     0.210 HD
ENDBRANCH  12  30
TORSDOF 9
ENDMDL
MODEL 5
REMARK VINA RESULT: -8.106058645      3.024      5.149
REMARK  9 active torsions:
REMARK  status: ('A' for Active; 'I' for Inactive)
REMARK    1  A    between atoms: C2_2  and  C3_3 
REMARK    2  A    between atoms: C2_2  and  N1_26 
REMARK    3  A    between atoms: C3_3  and  C4_4 
REMARK    4  A    between atoms: C4_4  and  C5_5 
REMARK    5  A    between atoms: C6_6  and  C7_7 
REMARK    6  A    between atoms: C7_7  and  C8_8 
REMARK    7  A    between atoms: C8_8  and  C9_9 
REMARK    8  A    between atoms: C16_21  and  O3_22 
REMARK    9  A    between atoms: N1_26  and  C19_28 
ROOT
HETATM    1  C5  UNL     1      16.297   7.405  10.677  1.00  0.00    -0.062 C 
HETATM    2  C6  UNL     1      16.612   8.723   9.928  1.00  0.00     0.050 C 
HETATM    3  C10 UNL     1      17.069   8.437   8.558  1.00  0.00     0.178 C 
HETATM    4  F1  UNL     1      17.092   9.516   7.711  1.00  0.00    -0.249 F 
HETATM    5  C11 UNL     1      16.227   7.379   7.883  1.00  0.00     0.049 C 
HETATM    6  C12 UNL     1      16.174   6.098   8.638  1.00  0.00     0.075 C 
HETATM    7  C13 UNL     1      16.720   5.010   7.788  1.00  0.00     0.248 C 
HETATM    8  F2  UNL     1      16.129   5.130   6.541  1.00  0.00    -0.206 F 
HETATM    9  F3  UNL     1      16.546   3.736   8.193  1.00  0.00    -0.206 F 
HETATM   10  C14 UNL     1      18.187   5.321   7.580  1.00  0.00     0.082 C 
HETATM   11  C15 UNL     1      18.858   5.216   8.881  1.00  0.00     0.038 C 
HETATM   12  C16 UNL     1      18.207   5.817  10.080  1.00  0.00     0.131 C 
HETATM   13  C17 UNL     1      16.778   6.157  10.050  1.00  0.00     0.015 C 
HETATM   14  C18 UNL     1      16.024   5.026  10.796  1.00  0.00     0.023 C 
ENDROOT
BRANCH   1  15
HETATM   15  C4  UNL     1      16.331   7.617  12.103  1.00  0.00     0.002 C 
BRANCH  15  16
HETATM   16  C3  UNL     1      15.608   8.228  12.988  1.00  0.00    -0.002 C 
BRANCH  16  17
HETATM   17  C2  UNL     1      14.879   7.524  14.110  1.00  0.00     0.096 C 
HETATM   18  C1  UNL     1      14.095   8.500  14.945  1.00  0.00     0.036 C 
BRANCH  17  19
HETATM   19  N1  UNL     1      15.741   6.752  14.910  1.00  0.00    -0.407 N 
ATOM     20  H1  UNL     1      16.419   7.218  15.513  1.00  0.00     0.154 HD
BRANCH  19  21
HETATM   21  C19 UNL     1      15.682   5.354  14.889  1.00  0.00     0.015 C 
HETATM   22  C20 UNL     1      16.977   4.712  14.359  1.00  0.00     0.037 C 
HETATM   23  C21 UNL     1      15.661   4.904  16.381  1.00  0.00     0.037 C 
HETATM   24  C22 UNL     1      14.498   4.701  14.279  1.00  0.00     0.037 C 
ENDBRANCH  19  21
ENDBRANCH  17  19
ENDBRANCH  16  17
ENDBRANCH  15  16
ENDBRANCH   1  15
BRANCH   2  25
HETATM   25  C7  UNL     1      15.355   9.535  10.003  1.00  0.00     0.022 C 
BRANCH  25  26
HETATM   26  C8  UNL     1      15.404  10.910  10.526  1.00  0.00     0.114 C 
BRANCH  26  27
HETATM   27  C9  UNL     1      13.970  11.249  10.929  1.00  0.00     0.172 C 
HETATM   28  O1  UNL     1      13.407  10.678  11.892  1.00  0.00    -0.648 OA
HETATM   29  O2  UNL     1      13.255  12.204  10.230  1.00  0.00    -0.648 OA
ENDBRANCH  26  27
ENDBRANCH  25  26
ENDBRANCH   2  25
BRANCH  12  30
HETATM   30  O3  UNL     1      18.561   4.895  11.104  1.00  0.00    -0.394 OA
ATOM     31  H3  UNL     1      17.819   4.959  11.695  1.00  0.00     0.210 HD
ENDBRANCH  12  30
TORSDOF 9
ENDMDL
