MODEL 1
REMARK VINA RESULT: -7.640383662      0.000      0.000
REMARK  7 active torsions:
REMARK  status: ('A' for Active; 'I' for Inactive)
REMARK    1  A    between atoms: C2_2  and  C4_5 
REMARK    2  A    between atoms: C5_6  and  C6_7 
REMARK    3  A    between atoms: C6_7  and  O1_8 
REMARK    4  A    between atoms: O1_8  and  C7_9 
REMARK    5  A    between atoms: C10_12  and  C11_13 
REMARK    6  A    between atoms: N1_14  and  O2_16 
REMARK    7  A    between atoms: C12_18  and  O3_19 
ROOT
HETATM    1  C7  UNL     1       8.353 -28.919  17.941  1.00  0.00     0.111 A 
HETATM    2  C8  UNL     1       7.893 -30.123  18.414  1.00  0.00     0.041 A 
HETATM    3  C9  UNL     1       6.627 -30.259  18.914  1.00  0.00     0.018 A 
HETATM    4  C10 UNL     1       5.718 -29.182  18.975  1.00  0.00     0.018 A 
HETATM    5  C12 UNL     1       6.184 -27.984  18.501  1.00  0.00     0.118 A 
HETATM    6  C13 UNL     1       7.503 -27.861  17.986  1.00  0.00     0.183 A 
HETATM    7  F1  UNL     1       7.887 -26.641  17.537  1.00  0.00    -0.200 F 
ENDROOT
BRANCH   1   8
HETATM    8  O1  UNL     1       9.633 -28.753  17.429  1.00  0.00    -0.336 OA
BRANCH   8   9
HETATM    9  C6  UNL     1       9.936 -28.946  16.061  1.00  0.00     0.269 C 
BRANCH   9  10
HETATM   10  C5  UNL     1      10.290 -27.651  15.480  1.00  0.00    -0.078 C 
HETATM   11  C4  UNL     1      10.566 -26.574  15.012  1.00  0.00    -0.079 C 
BRANCH  11  12
HETATM   12  C2  UNL     1      10.884 -25.250  14.456  1.00  0.00     0.093 C 
HETATM   13  C1  UNL     1       9.918 -24.233  15.074  1.00  0.00     0.046 C 
HETATM   14  C3  UNL     1      12.272 -24.813  14.879  1.00  0.00     0.046 C 
HETATM   15 CL1  UNL     1      10.709 -25.339  12.704  1.00  0.00    -0.106 Cl
ENDBRANCH  11  12
ENDBRANCH   9  10
ENDBRANCH   8   9
ENDBRANCH   1   8
BRANCH   5  16
HETATM   16  O3  UNL     1       5.412 -26.858  18.501  1.00  0.00    -0.357 OA
ATOM     17  H3  UNL     1       5.404 -26.255  17.767  1.00  0.00     0.218 HD
ENDBRANCH   5  16
BRANCH   4  18
HETATM   18  C11 UNL     1       4.389 -29.412  19.522  1.00  0.00     0.128 C 
HETATM   19  N1  UNL     1       3.627 -30.404  19.297  1.00  0.00    -0.280 N 
ATOM     20  H1  UNL     1       3.941 -31.145  18.670  1.00  0.00     0.193 HD
BRANCH  19  21
HETATM   21  O2  UNL     1       2.408 -30.494  19.875  1.00  0.00    -0.290 OA
ATOM     22  H2  UNL     1       2.135 -31.285  20.325  1.00  0.00     0.244 HD
ENDBRANCH  19  21
ENDBRANCH   4  18
TORSDOF 7
ENDMDL
MODEL 2
REMARK VINA RESULT: -7.536860066      0.798      1.077
REMARK  7 active torsions:
REMARK  status: ('A' for Active; 'I' for Inactive)
REMARK    1  A    between atoms: C2_2  and  C4_5 
REMARK    2  A    between atoms: C5_6  and  C6_7 
REMARK    3  A    between atoms: C6_7  and  O1_8 
REMARK    4  A    between atoms: O1_8  and  C7_9 
REMARK    5  A    between atoms: C10_12  and  C11_13 
REMARK    6  A    between atoms: N1_14  and  O2_16 
REMARK    7  A    between atoms: C12_18  and  O3_19 
ROOT
HETATM    1  C7  UNL     1       8.348 -28.888  17.927  1.00  0.00     0.111 A 
HETATM    2  C8  UNL     1       7.904 -30.088  18.424  1.00  0.00     0.041 A 
HETATM    3  C9  UNL     1       6.639 -30.233  18.922  1.00  0.00     0.018 A 
HETATM    4  C10 UNL     1       5.714 -29.169  18.958  1.00  0.00     0.018 A 
HETATM    5  C12 UNL     1       6.163 -27.974  18.460  1.00  0.00     0.118 A 
HETATM    6  C13 UNL     1       7.482 -27.842  17.947  1.00  0.00     0.183 A 
HETATM    7  F1  UNL     1       7.849 -26.626  17.473  1.00  0.00    -0.200 F 
ENDROOT
BRANCH   1   8
HETATM    8  O1  UNL     1       9.627 -28.713  17.416  1.00  0.00    -0.336 OA
BRANCH   8   9
HETATM    9  C6  UNL     1       9.926 -28.869  16.043  1.00  0.00     0.269 C 
BRANCH   9  10
HETATM   10  C5  UNL     1      10.305 -27.565  15.501  1.00  0.00    -0.078 C 
HETATM   11  C4  UNL     1      10.611 -26.480  15.073  1.00  0.00    -0.079 C 
BRANCH  11  12
HETATM   12  C2  UNL     1      10.979 -25.146  14.574  1.00  0.00     0.093 C 
HETATM   13  C1  UNL     1      10.936 -25.185  13.042  1.00  0.00     0.046 C 
HETATM   14  C3  UNL     1       9.948 -24.117  14.992  1.00  0.00     0.046 C 
HETATM   15 CL1  UNL     1      12.594 -24.767  15.174  1.00  0.00    -0.106 Cl
ENDBRANCH  11  12
ENDBRANCH   9  10
ENDBRANCH   8   9
ENDBRANCH   1   8
BRANCH   5  16
HETATM   16  O3  UNL     1       5.374 -26.860  18.433  1.00  0.00    -0.357 OA
ATOM     17  H3  UNL     1       4.645 -26.746  19.031  1.00  0.00     0.218 HD
ENDBRANCH   5  16
BRANCH   4  18
HETATM   18  C11 UNL     1       4.386 -29.407  19.505  1.00  0.00     0.128 C 
HETATM   19  N1  UNL     1       3.631 -30.406  19.281  1.00  0.00    -0.280 N 
ATOM     20  H1  UNL     1       3.950 -31.145  18.654  1.00  0.00     0.193 HD
BRANCH  19  21
HETATM   21  O2  UNL     1       2.412 -30.503  19.858  1.00  0.00    -0.290 OA
ATOM     22  H2  UNL     1       1.729 -31.041  19.476  1.00  0.00     0.244 HD
ENDBRANCH  19  21
ENDBRANCH   4  18
TORSDOF 7
ENDMDL
MODEL 3
REMARK VINA RESULT: -7.384137073      1.494      1.858
REMARK  7 active torsions:
REMARK  status: ('A' for Active; 'I' for Inactive)
REMARK    1  A    between atoms: C2_2  and  C4_5 
REMARK    2  A    between atoms: C5_6  and  C6_7 
REMARK    3  A    between atoms: C6_7  and  O1_8 
REMARK    4  A    between atoms: O1_8  and  C7_9 
REMARK    5  A    between atoms: C10_12  and  C11_13 
REMARK    6  A    between atoms: N1_14  and  O2_16 
REMARK    7  A    between atoms: C12_18  and  O3_19 
ROOT
HETATM    1  C7  UNL     1       8.247 -28.753  18.045  1.00  0.00     0.111 A 
HETATM    2  C8  UNL     1       7.323 -27.740  17.998  1.00  0.00     0.041 A 
HETATM    3  C9  UNL     1       6.038 -27.922  18.432  1.00  0.00     0.018 A 
HETATM    4  C10 UNL     1       5.582 -29.152  18.951  1.00  0.00     0.018 A 
HETATM    5  C12 UNL     1       6.510 -30.158  18.994  1.00  0.00     0.118 A 
HETATM    6  C13 UNL     1       7.840 -29.951  18.539  1.00  0.00     0.183 A 
HETATM    7  F1  UNL     1       8.697 -30.999  18.616  1.00  0.00    -0.200 F 
ENDROOT
BRANCH   1   8
HETATM    8  O1  UNL     1       9.556 -28.596  17.611  1.00  0.00    -0.336 OA
BRANCH   8   9
HETATM    9  C6  UNL     1       9.954 -28.861  16.280  1.00  0.00     0.269 C 
BRANCH   9  10
HETATM   10  C5  UNL     1      10.310 -27.593  15.643  1.00  0.00    -0.078 C 
HETATM   11  C4  UNL     1      10.586 -26.538  15.128  1.00  0.00    -0.079 C 
BRANCH  11  12
HETATM   12  C2  UNL     1      10.904 -25.240  14.512  1.00  0.00     0.093 C 
HETATM   13  C1  UNL     1       9.910 -24.205  15.050  1.00  0.00     0.046 C 
HETATM   14  C3  UNL     1      12.275 -24.764  14.948  1.00  0.00     0.046 C 
HETATM   15 CL1  UNL     1      10.777 -25.422  12.763  1.00  0.00    -0.106 Cl
ENDBRANCH  11  12
ENDBRANCH   9  10
ENDBRANCH   8   9
ENDBRANCH   1   8
BRANCH   5  16
HETATM   16  O3  UNL     1       6.206 -31.401  19.472  1.00  0.00    -0.357 OA
ATOM     17  H3  UNL     1       6.870 -32.069  19.591  1.00  0.00     0.218 HD
ENDBRANCH   5  16
BRANCH   4  18
HETATM   18  C11 UNL     1       4.199 -29.262  19.390  1.00  0.00     0.128 C 
HETATM   19  N1  UNL     1       3.495 -30.318  19.455  1.00  0.00    -0.280 N 
ATOM     20  H1  UNL     1       3.904 -31.211  19.178  1.00  0.00     0.193 HD
BRANCH  19  21
HETATM   21  O2  UNL     1       2.213 -30.279  19.885  1.00  0.00    -0.290 OA
ATOM     22  H2  UNL     1       1.546 -29.814  19.395  1.00  0.00     0.244 HD
ENDBRANCH  19  21
ENDBRANCH   4  18
TORSDOF 7
ENDMDL
MODEL 4
REMARK VINA RESULT: -7.131112456      1.925      2.260
REMARK  7 active torsions:
REMARK  status: ('A' for Active; 'I' for Inactive)
REMARK    1  A    between atoms: C2_2  and  C4_5 
REMARK    2  A    between atoms: C5_6  and  C6_7 
REMARK    3  A    between atoms: C6_7  and  O1_8 
REMARK    4  A    between atoms: O1_8  and  C7_9 
REMARK    5  A    between atoms: C10_12  and  C11_13 
REMARK    6  A    between atoms: N1_14  and  O2_16 
REMARK    7  A    between atoms: C12_18  and  O3_19 
ROOT
HETATM    1  C7  UNL     1       8.687 -28.925  17.343  1.00  0.00     0.111 A 
HETATM    2  C8  UNL     1       8.019 -27.728  17.270  1.00  0.00     0.041 A 
HETATM    3  C9  UNL     1       7.102 -27.360  18.216  1.00  0.00     0.018 A 
HETATM    4  C10 UNL     1       6.787 -28.179  19.321  1.00  0.00     0.018 A 
HETATM    5  C12 UNL     1       7.457 -29.371  19.388  1.00  0.00     0.118 A 
HETATM    6  C13 UNL     1       8.406 -29.736  18.395  1.00  0.00     0.183 A 
HETATM    7  F1  UNL     1       9.026 -30.934  18.534  1.00  0.00    -0.200 F 
ENDROOT
BRANCH   1   8
HETATM    8  O1  UNL     1       9.620 -29.323  16.395  1.00  0.00    -0.336 OA
BRANCH   8   9
HETATM    9  C6  UNL     1       9.469 -29.048  15.017  1.00  0.00     0.269 C 
BRANCH   9  10
HETATM   10  C5  UNL     1       9.962 -27.696  14.759  1.00  0.00    -0.078 C 
HETATM   11  C4  UNL     1      10.357 -26.573  14.562  1.00  0.00    -0.079 C 
BRANCH  11  12
HETATM   12  C2  UNL     1      10.823 -25.196  14.342  1.00  0.00     0.093 C 
HETATM   13  C1  UNL     1       9.889 -24.251  15.108  1.00  0.00     0.046 C 
HETATM   14  C3  UNL     1      12.199 -24.996  14.945  1.00  0.00     0.046 C 
HETATM   15 CL1  UNL     1      10.794 -24.881  12.607  1.00  0.00    -0.106 Cl
ENDBRANCH  11  12
ENDBRANCH   9  10
ENDBRANCH   8   9
ENDBRANCH   1   8
BRANCH   5  16
HETATM   16  O3  UNL     1       7.250 -30.260  20.403  1.00  0.00    -0.357 OA
ATOM     17  H3  UNL     1       7.959 -30.770  20.777  1.00  0.00     0.218 HD
ENDBRANCH   5  16
BRANCH   4  18
HETATM   18  C11 UNL     1       5.800 -27.712  20.284  1.00  0.00     0.128 C 
HETATM   19  N1  UNL     1       4.838 -28.379  20.783  1.00  0.00    -0.280 N 
ATOM     20  H1  UNL     1       4.706 -29.351  20.506  1.00  0.00     0.193 HD
BRANCH  19  21
HETATM   21  O2  UNL     1       3.989 -27.819  21.674  1.00  0.00    -0.290 OA
ATOM     22  H2  UNL     1       3.360 -28.347  22.151  1.00  0.00     0.244 HD
ENDBRANCH  19  21
ENDBRANCH   4  18
TORSDOF 7
ENDMDL
MODEL 5
REMARK VINA RESULT: -7.065802994      2.038      2.505
REMARK  7 active torsions:
REMARK  status: ('A' for Active; 'I' for Inactive)
REMARK    1  A    between atoms: C2_2  and  C4_5 
REMARK    2  A    between atoms: C5_6  and  C6_7 
REMARK    3  A    between atoms: C6_7  and  O1_8 
REMARK    4  A    between atoms: O1_8  and  C7_9 
REMARK    5  A    between atoms: C10_12  and  C11_13 
REMARK    6  A    between atoms: N1_14  and  O2_16 
REMARK    7  A    between atoms: C12_18  and  O3_19 
ROOT
HETATM    1  C7  UNL     1       8.629 -28.854  16.624  1.00  0.00     0.111 A 
HETATM    2  C8  UNL     1       7.983 -27.643  16.656  1.00  0.00     0.041 A 
HETATM    3  C9  UNL     1       7.056 -27.352  17.619  1.00  0.00     0.018 A 
HETATM    4  C10 UNL     1       6.707 -28.268  18.634  1.00  0.00     0.018 A 
HETATM    5  C12 UNL     1       7.355 -29.473  18.596  1.00  0.00     0.118 A 
HETATM    6  C13 UNL     1       8.315 -29.758  17.587  1.00  0.00     0.183 A 
HETATM    7  F1  UNL     1       8.913 -30.975  17.619  1.00  0.00    -0.200 F 
ENDROOT
BRANCH   1   8
HETATM    8  O1  UNL     1       9.573 -29.176  15.658  1.00  0.00    -0.336 OA
BRANCH   8   9
HETATM    9  C6  UNL     1       9.481 -28.719  14.323  1.00  0.00     0.269 C 
BRANCH   9  10
HETATM   10  C5  UNL     1      10.019 -27.360  14.262  1.00  0.00    -0.078 C 
HETATM   11  C4  UNL     1      10.448 -26.233  14.226  1.00  0.00    -0.079 C 
BRANCH  11  12
HETATM   12  C2  UNL     1      10.954 -24.852  14.202  1.00  0.00     0.093 C 
HETATM   13  C1  UNL     1      12.398 -24.868  14.717  1.00  0.00     0.046 C 
HETATM   14  C3  UNL     1      11.027 -24.336  12.779  1.00  0.00     0.046 C 
HETATM   15 CL1  UNL     1       9.905 -23.870  15.224  1.00  0.00    -0.106 Cl
ENDBRANCH  11  12
ENDBRANCH   9  10
ENDBRANCH   8   9
ENDBRANCH   1   8
BRANCH   5  16
HETATM   16  O3  UNL     1       7.115 -30.453  19.515  1.00  0.00    -0.357 OA
ATOM     17  H3  UNL     1       6.464 -30.351  20.199  1.00  0.00     0.218 HD
ENDBRANCH   5  16
BRANCH   4  18
HETATM   18  C11 UNL     1       5.710 -27.878  19.621  1.00  0.00     0.128 C 
HETATM   19  N1  UNL     1       4.959 -28.648  20.299  1.00  0.00    -0.280 N 
ATOM     20  H1  UNL     1       5.029 -29.657  20.170  1.00  0.00     0.193 HD
BRANCH  19  21
HETATM   21  O2  UNL     1       4.071 -28.151  21.189  1.00  0.00    -0.290 OA
ATOM     22  H2  UNL     1       3.145 -28.102  20.983  1.00  0.00     0.244 HD
ENDBRANCH  19  21
ENDBRANCH   4  18
TORSDOF 7
ENDMDL
