MODEL 1
REMARK VINA RESULT: -6.602255933      0.000      0.000
REMARK  6 active torsions:
REMARK  status: ('A' for Active; 'I' for Inactive)
REMARK    1  A    between atoms: C2_2  and  C4_5 
REMARK    2  A    between atoms: C6_7  and  O1_8 
REMARK    3  A    between atoms: C7_10  and  N1_11 
REMARK    4  A    between atoms: N1_11  and  C8_12 
REMARK    5  A    between atoms: C8_12  and  C9_14 
REMARK    6  A    between atoms: C9_14  and  C10_15 
ROOT
HETATM    1  C4  UNL     1       6.666 -28.116  18.847  1.00  0.00     0.011 A 
HETATM    2  C5  UNL     1       6.073 -26.964  18.458  1.00  0.00     0.057 A 
HETATM    3  C6  UNL     1       6.624 -26.275  17.434  1.00  0.00     0.114 A 
HETATM    4  C7  UNL     1       7.759 -26.792  16.855  1.00  0.00     0.182 A 
HETATM    5  S1  UNL     1       7.989 -28.254  17.803  1.00  0.00    -0.058 SA
ENDROOT
BRANCH   4   6
HETATM    6  N1  UNL     1       8.566 -26.355  15.828  1.00  0.00    -0.387 NA
BRANCH   6   7
HETATM    7  C8  UNL     1       9.417 -26.143  15.078  1.00  0.00     0.164 C 
HETATM    8 CL2  UNL     1      10.121 -24.490  15.047  1.00  0.00    -0.053 Cl
BRANCH   7   9
HETATM    9  C9  UNL     1      10.026 -27.051  14.089  1.00  0.00     0.199 C 
BRANCH   9  10
HETATM   10  C10 UNL     1       9.576 -28.460  14.203  1.00  0.00     0.180 C 
HETATM   11  O2  UNL     1       8.765 -28.950  13.409  1.00  0.00    -0.648 OA
HETATM   12  O3  UNL     1      10.073 -29.254  15.237  1.00  0.00    -0.648 OA
ENDBRANCH   9  10
ENDBRANCH   7   9
ENDBRANCH   6   7
ENDBRANCH   4   6
BRANCH   3  13
HETATM   13  O1  UNL     1       6.017 -25.058  17.002  1.00  0.00    -0.357 OA
ATOM     14  H1  UNL     1       6.142 -24.767  16.106  1.00  0.00     0.218 HD
ENDBRANCH   3  13
BRANCH   1  15
HETATM   15  C2  UNL     1       6.202 -29.030  19.970  1.00  0.00     0.063 C 
HETATM   16  C1  UNL     1       5.358 -28.203  20.895  1.00  0.00     0.038 C 
HETATM   17  C3  UNL     1       5.452 -30.162  19.321  1.00  0.00     0.038 C 
HETATM   18 CL1  UNL     1       7.668 -29.605  20.753  1.00  0.00    -0.114 Cl
ENDBRANCH   1  15
TORSDOF 6
ENDMDL
MODEL 2
REMARK VINA RESULT: -6.491942706      2.055      2.393
REMARK  6 active torsions:
REMARK  status: ('A' for Active; 'I' for Inactive)
REMARK    1  A    between atoms: C2_2  and  C4_5 
REMARK    2  A    between atoms: C6_7  and  O1_8 
REMARK    3  A    between atoms: C7_10  and  N1_11 
REMARK    4  A    between atoms: N1_11  and  C8_12 
REMARK    5  A    between atoms: C8_12  and  C9_14 
REMARK    6  A    between atoms: C9_14  and  C10_15 
ROOT
HETATM    1  C4  UNL     1       6.680 -28.161  18.844  1.00  0.00     0.011 A 
HETATM    2  C5  UNL     1       6.092 -27.002  18.467  1.00  0.00     0.057 A 
HETATM    3  C6  UNL     1       6.643 -26.308  17.447  1.00  0.00     0.114 A 
HETATM    4  C7  UNL     1       7.772 -26.827  16.858  1.00  0.00     0.182 A 
HETATM    5  S1  UNL     1       7.998 -28.298  17.793  1.00  0.00    -0.058 SA
ENDROOT
BRANCH   4   6
HETATM    6  N1  UNL     1       8.577 -26.387  15.832  1.00  0.00    -0.387 NA
BRANCH   6   7
HETATM    7  C8  UNL     1       9.428 -25.995  15.159  1.00  0.00     0.164 C 
HETATM    8 CL2  UNL     1      10.225 -27.159  14.045  1.00  0.00    -0.053 Cl
BRANCH   7   9
HETATM    9  C9  UNL     1       9.997 -24.637  15.082  1.00  0.00     0.199 C 
BRANCH   9  10
HETATM   10  C10 UNL     1      11.214 -24.537  14.239  1.00  0.00     0.180 C 
HETATM   11  O2  UNL     1      12.346 -24.690  14.711  1.00  0.00    -0.648 OA
HETATM   12  O3  UNL     1      11.081 -24.256  12.879  1.00  0.00    -0.648 OA
ENDBRANCH   9  10
ENDBRANCH   7   9
ENDBRANCH   6   7
ENDBRANCH   4   6
BRANCH   3  13
HETATM   13  O1  UNL     1       6.042 -25.084  17.027  1.00  0.00    -0.357 OA
ATOM     14  H1  UNL     1       6.042 -24.339  17.616  1.00  0.00     0.218 HD
ENDBRANCH   3  13
BRANCH   1  15
HETATM   15  C2  UNL     1       6.215 -29.081  19.962  1.00  0.00     0.063 C 
HETATM   16  C1  UNL     1       5.355 -28.264  20.881  1.00  0.00     0.038 C 
HETATM   17  C3  UNL     1       5.483 -30.220  19.305  1.00  0.00     0.038 C 
HETATM   18 CL1  UNL     1       7.679 -29.642  20.758  1.00  0.00    -0.114 Cl
ENDBRANCH   1  15
TORSDOF 6
ENDMDL
MODEL 3
REMARK VINA RESULT: -6.362601281      3.255      6.061
REMARK  6 active torsions:
REMARK  status: ('A' for Active; 'I' for Inactive)
REMARK    1  A    between atoms: C2_2  and  C4_5 
REMARK    2  A    between atoms: C6_7  and  O1_8 
REMARK    3  A    between atoms: C7_10  and  N1_11 
REMARK    4  A    between atoms: N1_11  and  C8_12 
REMARK    5  A    between atoms: C8_12  and  C9_14 
REMARK    6  A    between atoms: C9_14  and  C10_15 
ROOT
HETATM    1  C4  UNL     1       8.763 -29.205  15.821  1.00  0.00     0.011 A 
HETATM    2  C5  UNL     1       8.716 -30.121  16.816  1.00  0.00     0.057 A 
HETATM    3  C6  UNL     1       8.249 -29.732  18.023  1.00  0.00     0.114 A 
HETATM    4  C7  UNL     1       7.853 -28.423  18.162  1.00  0.00     0.182 A 
HETATM    5  S1  UNL     1       8.163 -27.800  16.548  1.00  0.00    -0.058 SA
ENDROOT
BRANCH   4   6
HETATM    6  N1  UNL     1       7.354 -27.707  19.226  1.00  0.00    -0.387 NA
BRANCH   6   7
HETATM    7  C8  UNL     1       6.769 -27.301  20.135  1.00  0.00     0.164 C 
HETATM    8 CL2  UNL     1       7.280 -25.725  20.830  1.00  0.00    -0.053 Cl
BRANCH   7   9
HETATM    9  C9  UNL     1       5.635 -27.911  20.852  1.00  0.00     0.199 C 
BRANCH   9  10
HETATM   10  C10 UNL     1       4.732 -28.711  19.989  1.00  0.00     0.180 C 
HETATM   11  O2  UNL     1       3.618 -28.295  19.651  1.00  0.00    -0.648 OA
HETATM   12  O3  UNL     1       5.144 -29.970  19.550  1.00  0.00    -0.648 OA
ENDBRANCH   9  10
ENDBRANCH   7   9
ENDBRANCH   6   7
ENDBRANCH   4   6
BRANCH   3  13
HETATM   13  O1  UNL     1       8.187 -30.680  19.088  1.00  0.00    -0.357 OA
ATOM     14  H1  UNL     1       7.396 -31.191  19.211  1.00  0.00     0.218 HD
ENDBRANCH   3  13
BRANCH   1  15
HETATM   15  C2  UNL     1       9.252 -29.444  14.402  1.00  0.00     0.063 C 
HETATM   16  C1  UNL     1       8.053 -29.803  13.573  1.00  0.00     0.038 C 
HETATM   17  C3  UNL     1       9.932 -28.176  13.962  1.00  0.00     0.038 C 
HETATM   18 CL1  UNL     1      10.398 -30.774  14.511  1.00  0.00    -0.114 Cl
ENDBRANCH   1  15
TORSDOF 6
ENDMDL
MODEL 4
REMARK VINA RESULT: -6.353153733      3.119      6.038
REMARK  6 active torsions:
REMARK  status: ('A' for Active; 'I' for Inactive)
REMARK    1  A    between atoms: C2_2  and  C4_5 
REMARK    2  A    between atoms: C6_7  and  O1_8 
REMARK    3  A    between atoms: C7_10  and  N1_11 
REMARK    4  A    between atoms: N1_11  and  C8_12 
REMARK    5  A    between atoms: C8_12  and  C9_14 
REMARK    6  A    between atoms: C9_14  and  C10_15 
ROOT
HETATM    1  C4  UNL     1       8.828 -29.233  15.820  1.00  0.00     0.011 A 
HETATM    2  C5  UNL     1       8.803 -30.117  16.845  1.00  0.00     0.057 A 
HETATM    3  C6  UNL     1       8.364 -29.688  18.049  1.00  0.00     0.114 A 
HETATM    4  C7  UNL     1       7.974 -28.374  18.154  1.00  0.00     0.182 A 
HETATM    5  S1  UNL     1       8.248 -27.804  16.514  1.00  0.00    -0.058 SA
ENDROOT
BRANCH   4   6
HETATM    6  N1  UNL     1       7.501 -27.621  19.206  1.00  0.00    -0.387 NA
BRANCH   6   7
HETATM    7  C8  UNL     1       6.934 -27.182  20.110  1.00  0.00     0.164 C 
HETATM    8 CL2  UNL     1       7.462 -25.584  20.740  1.00  0.00    -0.053 Cl
BRANCH   7   9
HETATM    9  C9  UNL     1       5.812 -27.763  20.870  1.00  0.00     0.199 C 
BRANCH   9  10
HETATM   10  C10 UNL     1       4.916 -28.625  20.062  1.00  0.00     0.180 C 
HETATM   11  O2  UNL     1       3.794 -28.246  19.708  1.00  0.00    -0.648 OA
HETATM   12  O3  UNL     1       5.343 -29.902  19.696  1.00  0.00    -0.648 OA
ENDBRANCH   9  10
ENDBRANCH   7   9
ENDBRANCH   6   7
ENDBRANCH   4   6
BRANCH   3  13
HETATM   13  O1  UNL     1       8.324 -30.600  19.145  1.00  0.00    -0.357 OA
ATOM     14  H1  UNL     1       8.339 -30.263  20.033  1.00  0.00     0.218 HD
ENDBRANCH   3  13
BRANCH   1  15
HETATM   15  C2  UNL     1       9.284 -29.520  14.398  1.00  0.00     0.063 C 
HETATM   16  C1  UNL     1      10.249 -30.667  14.464  1.00  0.00     0.038 C 
HETATM   17  C3  UNL     1       8.043 -29.822  13.602  1.00  0.00     0.038 C 
HETATM   18 CL1  UNL     1      10.054 -28.042  13.837  1.00  0.00    -0.114 Cl
ENDBRANCH   1  15
TORSDOF 6
ENDMDL
MODEL 5
REMARK VINA RESULT: -6.277020794      3.215      6.087
REMARK  6 active torsions:
REMARK  status: ('A' for Active; 'I' for Inactive)
REMARK    1  A    between atoms: C2_2  and  C4_5 
REMARK    2  A    between atoms: C6_7  and  O1_8 
REMARK    3  A    between atoms: C7_10  and  N1_11 
REMARK    4  A    between atoms: N1_11  and  C8_12 
REMARK    5  A    between atoms: C8_12  and  C9_14 
REMARK    6  A    between atoms: C9_14  and  C10_15 
ROOT
HETATM    1  C4  UNL     1       8.771 -29.172  15.823  1.00  0.00     0.011 A 
HETATM    2  C5  UNL     1       8.704 -30.102  16.804  1.00  0.00     0.057 A 
HETATM    3  C6  UNL     1       8.229 -29.726  18.012  1.00  0.00     0.114 A 
HETATM    4  C7  UNL     1       7.844 -28.415  18.166  1.00  0.00     0.182 A 
HETATM    5  S1  UNL     1       8.178 -27.772  16.564  1.00  0.00    -0.058 SA
ENDROOT
BRANCH   4   6
HETATM    6  N1  UNL     1       7.342 -27.708  19.235  1.00  0.00    -0.387 NA
BRANCH   6   7
HETATM    7  C8  UNL     1       6.747 -27.306  20.138  1.00  0.00     0.164 C 
HETATM    8 CL2  UNL     1       7.239 -25.723  20.834  1.00  0.00    -0.053 Cl
BRANCH   7   9
HETATM    9  C9  UNL     1       5.614 -27.924  20.849  1.00  0.00     0.199 C 
BRANCH   9  10
HETATM   10  C10 UNL     1       4.708 -28.710  19.977  1.00  0.00     0.180 C 
HETATM   11  O2  UNL     1       3.596 -28.285  19.643  1.00  0.00    -0.648 OA
HETATM   12  O3  UNL     1       5.114 -29.966  19.525  1.00  0.00    -0.648 OA
ENDBRANCH   9  10
ENDBRANCH   7   9
ENDBRANCH   6   7
ENDBRANCH   4   6
BRANCH   3  13
HETATM   13  O1  UNL     1       8.145 -30.688  19.063  1.00  0.00    -0.357 OA
ATOM     14  H1  UNL     1       7.555 -30.532  19.791  1.00  0.00     0.218 HD
ENDBRANCH   3  13
BRANCH   1  15
HETATM   15  C2  UNL     1       9.272 -29.397  14.406  1.00  0.00     0.063 C 
HETATM   16  C1  UNL     1       9.901 -28.114  13.948  1.00  0.00     0.038 C 
HETATM   17  C3  UNL     1      10.235 -30.552  14.469  1.00  0.00     0.038 C 
HETATM   18 CL1  UNL     1       7.850 -29.808  13.456  1.00  0.00    -0.114 Cl
ENDBRANCH   1  15
TORSDOF 6
ENDMDL
