MODEL 1
REMARK VINA RESULT: -8.279028059      0.000      0.000
REMARK  9 active torsions:
REMARK  status: ('A' for Active; 'I' for Inactive)
REMARK    1  A    between atoms: C3_3  and  C4_4 
REMARK    2  A    between atoms: C4_4  and  O1_5 
REMARK    3  A    between atoms: O1_5  and  N1_6 
REMARK    4  A    between atoms: N1_6  and  C5_8 
REMARK    5  A    between atoms: C6_9  and  C7_10 
REMARK    6  A    between atoms: C7_10  and  C8_11 
REMARK    7  A    between atoms: C19_22  and  C20_23 
REMARK    8  A    between atoms: C20_23  and  O2_26 
REMARK    9  A    between atoms: C23_28  and  O3_29 
ROOT
HETATM    1  C1  UNL     1     -30.167 -16.340 -26.408  1.00  0.00     0.112 C 
HETATM    2  C2  UNL     1     -29.037 -15.919 -25.609  1.00  0.00    -0.109 C 
HETATM    3  C3  UNL     1     -28.071 -15.572 -25.050  1.00  0.00    -0.078 C 
ENDROOT
BRANCH   3   4
HETATM    4  C4  UNL     1     -26.790 -15.151 -24.303  1.00  0.00     0.294 C 
BRANCH   4   5
HETATM    5  O1  UNL     1     -27.213 -13.879 -23.934  1.00  0.00    -0.269 OA
BRANCH   5   6
HETATM    6  N1  UNL     1     -26.790 -12.678 -24.369  1.00  0.00    -0.277 N 
ATOM      7  H1  UNL     1     -26.328 -12.566 -25.272  1.00  0.00     0.193 HD
BRANCH   6   8
HETATM    8  C5  UNL     1     -27.002 -11.666 -23.575  1.00  0.00     0.114 C 
HETATM    9  C6  UNL     1     -27.660 -10.666 -23.004  1.00  0.00     0.019 C 
BRANCH   9  10
HETATM   10  C7  UNL     1     -29.167 -10.692 -22.938  1.00  0.00     0.007 C 
BRANCH  10  11
HETATM   11  C8  UNL     1     -29.792  -9.631 -23.017  1.00  0.00    -0.041 C 
HETATM   12  C9  UNL     1     -29.438  -8.408 -22.343  1.00  0.00     0.038 C 
HETATM   13  C10 UNL     1     -29.543  -7.359 -23.428  1.00  0.00     0.017 C 
HETATM   14  C11 UNL     1     -29.932  -8.209 -24.655  1.00  0.00     0.059 C 
HETATM   15  C12 UNL     1     -30.401  -7.592 -25.811  1.00  0.00    -0.064 C 
HETATM   16  C23 UNL     1     -30.868  -9.235 -23.926  1.00  0.00     0.115 C 
HETATM   17  C13 UNL     1     -30.841  -6.225 -25.645  1.00  0.00     0.000 C 
HETATM   18  C17 UNL     1     -31.275  -8.441 -26.725  1.00  0.00     0.043 C 
HETATM   19  C14 UNL     1     -31.634  -5.553 -26.444  1.00  0.00    -0.021 C 
HETATM   20  C15 UNL     1     -32.145  -6.374 -27.528  1.00  0.00     0.022 A 
HETATM   21  C16 UNL     1     -32.598  -7.628 -26.740  1.00  0.00     0.014 A 
HETATM   22  C24 UNL     1     -33.321  -7.009 -27.823  1.00  0.00    -0.035 A 
HETATM   23  C25 UNL     1     -34.622  -6.312 -27.560  1.00  0.00     0.016 C 
HETATM   24  C26 UNL     1     -33.378  -7.870 -29.093  1.00  0.00     0.016 C 
HETATM   25  C18 UNL     1     -31.556  -9.730 -26.137  1.00  0.00    -0.008 C 
HETATM   26  C19 UNL     1     -31.462 -10.176 -24.905  1.00  0.00    -0.011 C 
BRANCH  26  27
HETATM   27  C20 UNL     1     -31.860 -11.530 -24.557  1.00  0.00     0.077 C 
HETATM   28  C21 UNL     1     -31.041 -12.671 -24.934  1.00  0.00     0.050 C 
HETATM   29  C22 UNL     1     -33.216 -11.665 -25.526  1.00  0.00     0.050 C 
BRANCH  27  30
HETATM   30  O2  UNL     1     -32.415 -11.705 -23.327  1.00  0.00    -0.386 OA
ATOM     31  H2  UNL     1     -33.363 -11.749 -23.291  1.00  0.00     0.211 HD
ENDBRANCH  27  30
ENDBRANCH  26  27
BRANCH  16  32
HETATM   32  O3  UNL     1     -31.949  -8.610 -23.271  1.00  0.00    -0.380 OA
ATOM     33  H3  UNL     1     -32.773  -9.067 -23.388  1.00  0.00     0.211 HD
ENDBRANCH  16  32
ENDBRANCH  10  11
ENDBRANCH   9  10
ENDBRANCH   6   8
ENDBRANCH   5   6
ENDBRANCH   4   5
ENDBRANCH   3   4
TORSDOF 9
ENDMDL
MODEL 2
REMARK VINA RESULT: -7.902346595      2.621      4.839
REMARK  9 active torsions:
REMARK  status: ('A' for Active; 'I' for Inactive)
REMARK    1  A    between atoms: C3_3  and  C4_4 
REMARK    2  A    between atoms: C4_4  and  O1_5 
REMARK    3  A    between atoms: O1_5  and  N1_6 
REMARK    4  A    between atoms: N1_6  and  C5_8 
REMARK    5  A    between atoms: C6_9  and  C7_10 
REMARK    6  A    between atoms: C7_10  and  C8_11 
REMARK    7  A    between atoms: C19_22  and  C20_23 
REMARK    8  A    between atoms: C20_23  and  O2_26 
REMARK    9  A    between atoms: C23_28  and  O3_29 
ROOT
HETATM    1  C1  UNL     1     -29.385 -16.297 -25.455  1.00  0.00     0.112 C 
HETATM    2  C2  UNL     1     -30.226 -15.170 -25.113  1.00  0.00    -0.109 C 
HETATM    3  C3  UNL     1     -30.862 -14.211 -24.914  1.00  0.00    -0.078 C 
ENDROOT
BRANCH   3   4
HETATM    4  C4  UNL     1     -31.677 -12.935 -24.623  1.00  0.00     0.294 C 
BRANCH   4   5
HETATM    5  O1  UNL     1     -32.785 -13.560 -24.061  1.00  0.00    -0.269 OA
BRANCH   5   6
HETATM    6  N1  UNL     1     -33.642 -13.104 -23.130  1.00  0.00    -0.277 N 
ATOM      7  H1  UNL     1     -33.463 -13.219 -22.132  1.00  0.00     0.193 HD
BRANCH   6   8
HETATM    8  C5  UNL     1     -34.714 -12.508 -23.571  1.00  0.00     0.114 C 
HETATM    9  C6  UNL     1     -35.484 -11.516 -23.999  1.00  0.00     0.019 C 
BRANCH   9  10
HETATM   10  C7  UNL     1     -34.864 -10.306 -24.653  1.00  0.00     0.007 C 
BRANCH  10  11
HETATM   11  C8  UNL     1     -34.289 -10.435 -25.737  1.00  0.00    -0.041 C 
HETATM   12  C9  UNL     1     -34.654 -11.380 -26.762  1.00  0.00     0.038 C 
HETATM   13  C10 UNL     1     -34.655 -10.551 -28.027  1.00  0.00     0.017 C 
HETATM   14  C11 UNL     1     -34.302  -9.149 -27.489  1.00  0.00     0.059 C 
HETATM   15  C12 UNL     1     -33.927  -8.138 -28.369  1.00  0.00    -0.064 C 
HETATM   16  C23 UNL     1     -33.284  -9.587 -26.380  1.00  0.00     0.115 C 
HETATM   17  C13 UNL     1     -33.534  -8.582 -29.687  1.00  0.00     0.000 C 
HETATM   18  C17 UNL     1     -33.073  -7.018 -27.788  1.00  0.00     0.043 C 
HETATM   19  C14 UNL     1     -32.818  -7.915 -30.560  1.00  0.00    -0.021 C 
HETATM   20  C15 UNL     1     -32.337  -6.653 -30.024  1.00  0.00     0.022 A 
HETATM   21  C16 UNL     1     -31.788  -7.121 -28.654  1.00  0.00     0.014 A 
HETATM   22  C24 UNL     1     -31.154  -6.170 -29.533  1.00  0.00    -0.035 A 
HETATM   23  C25 UNL     1     -29.870  -6.519 -30.224  1.00  0.00     0.016 C 
HETATM   24  C26 UNL     1     -31.135  -4.739 -28.976  1.00  0.00     0.016 C 
HETATM   25  C18 UNL     1     -32.705  -7.292 -26.418  1.00  0.00    -0.008 C 
HETATM   26  C19 UNL     1     -32.709  -8.397 -25.709  1.00  0.00    -0.011 C 
BRANCH  26  27
HETATM   27  C20 UNL     1     -32.237  -8.416 -24.334  1.00  0.00     0.077 C 
HETATM   28  C21 UNL     1     -32.834  -7.558 -23.325  1.00  0.00     0.050 C 
HETATM   29  C22 UNL     1     -30.712  -7.769 -24.569  1.00  0.00     0.050 C 
BRANCH  27  30
HETATM   30  O2  UNL     1     -31.913  -9.634 -23.819  1.00  0.00    -0.386 OA
ATOM     31  H2  UNL     1     -31.541  -9.639 -22.945  1.00  0.00     0.211 HD
ENDBRANCH  27  30
ENDBRANCH  26  27
BRANCH  16  32
HETATM   32  O3  UNL     1     -32.194 -10.313 -26.901  1.00  0.00    -0.380 OA
ATOM     33  H3  UNL     1     -31.792  -9.897 -27.655  1.00  0.00     0.211 HD
ENDBRANCH  16  32
ENDBRANCH  10  11
ENDBRANCH   9  10
ENDBRANCH   6   8
ENDBRANCH   5   6
ENDBRANCH   4   5
ENDBRANCH   3   4
TORSDOF 9
ENDMDL
MODEL 3
REMARK VINA RESULT: -7.824041861      1.974      3.207
REMARK  9 active torsions:
REMARK  status: ('A' for Active; 'I' for Inactive)
REMARK    1  A    between atoms: C3_3  and  C4_4 
REMARK    2  A    between atoms: C4_4  and  O1_5 
REMARK    3  A    between atoms: O1_5  and  N1_6 
REMARK    4  A    between atoms: N1_6  and  C5_8 
REMARK    5  A    between atoms: C6_9  and  C7_10 
REMARK    6  A    between atoms: C7_10  and  C8_11 
REMARK    7  A    between atoms: C19_22  and  C20_23 
REMARK    8  A    between atoms: C20_23  and  O2_26 
REMARK    9  A    between atoms: C23_28  and  O3_29 
ROOT
HETATM    1  C1  UNL     1     -27.527 -12.588 -23.620  1.00  0.00     0.112 C 
HETATM    2  C2  UNL     1     -28.376 -13.597 -24.216  1.00  0.00    -0.109 C 
HETATM    3  C3  UNL     1     -29.083 -14.443 -24.603  1.00  0.00    -0.078 C 
ENDROOT
BRANCH   3   4
HETATM    4  C4  UNL     1     -29.985 -15.581 -25.121  1.00  0.00     0.294 C 
BRANCH   4   5
HETATM    5  O1  UNL     1     -31.123 -14.814 -25.341  1.00  0.00    -0.269 OA
BRANCH   5   6
HETATM    6  N1  UNL     1     -32.254 -14.736 -24.616  1.00  0.00    -0.277 N 
ATOM      7  H1  UNL     1     -32.919 -15.508 -24.573  1.00  0.00     0.193 HD
BRANCH   6   8
HETATM    8  C5  UNL     1     -32.455 -13.620 -23.973  1.00  0.00     0.114 C 
HETATM    9  C6  UNL     1     -32.226 -12.383 -23.552  1.00  0.00     0.019 C 
BRANCH   9  10
HETATM   10  C7  UNL     1     -31.392 -11.443 -24.385  1.00  0.00     0.007 C 
BRANCH  10  11
HETATM   11  C8  UNL     1     -31.100 -10.333 -23.932  1.00  0.00    -0.041 C 
HETATM   12  C9  UNL     1     -30.081 -10.083 -22.944  1.00  0.00     0.038 C 
HETATM   13  C10 UNL     1     -29.310  -8.913 -23.515  1.00  0.00     0.017 C 
HETATM   14  C11 UNL     1     -30.034  -8.680 -24.857  1.00  0.00     0.059 C 
HETATM   15  C12 UNL     1     -29.812  -7.509 -25.575  1.00  0.00    -0.064 C 
HETATM   16  C23 UNL     1     -31.494  -8.997 -24.380  1.00  0.00     0.115 C 
HETATM   17  C13 UNL     1     -29.206  -6.432 -24.826  1.00  0.00     0.000 C 
HETATM   18  C17 UNL     1     -30.918  -7.082 -26.533  1.00  0.00     0.043 C 
HETATM   19  C14 UNL     1     -29.219  -5.157 -25.133  1.00  0.00    -0.021 C 
HETATM   20  C15 UNL     1     -30.027  -4.884 -26.310  1.00  0.00     0.022 A 
HETATM   21  C16 UNL     1     -31.304  -5.689 -25.965  1.00  0.00     0.014 A 
HETATM   22  C24 UNL     1     -31.272  -4.377 -26.563  1.00  0.00    -0.035 A 
HETATM   23  C25 UNL     1     -31.754  -3.184 -25.792  1.00  0.00     0.016 C 
HETATM   24  C26 UNL     1     -31.760  -4.355 -28.019  1.00  0.00     0.016 C 
HETATM   25  C18 UNL     1     -32.074  -7.941 -26.418  1.00  0.00    -0.008 C 
HETATM   26  C19 UNL     1     -32.455  -8.787 -25.488  1.00  0.00    -0.011 C 
BRANCH  26  27
HETATM   27  C20 UNL     1     -33.712  -9.510 -25.592  1.00  0.00     0.077 C 
HETATM   28  C21 UNL     1     -33.845 -10.658 -26.473  1.00  0.00     0.050 C 
HETATM   29  C22 UNL     1     -34.639  -8.326 -26.323  1.00  0.00     0.050 C 
BRANCH  27  30
HETATM   30  O2  UNL     1     -34.407  -9.691 -24.435  1.00  0.00    -0.386 OA
ATOM     31  H2  UNL     1     -35.087  -9.056 -24.244  1.00  0.00     0.211 HD
ENDBRANCH  27  30
ENDBRANCH  26  27
BRANCH  16  32
HETATM   32  O3  UNL     1     -31.913  -8.158 -23.328  1.00  0.00    -0.380 OA
ATOM     33  H3  UNL     1     -32.668  -7.626 -23.550  1.00  0.00     0.211 HD
ENDBRANCH  16  32
ENDBRANCH  10  11
ENDBRANCH   9  10
ENDBRANCH   6   8
ENDBRANCH   5   6
ENDBRANCH   4   5
ENDBRANCH   3   4
TORSDOF 9
ENDMDL
MODEL 4
REMARK VINA RESULT: -7.689604606      2.248      4.214
REMARK  9 active torsions:
REMARK  status: ('A' for Active; 'I' for Inactive)
REMARK    1  A    between atoms: C3_3  and  C4_4 
REMARK    2  A    between atoms: C4_4  and  O1_5 
REMARK    3  A    between atoms: O1_5  and  N1_6 
REMARK    4  A    between atoms: N1_6  and  C5_8 
REMARK    5  A    between atoms: C6_9  and  C7_10 
REMARK    6  A    between atoms: C7_10  and  C8_11 
REMARK    7  A    between atoms: C19_22  and  C20_23 
REMARK    8  A    between atoms: C20_23  and  O2_26 
REMARK    9  A    between atoms: C23_28  and  O3_29 
ROOT
HETATM    1  C1  UNL     1     -27.593 -12.537 -23.679  1.00  0.00     0.112 C 
HETATM    2  C2  UNL     1     -28.556 -13.462 -24.235  1.00  0.00    -0.109 C 
HETATM    3  C3  UNL     1     -29.311 -14.272 -24.608  1.00  0.00    -0.078 C 
ENDROOT
BRANCH   3   4
HETATM    4  C4  UNL     1     -30.282 -15.352 -25.126  1.00  0.00     0.294 C 
BRANCH   4   5
HETATM    5  O1  UNL     1     -31.434 -14.574 -25.107  1.00  0.00    -0.269 OA
BRANCH   5   6
HETATM    6  N1  UNL     1     -32.476 -14.610 -24.256  1.00  0.00    -0.277 N 
ATOM      7  H1  UNL     1     -32.906 -15.489 -23.970  1.00  0.00     0.193 HD
BRANCH   6   8
HETATM    8  C5  UNL     1     -32.906 -13.460 -23.818  1.00  0.00     0.114 C 
HETATM    9  C6  UNL     1     -32.864 -12.183 -23.465  1.00  0.00     0.019 C 
BRANCH   9  10
HETATM   10  C7  UNL     1     -31.836 -11.264 -24.077  1.00  0.00     0.007 C 
BRANCH  10  11
HETATM   11  C8  UNL     1     -32.147 -10.577 -25.055  1.00  0.00    -0.041 C 
HETATM   12  C9  UNL     1     -32.967 -11.022 -26.153  1.00  0.00     0.038 C 
HETATM   13  C10 UNL     1     -33.957  -9.893 -26.339  1.00  0.00     0.017 C 
HETATM   14  C11 UNL     1     -33.546  -8.922 -25.213  1.00  0.00     0.059 C 
HETATM   15  C12 UNL     1     -34.031  -7.618 -25.207  1.00  0.00    -0.064 C 
HETATM   16  C23 UNL     1     -31.995  -9.140 -25.286  1.00  0.00     0.115 C 
HETATM   17  C13 UNL     1     -34.585  -7.159 -26.460  1.00  0.00     0.000 C 
HETATM   18  C17 UNL     1     -33.192  -6.587 -24.460  1.00  0.00     0.043 C 
HETATM   19  C14 UNL     1     -34.770  -5.914 -26.829  1.00  0.00    -0.021 C 
HETATM   20  C15 UNL     1     -34.249  -4.971 -25.855  1.00  0.00     0.022 A 
HETATM   21  C16 UNL     1     -32.851  -5.581 -25.593  1.00  0.00     0.014 A 
HETATM   22  C24 UNL     1     -33.141  -4.176 -25.736  1.00  0.00    -0.035 A 
HETATM   23  C25 UNL     1     -32.643  -3.420 -26.932  1.00  0.00     0.016 C 
HETATM   24  C26 UNL     1     -32.961  -3.377 -24.437  1.00  0.00     0.016 C 
HETATM   25  C18 UNL     1     -31.952  -7.159 -23.989  1.00  0.00    -0.008 C 
HETATM   26  C19 UNL     1     -31.305  -8.253 -24.320  1.00  0.00    -0.011 C 
BRANCH  26  27
HETATM   27  C20 UNL     1     -30.025  -8.587 -23.717  1.00  0.00     0.077 C 
HETATM   28  C21 UNL     1     -29.953  -9.185 -22.394  1.00  0.00     0.050 C 
HETATM   29  C22 UNL     1     -29.424  -7.041 -23.499  1.00  0.00     0.050 C 
BRANCH  27  30
HETATM   30  O2  UNL     1     -29.078  -9.106 -24.546  1.00  0.00    -0.386 OA
ATOM     31  H2  UNL     1     -28.186  -9.118 -24.218  1.00  0.00     0.211 HD
ENDBRANCH  27  30
ENDBRANCH  26  27
BRANCH  16  32
HETATM   32  O3  UNL     1     -31.465  -8.833 -26.555  1.00  0.00    -0.380 OA
ATOM     33  H3  UNL     1     -31.281  -9.603 -27.081  1.00  0.00     0.211 HD
ENDBRANCH  16  32
ENDBRANCH  10  11
ENDBRANCH   9  10
ENDBRANCH   6   8
ENDBRANCH   5   6
ENDBRANCH   4   5
ENDBRANCH   3   4
TORSDOF 9
ENDMDL
MODEL 5
REMARK VINA RESULT: -7.653712329      3.038      6.305
REMARK  9 active torsions:
REMARK  status: ('A' for Active; 'I' for Inactive)
REMARK    1  A    between atoms: C3_3  and  C4_4 
REMARK    2  A    between atoms: C4_4  and  O1_5 
REMARK    3  A    between atoms: O1_5  and  N1_6 
REMARK    4  A    between atoms: N1_6  and  C5_8 
REMARK    5  A    between atoms: C6_9  and  C7_10 
REMARK    6  A    between atoms: C7_10  and  C8_11 
REMARK    7  A    between atoms: C19_22  and  C20_23 
REMARK    8  A    between atoms: C20_23  and  O2_26 
REMARK    9  A    between atoms: C23_28  and  O3_29 
ROOT
HETATM    1  C1  UNL     1     -33.556  -7.666 -31.049  1.00  0.00     0.112 C 
HETATM    2  C2  UNL     1     -32.555  -8.336 -30.247  1.00  0.00    -0.109 C 
HETATM    3  C3  UNL     1     -31.684  -8.800 -29.621  1.00  0.00    -0.078 C 
ENDROOT
BRANCH   3   4
HETATM    4  C4  UNL     1     -30.528  -9.435 -28.824  1.00  0.00     0.294 C 
BRANCH   4   5
HETATM    5  O1  UNL     1     -30.383  -8.418 -27.887  1.00  0.00    -0.269 OA
BRANCH   5   6
HETATM    6  N1  UNL     1     -29.819  -7.204 -28.022  1.00  0.00    -0.277 N 
ATOM      7  H1  UNL     1     -28.830  -7.094 -28.247  1.00  0.00     0.193 HD
BRANCH   6   8
HETATM    8  C5  UNL     1     -30.603  -6.177 -27.850  1.00  0.00     0.114 C 
HETATM    9  C6  UNL     1     -31.557  -5.434 -27.306  1.00  0.00     0.019 C 
BRANCH   9  10
HETATM   10  C7  UNL     1     -31.931  -5.626 -25.857  1.00  0.00     0.007 C 
BRANCH  10  11
HETATM   11  C8  UNL     1     -32.891  -6.348 -25.572  1.00  0.00    -0.041 C 
HETATM   12  C9  UNL     1     -34.239  -6.159 -26.045  1.00  0.00     0.038 C 
HETATM   13  C10 UNL     1     -34.654  -7.540 -26.502  1.00  0.00     0.017 C 
HETATM   14  C11 UNL     1     -33.374  -8.359 -26.238  1.00  0.00     0.059 C 
HETATM   15  C12 UNL     1     -33.419  -9.750 -26.264  1.00  0.00    -0.064 C 
HETATM   16  C23 UNL     1     -32.928  -7.653 -24.911  1.00  0.00     0.115 C 
HETATM   17  C13 UNL     1     -34.741 -10.327 -26.166  1.00  0.00     0.000 C 
HETATM   18  C17 UNL     1     -32.342 -10.477 -25.468  1.00  0.00     0.043 C 
HETATM   19  C14 UNL     1     -35.039 -11.554 -25.812  1.00  0.00    -0.021 C 
HETATM   20  C15 UNL     1     -33.865 -12.307 -25.405  1.00  0.00     0.022 A 
HETATM   21  C16 UNL     1     -33.194 -11.288 -24.453  1.00  0.00     0.014 A 
HETATM   22  C24 UNL     1     -33.304 -12.707 -24.224  1.00  0.00    -0.035 A 
HETATM   23  C25 UNL     1     -34.183 -13.228 -23.127  1.00  0.00     0.016 C 
HETATM   24  C26 UNL     1     -31.956 -13.442 -24.277  1.00  0.00     0.016 C 
HETATM   25  C18 UNL     1     -31.525  -9.551 -24.718  1.00  0.00    -0.008 C 
HETATM   26  C19 UNL     1     -31.709  -8.298 -24.369  1.00  0.00    -0.011 C 
BRANCH  26  27
HETATM   27  C20 UNL     1     -30.734  -7.589 -23.556  1.00  0.00     0.077 C 
HETATM   28  C21 UNL     1     -29.607  -6.903 -24.167  1.00  0.00     0.050 C 
HETATM   29  C22 UNL     1     -30.042  -8.894 -22.773  1.00  0.00     0.050 C 
BRANCH  27  30
HETATM   30  O2  UNL     1     -31.221  -6.891 -22.493  1.00  0.00    -0.386 OA
ATOM     31  H2  UNL     1     -31.072  -7.268 -21.634  1.00  0.00     0.211 HD
ENDBRANCH  27  30
ENDBRANCH  26  27
BRANCH  16  32
HETATM   32  O3  UNL     1     -33.905  -7.737 -23.898  1.00  0.00    -0.380 OA
ATOM     33  H3  UNL     1     -33.947  -8.592 -23.487  1.00  0.00     0.211 HD
ENDBRANCH  16  32
ENDBRANCH  10  11
ENDBRANCH   9  10
ENDBRANCH   6   8
ENDBRANCH   5   6
ENDBRANCH   4   5
ENDBRANCH   3   4
TORSDOF 9
ENDMDL
