MODEL 1
REMARK VINA RESULT: -7.947463363      0.000      0.000
REMARK  5 active torsions:
REMARK  status: ('A' for Active; 'I' for Inactive)
REMARK    1  A    between atoms: C2_2  and  C3_3 
REMARK    2  A    between atoms: C3_3  and  O1_4 
REMARK    3  A    between atoms: C3_3  and  C4_6 
REMARK    4  A    between atoms: C5_7  and  C6_8 
REMARK    5  A    between atoms: C18_21  and  O3_22 
ROOT
HETATM    1  C6  UNL     1     -33.345 -10.168 -25.623  1.00  0.00     0.181 C 
HETATM    2  C7  UNL     1     -34.015 -10.772 -26.863  1.00  0.00     0.084 C 
HETATM    3  O2  UNL     1     -34.033  -8.911 -25.471  1.00  0.00    -0.341 OA
HETATM    4  C8  UNL     1     -33.335  -8.050 -26.279  1.00  0.00     0.174 C 
HETATM    5  C9  UNL     1     -33.947  -6.950 -26.977  1.00  0.00    -0.043 A 
HETATM    6  C10 UNL     1     -33.905  -6.884 -28.424  1.00  0.00    -0.063 A 
HETATM    7  C11 UNL     1     -34.561  -5.850 -27.651  1.00  0.00     0.072 A 
HETATM    8  C12 UNL     1     -33.289  -7.845 -29.292  1.00  0.00     0.033 C 
HETATM    9  C13 UNL     1     -33.529  -7.292 -30.737  1.00  0.00     0.019 C 
HETATM   10  C14 UNL     1     -31.894  -8.289 -29.175  1.00  0.00    -0.022 C 
HETATM   11  C15 UNL     1     -30.978  -7.741 -28.181  1.00  0.00    -0.022 C 
HETATM   12  C16 UNL     1     -30.459  -8.416 -27.006  1.00  0.00     0.046 C 
HETATM   13  C17 UNL     1     -29.463  -7.356 -26.487  1.00  0.00     0.043 C 
HETATM   14  C18 UNL     1     -30.208  -6.109 -26.129  1.00  0.00     0.120 C 
HETATM   15  C19 UNL     1     -31.580  -6.318 -25.607  1.00  0.00     0.055 C 
HETATM   16  C20 UNL     1     -32.110  -7.687 -25.479  1.00  0.00     0.085 C 
HETATM   17  C21 UNL     1     -32.252  -7.812 -24.009  1.00  0.00     0.141 C 
HETATM   18  O4  UNL     1     -33.217  -7.597 -23.301  1.00  0.00    -0.297 OA
HETATM   19  C22 UNL     1     -30.930  -8.275 -23.514  1.00  0.00     0.082 C 
HETATM   20  C23 UNL     1     -30.460  -9.178 -24.618  1.00  0.00     0.047 C 
HETATM   21  C24 UNL     1     -31.272  -8.867 -25.836  1.00  0.00     0.089 C 
HETATM   22  O5  UNL     1     -32.055  -9.970 -26.032  1.00  0.00    -0.339 OA
ENDROOT
BRANCH   1  23
HETATM   23  C5  UNL     1     -33.594 -11.020 -24.464  1.00  0.00     0.039 C 
HETATM   24  C4  UNL     1     -32.733 -12.003 -23.864  1.00  0.00     0.006 C 
BRANCH  24  25
HETATM   25  C3  UNL     1     -32.236 -13.250 -24.452  1.00  0.00     0.140 C 
BRANCH  25  26
HETATM   26  C2  UNL     1     -30.775 -13.437 -24.651  1.00  0.00     0.031 C 
HETATM   27  C1  UNL     1     -30.398 -14.859 -25.026  1.00  0.00     0.008 C 
ENDBRANCH  25  26
BRANCH  25  28
HETATM   28  O1  UNL     1     -32.779 -14.438 -23.901  1.00  0.00    -0.392 OA
ATOM     29  H1  UNL     1     -32.288 -14.667 -23.120  1.00  0.00     0.210 HD
ENDBRANCH  25  28
ENDBRANCH  24  25
ENDBRANCH   1  23
BRANCH  14  30
HETATM   30  O3  UNL     1     -29.358  -5.437 -25.204  1.00  0.00    -0.396 OA
ATOM     31  H3  UNL     1     -29.187  -4.593 -25.606  1.00  0.00     0.210 HD
ENDBRANCH  14  30
TORSDOF 5
ENDMDL
MODEL 2
REMARK VINA RESULT: -7.919755361      1.482      1.893
REMARK  5 active torsions:
REMARK  status: ('A' for Active; 'I' for Inactive)
REMARK    1  A    between atoms: C2_2  and  C3_3 
REMARK    2  A    between atoms: C3_3  and  O1_4 
REMARK    3  A    between atoms: C3_3  and  C4_6 
REMARK    4  A    between atoms: C5_7  and  C6_8 
REMARK    5  A    between atoms: C18_21  and  O3_22 
ROOT
HETATM    1  C6  UNL     1     -32.843 -10.110 -25.328  1.00  0.00     0.181 C 
HETATM    2  C7  UNL     1     -33.445 -10.848 -26.530  1.00  0.00     0.084 C 
HETATM    3  O2  UNL     1     -33.696  -8.954 -25.206  1.00  0.00    -0.341 OA
HETATM    4  C8  UNL     1     -33.138  -8.038 -26.060  1.00  0.00     0.174 C 
HETATM    5  C9  UNL     1     -33.909  -7.061 -26.784  1.00  0.00    -0.043 A 
HETATM    6  C10 UNL     1     -33.901  -7.046 -28.233  1.00  0.00    -0.063 A 
HETATM    7  C11 UNL     1     -34.680  -6.083 -27.483  1.00  0.00     0.072 A 
HETATM    8  C12 UNL     1     -33.173  -7.946 -29.080  1.00  0.00     0.033 C 
HETATM    9  C13 UNL     1     -33.512  -7.487 -30.538  1.00  0.00     0.019 C 
HETATM   10  C14 UNL     1     -31.728  -8.189 -28.978  1.00  0.00    -0.022 C 
HETATM   11  C15 UNL     1     -30.880  -7.482 -28.024  1.00  0.00    -0.022 C 
HETATM   12  C16 UNL     1     -30.252  -8.033 -26.838  1.00  0.00     0.046 C 
HETATM   13  C17 UNL     1     -29.404  -6.826 -26.380  1.00  0.00     0.043 C 
HETATM   14  C18 UNL     1     -30.308  -5.680 -26.050  1.00  0.00     0.120 C 
HETATM   15  C19 UNL     1     -31.629  -6.056 -25.491  1.00  0.00     0.055 C 
HETATM   16  C20 UNL     1     -31.961  -7.479 -25.301  1.00  0.00     0.085 C 
HETATM   17  C21 UNL     1     -32.060  -7.565 -23.825  1.00  0.00     0.141 C 
HETATM   18  O4  UNL     1     -33.033  -7.458 -23.105  1.00  0.00    -0.297 OA
HETATM   19  C22 UNL     1     -30.678  -7.822 -23.344  1.00  0.00     0.082 C 
HETATM   20  C23 UNL     1     -30.107  -8.694 -24.425  1.00  0.00     0.047 C 
HETATM   21  C24 UNL     1     -30.975  -8.546 -25.634  1.00  0.00     0.089 C 
HETATM   22  O5  UNL     1     -31.601  -9.753 -25.773  1.00  0.00    -0.339 OA
ENDROOT
BRANCH   1  23
HETATM   23  C5  UNL     1     -32.952 -10.943 -24.134  1.00  0.00     0.039 C 
HETATM   24  C4  UNL     1     -33.781 -12.095 -23.909  1.00  0.00     0.006 C 
BRANCH  24  25
HETATM   25  C3  UNL     1     -35.246 -12.163 -23.873  1.00  0.00     0.140 C 
BRANCH  25  26
HETATM   26  C2  UNL     1     -35.921 -12.858 -22.746  1.00  0.00     0.031 C 
HETATM   27  C1  UNL     1     -34.965 -13.282 -21.646  1.00  0.00     0.008 C 
ENDBRANCH  25  26
BRANCH  25  28
HETATM   28  O1  UNL     1     -35.914 -10.938 -24.123  1.00  0.00    -0.392 OA
ATOM     29  H1  UNL     1     -36.674 -11.108 -24.666  1.00  0.00     0.210 HD
ENDBRANCH  25  28
ENDBRANCH  24  25
ENDBRANCH   1  23
BRANCH  14  30
HETATM   30  O3  UNL     1     -29.543  -4.862 -25.170  1.00  0.00    -0.396 OA
ATOM     31  H3  UNL     1     -28.697  -5.291 -25.120  1.00  0.00     0.210 HD
ENDBRANCH  14  30
TORSDOF 5
ENDMDL
MODEL 3
REMARK VINA RESULT: -7.704361485      2.203      4.499
REMARK  5 active torsions:
REMARK  status: ('A' for Active; 'I' for Inactive)
REMARK    1  A    between atoms: C2_2  and  C3_3 
REMARK    2  A    between atoms: C3_3  and  O1_4 
REMARK    3  A    between atoms: C3_3  and  C4_6 
REMARK    4  A    between atoms: C5_7  and  C6_8 
REMARK    5  A    between atoms: C18_21  and  O3_22 
ROOT
HETATM    1  C6  UNL     1     -32.228 -10.294 -25.052  1.00  0.00     0.181 C 
HETATM    2  C7  UNL     1     -31.335 -10.482 -23.819  1.00  0.00     0.084 C 
HETATM    3  O2  UNL     1     -31.305  -9.795 -26.040  1.00  0.00    -0.341 OA
HETATM    4  C8  UNL     1     -31.294  -8.440 -25.830  1.00  0.00     0.174 C 
HETATM    5  C9  UNL     1     -30.134  -7.617 -26.048  1.00  0.00    -0.043 A 
HETATM    6  C10 UNL     1     -29.551  -6.864 -24.955  1.00  0.00    -0.063 A 
HETATM    7  C11 UNL     1     -28.983  -6.805 -26.286  1.00  0.00     0.072 A 
HETATM    8  C12 UNL     1     -30.023  -6.845 -23.601  1.00  0.00     0.033 C 
HETATM    9  C13 UNL     1     -29.045  -5.880 -22.850  1.00  0.00     0.019 C 
HETATM   10  C14 UNL     1     -31.403  -6.527 -23.212  1.00  0.00    -0.022 C 
HETATM   11  C15 UNL     1     -32.422  -6.142 -24.182  1.00  0.00    -0.022 C 
HETATM   12  C16 UNL     1     -33.565  -6.929 -24.606  1.00  0.00     0.046 C 
HETATM   13  C17 UNL     1     -34.293  -5.907 -25.506  1.00  0.00     0.043 C 
HETATM   14  C18 UNL     1     -33.410  -5.541 -26.658  1.00  0.00     0.120 C 
HETATM   15  C19 UNL     1     -32.521  -6.624 -27.143  1.00  0.00     0.055 C 
HETATM   16  C20 UNL     1     -32.556  -7.943 -26.489  1.00  0.00     0.085 C 
HETATM   17  C21 UNL     1     -33.081  -8.800 -27.578  1.00  0.00     0.141 C 
HETATM   18  O4  UNL     1     -32.482  -9.458 -28.406  1.00  0.00    -0.297 OA
HETATM   19  C22 UNL     1     -34.561  -8.710 -27.482  1.00  0.00     0.082 C 
HETATM   20  C23 UNL     1     -34.792  -8.611 -26.002  1.00  0.00     0.047 C 
HETATM   21  C24 UNL     1     -33.497  -8.215 -25.366  1.00  0.00     0.089 C 
HETATM   22  O5  UNL     1     -33.097  -9.314 -24.659  1.00  0.00    -0.339 OA
ENDROOT
BRANCH   1  23
HETATM   23  C5  UNL     1     -32.765 -11.585 -25.472  1.00  0.00     0.039 C 
HETATM   24  C4  UNL     1     -34.134 -12.022 -25.522  1.00  0.00     0.006 C 
BRANCH  24  25
HETATM   25  C3  UNL     1     -35.068 -12.197 -24.406  1.00  0.00     0.140 C 
BRANCH  25  26
HETATM   26  C2  UNL     1     -34.619 -12.902 -23.176  1.00  0.00     0.031 C 
HETATM   27  C1  UNL     1     -35.738 -13.131 -22.176  1.00  0.00     0.008 C 
ENDBRANCH  25  26
BRANCH  25  28
HETATM   28  O1  UNL     1     -35.787 -11.035 -24.031  1.00  0.00    -0.392 OA
ATOM     29  H1  UNL     1     -36.334 -10.763 -24.759  1.00  0.00     0.210 HD
ENDBRANCH  25  28
ENDBRANCH  24  25
ENDBRANCH   1  23
BRANCH  14  30
HETATM   30  O3  UNL     1     -34.305  -5.065 -27.659  1.00  0.00    -0.396 OA
ATOM     31  H3  UNL     1     -34.380  -5.785 -28.274  1.00  0.00     0.210 HD
ENDBRANCH  14  30
TORSDOF 5
ENDMDL
MODEL 4
REMARK VINA RESULT: -7.682522152      1.892      4.181
REMARK  5 active torsions:
REMARK  status: ('A' for Active; 'I' for Inactive)
REMARK    1  A    between atoms: C2_2  and  C3_3 
REMARK    2  A    between atoms: C3_3  and  O1_4 
REMARK    3  A    between atoms: C3_3  and  C4_6 
REMARK    4  A    between atoms: C5_7  and  C6_8 
REMARK    5  A    between atoms: C18_21  and  O3_22 
ROOT
HETATM    1  C6  UNL     1     -31.349  -9.729 -24.096  1.00  0.00     0.181 C 
HETATM    2  C7  UNL     1     -30.175  -9.434 -23.154  1.00  0.00     0.084 C 
HETATM    3  O2  UNL     1     -30.756  -9.576 -25.400  1.00  0.00    -0.341 OA
HETATM    4  C8  UNL     1     -30.870  -8.235 -25.663  1.00  0.00     0.174 C 
HETATM    5  C9  UNL     1     -29.910  -7.498 -26.441  1.00  0.00    -0.043 A 
HETATM    6  C10 UNL     1     -29.188  -6.385 -25.855  1.00  0.00    -0.063 A 
HETATM    7  C11 UNL     1     -28.961  -6.779 -27.230  1.00  0.00     0.072 A 
HETATM    8  C12 UNL     1     -29.327  -5.907 -24.511  1.00  0.00     0.033 C 
HETATM    9  C13 UNL     1     -28.334  -4.702 -24.409  1.00  0.00     0.019 C 
HETATM   10  C14 UNL     1     -30.607  -5.526 -23.898  1.00  0.00    -0.022 C 
HETATM   11  C15 UNL     1     -31.866  -5.548 -24.634  1.00  0.00    -0.022 C 
HETATM   12  C16 UNL     1     -32.965  -6.478 -24.455  1.00  0.00     0.046 C 
HETATM   13  C17 UNL     1     -34.010  -5.869 -25.417  1.00  0.00     0.043 C 
HETATM   14  C18 UNL     1     -33.476  -5.900 -26.814  1.00  0.00     0.120 C 
HETATM   15  C19 UNL     1     -32.594  -7.050 -27.130  1.00  0.00     0.055 C 
HETATM   16  C20 UNL     1     -32.304  -8.053 -26.090  1.00  0.00     0.085 C 
HETATM   17  C21 UNL     1     -32.956  -9.259 -26.654  1.00  0.00     0.141 C 
HETATM   18  O4  UNL     1     -32.488 -10.144 -27.343  1.00  0.00    -0.297 OA
HETATM   19  C22 UNL     1     -34.371  -9.198 -26.204  1.00  0.00     0.082 C 
HETATM   20  C23 UNL     1     -34.259  -8.591 -24.836  1.00  0.00     0.047 C 
HETATM   21  C24 UNL     1     -32.913  -7.946 -24.734  1.00  0.00     0.089 C 
HETATM   22  O5  UNL     1     -32.220  -8.708 -23.835  1.00  0.00    -0.339 OA
ENDROOT
BRANCH   1  23
HETATM   23  C5  UNL     1     -31.798 -11.105 -23.906  1.00  0.00     0.039 C 
HETATM   24  C4  UNL     1     -31.026 -12.268 -23.563  1.00  0.00     0.006 C 
BRANCH  24  25
HETATM   25  C3  UNL     1     -29.964 -12.910 -24.343  1.00  0.00     0.140 C 
BRANCH  25  26
HETATM   26  C2  UNL     1     -28.551 -12.788 -23.898  1.00  0.00     0.031 C 
HETATM   27  C1  UNL     1     -27.698 -13.986 -24.276  1.00  0.00     0.008 C 
ENDBRANCH  25  26
BRANCH  25  28
HETATM   28  O1  UNL     1     -30.213 -14.256 -24.711  1.00  0.00    -0.392 OA
ATOM     29  H1  UNL     1     -30.832 -14.268 -25.432  1.00  0.00     0.210 HD
ENDBRANCH  25  28
ENDBRANCH  24  25
ENDBRANCH   1  23
BRANCH  14  30
HETATM   30  O3  UNL     1     -34.634  -5.845 -27.642  1.00  0.00    -0.396 OA
ATOM     31  H3  UNL     1     -35.039  -6.699 -27.544  1.00  0.00     0.210 HD
ENDBRANCH  14  30
TORSDOF 5
ENDMDL
MODEL 5
REMARK VINA RESULT: -7.628275354      2.074      4.201
REMARK  5 active torsions:
REMARK  status: ('A' for Active; 'I' for Inactive)
REMARK    1  A    between atoms: C2_2  and  C3_3 
REMARK    2  A    between atoms: C3_3  and  O1_4 
REMARK    3  A    between atoms: C3_3  and  C4_6 
REMARK    4  A    between atoms: C5_7  and  C6_8 
REMARK    5  A    between atoms: C18_21  and  O3_22 
ROOT
HETATM    1  C6  UNL     1     -30.799  -7.669 -24.862  1.00  0.00     0.181 C 
HETATM    2  C7  UNL     1     -29.900  -6.462 -25.158  1.00  0.00     0.084 C 
HETATM    3  O2  UNL     1     -30.300  -8.668 -25.773  1.00  0.00    -0.341 OA
HETATM    4  C8  UNL     1     -30.986  -8.429 -26.936  1.00  0.00     0.174 C 
HETATM    5  C9  UNL     1     -30.429  -8.658 -28.243  1.00  0.00    -0.043 A 
HETATM    6  C10 UNL     1     -30.287  -7.564 -29.183  1.00  0.00    -0.063 A 
HETATM    7  C11 UNL     1     -29.873  -8.907 -29.535  1.00  0.00     0.072 A 
HETATM    8  C12 UNL     1     -30.657  -6.199 -28.946  1.00  0.00     0.033 C 
HETATM    9  C13 UNL     1     -30.298  -5.451 -30.274  1.00  0.00     0.019 C 
HETATM   10  C14 UNL     1     -31.989  -5.770 -28.500  1.00  0.00    -0.022 C 
HETATM   11  C15 UNL     1     -33.089  -6.707 -28.306  1.00  0.00    -0.022 C 
HETATM   12  C16 UNL     1     -33.672  -7.121 -27.042  1.00  0.00     0.046 C 
HETATM   13  C17 UNL     1     -34.852  -7.982 -27.544  1.00  0.00     0.043 C 
HETATM   14  C18 UNL     1     -34.323  -9.146 -28.321  1.00  0.00     0.120 C 
HETATM   15  C19 UNL     1     -33.017  -9.675 -27.859  1.00  0.00     0.055 C 
HETATM   16  C20 UNL     1     -32.342  -9.048 -26.710  1.00  0.00     0.085 C 
HETATM   17  C21 UNL     1     -32.382 -10.143 -25.711  1.00  0.00     0.141 C 
HETATM   18  O4  UNL     1     -31.554 -10.997 -25.464  1.00  0.00    -0.297 OA
HETATM   19  C22 UNL     1     -33.690 -10.009 -25.019  1.00  0.00     0.082 C 
HETATM   20  C23 UNL     1     -33.892  -8.522 -24.976  1.00  0.00     0.047 C 
HETATM   21  C24 UNL     1     -32.971  -7.909 -25.983  1.00  0.00     0.089 C 
HETATM   22  O5  UNL     1     -32.037  -7.235 -25.246  1.00  0.00    -0.339 OA
ENDROOT
BRANCH   1  23
HETATM   23  C5  UNL     1     -30.601  -8.103 -23.482  1.00  0.00     0.039 C 
HETATM   24  C4  UNL     1     -29.550  -8.916 -22.933  1.00  0.00     0.006 C 
BRANCH  24  25
HETATM   25  C3  UNL     1     -29.241 -10.317 -23.231  1.00  0.00     0.140 C 
BRANCH  25  26
HETATM   26  C2  UNL     1     -27.940 -10.891 -22.797  1.00  0.00     0.031 C 
HETATM   27  C1  UNL     1     -27.598 -12.195 -23.495  1.00  0.00     0.008 C 
ENDBRANCH  25  26
BRANCH  25  28
HETATM   28  O1  UNL     1     -30.272 -11.242 -22.929  1.00  0.00    -0.392 OA
ATOM     29  H1  UNL     1     -30.250 -11.435 -21.999  1.00  0.00     0.210 HD
ENDBRANCH  25  28
ENDBRANCH  24  25
ENDBRANCH   1  23
BRANCH  14  30
HETATM   30  O3  UNL     1     -35.366 -10.115 -28.269  1.00  0.00    -0.396 OA
ATOM     31  H3  UNL     1     -35.069 -10.751 -27.629  1.00  0.00     0.210 HD
ENDBRANCH  14  30
TORSDOF 5
ENDMDL
