MODEL 1
REMARK VINA RESULT: -7.666940699      0.000      0.000
REMARK  8 active torsions:
REMARK  status: ('A' for Active; 'I' for Inactive)
REMARK    1  A    between atoms: N1_2  and  C2_4 
REMARK    2  A    between atoms: C2_4  and  N2_6 
REMARK    3  A    between atoms: C3_7  and  C4_8 
REMARK    4  A    between atoms: C7_14  and  C8_15 
REMARK    5  A    between atoms: C12_20  and  C13_21 
REMARK    6  A    between atoms: C16_24  and  N3_25 
REMARK       I    between atoms: N3_25  and  C17_27 
REMARK    7  A    between atoms: C17_27  and  C18_29 
REMARK    8  A    between atoms: C18_29  and  N4_31 
ROOT
HETATM    1  N2  UNL     1       4.880 -20.524  44.132  1.00  0.00    -0.309 N 
HETATM    2  C3  UNL     1       5.504 -21.502  45.085  1.00  0.00     0.193 C 
HETATM    3  C5  UNL     1       6.570 -20.906  45.927  1.00  0.00     0.071 C 
HETATM    4  C6  UNL     1       6.191 -19.585  46.537  1.00  0.00     0.156 C 
HETATM    5  O3  UNL     1       5.031 -19.155  45.908  1.00  0.00    -0.350 OA
HETATM    6  C7  UNL     1       5.212 -19.178  44.486  1.00  0.00     0.164 C 
HETATM    7  C11 UNL     1       6.617 -18.882  44.061  1.00  0.00     0.230 C 
HETATM    8  O4  UNL     1       7.603 -18.709  44.957  1.00  0.00    -0.378 OA
HETATM    9  C12 UNL     1       7.205 -18.504  46.242  1.00  0.00     0.154 C 
ENDROOT
BRANCH   9  10
HETATM   10  C13 UNL     1       8.287 -18.348  47.241  1.00  0.00     0.017 C 
HETATM   11  C14 UNL     1       8.403 -16.841  47.519  1.00  0.00     0.009 C 
HETATM   12  C15 UNL     1       9.717 -16.557  48.170  1.00  0.00     0.026 C 
HETATM   13  C16 UNL     1      10.078 -17.773  49.025  1.00  0.00     0.084 C 
HETATM   14  C21 UNL     1      10.514 -18.908  48.111  1.00  0.00     0.026 C 
HETATM   15  C22 UNL     1       9.624 -18.886  46.875  1.00  0.00     0.009 C 
BRANCH  13  16
HETATM   16  N3  UNL     1      11.173 -17.386  49.872  1.00  0.00    -0.355 N 
HETATM   17  C17 UNL     1      11.550 -18.197  50.957  1.00  0.00     0.248 C 
HETATM   18  O5  UNL     1      10.922 -19.260  51.182  1.00  0.00    -0.271 OA
ATOM     19  H3  UNL     1      11.677 -16.520  49.686  1.00  0.00     0.162 HD
BRANCH  17  20
HETATM   20  C18 UNL     1      12.685 -17.806  51.843  1.00  0.00     0.272 C 
HETATM   21  C19 UNL     1      13.935 -18.471  51.307  1.00  0.00     0.050 C 
BRANCH  20  22
HETATM   22  N4  UNL     1      12.815 -16.378  51.951  1.00  0.00    -0.067 N 
HETATM   23  C20 UNL     1      13.040 -16.000  53.322  1.00  0.00     0.267 C 
ATOM     24  H42 UNL     1      13.540 -16.015  51.332  1.00  0.00     0.277 HD
ATOM     25  H41 UNL     1      12.015 -15.892  51.549  1.00  0.00     0.277 HD
ENDBRANCH  20  22
ENDBRANCH  17  20
ENDBRANCH  13  16
ENDBRANCH   9  10
BRANCH   2  26
HETATM   26  C4  UNL     1       4.435 -22.073  45.962  1.00  0.00     0.197 C 
HETATM   27  O1  UNL     1       4.736 -22.857  46.889  1.00  0.00    -0.646 OA
HETATM   28  O2  UNL     1       3.097 -21.764  45.791  1.00  0.00    -0.646 OA
ENDBRANCH   2  26
BRANCH   6  29
HETATM   29  C8  UNL     1       4.366 -18.046  44.014  1.00  0.00     0.036 C 
HETATM   30  C9  UNL     1       4.592 -17.618  42.587  1.00  0.00     0.014 C 
HETATM   31  C10 UNL     1       4.019 -16.972  44.976  1.00  0.00     0.014 C 
ENDBRANCH   6  29
BRANCH   1  32
HETATM   32  C2  UNL     1       4.137 -21.123  43.131  1.00  0.00     0.172 C 
HETATM   33  S1  UNL     1       5.058 -21.972  41.988  1.00  0.00    -0.041 SA
BRANCH  32  34
HETATM   34  N1  UNL     1       2.769 -21.170  42.837  1.00  0.00    -0.371 N 
HETATM   35  C1  UNL     1       2.331 -20.492  41.577  1.00  0.00     0.148 C 
ATOM     36  H1  UNL     1       2.106 -21.642  43.450  1.00  0.00     0.161 HD
ENDBRANCH  32  34
ENDBRANCH   1  32
TORSDOF 8
ENDMDL
MODEL 2
REMARK VINA RESULT: -7.663608562      4.023      9.473
REMARK  8 active torsions:
REMARK  status: ('A' for Active; 'I' for Inactive)
REMARK    1  A    between atoms: N1_2  and  C2_4 
REMARK    2  A    between atoms: C2_4  and  N2_6 
REMARK    3  A    between atoms: C3_7  and  C4_8 
REMARK    4  A    between atoms: C7_14  and  C8_15 
REMARK    5  A    between atoms: C12_20  and  C13_21 
REMARK    6  A    between atoms: C16_24  and  N3_25 
REMARK       I    between atoms: N3_25  and  C17_27 
REMARK    7  A    between atoms: C17_27  and  C18_29 
REMARK    8  A    between atoms: C18_29  and  N4_31 
ROOT
HETATM    1  N2  UNL     1      12.583 -19.288  49.356  1.00  0.00    -0.309 N 
HETATM    2  C3  UNL     1      12.595 -17.798  49.175  1.00  0.00     0.193 C 
HETATM    3  C5  UNL     1      11.382 -17.277  48.498  1.00  0.00     0.071 C 
HETATM    4  C6  UNL     1      10.097 -17.836  49.044  1.00  0.00     0.156 C 
HETATM    5  O3  UNL     1      10.426 -18.909  49.860  1.00  0.00    -0.350 OA
HETATM    6  C7  UNL     1      11.272 -19.820  49.146  1.00  0.00     0.164 C 
HETATM    7  C11 UNL     1      10.982 -19.875  47.677  1.00  0.00     0.230 C 
HETATM    8  O4  UNL     1      10.075 -19.063  47.108  1.00  0.00    -0.378 OA
HETATM    9  C12 UNL     1       9.225 -18.433  47.964  1.00  0.00     0.154 C 
ENDROOT
BRANCH   9  10
HETATM   10  C13 UNL     1       8.246 -17.510  47.346  1.00  0.00     0.017 C 
HETATM   11  C14 UNL     1       8.223 -17.847  45.847  1.00  0.00     0.009 C 
HETATM   12  C15 UNL     1       7.603 -16.715  45.095  1.00  0.00     0.026 C 
HETATM   13  C16 UNL     1       6.549 -16.082  46.004  1.00  0.00     0.084 C 
HETATM   14  C21 UNL     1       7.251 -15.281  47.090  1.00  0.00     0.026 C 
HETATM   15  C22 UNL     1       8.490 -16.054  47.521  1.00  0.00     0.009 C 
BRANCH  13  16
HETATM   16  N3  UNL     1       5.758 -15.202  45.188  1.00  0.00    -0.355 N 
HETATM   17  C17 UNL     1       4.530 -15.638  44.660  1.00  0.00     0.248 C 
HETATM   18  O5  UNL     1       4.130 -16.803  44.905  1.00  0.00    -0.271 OA
ATOM     19  H3  UNL     1       6.089 -14.258  44.991  1.00  0.00     0.162 HD
BRANCH  17  20
HETATM   20  C18 UNL     1       3.699 -14.734  43.813  1.00  0.00     0.272 C 
HETATM   21  C19 UNL     1       3.463 -15.432  42.491  1.00  0.00     0.050 C 
BRANCH  20  22
HETATM   22  N4  UNL     1       2.477 -14.355  44.470  1.00  0.00    -0.067 N 
HETATM   23  C20 UNL     1       1.342 -14.731  43.668  1.00  0.00     0.267 C 
ATOM     24  H42 UNL     1       2.419 -14.736  45.414  1.00  0.00     0.277 HD
ATOM     25  H41 UNL     1       2.464 -13.363  44.706  1.00  0.00     0.277 HD
ENDBRANCH  20  22
ENDBRANCH  17  20
ENDBRANCH  13  16
ENDBRANCH   9  10
BRANCH   2  26
HETATM   26  C4  UNL     1      12.738 -17.148  50.515  1.00  0.00     0.197 C 
HETATM   27  O1  UNL     1      13.086 -15.950  50.598  1.00  0.00    -0.646 OA
HETATM   28  O2  UNL     1      12.495 -17.830  51.694  1.00  0.00    -0.646 OA
ENDBRANCH   2  26
BRANCH   6  29
HETATM   29  C8  UNL     1      10.900 -21.148  49.712  1.00  0.00     0.036 C 
HETATM   30  C9  UNL     1      11.657 -22.326  49.156  1.00  0.00     0.014 C 
HETATM   31  C10 UNL     1       9.484 -21.390  50.080  1.00  0.00     0.014 C 
ENDBRANCH   6  29
BRANCH   1  32
HETATM   32  C2  UNL     1      13.820 -19.818  49.672  1.00  0.00     0.172 C 
HETATM   33  S1  UNL     1      14.737 -20.307  48.333  1.00  0.00    -0.041 SA
BRANCH  32  34
HETATM   34  N1  UNL     1      14.490 -20.060  50.878  1.00  0.00    -0.371 N 
HETATM   35  C1  UNL     1      15.800 -19.363  51.069  1.00  0.00     0.148 C 
ATOM     36  H1  UNL     1      14.104 -20.680  51.589  1.00  0.00     0.161 HD
ENDBRANCH  32  34
ENDBRANCH   1  32
TORSDOF 8
ENDMDL
MODEL 3
REMARK VINA RESULT: -7.539144895      2.252      3.799
REMARK  8 active torsions:
REMARK  status: ('A' for Active; 'I' for Inactive)
REMARK    1  A    between atoms: N1_2  and  C2_4 
REMARK    2  A    between atoms: C2_4  and  N2_6 
REMARK    3  A    between atoms: C3_7  and  C4_8 
REMARK    4  A    between atoms: C7_14  and  C8_15 
REMARK    5  A    between atoms: C12_20  and  C13_21 
REMARK    6  A    between atoms: C16_24  and  N3_25 
REMARK       I    between atoms: N3_25  and  C17_27 
REMARK    7  A    between atoms: C17_27  and  C18_29 
REMARK    8  A    between atoms: C18_29  and  N4_31 
ROOT
HETATM    1  N2  UNL     1       2.794 -20.779  42.902  1.00  0.00    -0.309 N 
HETATM    2  C3  UNL     1       2.586 -19.641  43.859  1.00  0.00     0.193 C 
HETATM    3  C5  UNL     1       3.634 -19.553  44.906  1.00  0.00     0.071 C 
HETATM    4  C6  UNL     1       5.034 -19.682  44.374  1.00  0.00     0.156 C 
HETATM    5  O3  UNL     1       4.940 -20.130  43.063  1.00  0.00    -0.350 OA
HETATM    6  C7  UNL     1       4.120 -21.305  43.010  1.00  0.00     0.164 C 
HETATM    7  C11 UNL     1       4.222 -22.158  44.237  1.00  0.00     0.230 C 
HETATM    8  O4  UNL     1       4.949 -21.777  45.301  1.00  0.00    -0.378 OA
HETATM    9  C12 UNL     1       5.823 -20.757  45.086  1.00  0.00     0.154 C 
ENDROOT
BRANCH   9  10
HETATM   10  C13 UNL     1       6.601 -20.308  46.263  1.00  0.00     0.017 C 
HETATM   11  C14 UNL     1       8.073 -20.281  45.820  1.00  0.00     0.009 C 
HETATM   12  C15 UNL     1       8.952 -20.257  47.027  1.00  0.00     0.026 C 
HETATM   13  C16 UNL     1       8.212 -19.485  48.120  1.00  0.00     0.084 C 
HETATM   14  C21 UNL     1       7.092 -20.357  48.668  1.00  0.00     0.026 C 
HETATM   15  C22 UNL     1       6.475 -21.119  47.502  1.00  0.00     0.009 C 
BRANCH  13  16
HETATM   16  N3  UNL     1       9.162 -19.207  49.162  1.00  0.00    -0.355 N 
HETATM   17  C17 UNL     1       9.981 -18.066  49.088  1.00  0.00     0.248 C 
HETATM   18  O5  UNL     1       9.877 -17.294  48.104  1.00  0.00    -0.271 OA
ATOM     19  H3  UNL     1       9.242 -19.839  49.958  1.00  0.00     0.162 HD
BRANCH  17  20
HETATM   20  C18 UNL     1      10.970 -17.766  50.164  1.00  0.00     0.272 C 
HETATM   21  C19 UNL     1      11.505 -19.086  50.676  1.00  0.00     0.050 C 
BRANCH  20  22
HETATM   22  N4  UNL     1      12.008 -16.882  49.708  1.00  0.00    -0.067 N 
HETATM   23  C20 UNL     1      12.981 -16.676  50.749  1.00  0.00     0.267 C 
ATOM     24  H42 UNL     1      12.439 -17.215  48.845  1.00  0.00     0.277 HD
ATOM     25  H41 UNL     1      11.632 -16.002  49.359  1.00  0.00     0.277 HD
ENDBRANCH  20  22
ENDBRANCH  17  20
ENDBRANCH  13  16
ENDBRANCH   9  10
BRANCH   2  26
HETATM   26  C4  UNL     1       2.543 -18.360  43.086  1.00  0.00     0.197 C 
HETATM   27  O1  UNL     1       1.989 -17.352  43.574  1.00  0.00    -0.646 OA
HETATM   28  O2  UNL     1       3.104 -18.240  41.827  1.00  0.00    -0.646 OA
ENDBRANCH   2  26
BRANCH   6  29
HETATM   29  C8  UNL     1       4.712 -22.085  41.887  1.00  0.00     0.036 C 
HETATM   30  C9  UNL     1       4.282 -23.527  41.800  1.00  0.00     0.014 C 
HETATM   31  C10 UNL     1       6.105 -21.788  41.475  1.00  0.00     0.014 C 
ENDBRANCH   6  29
BRANCH   1  32
HETATM   32  C2  UNL     1       1.677 -21.075  42.142  1.00  0.00     0.172 C 
HETATM   33  S1  UNL     1       0.776 -22.396  42.705  1.00  0.00    -0.041 SA
BRANCH  32  34
HETATM   34  N1  UNL     1       1.124 -20.524  40.980  1.00  0.00    -0.371 N 
HETATM   35  C1  UNL     1       0.634 -21.491  39.948  1.00  0.00     0.148 C 
ATOM     36  H1  UNL     1       1.060 -19.516  40.843  1.00  0.00     0.161 HD
ENDBRANCH  32  34
ENDBRANCH   1  32
TORSDOF 8
ENDMDL
MODEL 4
REMARK VINA RESULT: -7.494884694      5.352     11.017
REMARK  8 active torsions:
REMARK  status: ('A' for Active; 'I' for Inactive)
REMARK    1  A    between atoms: N1_2  and  C2_4 
REMARK    2  A    between atoms: C2_4  and  N2_6 
REMARK    3  A    between atoms: C3_7  and  C4_8 
REMARK    4  A    between atoms: C7_14  and  C8_15 
REMARK    5  A    between atoms: C12_20  and  C13_21 
REMARK    6  A    between atoms: C16_24  and  N3_25 
REMARK       I    between atoms: N3_25  and  C17_27 
REMARK    7  A    between atoms: C17_27  and  C18_29 
REMARK    8  A    between atoms: C18_29  and  N4_31 
ROOT
HETATM    1  N2  UNL     1       4.541 -16.186  43.653  1.00  0.00    -0.309 N 
HETATM    2  C3  UNL     1       3.306 -15.940  42.833  1.00  0.00     0.193 C 
HETATM    3  C5  UNL     1       2.648 -17.187  42.372  1.00  0.00     0.071 C 
HETATM    4  C6  UNL     1       2.495 -18.225  43.449  1.00  0.00     0.156 C 
HETATM    5  O3  UNL     1       3.273 -17.823  44.526  1.00  0.00    -0.350 OA
HETATM    6  C7  UNL     1       4.609 -17.548  44.083  1.00  0.00     0.164 C 
HETATM    7  C11 UNL     1       5.047 -18.413  42.941  1.00  0.00     0.230 C 
HETATM    8  O4  UNL     1       4.209 -19.284  42.355  1.00  0.00    -0.378 OA
HETATM    9  C12 UNL     1       3.069 -19.563  43.044  1.00  0.00     0.154 C 
ENDROOT
BRANCH   9  10
HETATM   10  C13 UNL     1       2.124 -20.495  42.387  1.00  0.00     0.017 C 
HETATM   11  C14 UNL     1       2.579 -21.912  42.773  1.00  0.00     0.009 C 
HETATM   12  C15 UNL     1       1.965 -22.900  41.836  1.00  0.00     0.026 C 
HETATM   13  C16 UNL     1       0.596 -22.356  41.425  1.00  0.00     0.084 C 
HETATM   14  C21 UNL     1       0.796 -21.206  40.449  1.00  0.00     0.026 C 
HETATM   15  C22 UNL     1       2.004 -20.401  40.908  1.00  0.00     0.009 C 
BRANCH  13  16
HETATM   16  N3  UNL     1      -0.109 -23.426  40.775  1.00  0.00    -0.355 N 
HETATM   17  C17 UNL     1      -1.037 -24.201  41.493  1.00  0.00     0.248 C 
HETATM   18  O5  UNL     1      -1.244 -23.953  42.705  1.00  0.00    -0.271 OA
ATOM     19  H3  UNL     1       0.065 -23.624  39.790  1.00  0.00     0.162 HD
BRANCH  17  20
HETATM   20  C18 UNL     1      -1.776 -25.314  40.828  1.00  0.00     0.272 C 
HETATM   21  C19 UNL     1      -1.029 -26.598  41.117  1.00  0.00     0.050 C 
BRANCH  20  22
HETATM   22  N4  UNL     1      -3.153 -25.366  41.240  1.00  0.00    -0.067 N 
HETATM   23  C20 UNL     1      -3.638 -26.720  41.191  1.00  0.00     0.267 C 
ATOM     24  H42 UNL     1      -3.292 -24.944  42.158  1.00  0.00     0.277 HD
ATOM     25  H41 UNL     1      -3.737 -24.732  40.694  1.00  0.00     0.277 HD
ENDBRANCH  20  22
ENDBRANCH  17  20
ENDBRANCH  13  16
ENDBRANCH   9  10
BRANCH   2  26
HETATM   26  C4  UNL     1       2.340 -15.135  43.644  1.00  0.00     0.197 C 
HETATM   27  O1  UNL     1       1.132 -15.097  43.323  1.00  0.00    -0.646 OA
HETATM   28  O2  UNL     1       2.732 -14.416  44.759  1.00  0.00    -0.646 OA
ENDBRANCH   2  26
BRANCH   6  29
HETATM   29  C8  UNL     1       5.443 -17.924  45.259  1.00  0.00     0.036 C 
HETATM   30  C9  UNL     1       6.921 -18.050  44.993  1.00  0.00     0.014 C 
HETATM   31  C10 UNL     1       4.874 -18.854  46.264  1.00  0.00     0.014 C 
ENDBRANCH   6  29
BRANCH   1  32
HETATM   32  C2  UNL     1       5.336 -15.065  43.805  1.00  0.00     0.172 C 
HETATM   33  S1  UNL     1       6.290 -14.692  42.454  1.00  0.00    -0.041 SA
BRANCH  32  34
HETATM   34  N1  UNL     1       5.545 -14.162  44.855  1.00  0.00    -0.371 N 
HETATM   35  C1  UNL     1       5.943 -14.747  46.173  1.00  0.00     0.148 C 
ATOM     36  H1  UNL     1       5.431 -13.157  44.727  1.00  0.00     0.161 HD
ENDBRANCH  32  34
ENDBRANCH   1  32
TORSDOF 8
ENDMDL
MODEL 5
REMARK VINA RESULT: -7.480725371      2.873      4.343
REMARK  8 active torsions:
REMARK  status: ('A' for Active; 'I' for Inactive)
REMARK    1  A    between atoms: N1_2  and  C2_4 
REMARK    2  A    between atoms: C2_4  and  N2_6 
REMARK    3  A    between atoms: C3_7  and  C4_8 
REMARK    4  A    between atoms: C7_14  and  C8_15 
REMARK    5  A    between atoms: C12_20  and  C13_21 
REMARK    6  A    between atoms: C16_24  and  N3_25 
REMARK       I    between atoms: N3_25  and  C17_27 
REMARK    7  A    between atoms: C17_27  and  C18_29 
REMARK    8  A    between atoms: C18_29  and  N4_31 
ROOT
HETATM    1  N2  UNL     1       3.966 -16.401  43.787  1.00  0.00    -0.309 N 
HETATM    2  C3  UNL     1       5.019 -15.485  44.340  1.00  0.00     0.193 C 
HETATM    3  C5  UNL     1       5.921 -16.145  45.316  1.00  0.00     0.071 C 
HETATM    4  C6  UNL     1       6.426 -17.487  44.861  1.00  0.00     0.156 C 
HETATM    5  O3  UNL     1       5.676 -17.859  43.754  1.00  0.00    -0.350 OA
HETATM    6  C7  UNL     1       4.279 -17.770  44.063  1.00  0.00     0.164 C 
HETATM    7  C11 UNL     1       3.965 -18.076  45.495  1.00  0.00     0.230 C 
HETATM    8  O4  UNL     1       4.936 -18.313  46.393  1.00  0.00    -0.378 OA
HETATM    9  C12 UNL     1       6.168 -18.573  45.878  1.00  0.00     0.154 C 
ENDROOT
BRANCH   9  10
HETATM   10  C13 UNL     1       7.250 -18.802  46.863  1.00  0.00     0.017 C 
HETATM   11  C14 UNL     1       8.569 -18.738  46.076  1.00  0.00     0.009 C 
HETATM   12  C15 UNL     1       9.657 -19.367  46.883  1.00  0.00     0.026 C 
HETATM   13  C16 UNL     1       9.347 -19.103  48.357  1.00  0.00     0.084 C 
HETATM   14  C21 UNL     1       8.195 -19.999  48.786  1.00  0.00     0.026 C 
HETATM   15  C22 UNL     1       7.199 -20.070  47.637  1.00  0.00     0.009 C 
BRANCH  13  16
HETATM   16  N3  UNL     1      10.526 -19.439  49.107  1.00  0.00    -0.355 N 
HETATM   17  C17 UNL     1      11.367 -18.425  49.597  1.00  0.00     0.248 C 
HETATM   18  O5  UNL     1      11.081 -17.223  49.374  1.00  0.00    -0.271 OA
ATOM     19  H3  UNL     1      10.754 -20.418  49.283  1.00  0.00     0.162 HD
BRANCH  17  20
HETATM   20  C18 UNL     1      12.594 -18.761  50.377  1.00  0.00     0.272 C 
HETATM   21  C19 UNL     1      12.300 -18.485  51.836  1.00  0.00     0.050 C 
BRANCH  20  22
HETATM   22  N4  UNL     1      13.027 -20.112  50.141  1.00  0.00    -0.067 N 
HETATM   23  C20 UNL     1      14.462 -20.195  50.210  1.00  0.00     0.267 C 
ATOM     24  H42 UNL     1      12.576 -20.772  50.774  1.00  0.00     0.277 HD
ATOM     25  H41 UNL     1      12.666 -20.478  49.260  1.00  0.00     0.277 HD
ENDBRANCH  20  22
ENDBRANCH  17  20
ENDBRANCH  13  16
ENDBRANCH   9  10
BRANCH   2  26
HETATM   26  C4  UNL     1       5.826 -14.935  43.207  1.00  0.00     0.197 C 
HETATM   27  O1  UNL     1       6.714 -14.082  43.425  1.00  0.00    -0.646 OA
HETATM   28  O2  UNL     1       5.630 -15.338  41.898  1.00  0.00    -0.646 OA
ENDBRANCH   2  26
BRANCH   6  29
HETATM   29  C8  UNL     1       3.677 -18.858  43.243  1.00  0.00     0.036 C 
HETATM   30  C9  UNL     1       3.302 -20.108  43.998  1.00  0.00     0.014 C 
HETATM   31  C10 UNL     1       4.158 -19.049  41.854  1.00  0.00     0.014 C 
ENDBRANCH   6  29
BRANCH   1  32
HETATM   32  C2  UNL     1       2.935 -15.737  43.148  1.00  0.00     0.172 C 
HETATM   33  S1  UNL     1       2.117 -14.613  44.118  1.00  0.00    -0.041 SA
BRANCH  32  34
HETATM   34  N1  UNL     1       2.395 -15.802  41.858  1.00  0.00    -0.371 N 
HETATM   35  C1  UNL     1       1.140 -16.601  41.695  1.00  0.00     0.148 C 
ATOM     36  H1  UNL     1       2.835 -15.328  41.069  1.00  0.00     0.161 HD
ENDBRANCH  32  34
ENDBRANCH   1  32
TORSDOF 8
ENDMDL
