MODEL 1
REMARK VINA RESULT: -8.532920620      0.000      0.000
REMARK  10 active torsions:
REMARK  status: ('A' for Active; 'I' for Inactive)
REMARK    1  A    between atoms: O1_1  and  C1_3 
REMARK    2  A    between atoms: C1_3  and  N1_4 
REMARK    3  A    between atoms: C1_3  and  O3_25 
REMARK    4  A    between atoms: N1_4  and  C2_6 
REMARK    5  A    between atoms: C2_6  and  C3_7 
REMARK    6  A    between atoms: C2_6  and  C10_14 
REMARK    7  A    between atoms: C10_14  and  O2_15 
REMARK    8  A    between atoms: C10_14  and  N2_17 
REMARK    9  A    between atoms: N2_17  and  C11_19 
REMARK   10  A    between atoms: O3_25  and  C17_26 
ROOT
HETATM    1  C2  UNL     1       5.245 -27.998 -11.147  1.00  0.00     0.164 C 
ENDROOT
BRANCH   1   2
HETATM    2  N1  UNL     1       5.837 -29.363 -11.165  1.00  0.00    -0.338 N 
ATOM      3  H1  UNL     1       6.298 -29.707 -12.007  1.00  0.00     0.164 HD
BRANCH   2   4
HETATM    4  C1  UNL     1       5.761 -30.184 -10.018  1.00  0.00     0.259 C 
BRANCH   4   5
HETATM    5  O1  UNL     1       6.908 -30.722  -9.657  1.00  0.00    -0.327 OA
ATOM      6  H1  UNL     1       6.921 -31.672  -9.677  1.00  0.00     0.221 HD
ENDBRANCH   4   5
BRANCH   4   7
HETATM    7  O3  UNL     1       4.722 -30.525  -9.226  1.00  0.00    -0.308 OA
BRANCH   7   8
HETATM    8  C17 UNL     1       3.712 -31.435  -9.620  1.00  0.00     0.172 C 
HETATM    9  C18 UNL     1       3.974 -32.870  -9.303  1.00  0.00     0.204 C 
HETATM   10  O4  UNL     1       3.102 -33.256  -8.314  1.00  0.00    -0.358 OA
HETATM   11  C19 UNL     1       2.030 -32.413  -8.283  1.00  0.00     0.274 C 
HETATM   12  O5  UNL     1       0.927 -32.949  -8.899  1.00  0.00    -0.353 OA
HETATM   13  C22 UNL     1       2.394 -31.130  -8.999  1.00  0.00     0.144 C 
HETATM   14  C20 UNL     1       0.191 -31.859  -9.407  1.00  0.00     0.250 C 
HETATM   15  C21 UNL     1       1.286 -31.039  -9.979  1.00  0.00     0.162 C 
HETATM   16  O6  UNL     1       1.249 -30.436 -11.025  1.00  0.00    -0.295 OA
ENDBRANCH   7   8
ENDBRANCH   4   7
ENDBRANCH   2   4
ENDBRANCH   1   2
BRANCH   1  17
HETATM   17  C3  UNL     1       6.134 -27.168 -12.079  1.00  0.00     0.016 C 
HETATM   18  C4  UNL     1       5.608 -25.842 -12.371  1.00  0.00     0.007 C 
HETATM   19  C5  UNL     1       6.014 -25.348 -13.789  1.00  0.00     0.000 C 
HETATM   20  C6  UNL     1       7.433 -25.696 -14.021  1.00  0.00     0.000 C 
HETATM   21  C7  UNL     1       8.251 -25.253 -12.840  1.00  0.00     0.000 C 
HETATM   22  C8  UNL     1       8.545 -26.340 -11.884  1.00  0.00     0.000 C 
HETATM   23  C9  UNL     1       7.463 -27.138 -11.334  1.00  0.00     0.007 C 
ENDBRANCH   1  17
BRANCH   1  24
HETATM   24  C10 UNL     1       3.811 -27.948 -11.371  1.00  0.00     0.135 C 
BRANCH  24  25
HETATM   25  O2  UNL     1       3.025 -28.004 -10.232  1.00  0.00    -0.348 OA
ATOM     26  H2  UNL     1       2.116 -27.751 -10.348  1.00  0.00     0.219 HD
ENDBRANCH  24  25
BRANCH  24  27
HETATM   27  N2  UNL     1       3.254 -28.739 -12.392  1.00  0.00    -0.368 N 
ATOM     28  H2  UNL     1       3.214 -29.752 -12.285  1.00  0.00     0.161 HD
BRANCH  27  29
HETATM   29  C11 UNL     1       2.751 -28.134 -13.567  1.00  0.00     0.083 C 
HETATM   30  C12 UNL     1       1.545 -28.845 -14.124  1.00  0.00     0.025 C 
HETATM   31  C13 UNL     1       1.161 -28.172 -15.433  1.00  0.00     0.002 C 
HETATM   32  C14 UNL     1       0.884 -26.728 -15.251  1.00  0.00     0.000 C 
HETATM   33  C15 UNL     1       2.013 -26.015 -14.521  1.00  0.00     0.002 C 
HETATM   34  C16 UNL     1       2.212 -26.713 -13.199  1.00  0.00     0.025 C 
ENDBRANCH  27  29
ENDBRANCH  24  27
ENDBRANCH   1  24
TORSDOF 10
ENDMDL
MODEL 2
REMARK VINA RESULT: -8.414757544      2.151      5.797
REMARK  10 active torsions:
REMARK  status: ('A' for Active; 'I' for Inactive)
REMARK    1  A    between atoms: O1_1  and  C1_3 
REMARK    2  A    between atoms: C1_3  and  N1_4 
REMARK    3  A    between atoms: C1_3  and  O3_25 
REMARK    4  A    between atoms: N1_4  and  C2_6 
REMARK    5  A    between atoms: C2_6  and  C3_7 
REMARK    6  A    between atoms: C2_6  and  C10_14 
REMARK    7  A    between atoms: C10_14  and  O2_15 
REMARK    8  A    between atoms: C10_14  and  N2_17 
REMARK    9  A    between atoms: N2_17  and  C11_19 
REMARK   10  A    between atoms: O3_25  and  C17_26 
ROOT
HETATM    1  C2  UNL     1       4.605 -27.590 -11.778  1.00  0.00     0.164 C 
ENDROOT
BRANCH   1   2
HETATM    2  N1  UNL     1       3.912 -26.832 -10.701  1.00  0.00    -0.338 N 
ATOM      3  H1  UNL     1       4.426 -26.551  -9.865  1.00  0.00     0.164 HD
BRANCH   2   4
HETATM    4  C1  UNL     1       2.546 -26.501 -10.833  1.00  0.00     0.259 C 
BRANCH   4   5
HETATM    5  O1  UNL     1       1.758 -27.074  -9.945  1.00  0.00    -0.327 OA
ATOM      6  H1  UNL     1       1.159 -26.480  -9.509  1.00  0.00     0.221 HD
ENDBRANCH   4   5
BRANCH   4   7
HETATM    7  O3  UNL     1       1.896 -25.708 -11.711  1.00  0.00    -0.308 OA
BRANCH   7   8
HETATM    8  C17 UNL     1       0.996 -26.202 -12.684  1.00  0.00     0.172 C 
HETATM    9  C18 UNL     1       0.051 -25.200 -13.260  1.00  0.00     0.204 C 
HETATM   10  O4  UNL     1       0.408 -24.977 -14.568  1.00  0.00    -0.358 OA
HETATM   11  C19 UNL     1       1.148 -26.025 -15.033  1.00  0.00     0.274 C 
HETATM   12  O5  UNL     1       0.408 -26.881 -15.809  1.00  0.00    -0.353 OA
HETATM   13  C22 UNL     1       1.691 -26.803 -13.855  1.00  0.00     0.144 C 
HETATM   14  C20 UNL     1       0.990 -28.157 -15.651  1.00  0.00     0.250 C 
HETATM   15  C21 UNL     1       1.219 -28.168 -14.186  1.00  0.00     0.162 C 
HETATM   16  O6  UNL     1       1.049 -29.109 -13.449  1.00  0.00    -0.295 OA
ENDBRANCH   7   8
ENDBRANCH   4   7
ENDBRANCH   2   4
ENDBRANCH   1   2
BRANCH   1  17
HETATM   17  C3  UNL     1       5.946 -26.874 -11.966  1.00  0.00     0.016 C 
HETATM   18  C4  UNL     1       6.991 -27.716 -12.533  1.00  0.00     0.007 C 
HETATM   19  C5  UNL     1       8.407 -27.314 -12.030  1.00  0.00     0.000 C 
HETATM   20  C6  UNL     1       8.506 -25.838 -12.029  1.00  0.00     0.000 C 
HETATM   21  C7  UNL     1       8.033 -25.309 -13.355  1.00  0.00     0.000 C 
HETATM   22  C8  UNL     1       6.637 -24.828 -13.334  1.00  0.00     0.000 C 
HETATM   23  C9  UNL     1       5.574 -25.695 -12.857  1.00  0.00     0.007 C 
ENDBRANCH   1  17
BRANCH   1  24
HETATM   24  C10 UNL     1       4.636 -29.030 -11.592  1.00  0.00     0.135 C 
BRANCH  24  25
HETATM   25  O2  UNL     1       3.761 -29.755 -12.383  1.00  0.00    -0.348 OA
ATOM     26  H2  UNL     1       3.020 -30.140 -11.930  1.00  0.00     0.219 HD
ENDBRANCH  24  25
BRANCH  24  27
HETATM   27  N2  UNL     1       4.659 -29.547 -10.284  1.00  0.00    -0.368 N 
ATOM     28  H2  UNL     1       5.487 -29.421  -9.702  1.00  0.00     0.161 HD
BRANCH  27  29
HETATM   29  C11 UNL     1       3.538 -30.240  -9.773  1.00  0.00     0.083 C 
HETATM   30  C12 UNL     1       3.806 -31.705  -9.544  1.00  0.00     0.025 C 
HETATM   31  C13 UNL     1       2.508 -32.360  -9.098  1.00  0.00     0.002 C 
HETATM   32  C14 UNL     1       1.962 -31.727  -7.873  1.00  0.00     0.000 C 
HETATM   33  C15 UNL     1       1.853 -30.216  -8.011  1.00  0.00     0.002 C 
HETATM   34  C16 UNL     1       3.226 -29.688  -8.343  1.00  0.00     0.025 C 
ENDBRANCH  27  29
ENDBRANCH  24  27
ENDBRANCH   1  24
TORSDOF 10
ENDMDL
MODEL 3
REMARK VINA RESULT: -8.389910492      0.999      1.489
REMARK  10 active torsions:
REMARK  status: ('A' for Active; 'I' for Inactive)
REMARK    1  A    between atoms: O1_1  and  C1_3 
REMARK    2  A    between atoms: C1_3  and  N1_4 
REMARK    3  A    between atoms: C1_3  and  O3_25 
REMARK    4  A    between atoms: N1_4  and  C2_6 
REMARK    5  A    between atoms: C2_6  and  C3_7 
REMARK    6  A    between atoms: C2_6  and  C10_14 
REMARK    7  A    between atoms: C10_14  and  O2_15 
REMARK    8  A    between atoms: C10_14  and  N2_17 
REMARK    9  A    between atoms: N2_17  and  C11_19 
REMARK   10  A    between atoms: O3_25  and  C17_26 
ROOT
HETATM    1  C2  UNL     1       5.334 -27.820 -11.182  1.00  0.00     0.164 C 
ENDROOT
BRANCH   1   2
HETATM    2  N1  UNL     1       6.002 -29.150 -11.166  1.00  0.00    -0.338 N 
ATOM      3  H1  UNL     1       6.784 -29.333 -11.795  1.00  0.00     0.164 HD
BRANCH   2   4
HETATM    4  C1  UNL     1       5.556 -30.158 -10.284  1.00  0.00     0.259 C 
BRANCH   4   5
HETATM    5  O1  UNL     1       6.459 -30.558  -9.412  1.00  0.00    -0.327 OA
ATOM      6  H1  UNL     1       6.163 -31.244  -8.826  1.00  0.00     0.221 HD
ENDBRANCH   4   5
BRANCH   4   7
HETATM    7  O3  UNL     1       4.370 -30.794 -10.175  1.00  0.00    -0.308 OA
BRANCH   7   8
HETATM    8  C17 UNL     1       3.825 -31.213  -8.939  1.00  0.00     0.172 C 
HETATM    9  C18 UNL     1       3.759 -30.170  -7.873  1.00  0.00     0.204 C 
HETATM   10  O4  UNL     1       2.439 -29.851  -7.667  1.00  0.00    -0.358 OA
HETATM   11  C19 UNL     1       1.641 -30.862  -8.115  1.00  0.00     0.274 C 
HETATM   12  O5  UNL     1       1.184 -31.657  -7.095  1.00  0.00    -0.353 OA
HETATM   13  C22 UNL     1       2.434 -31.726  -9.071  1.00  0.00     0.144 C 
HETATM   14  C20 UNL     1       1.001 -32.942  -7.649  1.00  0.00     0.250 C 
HETATM   15  C21 UNL     1       2.236 -33.063  -8.461  1.00  0.00     0.162 C 
HETATM   16  O6  UNL     1       2.913 -34.055  -8.579  1.00  0.00    -0.295 OA
ENDBRANCH   7   8
ENDBRANCH   4   7
ENDBRANCH   2   4
ENDBRANCH   1   2
BRANCH   1  17
HETATM   17  C3  UNL     1       6.166 -26.970 -12.146  1.00  0.00     0.016 C 
HETATM   18  C4  UNL     1       5.596 -25.657 -12.418  1.00  0.00     0.007 C 
HETATM   19  C5  UNL     1       5.935 -25.154 -13.851  1.00  0.00     0.000 C 
HETATM   20  C6  UNL     1       7.352 -25.467 -14.137  1.00  0.00     0.000 C 
HETATM   21  C7  UNL     1       8.204 -25.002 -12.988  1.00  0.00     0.000 C 
HETATM   22  C8  UNL     1       8.561 -26.081 -12.044  1.00  0.00     0.000 C 
HETATM   23  C9  UNL     1       7.521 -26.906 -11.453  1.00  0.00     0.007 C 
ENDBRANCH   1  17
BRANCH   1  24
HETATM   24  C10 UNL     1       3.897 -27.858 -11.392  1.00  0.00     0.135 C 
BRANCH  24  25
HETATM   25  O2  UNL     1       3.127 -27.943 -10.244  1.00  0.00    -0.348 OA
ATOM     26  H2  UNL     1       3.442 -27.444  -9.500  1.00  0.00     0.219 HD
ENDBRANCH  24  25
BRANCH  24  27
HETATM   27  N2  UNL     1       3.378 -28.695 -12.395  1.00  0.00    -0.368 N 
ATOM     28  H2  UNL     1       3.402 -29.708 -12.274  1.00  0.00     0.161 HD
BRANCH  27  29
HETATM   29  C11 UNL     1       2.825 -28.139 -13.571  1.00  0.00     0.083 C 
HETATM   30  C12 UNL     1       1.579 -28.851 -14.029  1.00  0.00     0.025 C 
HETATM   31  C13 UNL     1       1.139 -28.236 -15.349  1.00  0.00     0.002 C 
HETATM   32  C14 UNL     1       0.898 -26.778 -15.225  1.00  0.00     0.000 C 
HETATM   33  C15 UNL     1       2.077 -26.055 -14.591  1.00  0.00     0.002 C 
HETATM   34  C16 UNL     1       2.332 -26.691 -13.247  1.00  0.00     0.025 C 
ENDBRANCH  27  29
ENDBRANCH  24  27
ENDBRANCH   1  24
TORSDOF 10
ENDMDL
MODEL 4
REMARK VINA RESULT: -8.274996844      1.168      2.089
REMARK  10 active torsions:
REMARK  status: ('A' for Active; 'I' for Inactive)
REMARK    1  A    between atoms: O1_1  and  C1_3 
REMARK    2  A    between atoms: C1_3  and  N1_4 
REMARK    3  A    between atoms: C1_3  and  O3_25 
REMARK    4  A    between atoms: N1_4  and  C2_6 
REMARK    5  A    between atoms: C2_6  and  C3_7 
REMARK    6  A    between atoms: C2_6  and  C10_14 
REMARK    7  A    between atoms: C10_14  and  O2_15 
REMARK    8  A    between atoms: C10_14  and  N2_17 
REMARK    9  A    between atoms: N2_17  and  C11_19 
REMARK   10  A    between atoms: O3_25  and  C17_26 
ROOT
HETATM    1  C2  UNL     1       5.004 -27.203 -11.351  1.00  0.00     0.164 C 
ENDROOT
BRANCH   1   2
HETATM    2  N1  UNL     1       5.392 -28.585 -11.745  1.00  0.00    -0.338 N 
ATOM      3  H1  UNL     1       5.932 -28.738 -12.597  1.00  0.00     0.164 HD
BRANCH   2   4
HETATM    4  C1  UNL     1       5.013 -29.684 -10.944  1.00  0.00     0.259 C 
BRANCH   4   5
HETATM    5  O1  UNL     1       5.886 -30.003 -10.009  1.00  0.00    -0.327 OA
ATOM      6  H1  UNL     1       5.723 -29.600  -9.165  1.00  0.00     0.221 HD
ENDBRANCH   4   5
BRANCH   4   7
HETATM    7  O3  UNL     1       3.919 -30.475 -10.965  1.00  0.00    -0.308 OA
BRANCH   7   8
HETATM    8  C17 UNL     1       3.007 -30.567  -9.888  1.00  0.00     0.172 C 
HETATM    9  C18 UNL     1       2.796 -29.311  -9.108  1.00  0.00     0.204 C 
HETATM   10  O4  UNL     1       1.525 -28.857  -9.365  1.00  0.00    -0.358 OA
HETATM   11  C19 UNL     1       0.750 -29.880  -9.827  1.00  0.00     0.274 C 
HETATM   12  O5  UNL     1      -0.070 -30.393  -8.854  1.00  0.00    -0.353 OA
HETATM   13  C22 UNL     1       1.648 -30.991 -10.323  1.00  0.00     0.144 C 
HETATM   14  C20 UNL     1      -0.268 -31.751  -9.181  1.00  0.00     0.250 C 
HETATM   15  C21 UNL     1       1.113 -32.141  -9.554  1.00  0.00     0.162 C 
HETATM   16  O6  UNL     1       1.656 -33.182  -9.276  1.00  0.00    -0.295 OA
ENDBRANCH   7   8
ENDBRANCH   4   7
ENDBRANCH   2   4
ENDBRANCH   1   2
BRANCH   1  17
HETATM   17  C3  UNL     1       6.082 -26.300 -11.958  1.00  0.00     0.016 C 
HETATM   18  C4  UNL     1       7.316 -26.997 -12.293  1.00  0.00     0.007 C 
HETATM   19  C5  UNL     1       8.565 -26.079 -12.156  1.00  0.00     0.000 C 
HETATM   20  C6  UNL     1       8.238 -24.751 -12.719  1.00  0.00     0.000 C 
HETATM   21  C7  UNL     1       7.617 -24.928 -14.077  1.00  0.00     0.000 C 
HETATM   22  C8  UNL     1       6.142 -24.855 -14.066  1.00  0.00     0.000 C 
HETATM   23  C9  UNL     1       5.377 -25.707 -13.171  1.00  0.00     0.007 C 
ENDBRANCH   1  17
BRANCH   1  24
HETATM   24  C10 UNL     1       3.617 -26.858 -11.611  1.00  0.00     0.135 C 
BRANCH  24  25
HETATM   25  O2  UNL     1       2.940 -26.266 -10.558  1.00  0.00    -0.348 OA
ATOM     26  H2  UNL     1       2.275 -26.804 -10.143  1.00  0.00     0.219 HD
ENDBRANCH  24  25
BRANCH  24  27
HETATM   27  N2  UNL     1       2.794 -27.793 -12.262  1.00  0.00    -0.368 N 
ATOM     28  H2  UNL     1       2.544 -28.663 -11.792  1.00  0.00     0.161 HD
BRANCH  27  29
HETATM   29  C11 UNL     1       2.311 -27.533 -13.565  1.00  0.00     0.083 C 
HETATM   30  C12 UNL     1       1.338 -28.575 -14.052  1.00  0.00     0.025 C 
HETATM   31  C13 UNL     1       0.973 -28.247 -15.491  1.00  0.00     0.002 C 
HETATM   32  C14 UNL     1       0.397 -26.887 -15.619  1.00  0.00     0.000 C 
HETATM   33  C15 UNL     1       1.276 -25.829 -14.969  1.00  0.00     0.002 C 
HETATM   34  C16 UNL     1       1.464 -26.219 -13.524  1.00  0.00     0.025 C 
ENDBRANCH  27  29
ENDBRANCH  24  27
ENDBRANCH   1  24
TORSDOF 10
ENDMDL
MODEL 5
REMARK VINA RESULT: -8.205429823      4.355      8.532
REMARK  10 active torsions:
REMARK  status: ('A' for Active; 'I' for Inactive)
REMARK    1  A    between atoms: O1_1  and  C1_3 
REMARK    2  A    between atoms: C1_3  and  N1_4 
REMARK    3  A    between atoms: C1_3  and  O3_25 
REMARK    4  A    between atoms: N1_4  and  C2_6 
REMARK    5  A    between atoms: C2_6  and  C3_7 
REMARK    6  A    between atoms: C2_6  and  C10_14 
REMARK    7  A    between atoms: C10_14  and  O2_15 
REMARK    8  A    between atoms: C10_14  and  N2_17 
REMARK    9  A    between atoms: N2_17  and  C11_19 
REMARK   10  A    between atoms: O3_25  and  C17_26 
ROOT
HETATM    1  C2  UNL     1       3.259 -26.372 -13.864  1.00  0.00     0.164 C 
ENDROOT
BRANCH   1   2
HETATM    2  N1  UNL     1       2.157 -26.735 -14.796  1.00  0.00    -0.338 N 
ATOM      3  H1  UNL     1       2.145 -27.656 -15.235  1.00  0.00     0.164 HD
BRANCH   2   4
HETATM    4  C1  UNL     1       1.130 -25.807 -15.075  1.00  0.00     0.259 C 
BRANCH   4   5
HETATM    5  O1  UNL     1       0.001 -26.352 -15.483  1.00  0.00    -0.327 OA
ATOM      6  H1  UNL     1      -0.598 -26.585 -14.783  1.00  0.00     0.221 HD
ENDBRANCH   4   5
BRANCH   4   7
HETATM    7  O3  UNL     1       1.095 -24.459 -15.008  1.00  0.00    -0.308 OA
BRANCH   7   8
HETATM    8  C17 UNL     1      -0.099 -23.708 -15.109  1.00  0.00     0.172 C 
HETATM    9  C18 UNL     1      -0.429 -22.855 -13.929  1.00  0.00     0.204 C 
HETATM   10  O4  UNL     1      -0.275 -21.540 -14.296  1.00  0.00    -0.358 OA
HETATM   11  C19 UNL     1      -0.342 -21.424 -15.653  1.00  0.00     0.274 C 
HETATM   12  O5  UNL     1      -1.566 -20.973 -16.078  1.00  0.00    -0.353 OA
HETATM   13  C22 UNL     1      -0.096 -22.781 -16.274  1.00  0.00     0.144 C 
HETATM   14  C20 UNL     1      -1.764 -21.522 -17.363  1.00  0.00     0.250 C 
HETATM   15  C21 UNL     1      -1.295 -22.911 -17.136  1.00  0.00     0.162 C 
HETATM   16  O6  UNL     1      -1.804 -23.913 -17.577  1.00  0.00    -0.295 OA
ENDBRANCH   7   8
ENDBRANCH   4   7
ENDBRANCH   2   4
ENDBRANCH   1   2
BRANCH   1  17
HETATM   17  C3  UNL     1       3.462 -27.612 -12.988  1.00  0.00     0.016 C 
HETATM   18  C4  UNL     1       3.203 -27.383 -11.573  1.00  0.00     0.007 C 
HETATM   19  C5  UNL     1       4.087 -28.282 -10.661  1.00  0.00     0.000 C 
HETATM   20  C6  UNL     1       4.130 -29.642 -11.240  1.00  0.00     0.000 C 
HETATM   21  C7  UNL     1       2.730 -30.091 -11.556  1.00  0.00     0.000 C 
HETATM   22  C8  UNL     1       2.362 -29.919 -12.976  1.00  0.00     0.000 C 
HETATM   23  C9  UNL     1       2.514 -28.625 -13.617  1.00  0.00     0.007 C 
ENDBRANCH   1  17
BRANCH   1  24
HETATM   24  C10 UNL     1       4.435 -25.801 -14.498  1.00  0.00     0.135 C 
BRANCH  24  25
HETATM   25  O2  UNL     1       4.190 -24.981 -15.586  1.00  0.00    -0.348 OA
ATOM     26  H2  UNL     1       4.539 -24.100 -15.524  1.00  0.00     0.219 HD
ENDBRANCH  24  25
BRANCH  24  27
HETATM   27  N2  UNL     1       5.544 -26.630 -14.746  1.00  0.00    -0.368 N 
ATOM     28  H2  UNL     1       5.457 -27.413 -15.394  1.00  0.00     0.161 HD
BRANCH  27  29
HETATM   29  C11 UNL     1       6.778 -26.382 -14.102  1.00  0.00     0.083 C 
HETATM   30  C12 UNL     1       6.834 -25.030 -13.439  1.00  0.00     0.025 C 
HETATM   31  C13 UNL     1       8.233 -24.837 -12.876  1.00  0.00     0.002 C 
HETATM   32  C14 UNL     1       8.596 -25.909 -11.918  1.00  0.00     0.000 C 
HETATM   33  C15 UNL     1       8.372 -27.296 -12.500  1.00  0.00     0.002 C 
HETATM   34  C16 UNL     1       6.925 -27.389 -12.914  1.00  0.00     0.025 C 
ENDBRANCH  27  29
ENDBRANCH  24  27
ENDBRANCH   1  24
TORSDOF 10
ENDMDL
