MODEL 1
REMARK VINA RESULT: -8.634723680      0.000      0.000
REMARK  3 active torsions:
REMARK  status: ('A' for Active; 'I' for Inactive)
REMARK    1  A    between atoms: C2_2  and  C3_3 
REMARK    2  A    between atoms: C6_6  and  C7_7 
REMARK    3  A    between atoms: C12_16  and  S1_17 
ROOT
HETATM    1  C7  UNL     1       3.764 -27.035 -12.594  1.00  0.00     0.037 A 
HETATM    2  C8  UNL     1       4.117 -28.202 -11.872  1.00  0.00     0.071 A 
HETATM    3 CL1  UNL     1       2.861 -29.387 -11.602  1.00  0.00    -0.081 Cl
HETATM    4  C9  UNL     1       5.349 -28.478 -11.381  1.00  0.00     0.080 A 
HETATM    5 CL2  UNL     1       5.734 -29.939 -10.491  1.00  0.00    -0.081 Cl
HETATM    6  C10 UNL     1       6.345 -27.575 -11.583  1.00  0.00     0.080 A 
HETATM    7 CL3  UNL     1       7.957 -27.877 -10.964  1.00  0.00    -0.081 Cl
HETATM    8  C11 UNL     1       6.090 -26.439 -12.267  1.00  0.00     0.082 A 
HETATM    9 CL4  UNL     1       7.367 -25.263 -12.532  1.00  0.00    -0.081 Cl
HETATM   10  C12 UNL     1       4.789 -26.159 -12.784  1.00  0.00     0.118 A 
ENDROOT
BRANCH   1  11
HETATM   11  C6  UNL     1       2.361 -26.832 -12.943  1.00  0.00     0.041 C 
HETATM   12  C5  UNL     1       1.520 -27.130 -14.092  1.00  0.00     0.091 C 
HETATM   13  C3  UNL     1       0.494 -25.942 -14.065  1.00  0.00     0.049 C 
HETATM   14  C4  UNL     1       1.175 -24.767 -14.646  1.00  0.00     0.040 C 
HETATM   15  N2  UNL     1       0.331 -25.911 -12.622  1.00  0.00    -0.322 N 
HETATM   16  N1  UNL     1       1.590 -26.121 -12.132  1.00  0.00    -0.306 N 
HETATM   17  C13 UNL     1      -0.938 -25.699 -11.951  1.00  0.00     0.172 C 
ATOM     18  H1  UNL     1       1.905 -25.765 -11.230  1.00  0.00     0.186 HD
BRANCH  13  19
HETATM   19  C2  UNL     1      -0.795 -26.338 -14.695  1.00  0.00     0.028 C 
HETATM   20  C1  UNL     1      -1.423 -25.230 -15.508  1.00  0.00     0.007 C 
ENDBRANCH  13  19
ENDBRANCH   1  11
BRANCH  10  21
HETATM   21  S1  UNL     1       4.693 -24.795 -13.831  1.00  0.00     0.140 S 
HETATM   22  O1  UNL     1       3.448 -23.990 -13.571  1.00  0.00    -0.591 OA
HETATM   23  O2  UNL     1       5.925 -24.051 -14.028  1.00  0.00    -0.591 OA
HETATM   24  O3  UNL     1       4.261 -25.443 -15.409  1.00  0.00    -0.591 OA
ENDBRANCH  10  21
TORSDOF 3
ENDMDL
MODEL 2
REMARK VINA RESULT: -8.602496153      3.664      6.530
REMARK  3 active torsions:
REMARK  status: ('A' for Active; 'I' for Inactive)
REMARK    1  A    between atoms: C2_2  and  C3_3 
REMARK    2  A    between atoms: C6_6  and  C7_7 
REMARK    3  A    between atoms: C12_16  and  S1_17 
ROOT
HETATM    1  C7  UNL     1       3.156 -26.761 -12.646  1.00  0.00     0.037 A 
HETATM    2  C8  UNL     1       3.430 -25.935 -13.764  1.00  0.00     0.071 A 
HETATM    3 CL1  UNL     1       5.082 -25.878 -14.333  1.00  0.00    -0.081 Cl
HETATM    4  C9  UNL     1       2.515 -25.193 -14.432  1.00  0.00     0.080 A 
HETATM    5 CL2  UNL     1       2.906 -24.183 -15.813  1.00  0.00    -0.081 Cl
HETATM    6  C10 UNL     1       1.222 -25.225 -14.013  1.00  0.00     0.080 A 
HETATM    7 CL3  UNL     1      -0.002 -24.278 -14.837  1.00  0.00    -0.081 Cl
HETATM    8  C11 UNL     1       0.880 -25.992 -12.957  1.00  0.00     0.082 A 
HETATM    9 CL4  UNL     1      -0.786 -26.040 -12.404  1.00  0.00    -0.081 Cl
HETATM   10  C12 UNL     1       1.850 -26.775 -12.262  1.00  0.00     0.118 A 
ENDROOT
BRANCH   1  11
HETATM   11  C6  UNL     1       4.278 -27.397 -11.962  1.00  0.00     0.041 C 
HETATM   12  C5  UNL     1       5.518 -26.945 -11.350  1.00  0.00     0.091 C 
HETATM   13  C3  UNL     1       6.477 -28.160 -11.611  1.00  0.00     0.049 C 
HETATM   14  C4  UNL     1       6.928 -28.064 -13.014  1.00  0.00     0.040 C 
HETATM   15  N2  UNL     1       5.491 -29.194 -11.348  1.00  0.00    -0.322 N 
HETATM   16  N1  UNL     1       4.342 -28.721 -11.917  1.00  0.00    -0.306 N 
HETATM   17  C13 UNL     1       5.772 -30.420 -10.625  1.00  0.00     0.172 C 
ATOM     18  H1  UNL     1       3.603 -29.329 -12.274  1.00  0.00     0.186 HD
BRANCH  13  19
HETATM   19  C2  UNL     1       7.544 -28.227 -10.576  1.00  0.00     0.028 C 
HETATM   20  C1  UNL     1       8.114 -26.873 -10.223  1.00  0.00     0.007 C 
ENDBRANCH  13  19
ENDBRANCH   1  11
BRANCH  10  21
HETATM   21  S1  UNL     1       1.211 -27.875 -11.100  1.00  0.00     0.140 S 
HETATM   22  O1  UNL     1       2.256 -28.279 -10.094  1.00  0.00    -0.591 OA
HETATM   23  O2  UNL     1      -0.110 -27.564 -10.584  1.00  0.00    -0.591 OA
HETATM   24  O3  UNL     1       1.054 -29.411 -11.945  1.00  0.00    -0.591 OA
ENDBRANCH  10  21
TORSDOF 3
ENDMDL
MODEL 3
REMARK VINA RESULT: -8.543667135      1.028      1.873
REMARK  3 active torsions:
REMARK  status: ('A' for Active; 'I' for Inactive)
REMARK    1  A    between atoms: C2_2  and  C3_3 
REMARK    2  A    between atoms: C6_6  and  C7_7 
REMARK    3  A    between atoms: C12_16  and  S1_17 
ROOT
HETATM    1  C7  UNL     1       3.540 -26.964 -12.221  1.00  0.00     0.037 A 
HETATM    2  C8  UNL     1       3.894 -28.112 -11.469  1.00  0.00     0.071 A 
HETATM    3 CL1  UNL     1       2.594 -29.150 -10.933  1.00  0.00    -0.081 Cl
HETATM    4  C9  UNL     1       5.156 -28.474 -11.139  1.00  0.00     0.080 A 
HETATM    5 CL2  UNL     1       5.541 -29.907 -10.203  1.00  0.00    -0.081 Cl
HETATM    6  C10 UNL     1       6.185 -27.687 -11.549  1.00  0.00     0.080 A 
HETATM    7 CL3  UNL     1       7.839 -28.104 -11.144  1.00  0.00    -0.081 Cl
HETATM    8  C11 UNL     1       5.932 -26.577 -12.275  1.00  0.00     0.082 A 
HETATM    9 CL4  UNL     1       7.251 -25.550 -12.808  1.00  0.00    -0.081 Cl
HETATM   10  C12 UNL     1       4.597 -26.206 -12.622  1.00  0.00     0.118 A 
ENDROOT
BRANCH   1  11
HETATM   11  C6  UNL     1       2.123 -26.649 -12.382  1.00  0.00     0.041 C 
HETATM   12  C5  UNL     1       1.081 -26.078 -11.543  1.00  0.00     0.091 C 
HETATM   13  C3  UNL     1      -0.203 -26.815 -12.067  1.00  0.00     0.049 C 
HETATM   14  C4  UNL     1      -0.208 -28.162 -11.461  1.00  0.00     0.040 C 
HETATM   15  N2  UNL     1       0.157 -26.770 -13.474  1.00  0.00    -0.322 N 
HETATM   16  N1  UNL     1       1.499 -27.025 -13.490  1.00  0.00    -0.306 N 
HETATM   17  C13 UNL     1      -0.784 -26.503 -14.545  1.00  0.00     0.172 C 
ATOM     18  H1  UNL     1       1.976 -27.462 -14.279  1.00  0.00     0.186 HD
BRANCH  13  19
HETATM   19  C2  UNL     1      -1.419 -25.986 -11.846  1.00  0.00     0.028 C 
HETATM   20  C1  UNL     1      -2.595 -26.783 -11.332  1.00  0.00     0.007 C 
ENDBRANCH  13  19
ENDBRANCH   1  11
BRANCH  10  21
HETATM   21  S1  UNL     1       4.465 -24.907 -13.746  1.00  0.00     0.140 S 
HETATM   22  O1  UNL     1       3.078 -24.322 -13.748  1.00  0.00    -0.591 OA
HETATM   23  O2  UNL     1       5.573 -23.968 -13.772  1.00  0.00    -0.591 OA
HETATM   24  O3  UNL     1       4.432 -25.663 -15.335  1.00  0.00    -0.591 OA
ENDBRANCH  10  21
TORSDOF 3
ENDMDL
MODEL 4
REMARK VINA RESULT: -8.504845301      2.702      3.524
REMARK  3 active torsions:
REMARK  status: ('A' for Active; 'I' for Inactive)
REMARK    1  A    between atoms: C2_2  and  C3_3 
REMARK    2  A    between atoms: C6_6  and  C7_7 
REMARK    3  A    between atoms: C12_16  and  S1_17 
ROOT
HETATM    1  C7  UNL     1       3.228 -26.815 -12.386  1.00  0.00     0.037 A 
HETATM    2  C8  UNL     1       4.318 -26.006 -12.793  1.00  0.00     0.071 A 
HETATM    3 CL1  UNL     1       3.946 -24.554 -13.692  1.00  0.00    -0.081 Cl
HETATM    4  C9  UNL     1       5.623 -26.262 -12.536  1.00  0.00     0.080 A 
HETATM    5 CL2  UNL     1       6.937 -25.228 -13.064  1.00  0.00    -0.081 Cl
HETATM    6  C10 UNL     1       5.938 -27.382 -11.832  1.00  0.00     0.080 A 
HETATM    7 CL3  UNL     1       7.611 -27.766 -11.477  1.00  0.00    -0.081 Cl
HETATM    8  C11 UNL     1       4.955 -28.203 -11.404  1.00  0.00     0.082 A 
HETATM    9 CL4  UNL     1       5.349 -29.654 -10.498  1.00  0.00    -0.081 Cl
HETATM   10  C12 UNL     1       3.582 -27.922 -11.676  1.00  0.00     0.118 A 
ENDROOT
BRANCH   1  11
HETATM   11  C6  UNL     1       1.890 -26.464 -12.854  1.00  0.00     0.041 C 
HETATM   12  C5  UNL     1       1.089 -26.755 -14.032  1.00  0.00     0.091 C 
HETATM   13  C3  UNL     1       0.236 -25.445 -14.182  1.00  0.00     0.049 C 
HETATM   14  C4  UNL     1       1.106 -24.431 -14.810  1.00  0.00     0.040 C 
HETATM   15  N2  UNL     1      -0.010 -25.258 -12.763  1.00  0.00    -0.322 N 
HETATM   16  N1  UNL     1       1.175 -25.584 -12.166  1.00  0.00    -0.306 N 
HETATM   17  C13 UNL     1      -1.277 -24.818 -12.209  1.00  0.00     0.172 C 
ATOM     18  H1  UNL     1       1.480 -25.189 -11.276  1.00  0.00     0.186 HD
BRANCH  13  19
HETATM   19  C2  UNL     1      -1.054 -25.726 -14.870  1.00  0.00     0.028 C 
HETATM   20  C1  UNL     1      -1.502 -24.601 -15.773  1.00  0.00     0.007 C 
ENDBRANCH  13  19
ENDBRANCH   1  11
BRANCH  10  21
HETATM   21  S1  UNL     1       2.450 -28.931 -10.859  1.00  0.00     0.140 S 
HETATM   22  O1  UNL     1       1.575 -29.675 -11.832  1.00  0.00    -0.591 OA
HETATM   23  O2  UNL     1       2.965 -29.686  -9.730  1.00  0.00    -0.591 OA
HETATM   24  O3  UNL     1       1.238 -27.838 -10.200  1.00  0.00    -0.591 OA
ENDBRANCH  10  21
TORSDOF 3
ENDMDL
MODEL 5
REMARK VINA RESULT: -8.475894034      2.819      5.776
REMARK  3 active torsions:
REMARK  status: ('A' for Active; 'I' for Inactive)
REMARK    1  A    between atoms: C2_2  and  C3_3 
REMARK    2  A    between atoms: C6_6  and  C7_7 
REMARK    3  A    between atoms: C12_16  and  S1_17 
ROOT
HETATM    1  C7  UNL     1       3.489 -26.258 -12.639  1.00  0.00     0.037 A 
HETATM    2  C8  UNL     1       2.147 -26.309 -12.186  1.00  0.00     0.071 A 
HETATM    3 CL1  UNL     1       1.834 -27.185 -10.706  1.00  0.00    -0.081 Cl
HETATM    4  C9  UNL     1       1.090 -25.728 -12.801  1.00  0.00     0.080 A 
HETATM    5 CL2  UNL     1      -0.555 -25.822 -12.199  1.00  0.00    -0.081 Cl
HETATM    6  C10 UNL     1       1.308 -25.035 -13.950  1.00  0.00     0.080 A 
HETATM    7 CL3  UNL     1      -0.025 -24.270 -14.792  1.00  0.00    -0.081 Cl
HETATM    8  C11 UNL     1       2.560 -24.936 -14.445  1.00  0.00     0.082 A 
HETATM    9 CL4  UNL     1       2.855 -24.048 -15.930  1.00  0.00    -0.081 Cl
HETATM   10  C12 UNL     1       3.669 -25.548 -13.786  1.00  0.00     0.118 A 
ENDROOT
BRANCH   1  11
HETATM   11  C6  UNL     1       4.492 -27.044 -11.927  1.00  0.00     0.041 C 
HETATM   12  C5  UNL     1       5.727 -26.759 -11.214  1.00  0.00     0.091 C 
HETATM   13  C3  UNL     1       6.573 -28.053 -11.489  1.00  0.00     0.049 C 
HETATM   14  C4  UNL     1       7.125 -27.929 -12.853  1.00  0.00     0.040 C 
HETATM   15  N2  UNL     1       5.471 -28.989 -11.350  1.00  0.00    -0.322 N 
HETATM   16  N1  UNL     1       4.417 -28.368 -11.960  1.00  0.00    -0.306 N 
HETATM   17  C13 UNL     1       5.577 -30.276 -10.688  1.00  0.00     0.172 C 
ATOM     18  H1  UNL     1       3.647 -28.874 -12.397  1.00  0.00     0.186 HD
BRANCH  13  19
HETATM   19  C2  UNL     1       7.556 -28.287 -10.397  1.00  0.00     0.028 C 
HETATM   20  C1  UNL     1       8.275 -27.030  -9.965  1.00  0.00     0.007 C 
ENDBRANCH  13  19
ENDBRANCH   1  11
BRANCH  10  21
HETATM   21  S1  UNL     1       5.218 -25.125 -14.411  1.00  0.00     0.140 S 
HETATM   22  O1  UNL     1       6.063 -24.444 -13.368  1.00  0.00    -0.591 OA
HETATM   23  O2  UNL     1       5.873 -26.129 -15.232  1.00  0.00    -0.591 OA
HETATM   24  O3  UNL     1       4.938 -23.744 -15.465  1.00  0.00    -0.591 OA
ENDBRANCH  10  21
TORSDOF 3
ENDMDL
