MODEL 1
REMARK VINA RESULT: -7.910172927      0.000      0.000
REMARK  7 active torsions:
REMARK  status: ('A' for Active; 'I' for Inactive)
REMARK    1  A    between atoms: C2_2  and  O1_3 
REMARK    2  A    between atoms: O1_3  and  C3_4 
REMARK       I    between atoms: C3_4  and  N1_6 
REMARK    3  A    between atoms: N1_6  and  C5_8 
REMARK    4  A    between atoms: C5_8  and  O3_9 
REMARK    5  A    between atoms: C5_8  and  N2_11 
REMARK    6  A    between atoms: N3_16  and  O4_17 
REMARK    7  A    between atoms: C14_26  and  C15_27 
ROOT
HETATM    1  N2  UNL     1     -19.031 -40.045  -9.738  1.00  0.00    -0.335 N 
HETATM    2  C6  UNL     1     -17.487 -40.321  -9.522  1.00  0.00     0.163 C 
HETATM    3  C7  UNL     1     -17.118 -38.961  -9.894  1.00  0.00    -0.042 C 
HETATM    4  C8  UNL     1     -16.828 -38.712 -11.136  1.00  0.00    -0.004 C 
HETATM    5  C9  UNL     1     -16.468 -37.332 -11.662  1.00  0.00     0.149 C 
HETATM    6  N3  UNL     1     -17.599 -36.505 -11.342  1.00  0.00    -0.182 NA
HETATM    7  C10 UNL     1     -18.329 -36.543 -10.195  1.00  0.00     0.186 C 
HETATM    8  C11 UNL     1     -17.417 -35.735  -9.216  1.00  0.00     0.238 C 
HETATM    9  O5  UNL     1     -17.482 -34.563  -8.903  1.00  0.00    -0.272 OA
HETATM   10  N4  UNL     1     -16.521 -36.792  -8.832  1.00  0.00    -0.351 N 
ATOM     11  H4  UNL     1     -15.525 -36.693  -8.635  1.00  0.00     0.163 HD
HETATM   12  C12 UNL     1     -17.263 -37.987  -8.777  1.00  0.00     0.123 C 
HETATM   13  C13 UNL     1     -18.725 -37.545  -9.251  1.00  0.00     0.068 C 
HETATM   14  C14 UNL     1     -19.541 -38.740  -9.434  1.00  0.00     0.119 C 
ENDROOT
BRANCH   1  15
HETATM   15  C5  UNL     1     -19.689 -41.167 -10.207  1.00  0.00     0.226 C 
BRANCH  15  16
HETATM   16  N1  UNL     1     -20.972 -41.696 -10.025  1.00  0.00    -0.264 N 
HETATM   17  C3  UNL     1     -21.241 -42.466  -8.816  1.00  0.00     0.369 C 
HETATM   18  O2  UNL     1     -22.375 -42.944  -8.634  1.00  0.00    -0.238 OA
HETATM   19  C4  UNL     1     -22.090 -41.567 -10.907  1.00  0.00     0.165 C 
BRANCH  17  20
HETATM   20  O1  UNL     1     -20.259 -42.669  -7.881  1.00  0.00    -0.304 OA
BRANCH  20  21
HETATM   21  C2  UNL     1     -19.711 -43.967  -7.742  1.00  0.00     0.176 C 
HETATM   22  C1  UNL     1     -18.209 -43.876  -7.786  1.00  0.00     0.034 C 
ENDBRANCH  20  21
ENDBRANCH  17  20
ENDBRANCH  15  16
BRANCH  15  23
HETATM   23  O3  UNL     1     -18.926 -41.900 -11.014  1.00  0.00    -0.332 OA
ATOM     24  H3  UNL     1     -18.059 -41.535 -11.148  1.00  0.00     0.221 HD
ENDBRANCH  15  23
ENDBRANCH   1  15
BRANCH  14  25
HETATM   25  C15 UNL     1     -20.258 -38.941  -8.078  1.00  0.00     0.001 C 
HETATM   26  C16 UNL     1     -21.544 -38.686  -7.956  1.00  0.00    -0.089 C 
HETATM   27  C17 UNL     1     -22.155 -38.908  -6.611  1.00  0.00     0.042 C 
HETATM   28  C18 UNL     1     -22.418 -38.204  -9.027  1.00  0.00     0.042 C 
ENDBRANCH  14  25
BRANCH   6  29
HETATM   29  O4  UNL     1     -17.247 -35.203 -11.611  1.00  0.00    -0.312 OA
ATOM     30  H4  UNL     1     -17.127 -35.129 -12.551  1.00  0.00     0.237 HD
ENDBRANCH   6  29
TORSDOF 7
ENDMDL
MODEL 2
REMARK VINA RESULT: -7.736433575      2.863      7.135
REMARK  7 active torsions:
REMARK  status: ('A' for Active; 'I' for Inactive)
REMARK    1  A    between atoms: C2_2  and  O1_3 
REMARK    2  A    between atoms: O1_3  and  C3_4 
REMARK       I    between atoms: C3_4  and  N1_6 
REMARK    3  A    between atoms: N1_6  and  C5_8 
REMARK    4  A    between atoms: C5_8  and  O3_9 
REMARK    5  A    between atoms: C5_8  and  N2_11 
REMARK    6  A    between atoms: N3_16  and  O4_17 
REMARK    7  A    between atoms: C14_26  and  C15_27 
ROOT
HETATM    1  N2  UNL     1     -15.509 -39.340 -11.283  1.00  0.00    -0.335 N 
HETATM    2  C6  UNL     1     -15.579 -40.703 -12.086  1.00  0.00     0.163 C 
HETATM    3  C7  UNL     1     -16.187 -41.414 -10.970  1.00  0.00    -0.042 C 
HETATM    4  C8  UNL     1     -15.413 -42.031 -10.128  1.00  0.00    -0.004 C 
HETATM    5  C9  UNL     1     -15.917 -42.773  -8.901  1.00  0.00     0.149 C 
HETATM    6  N3  UNL     1     -16.633 -41.789  -8.137  1.00  0.00    -0.182 NA
HETATM    7  C10 UNL     1     -17.447 -40.818  -8.632  1.00  0.00     0.186 C 
HETATM    8  C11 UNL     1     -18.762 -41.618  -8.900  1.00  0.00     0.238 C 
HETATM    9  O5  UNL     1     -19.751 -41.718  -8.201  1.00  0.00    -0.272 OA
HETATM   10  N4  UNL     1     -18.424 -42.168 -10.184  1.00  0.00    -0.351 N 
ATOM     11  H4  UNL     1     -18.692 -43.089 -10.533  1.00  0.00     0.163 HD
HETATM   12  C12 UNL     1     -17.659 -41.210 -10.876  1.00  0.00     0.123 C 
HETATM   13  C13 UNL     1     -17.504 -40.019  -9.819  1.00  0.00     0.068 C 
HETATM   14  C14 UNL     1     -16.553 -39.046 -10.346  1.00  0.00     0.119 C 
ENDROOT
BRANCH   1  15
HETATM   15  C5  UNL     1     -14.394 -38.600 -11.631  1.00  0.00     0.226 C 
BRANCH  15  16
HETATM   16  N1  UNL     1     -13.317 -38.060 -10.918  1.00  0.00    -0.264 N 
HETATM   17  C3  UNL     1     -13.145 -36.613 -10.907  1.00  0.00     0.369 C 
HETATM   18  O2  UNL     1     -12.195 -36.114 -10.278  1.00  0.00    -0.238 OA
HETATM   19  C4  UNL     1     -12.333 -38.781 -10.171  1.00  0.00     0.165 C 
BRANCH  17  20
HETATM   20  O1  UNL     1     -14.018 -35.797 -11.581  1.00  0.00    -0.304 OA
BRANCH  20  21
HETATM   21  C2  UNL     1     -14.080 -34.429 -11.226  1.00  0.00     0.176 C 
HETATM   22  C1  UNL     1     -15.251 -33.791 -11.923  1.00  0.00     0.034 C 
ENDBRANCH  20  21
ENDBRANCH  17  20
ENDBRANCH  15  16
BRANCH  15  23
HETATM   23  O3  UNL     1     -14.341 -38.350 -12.937  1.00  0.00    -0.332 OA
ATOM     24  H3  UNL     1     -14.390 -39.133 -13.473  1.00  0.00     0.221 HD
ENDBRANCH  15  23
ENDBRANCH   1  15
BRANCH  14  25
HETATM   25  C15 UNL     1     -17.422 -38.006 -11.090  1.00  0.00     0.001 C 
HETATM   26  C16 UNL     1     -17.534 -36.776 -10.634  1.00  0.00    -0.089 C 
HETATM   27  C17 UNL     1     -18.393 -35.838 -11.415  1.00  0.00     0.042 C 
HETATM   28  C18 UNL     1     -16.887 -36.258  -9.427  1.00  0.00     0.042 C 
ENDBRANCH  14  25
BRANCH   6  29
HETATM   29  O4  UNL     1     -17.283 -42.449  -7.120  1.00  0.00    -0.312 OA
ATOM     30  H4  UNL     1     -17.998 -41.894  -6.832  1.00  0.00     0.237 HD
ENDBRANCH   6  29
TORSDOF 7
ENDMDL
MODEL 3
REMARK VINA RESULT: -7.729191005      1.818      6.648
REMARK  7 active torsions:
REMARK  status: ('A' for Active; 'I' for Inactive)
REMARK    1  A    between atoms: C2_2  and  O1_3 
REMARK    2  A    between atoms: O1_3  and  C3_4 
REMARK       I    between atoms: C3_4  and  N1_6 
REMARK    3  A    between atoms: N1_6  and  C5_8 
REMARK    4  A    between atoms: C5_8  and  O3_9 
REMARK    5  A    between atoms: C5_8  and  N2_11 
REMARK    6  A    between atoms: N3_16  and  O4_17 
REMARK    7  A    between atoms: C14_26  and  C15_27 
ROOT
HETATM    1  N2  UNL     1     -18.107 -38.536  -9.144  1.00  0.00    -0.335 N 
HETATM    2  C6  UNL     1     -18.962 -38.041  -7.906  1.00  0.00     0.163 C 
HETATM    3  C7  UNL     1     -20.166 -38.712  -8.379  1.00  0.00    -0.042 C 
HETATM    4  C8  UNL     1     -20.996 -38.048  -9.128  1.00  0.00    -0.004 C 
HETATM    5  C9  UNL     1     -22.264 -38.641  -9.719  1.00  0.00     0.149 C 
HETATM    6  N3  UNL     1     -21.822 -39.759 -10.506  1.00  0.00    -0.182 NA
HETATM    7  C10 UNL     1     -20.840 -40.641 -10.176  1.00  0.00     0.186 C 
HETATM    8  C11 UNL     1     -21.589 -41.589  -9.186  1.00  0.00     0.238 C 
HETATM    9  O5  UNL     1     -22.111 -42.664  -9.405  1.00  0.00    -0.272 OA
HETATM   10  N4  UNL     1     -21.460 -40.801  -7.990  1.00  0.00    -0.351 N 
ATOM     11  H4  UNL     1     -22.152 -40.722  -7.245  1.00  0.00     0.163 HD
HETATM   12  C12 UNL     1     -20.208 -40.159  -8.031  1.00  0.00     0.123 C 
HETATM   13  C13 UNL     1     -19.607 -40.594  -9.448  1.00  0.00     0.068 C 
HETATM   14  C14 UNL     1     -18.393 -39.825  -9.700  1.00  0.00     0.119 C 
ENDROOT
BRANCH   1  15
HETATM   15  C5  UNL     1     -17.159 -37.600  -9.515  1.00  0.00     0.226 C 
BRANCH  15  16
HETATM   16  N1  UNL     1     -16.822 -36.975 -10.722  1.00  0.00    -0.264 N 
HETATM   17  C3  UNL     1     -17.350 -35.642 -10.984  1.00  0.00     0.369 C 
HETATM   18  O2  UNL     1     -17.061 -35.068 -12.049  1.00  0.00    -0.238 OA
HETATM   19  C4  UNL     1     -15.993 -37.502 -11.761  1.00  0.00     0.165 C 
BRANCH  17  20
HETATM   20  O1  UNL     1     -18.159 -35.015 -10.072  1.00  0.00    -0.304 OA
BRANCH  20  21
HETATM   21  C2  UNL     1     -17.648 -33.903  -9.362  1.00  0.00     0.176 C 
HETATM   22  C1  UNL     1     -18.487 -32.692  -9.668  1.00  0.00     0.034 C 
ENDBRANCH  20  21
ENDBRANCH  17  20
ENDBRANCH  15  16
BRANCH  15  23
HETATM   23  O3  UNL     1     -16.404 -37.211  -8.490  1.00  0.00    -0.332 OA
ATOM     24  H3  UNL     1     -16.882 -37.149  -7.672  1.00  0.00     0.221 HD
ENDBRANCH  15  23
ENDBRANCH   1  15
BRANCH  14  25
HETATM   25  C15 UNL     1     -17.245 -40.712  -9.165  1.00  0.00     0.001 C 
HETATM   26  C16 UNL     1     -16.401 -41.289  -9.994  1.00  0.00    -0.089 C 
HETATM   27  C17 UNL     1     -15.322 -42.127  -9.391  1.00  0.00     0.042 C 
HETATM   28  C18 UNL     1     -16.435 -41.174 -11.454  1.00  0.00     0.042 C 
ENDBRANCH  14  25
BRANCH   6  29
HETATM   29  O4  UNL     1     -22.941 -40.456 -10.898  1.00  0.00    -0.312 OA
ATOM     30  H4  UNL     1     -22.898 -40.555 -11.843  1.00  0.00     0.237 HD
ENDBRANCH   6  29
TORSDOF 7
ENDMDL
MODEL 4
REMARK VINA RESULT: -7.689999092      3.485      7.064
REMARK  7 active torsions:
REMARK  status: ('A' for Active; 'I' for Inactive)
REMARK    1  A    between atoms: C2_2  and  O1_3 
REMARK    2  A    between atoms: O1_3  and  C3_4 
REMARK       I    between atoms: C3_4  and  N1_6 
REMARK    3  A    between atoms: N1_6  and  C5_8 
REMARK    4  A    between atoms: C5_8  and  O3_9 
REMARK    5  A    between atoms: C5_8  and  N2_11 
REMARK    6  A    between atoms: N3_16  and  O4_17 
REMARK    7  A    between atoms: C14_26  and  C15_27 
ROOT
HETATM    1  N2  UNL     1     -15.763 -37.180 -11.463  1.00  0.00    -0.335 N 
HETATM    2  C6  UNL     1     -14.954 -37.964 -12.576  1.00  0.00     0.163 C 
HETATM    3  C7  UNL     1     -14.448 -38.942 -11.622  1.00  0.00    -0.042 C 
HETATM    4  C8  UNL     1     -13.305 -38.719 -11.047  1.00  0.00    -0.004 C 
HETATM    5  C9  UNL     1     -12.686 -39.637 -10.005  1.00  0.00     0.149 C 
HETATM    6  N3  UNL     1     -13.657 -39.709  -8.948  1.00  0.00    -0.182 NA
HETATM    7  C10 UNL     1     -15.008 -39.786  -9.096  1.00  0.00     0.186 C 
HETATM    8  C11 UNL     1     -15.201 -41.301  -9.425  1.00  0.00     0.238 C 
HETATM    9  O5  UNL     1     -15.499 -42.213  -8.679  1.00  0.00    -0.272 OA
HETATM   10  N4  UNL     1     -14.921 -41.254 -10.835  1.00  0.00    -0.351 N 
ATOM     11  H4  UNL     1     -14.448 -41.977 -11.377  1.00  0.00     0.163 HD
HETATM   12  C12 UNL     1     -15.417 -40.035 -11.332  1.00  0.00     0.123 C 
HETATM   13  C13 UNL     1     -15.977 -39.296 -10.029  1.00  0.00     0.068 C 
HETATM   14  C14 UNL     1     -16.336 -37.927 -10.382  1.00  0.00     0.119 C 
ENDROOT
BRANCH   1  15
HETATM   15  C5  UNL     1     -15.800 -35.822 -11.721  1.00  0.00     0.226 C 
BRANCH  15  16
HETATM   16  N1  UNL     1     -15.117 -34.711 -11.212  1.00  0.00    -0.264 N 
HETATM   17  C3  UNL     1     -15.896 -33.572 -10.741  1.00  0.00     0.369 C 
HETATM   18  O2  UNL     1     -15.308 -32.576 -10.284  1.00  0.00    -0.238 OA
HETATM   19  C4  UNL     1     -13.701 -34.553 -11.091  1.00  0.00     0.165 C 
BRANCH  17  20
HETATM   20  O1  UNL     1     -17.266 -33.587 -10.797  1.00  0.00    -0.304 OA
BRANCH  20  21
HETATM   21  C2  UNL     1     -17.995 -33.579  -9.585  1.00  0.00     0.176 C 
HETATM   22  C1  UNL     1     -18.776 -32.296  -9.486  1.00  0.00     0.034 C 
ENDBRANCH  20  21
ENDBRANCH  17  20
ENDBRANCH  15  16
BRANCH  15  23
HETATM   23  O3  UNL     1     -16.684 -35.511 -12.666  1.00  0.00    -0.332 OA
ATOM     24  H3  UNL     1     -16.450 -34.734 -13.161  1.00  0.00     0.221 HD
ENDBRANCH  15  23
ENDBRANCH   1  15
BRANCH  14  25
HETATM   25  C15 UNL     1     -17.837 -37.993 -10.747  1.00  0.00     0.001 C 
HETATM   26  C16 UNL     1     -18.755 -37.617  -9.880  1.00  0.00    -0.089 C 
HETATM   27  C17 UNL     1     -20.180 -37.713 -10.315  1.00  0.00     0.042 C 
HETATM   28  C18 UNL     1     -18.490 -37.114  -8.530  1.00  0.00     0.042 C 
ENDBRANCH  14  25
BRANCH   6  29
HETATM   29  O4  UNL     1     -13.242 -40.685  -8.073  1.00  0.00    -0.312 OA
ATOM     30  H4  UNL     1     -14.020 -41.087  -7.703  1.00  0.00     0.237 HD
ENDBRANCH   6  29
TORSDOF 7
ENDMDL
MODEL 5
REMARK VINA RESULT: -7.667484541      1.042      2.028
REMARK  7 active torsions:
REMARK  status: ('A' for Active; 'I' for Inactive)
REMARK    1  A    between atoms: C2_2  and  O1_3 
REMARK    2  A    between atoms: O1_3  and  C3_4 
REMARK       I    between atoms: C3_4  and  N1_6 
REMARK    3  A    between atoms: N1_6  and  C5_8 
REMARK    4  A    between atoms: C5_8  and  O3_9 
REMARK    5  A    between atoms: C5_8  and  N2_11 
REMARK    6  A    between atoms: N3_16  and  O4_17 
REMARK    7  A    between atoms: C14_26  and  C15_27 
ROOT
HETATM    1  N2  UNL     1     -18.502 -39.840  -9.577  1.00  0.00    -0.335 N 
HETATM    2  C6  UNL     1     -17.011 -39.709  -9.058  1.00  0.00     0.163 C 
HETATM    3  C7  UNL     1     -16.807 -38.441  -9.747  1.00  0.00    -0.042 C 
HETATM    4  C8  UNL     1     -16.313 -38.458 -10.949  1.00  0.00    -0.004 C 
HETATM    5  C9  UNL     1     -16.089 -37.212 -11.790  1.00  0.00     0.149 C 
HETATM    6  N3  UNL     1     -17.384 -36.597 -11.899  1.00  0.00    -0.182 NA
HETATM    7  C10 UNL     1     -18.318 -36.502 -10.914  1.00  0.00     0.186 C 
HETATM    8  C11 UNL     1     -17.775 -35.294 -10.084  1.00  0.00     0.238 C 
HETATM    9  O5  UNL     1     -18.099 -34.124 -10.137  1.00  0.00    -0.272 OA
HETATM   10  N4  UNL     1     -16.813 -35.997  -9.280  1.00  0.00    -0.351 N 
ATOM     11  H4  UNL     1     -15.910 -35.637  -8.971  1.00  0.00     0.163 HD
HETATM   12  C12 UNL     1     -17.339 -37.272  -8.995  1.00  0.00     0.123 C 
HETATM   13  C13 UNL     1     -18.726 -37.294  -9.793  1.00  0.00     0.068 C 
HETATM   14  C14 UNL     1     -19.275 -38.644  -9.744  1.00  0.00     0.119 C 
ENDROOT
BRANCH   1  15
HETATM   15  C5  UNL     1     -18.852 -41.160  -9.796  1.00  0.00     0.226 C 
BRANCH  15  16
HETATM   16  N1  UNL     1     -19.471 -42.149  -9.022  1.00  0.00    -0.264 N 
HETATM   17  C3  UNL     1     -20.908 -42.344  -9.164  1.00  0.00     0.369 C 
HETATM   18  O2  UNL     1     -21.477 -43.218  -8.487  1.00  0.00    -0.238 OA
HETATM   19  C4  UNL     1     -18.843 -43.023  -8.081  1.00  0.00     0.165 C 
BRANCH  17  20
HETATM   20  O1  UNL     1     -21.639 -41.574 -10.033  1.00  0.00    -0.304 OA
BRANCH  20  21
HETATM   21  C2  UNL     1     -22.949 -41.989 -10.370  1.00  0.00     0.176 C 
HETATM   22  C1  UNL     1     -23.943 -41.109  -9.662  1.00  0.00     0.034 C 
ENDBRANCH  20  21
ENDBRANCH  17  20
ENDBRANCH  15  16
BRANCH  15  23
HETATM   23  O3  UNL     1     -18.525 -41.572 -11.018  1.00  0.00    -0.332 OA
ATOM     24  H3  UNL     1     -17.829 -42.218 -11.025  1.00  0.00     0.221 HD
ENDBRANCH  15  23
ENDBRANCH   1  15
BRANCH  14  25
HETATM   25  C15 UNL     1     -20.211 -38.646  -8.513  1.00  0.00     0.001 C 
HETATM   26  C16 UNL     1     -21.489 -38.359  -8.643  1.00  0.00    -0.089 C 
HETATM   27  C17 UNL     1     -22.320 -38.386  -7.402  1.00  0.00     0.042 C 
HETATM   28  C18 UNL     1     -22.158 -38.019  -9.900  1.00  0.00     0.042 C 
ENDBRANCH  14  25
BRANCH   6  29
HETATM   29  O4  UNL     1     -17.207 -35.362 -12.476  1.00  0.00    -0.312 OA
ATOM     30  H4  UNL     1     -16.711 -35.490 -13.277  1.00  0.00     0.237 HD
ENDBRANCH   6  29
TORSDOF 7
ENDMDL
