MODEL 1
REMARK VINA RESULT: -8.272467767      0.000      0.000
REMARK  4 active torsions:
REMARK  status: ('A' for Active; 'I' for Inactive)
REMARK    1  A    between atoms: N1_7  and  N2_9 
REMARK    2  A    between atoms: N2_9  and  C6_11 
REMARK    3  A    between atoms: C6_11  and  N3_13 
REMARK       I    between atoms: N4_16  and  C9_17 
REMARK       I    between atoms: C9_17  and  N5_19 
REMARK    4  A    between atoms: N5_19  and  C10_21 
ROOT
HETATM    1  N3  UNL     1     -14.231 -37.085 -11.430  1.00  0.00    -0.354 N 
HETATM    2  C7  UNL     1     -15.338 -37.619 -12.276  1.00  0.00     0.145 C 
HETATM    3  C8  UNL     1     -15.843 -38.933 -11.734  1.00  0.00     0.147 C 
HETATM    4  N4  UNL     1     -16.002 -38.802 -10.303  1.00  0.00    -0.331 N 
HETATM    5  C9  UNL     1     -17.224 -39.071  -9.663  1.00  0.00     0.318 C 
HETATM    6  O2  UNL     1     -17.277 -38.930  -8.390  1.00  0.00    -0.247 OA
HETATM    7  N5  UNL     1     -18.402 -39.483 -10.284  1.00  0.00    -0.338 N 
ATOM      8  H5  UNL     1     -18.394 -39.605 -11.297  1.00  0.00     0.164 HD
HETATM    9  C16 UNL     1     -14.831 -38.378  -9.531  1.00  0.00     0.147 C 
HETATM   10  C17 UNL     1     -13.705 -38.017 -10.491  1.00  0.00     0.145 C 
ENDROOT
BRANCH   1  11
HETATM   11  C6  UNL     1     -13.832 -35.767 -11.637  1.00  0.00     0.188 C 
HETATM   12  S1  UNL     1     -12.177 -35.498 -11.700  1.00  0.00    -0.039 SA
BRANCH  11  13
HETATM   13  N2  UNL     1     -14.614 -34.619 -11.801  1.00  0.00    -0.276 N 
ATOM     14  H2  UNL     1     -14.910 -34.402 -12.752  1.00  0.00     0.189 HD
BRANCH  13  15
HETATM   15  N1  UNL     1     -15.025 -33.752 -10.814  1.00  0.00    -0.306 N 
HETATM   16  C5  UNL     1     -15.943 -33.939  -9.958  1.00  0.00     0.010 C 
HETATM   17  C4  UNL     1     -16.729 -35.186  -9.911  1.00  0.00     0.055 C 
HETATM   18  C18 UNL     1     -16.253 -32.879  -8.954  1.00  0.00     0.132 C 
HETATM   19  C3  UNL     1     -18.199 -34.884  -9.851  1.00  0.00     0.013 C 
HETATM   20  C2  UNL     1     -18.464 -33.419 -10.073  1.00  0.00     0.079 C 
HETATM   21  C1  UNL     1     -17.708 -32.589  -9.119  1.00  0.00     0.132 C 
HETATM   22  O1  UNL     1     -18.219 -31.703  -8.483  1.00  0.00    -0.298 OA
ATOM     23  H1  UNL     1     -14.536 -32.858 -10.765  1.00  0.00     0.186 HD
ENDBRANCH  13  15
ENDBRANCH  11  13
ENDBRANCH   1  11
BRANCH   7  24
HETATM   24  C10 UNL     1     -19.642 -39.750  -9.573  1.00  0.00     0.086 C 
HETATM   25  C11 UNL     1     -20.646 -38.713  -9.938  1.00  0.00     0.025 C 
HETATM   26  C12 UNL     1     -22.036 -38.968  -9.486  1.00  0.00     0.002 C 
HETATM   27  C13 UNL     1     -22.451 -40.391  -9.392  1.00  0.00     0.000 C 
HETATM   28  C14 UNL     1     -21.378 -41.344  -8.986  1.00  0.00     0.002 C 
HETATM   29  C15 UNL     1     -20.200 -41.114  -9.933  1.00  0.00     0.025 C 
ENDBRANCH   7  24
TORSDOF 4
ENDMDL
MODEL 2
REMARK VINA RESULT: -8.043375279      4.133      8.740
REMARK  4 active torsions:
REMARK  status: ('A' for Active; 'I' for Inactive)
REMARK    1  A    between atoms: N1_7  and  N2_9 
REMARK    2  A    between atoms: N2_9  and  C6_11 
REMARK    3  A    between atoms: C6_11  and  N3_13 
REMARK       I    between atoms: N4_16  and  C9_17 
REMARK       I    between atoms: C9_17  and  N5_19 
REMARK    4  A    between atoms: N5_19  and  C10_21 
ROOT
HETATM    1  N3  UNL     1     -20.066 -40.996  -8.499  1.00  0.00    -0.354 N 
HETATM    2  C7  UNL     1     -19.781 -39.779  -7.685  1.00  0.00     0.145 C 
HETATM    3  C8  UNL     1     -18.384 -39.275  -7.943  1.00  0.00     0.147 C 
HETATM    4  N4  UNL     1     -18.156 -39.279  -9.371  1.00  0.00    -0.331 N 
HETATM    5  C9  UNL     1     -17.760 -38.123 -10.065  1.00  0.00     0.318 C 
HETATM    6  O2  UNL     1     -17.580 -38.216 -11.330  1.00  0.00    -0.247 OA
HETATM    7  N5  UNL     1     -17.538 -36.865  -9.504  1.00  0.00    -0.338 N 
ATOM      8  H5  UNL     1     -17.673 -36.757  -8.499  1.00  0.00     0.164 HD
HETATM    9  C16 UNL     1     -18.351 -40.546 -10.080  1.00  0.00     0.147 C 
HETATM   10  C17 UNL     1     -18.919 -41.577  -9.112  1.00  0.00     0.145 C 
ENDROOT
BRANCH   1  11
HETATM   11  C6  UNL     1     -21.385 -41.433  -8.577  1.00  0.00     0.188 C 
HETATM   12  S1  UNL     1     -22.447 -40.434  -9.408  1.00  0.00    -0.039 SA
BRANCH  11  13
HETATM   13  N2  UNL     1     -21.966 -42.595  -8.060  1.00  0.00    -0.276 N 
ATOM     14  H2  UNL     1     -22.691 -43.034  -8.628  1.00  0.00     0.189 HD
BRANCH  13  15
HETATM   15  N1  UNL     1     -21.663 -43.210  -6.866  1.00  0.00    -0.306 N 
HETATM   16  C5  UNL     1     -22.111 -42.919  -5.715  1.00  0.00     0.010 C 
HETATM   17  C4  UNL     1     -23.072 -41.819  -5.502  1.00  0.00     0.055 C 
HETATM   18  C18 UNL     1     -21.669 -43.700  -4.523  1.00  0.00     0.132 C 
HETATM   19  C3  UNL     1     -22.616 -40.927  -4.383  1.00  0.00     0.013 C 
HETATM   20  C2  UNL     1     -21.219 -41.273  -3.944  1.00  0.00     0.079 C 
HETATM   21  C1  UNL     1     -21.113 -42.694  -3.571  1.00  0.00     0.132 C 
HETATM   22  O1  UNL     1     -20.602 -43.059  -2.543  1.00  0.00    -0.298 OA
ATOM     23  H1  UNL     1     -21.004 -43.987  -6.912  1.00  0.00     0.186 HD
ENDBRANCH  13  15
ENDBRANCH  11  13
ENDBRANCH   1  11
BRANCH   7  24
HETATM   24  C10 UNL     1     -17.127 -35.700 -10.269  1.00  0.00     0.086 C 
HETATM   25  C11 UNL     1     -17.356 -34.476  -9.453  1.00  0.00     0.025 C 
HETATM   26  C12 UNL     1     -16.773 -33.220  -9.987  1.00  0.00     0.002 C 
HETATM   27  C13 UNL     1     -15.520 -33.354 -10.774  1.00  0.00     0.000 C 
HETATM   28  C14 UNL     1     -15.404 -34.602 -11.584  1.00  0.00     0.002 C 
HETATM   29  C15 UNL     1     -15.656 -35.772 -10.633  1.00  0.00     0.025 C 
ENDBRANCH   7  24
TORSDOF 4
ENDMDL
MODEL 3
REMARK VINA RESULT: -7.949237831      4.848      9.163
REMARK  4 active torsions:
REMARK  status: ('A' for Active; 'I' for Inactive)
REMARK    1  A    between atoms: N1_7  and  N2_9 
REMARK    2  A    between atoms: N2_9  and  C6_11 
REMARK    3  A    between atoms: C6_11  and  N3_13 
REMARK       I    between atoms: N4_16  and  C9_17 
REMARK       I    between atoms: C9_17  and  N5_19 
REMARK    4  A    between atoms: N5_19  and  C10_21 
ROOT
HETATM    1  N3  UNL     1     -21.556 -43.706  -8.303  1.00  0.00    -0.354 N 
HETATM    2  C7  UNL     1     -20.640 -43.631  -9.478  1.00  0.00     0.145 C 
HETATM    3  C8  UNL     1     -20.826 -42.332 -10.221  1.00  0.00     0.147 C 
HETATM    4  N4  UNL     1     -20.879 -41.259  -9.255  1.00  0.00    -0.331 N 
HETATM    5  C9  UNL     1     -20.008 -40.157  -9.318  1.00  0.00     0.318 C 
HETATM    6  O2  UNL     1     -20.124 -39.250  -8.421  1.00  0.00    -0.247 OA
HETATM    7  N5  UNL     1     -19.017 -39.948 -10.277  1.00  0.00    -0.338 N 
ATOM      8  H5  UNL     1     -18.899 -40.652 -11.006  1.00  0.00     0.164 HD
HETATM    9  C16 UNL     1     -21.884 -41.357  -8.194  1.00  0.00     0.147 C 
HETATM   10  C17 UNL     1     -22.575 -42.711  -8.284  1.00  0.00     0.145 C 
ENDROOT
BRANCH   1  11
HETATM   11  C6  UNL     1     -21.333 -44.712  -7.367  1.00  0.00     0.188 C 
HETATM   12  S1  UNL     1     -20.290 -45.941  -7.837  1.00  0.00    -0.039 SA
BRANCH  11  13
HETATM   13  N2  UNL     1     -21.854 -44.855  -6.077  1.00  0.00    -0.276 N 
ATOM     14  H2  UNL     1     -22.675 -45.452  -5.982  1.00  0.00     0.189 HD
BRANCH  13  15
HETATM   15  N1  UNL     1     -21.376 -44.275  -4.924  1.00  0.00    -0.306 N 
HETATM   16  C5  UNL     1     -21.884 -43.305  -4.283  1.00  0.00     0.010 C 
HETATM   17  C4  UNL     1     -23.125 -42.639  -4.721  1.00  0.00     0.055 C 
HETATM   18  C18 UNL     1     -21.224 -42.805  -3.042  1.00  0.00     0.132 C 
HETATM   19  C3  UNL     1     -22.947 -41.147  -4.742  1.00  0.00     0.013 C 
HETATM   20  C2  UNL     1     -21.508 -40.767  -4.523  1.00  0.00     0.079 C 
HETATM   21  C1  UNL     1     -20.985 -41.350  -3.276  1.00  0.00     0.132 C 
HETATM   22  O1  UNL     1     -20.383 -40.702  -2.459  1.00  0.00    -0.298 OA
ATOM     23  H1  UNL     1     -20.518 -44.671  -4.541  1.00  0.00     0.186 HD
ENDBRANCH  13  15
ENDBRANCH  11  13
ENDBRANCH   1  11
BRANCH   7  24
HETATM   24  C10 UNL     1     -18.143 -38.787 -10.298  1.00  0.00     0.086 C 
HETATM   25  C11 UNL     1     -16.874 -39.146 -10.988  1.00  0.00     0.025 C 
HETATM   26  C12 UNL     1     -15.966 -38.016 -11.306  1.00  0.00     0.002 C 
HETATM   27  C13 UNL     1     -16.611 -36.708 -11.588  1.00  0.00     0.000 C 
HETATM   28  C14 UNL     1     -17.859 -36.432 -10.820  1.00  0.00     0.002 C 
HETATM   29  C15 UNL     1     -18.786 -37.629 -11.037  1.00  0.00     0.025 C 
ENDBRANCH   7  24
TORSDOF 4
ENDMDL
MODEL 4
REMARK VINA RESULT: -7.877233437      4.589      8.454
REMARK  4 active torsions:
REMARK  status: ('A' for Active; 'I' for Inactive)
REMARK    1  A    between atoms: N1_7  and  N2_9 
REMARK    2  A    between atoms: N2_9  and  C6_11 
REMARK    3  A    between atoms: C6_11  and  N3_13 
REMARK       I    between atoms: N4_16  and  C9_17 
REMARK       I    between atoms: C9_17  and  N5_19 
REMARK    4  A    between atoms: N5_19  and  C10_21 
ROOT
HETATM    1  N3  UNL     1     -15.727 -43.035  -9.321  1.00  0.00    -0.354 N 
HETATM    2  C7  UNL     1     -15.179 -42.512 -10.606  1.00  0.00     0.145 C 
HETATM    3  C8  UNL     1     -15.966 -41.315 -11.078  1.00  0.00     0.147 C 
HETATM    4  N4  UNL     1     -16.176 -40.436  -9.950  1.00  0.00    -0.331 N 
HETATM    5  C9  UNL     1     -15.784 -39.087  -9.976  1.00  0.00     0.318 C 
HETATM    6  O2  UNL     1     -16.008 -38.378  -8.932  1.00  0.00    -0.247 OA
HETATM    7  N5  UNL     1     -15.165 -38.432 -11.040  1.00  0.00    -0.338 N 
ATOM      8  H5  UNL     1     -14.972 -38.968 -11.887  1.00  0.00     0.164 HD
HETATM    9  C16 UNL     1     -16.824 -41.004  -8.765  1.00  0.00     0.147 C 
HETATM   10  C17 UNL     1     -17.000 -42.504  -8.963  1.00  0.00     0.145 C 
ENDROOT
BRANCH   1  11
HETATM   11  C6  UNL     1     -14.966 -43.966  -8.619  1.00  0.00     0.188 C 
HETATM   12  S1  UNL     1     -15.520 -45.549  -8.653  1.00  0.00    -0.039 SA
BRANCH  11  13
HETATM   13  N2  UNL     1     -13.794 -43.776  -7.881  1.00  0.00    -0.276 N 
ATOM     14  H2  UNL     1     -13.909 -43.537  -6.896  1.00  0.00     0.189 HD
BRANCH  13  15
HETATM   15  N1  UNL     1     -12.501 -43.878  -8.342  1.00  0.00    -0.306 N 
HETATM   16  C5  UNL     1     -11.748 -42.936  -8.737  1.00  0.00     0.010 C 
HETATM   17  C4  UNL     1     -12.193 -41.530  -8.750  1.00  0.00     0.055 C 
HETATM   18  C18 UNL     1     -10.363 -43.235  -9.206  1.00  0.00     0.132 C 
HETATM   19  C3  UNL     1     -11.900 -40.894 -10.080  1.00  0.00     0.013 C 
HETATM   20  C2  UNL     1     -11.442 -41.917 -11.083  1.00  0.00     0.079 C 
HETATM   21  C1  UNL     1     -10.279 -42.671 -10.585  1.00  0.00     0.132 C 
HETATM   22  O1  UNL     1      -9.285 -42.842 -11.243  1.00  0.00    -0.298 OA
ATOM     23  H1  UNL     1     -12.103 -44.817  -8.369  1.00  0.00     0.186 HD
ENDBRANCH  13  15
ENDBRANCH  11  13
ENDBRANCH   1  11
BRANCH   7  24
HETATM   24  C10 UNL     1     -14.780 -37.030 -11.015  1.00  0.00     0.086 C 
HETATM   25  C11 UNL     1     -13.521 -36.857 -11.791  1.00  0.00     0.025 C 
HETATM   26  C12 UNL     1     -13.115 -35.457 -12.065  1.00  0.00     0.002 C 
HETATM   27  C13 UNL     1     -14.212 -34.467 -12.215  1.00  0.00     0.000 C 
HETATM   28  C14 UNL     1     -15.416 -34.713 -11.369  1.00  0.00     0.002 C 
HETATM   29  C15 UNL     1     -15.855 -36.154 -11.631  1.00  0.00     0.025 C 
ENDBRANCH   7  24
TORSDOF 4
ENDMDL
MODEL 5
REMARK VINA RESULT: -7.848051171      3.147      6.807
REMARK  4 active torsions:
REMARK  status: ('A' for Active; 'I' for Inactive)
REMARK    1  A    between atoms: N1_7  and  N2_9 
REMARK    2  A    between atoms: N2_9  and  C6_11 
REMARK    3  A    between atoms: C6_11  and  N3_13 
REMARK       I    between atoms: N4_16  and  C9_17 
REMARK       I    between atoms: C9_17  and  N5_19 
REMARK    4  A    between atoms: N5_19  and  C10_21 
ROOT
HETATM    1  N3  UNL     1     -14.999 -41.804  -9.476  1.00  0.00    -0.354 N 
HETATM    2  C7  UNL     1     -14.285 -40.617  -8.920  1.00  0.00     0.145 C 
HETATM    3  C8  UNL     1     -14.024 -39.595  -9.998  1.00  0.00     0.147 C 
HETATM    4  N4  UNL     1     -15.233 -39.434 -10.774  1.00  0.00    -0.331 N 
HETATM    5  C9  UNL     1     -15.841 -38.180 -10.954  1.00  0.00     0.318 C 
HETATM    6  O2  UNL     1     -16.910 -38.128 -11.657  1.00  0.00    -0.247 OA
HETATM    7  N5  UNL     1     -15.389 -36.967 -10.435  1.00  0.00    -0.338 N 
ATOM      8  H5  UNL     1     -14.540 -36.973  -9.870  1.00  0.00     0.164 HD
HETATM    9  C16 UNL     1     -15.809 -40.638 -11.380  1.00  0.00     0.147 C 
HETATM   10  C17 UNL     1     -15.034 -41.858 -10.899  1.00  0.00     0.145 C 
ENDROOT
BRANCH   1  11
HETATM   11  C6  UNL     1     -15.543 -42.716  -8.576  1.00  0.00     0.188 C 
HETATM   12  S1  UNL     1     -15.022 -44.304  -8.727  1.00  0.00    -0.039 SA
BRANCH  11  13
HETATM   13  N2  UNL     1     -16.471 -42.505  -7.552  1.00  0.00    -0.276 N 
ATOM     14  H2  UNL     1     -16.097 -42.425  -6.607  1.00  0.00     0.189 HD
BRANCH  13  15
HETATM   15  N1  UNL     1     -17.837 -42.393  -7.685  1.00  0.00    -0.306 N 
HETATM   16  C5  UNL     1     -18.497 -41.359  -8.011  1.00  0.00     0.010 C 
HETATM   17  C4  UNL     1     -17.840 -40.072  -8.309  1.00  0.00     0.055 C 
HETATM   18  C18 UNL     1     -19.984 -41.423  -8.107  1.00  0.00     0.132 C 
HETATM   19  C3  UNL     1     -18.501 -38.954  -7.553  1.00  0.00     0.013 C 
HETATM   20  C2  UNL     1     -19.491 -39.483  -6.551  1.00  0.00     0.079 C 
HETATM   21  C1  UNL     1     -20.489 -40.354  -7.196  1.00  0.00     0.132 C 
HETATM   22  O1  UNL     1     -21.673 -40.232  -7.012  1.00  0.00    -0.298 OA
ATOM     23  H1  UNL     1     -18.380 -43.236  -7.500  1.00  0.00     0.186 HD
ENDBRANCH  13  15
ENDBRANCH  11  13
ENDBRANCH   1  11
BRANCH   7  24
HETATM   24  C10 UNL     1     -16.057 -35.695 -10.653  1.00  0.00     0.086 C 
HETATM   25  C11 UNL     1     -17.130 -35.528  -9.634  1.00  0.00     0.025 C 
HETATM   26  C12 UNL     1     -17.754 -34.183  -9.563  1.00  0.00     0.002 C 
HETATM   27  C13 UNL     1     -16.884 -33.030  -9.909  1.00  0.00     0.000 C 
HETATM   28  C14 UNL     1     -15.864 -33.293 -10.965  1.00  0.00     0.002 C 
HETATM   29  C15 UNL     1     -15.086 -34.536 -10.529  1.00  0.00     0.025 C 
ENDBRANCH   7  24
TORSDOF 4
ENDMDL
