MODEL 1
REMARK VINA RESULT: -9.140723579      0.000      0.000
REMARK  4 active torsions:
REMARK  status: ('A' for Active; 'I' for Inactive)
REMARK       I    between atoms: C2_2  and  N1_4 
REMARK    1  A    between atoms: C5_7  and  C6_8 
REMARK    2  A    between atoms: C6_8  and  N2_9 
REMARK       I    between atoms: N2_9  and  C7_10 
REMARK    3  A    between atoms: C7_10  and  C8_12 
REMARK       I    between atoms: C8_12  and  N3_14 
REMARK    4  A    between atoms: N3_14  and  N4_16 
ROOT
HETATM    1  C8  UNL     1     -11.904 -38.631 -10.854  1.00  0.00     0.342 C 
HETATM    2  O3  UNL     1     -11.516 -39.778 -10.965  1.00  0.00    -0.259 OA
HETATM    3  N3  UNL     1     -12.982 -38.261 -10.037  1.00  0.00    -0.261 N 
ATOM      4  H3  UNL     1     -13.258 -37.281  -9.985  1.00  0.00     0.190 HD
ENDROOT
BRANCH   1   5
HETATM    5  C7  UNL     1     -11.218 -37.527 -11.597  1.00  0.00     0.385 C 
HETATM    6  N2  UNL     1     -11.743 -36.266 -11.699  1.00  0.00    -0.379 NA
HETATM    7  O2  UNL     1     -10.096 -37.838 -12.143  1.00  0.00    -0.246 OA
BRANCH   6   8
HETATM    8  C6  UNL     1     -12.270 -35.001 -11.801  1.00  0.00     0.164 C 
BRANCH   8   9
HETATM    9  C5  UNL     1     -13.759 -34.907 -11.512  1.00  0.00     0.041 C 
HETATM   10  C4  UNL     1     -14.557 -36.002 -12.139  1.00  0.00     0.031 C 
HETATM   11  C3  UNL     1     -15.999 -35.892 -11.763  1.00  0.00     0.126 C 
HETATM   12  N1  UNL     1     -16.337 -34.724 -10.996  1.00  0.00    -0.352 N 
HETATM   13  C2  UNL     1     -17.485 -34.825 -10.139  1.00  0.00     0.215 C 
HETATM   14  C20 UNL     1     -15.639 -33.463 -11.009  1.00  0.00     0.126 C 
HETATM   15  C1  UNL     1     -17.908 -33.687  -9.292  1.00  0.00     0.117 C 
HETATM   16  O1  UNL     1     -18.143 -35.886 -10.104  1.00  0.00    -0.274 OA
HETATM   17  C19 UNL     1     -14.389 -33.594 -11.864  1.00  0.00     0.031 C 
ENDBRANCH   8   9
ENDBRANCH   6   8
ENDBRANCH   1   5
BRANCH   3  18
HETATM   18  N4  UNL     1     -13.676 -39.200  -9.301  1.00  0.00    -0.305 N 
HETATM   19  C9  UNL     1     -14.706 -39.795  -9.690  1.00  0.00     0.012 C 
HETATM   20  C10 UNL     1     -15.364 -40.800  -8.786  1.00  0.00     0.034 C 
HETATM   21  C17 UNL     1     -15.345 -39.606 -11.008  1.00  0.00     0.034 C 
HETATM   22  C11 UNL     1     -16.808 -40.412  -8.674  1.00  0.00     0.015 C 
HETATM   23  C15 UNL     1     -15.156 -42.119  -9.543  1.00  0.00     0.015 C 
HETATM   24  C12 UNL     1     -17.486 -40.380 -10.017  1.00  0.00    -0.013 C 
HETATM   25  C13 UNL     1     -17.337 -41.733 -10.660  1.00  0.00     0.009 C 
HETATM   26  C18 UNL     1     -16.828 -39.288 -10.845  1.00  0.00     0.015 C 
HETATM   27  C14 UNL     1     -15.880 -42.033 -10.867  1.00  0.00    -0.013 C 
HETATM   28  C16 UNL     1     -15.301 -40.959 -11.747  1.00  0.00     0.015 C 
ATOM     29  H4  UNL     1     -13.324 -39.424  -8.370  1.00  0.00     0.186 HD
ENDBRANCH   3  18
TORSDOF 4
ENDMDL
MODEL 2
REMARK VINA RESULT: -8.846918273      1.617      4.799
REMARK  4 active torsions:
REMARK  status: ('A' for Active; 'I' for Inactive)
REMARK       I    between atoms: C2_2  and  N1_4 
REMARK    1  A    between atoms: C5_7  and  C6_8 
REMARK    2  A    between atoms: C6_8  and  N2_9 
REMARK       I    between atoms: N2_9  and  C7_10 
REMARK    3  A    between atoms: C7_10  and  C8_12 
REMARK       I    between atoms: C8_12  and  N3_14 
REMARK    4  A    between atoms: N3_14  and  N4_16 
ROOT
HETATM    1  C8  UNL     1     -17.396 -34.898  -9.701  1.00  0.00     0.342 C 
HETATM    2  O3  UNL     1     -18.290 -35.160 -10.483  1.00  0.00    -0.259 OA
HETATM    3  N3  UNL     1     -17.034 -35.743  -8.641  1.00  0.00    -0.261 N 
ATOM      4  H3  UNL     1     -16.274 -35.468  -8.019  1.00  0.00     0.190 HD
ENDROOT
BRANCH   1   5
HETATM    5  C7  UNL     1     -16.611 -33.632  -9.846  1.00  0.00     0.385 C 
HETATM    6  N2  UNL     1     -15.329 -33.608 -10.328  1.00  0.00    -0.379 NA
HETATM    7  O2  UNL     1     -17.218 -32.558  -9.483  1.00  0.00    -0.246 OA
BRANCH   6   8
HETATM    8  C6  UNL     1     -14.043 -33.583 -10.813  1.00  0.00     0.164 C 
BRANCH   8   9
HETATM    9  C5  UNL     1     -13.480 -34.943 -11.191  1.00  0.00     0.041 C 
HETATM   10  C4  UNL     1     -12.014 -35.072 -10.940  1.00  0.00     0.031 C 
HETATM   11  C3  UNL     1     -11.537 -36.449 -11.268  1.00  0.00     0.126 C 
HETATM   12  N1  UNL     1     -12.528 -37.309 -11.853  1.00  0.00    -0.352 N 
HETATM   13  C2  UNL     1     -12.351 -38.721 -11.661  1.00  0.00     0.215 C 
HETATM   14  C20 UNL     1     -13.677 -36.892 -12.617  1.00  0.00     0.126 C 
HETATM   15  C1  UNL     1     -13.325 -39.694 -12.206  1.00  0.00     0.117 C 
HETATM   16  O1  UNL     1     -11.361 -39.143 -11.027  1.00  0.00    -0.274 OA
HETATM   17  C19 UNL     1     -13.765 -35.375 -12.597  1.00  0.00     0.031 C 
ENDBRANCH   8   9
ENDBRANCH   6   8
ENDBRANCH   1   5
BRANCH   3  18
HETATM   18  N4  UNL     1     -17.687 -36.939  -8.424  1.00  0.00    -0.305 N 
HETATM   19  C9  UNL     1     -17.342 -38.040  -8.909  1.00  0.00     0.012 C 
HETATM   20  C10 UNL     1     -18.143 -39.272  -8.587  1.00  0.00     0.034 C 
HETATM   21  C17 UNL     1     -16.171 -38.250  -9.784  1.00  0.00     0.034 C 
HETATM   22  C11 UNL     1     -18.509 -39.912  -9.894  1.00  0.00     0.015 C 
HETATM   23  C15 UNL     1     -17.155 -40.110  -7.766  1.00  0.00     0.015 C 
HETATM   24  C12 UNL     1     -17.292 -40.265 -10.704  1.00  0.00    -0.013 C 
HETATM   25  C13 UNL     1     -16.416 -41.173  -9.883  1.00  0.00     0.009 C 
HETATM   26  C18 UNL     1     -16.579 -38.972 -11.064  1.00  0.00     0.015 C 
HETATM   27  C14 UNL     1     -15.972 -40.453  -8.642  1.00  0.00    -0.013 C 
HETATM   28  C16 UNL     1     -15.216 -39.221  -9.060  1.00  0.00     0.015 C 
ATOM     29  H4  UNL     1     -18.512 -36.924  -7.824  1.00  0.00     0.186 HD
ENDBRANCH   3  18
TORSDOF 4
ENDMDL
MODEL 3
REMARK VINA RESULT: -8.837683219      3.163      4.613
REMARK  4 active torsions:
REMARK  status: ('A' for Active; 'I' for Inactive)
REMARK       I    between atoms: C2_2  and  N1_4 
REMARK    1  A    between atoms: C5_7  and  C6_8 
REMARK    2  A    between atoms: C6_8  and  N2_9 
REMARK       I    between atoms: N2_9  and  C7_10 
REMARK    3  A    between atoms: C7_10  and  C8_12 
REMARK       I    between atoms: C8_12  and  N3_14 
REMARK    4  A    between atoms: N3_14  and  N4_16 
ROOT
HETATM    1  C8  UNL     1     -16.325 -41.578  -9.661  1.00  0.00     0.342 C 
HETATM    2  O3  UNL     1     -16.451 -42.181  -8.612  1.00  0.00    -0.259 OA
HETATM    3  N3  UNL     1     -17.406 -41.264 -10.498  1.00  0.00    -0.261 N 
ATOM      4  H3  UNL     1     -17.235 -40.754 -11.366  1.00  0.00     0.190 HD
ENDROOT
BRANCH   1   5
HETATM    5  C7  UNL     1     -14.974 -41.120 -10.112  1.00  0.00     0.385 C 
HETATM    6  N2  UNL     1     -14.800 -40.125 -11.038  1.00  0.00    -0.379 NA
HETATM    7  O2  UNL     1     -13.974 -41.726  -9.576  1.00  0.00    -0.246 OA
BRANCH   6   8
HETATM    8  C6  UNL     1     -14.626 -39.127 -11.965  1.00  0.00     0.164 C 
BRANCH   8   9
HETATM    9  C5  UNL     1     -15.297 -37.808 -11.614  1.00  0.00     0.041 C 
HETATM   10  C4  UNL     1     -16.787 -37.894 -11.566  1.00  0.00     0.031 C 
HETATM   11  C3  UNL     1     -17.381 -36.587 -11.150  1.00  0.00     0.126 C 
HETATM   12  N1  UNL     1     -16.438 -35.514 -11.002  1.00  0.00    -0.352 N 
HETATM   13  C2  UNL     1     -16.798 -34.460 -10.095  1.00  0.00     0.215 C 
HETATM   14  C20 UNL     1     -15.172 -35.390 -11.679  1.00  0.00     0.126 C 
HETATM   15  C1  UNL     1     -15.889 -33.317  -9.854  1.00  0.00     0.117 C 
HETATM   16  O1  UNL     1     -17.894 -34.502  -9.496  1.00  0.00    -0.274 OA
HETATM   17  C19 UNL     1     -14.912 -36.652 -12.485  1.00  0.00     0.031 C 
ENDBRANCH   8   9
ENDBRANCH   6   8
ENDBRANCH   1   5
BRANCH   3  18
HETATM   18  N4  UNL     1     -18.695 -41.630 -10.171  1.00  0.00    -0.305 N 
HETATM   19  C9  UNL     1     -19.541 -40.875  -9.642  1.00  0.00     0.012 C 
HETATM   20  C10 UNL     1     -20.916 -41.403  -9.340  1.00  0.00     0.034 C 
HETATM   21  C17 UNL     1     -19.308 -39.460  -9.289  1.00  0.00     0.034 C 
HETATM   22  C11 UNL     1     -21.189 -41.118  -7.893  1.00  0.00     0.015 C 
HETATM   23  C15 UNL     1     -21.805 -40.586 -10.288  1.00  0.00     0.015 C 
HETATM   24  C12 UNL     1     -21.105 -39.648  -7.585  1.00  0.00    -0.013 C 
HETATM   25  C13 UNL     1     -22.075 -38.916  -8.474  1.00  0.00     0.009 C 
HETATM   26  C18 UNL     1     -19.672 -39.202  -7.830  1.00  0.00     0.015 C 
HETATM   27  C14 UNL     1     -21.696 -39.127  -9.911  1.00  0.00    -0.013 C 
HETATM   28  C16 UNL     1     -20.298 -38.606 -10.109  1.00  0.00     0.015 C 
ATOM     29  H4  UNL     1     -18.980 -42.588 -10.376  1.00  0.00     0.186 HD
ENDBRANCH   3  18
TORSDOF 4
ENDMDL
MODEL 4
REMARK VINA RESULT: -8.824613185      1.873      4.920
REMARK  4 active torsions:
REMARK  status: ('A' for Active; 'I' for Inactive)
REMARK       I    between atoms: C2_2  and  N1_4 
REMARK    1  A    between atoms: C5_7  and  C6_8 
REMARK    2  A    between atoms: C6_8  and  N2_9 
REMARK       I    between atoms: N2_9  and  C7_10 
REMARK    3  A    between atoms: C7_10  and  C8_12 
REMARK       I    between atoms: C8_12  and  N3_14 
REMARK    4  A    between atoms: N3_14  and  N4_16 
ROOT
HETATM    1  C8  UNL     1     -17.335 -34.680  -9.556  1.00  0.00     0.342 C 
HETATM    2  O3  UNL     1     -18.519 -34.549  -9.310  1.00  0.00    -0.259 OA
HETATM    3  N3  UNL     1     -16.585 -35.790  -9.141  1.00  0.00    -0.261 N 
ATOM      4  H3  UNL     1     -15.595 -35.843  -9.381  1.00  0.00     0.190 HD
ENDROOT
BRANCH   1   5
HETATM    5  C7  UNL     1     -16.608 -33.638 -10.346  1.00  0.00     0.385 C 
HETATM    6  N2  UNL     1     -15.601 -33.943 -11.223  1.00  0.00    -0.379 NA
HETATM    7  O2  UNL     1     -16.987 -32.425 -10.148  1.00  0.00    -0.246 OA
BRANCH   6   8
HETATM    8  C6  UNL     1     -14.591 -34.249 -12.104  1.00  0.00     0.164 C 
BRANCH   8   9
HETATM    9  C5  UNL     1     -14.018 -35.649 -11.951  1.00  0.00     0.041 C 
HETATM   10  C4  UNL     1     -12.526 -35.681 -11.919  1.00  0.00     0.031 C 
HETATM   11  C3  UNL     1     -12.028 -37.073 -11.700  1.00  0.00     0.126 C 
HETATM   12  N1  UNL     1     -13.048 -38.084 -11.684  1.00  0.00    -0.352 N 
HETATM   13  C2  UNL     1     -12.761 -39.278 -10.938  1.00  0.00     0.215 C 
HETATM   14  C20 UNL     1     -14.326 -38.019 -12.348  1.00  0.00     0.126 C 
HETATM   15  C1  UNL     1     -13.752 -40.374 -10.841  1.00  0.00     0.117 C 
HETATM   16  O1  UNL     1     -11.660 -39.401 -10.361  1.00  0.00    -0.274 OA
HETATM   17  C19 UNL     1     -14.496 -36.641 -12.967  1.00  0.00     0.031 C 
ENDBRANCH   8   9
ENDBRANCH   6   8
ENDBRANCH   1   5
BRANCH   3  18
HETATM   18  N4  UNL     1     -17.161 -36.813  -8.416  1.00  0.00    -0.305 N 
HETATM   19  C9  UNL     1     -17.773 -37.785  -8.912  1.00  0.00     0.012 C 
HETATM   20  C10 UNL     1     -18.351 -38.835  -8.004  1.00  0.00     0.034 C 
HETATM   21  C17 UNL     1     -17.972 -38.011 -10.358  1.00  0.00     0.034 C 
HETATM   22  C11 UNL     1     -19.799 -38.983  -8.369  1.00  0.00     0.015 C 
HETATM   23  C15 UNL     1     -17.516 -40.075  -8.351  1.00  0.00     0.015 C 
HETATM   24  C12 UNL     1     -19.976 -39.372  -9.811  1.00  0.00    -0.013 C 
HETATM   25  C13 UNL     1     -19.220 -40.651 -10.059  1.00  0.00     0.009 C 
HETATM   26  C18 UNL     1     -19.449 -38.233 -10.669  1.00  0.00     0.015 C 
HETATM   27  C14 UNL     1     -17.758 -40.427  -9.800  1.00  0.00    -0.013 C 
HETATM   28  C16 UNL     1     -17.279 -39.340 -10.722  1.00  0.00     0.015 C 
ATOM     29  H4  UNL     1     -17.082 -36.773  -7.400  1.00  0.00     0.186 HD
ENDBRANCH   3  18
TORSDOF 4
ENDMDL
MODEL 5
REMARK VINA RESULT: -8.789381509      1.458      2.063
REMARK  4 active torsions:
REMARK  status: ('A' for Active; 'I' for Inactive)
REMARK       I    between atoms: C2_2  and  N1_4 
REMARK    1  A    between atoms: C5_7  and  C6_8 
REMARK    2  A    between atoms: C6_8  and  N2_9 
REMARK       I    between atoms: N2_9  and  C7_10 
REMARK    3  A    between atoms: C7_10  and  C8_12 
REMARK       I    between atoms: C8_12  and  N3_14 
REMARK    4  A    between atoms: N3_14  and  N4_16 
ROOT
HETATM    1  C8  UNL     1     -13.525 -39.731  -9.720  1.00  0.00     0.342 C 
HETATM    2  O3  UNL     1     -13.654 -40.929  -9.552  1.00  0.00    -0.259 OA
HETATM    3  N3  UNL     1     -14.386 -38.781  -9.153  1.00  0.00    -0.261 N 
ATOM      4  H3  UNL     1     -14.224 -37.789  -9.330  1.00  0.00     0.190 HD
ENDROOT
BRANCH   1   5
HETATM    5  C7  UNL     1     -12.400 -39.203 -10.553  1.00  0.00     0.385 C 
HETATM    6  N2  UNL     1     -12.367 -37.915 -11.022  1.00  0.00    -0.379 NA
HETATM    7  O2  UNL     1     -11.456 -40.039 -10.808  1.00  0.00    -0.246 OA
BRANCH   6   8
HETATM    8  C6  UNL     1     -12.334 -36.625 -11.492  1.00  0.00     0.164 C 
BRANCH   8   9
HETATM    9  C5  UNL     1     -13.622 -35.842 -11.290  1.00  0.00     0.041 C 
HETATM   10  C4  UNL     1     -14.787 -36.410 -12.031  1.00  0.00     0.031 C 
HETATM   11  C3  UNL     1     -16.032 -35.638 -11.739  1.00  0.00     0.126 C 
HETATM   12  N1  UNL     1     -15.841 -34.470 -10.924  1.00  0.00    -0.352 N 
HETATM   13  C2  UNL     1     -16.968 -34.035 -10.147  1.00  0.00     0.215 C 
HETATM   14  C20 UNL     1     -14.633 -33.692 -10.815  1.00  0.00     0.126 C 
HETATM   15  C1  UNL     1     -16.873 -32.854  -9.259  1.00  0.00     0.117 C 
HETATM   16  O1  UNL     1     -18.050 -34.656 -10.218  1.00  0.00    -0.274 OA
HETATM   17  C19 UNL     1     -13.526 -34.379 -11.599  1.00  0.00     0.031 C 
ENDBRANCH   8   9
ENDBRANCH   6   8
ENDBRANCH   1   5
BRANCH   3  18
HETATM   18  N4  UNL     1     -15.449 -39.161  -8.360  1.00  0.00    -0.305 N 
HETATM   19  C9  UNL     1     -16.608 -39.383  -8.775  1.00  0.00     0.012 C 
HETATM   20  C10 UNL     1     -17.676 -39.796  -7.800  1.00  0.00     0.034 C 
HETATM   21  C17 UNL     1     -17.034 -39.288 -10.186  1.00  0.00     0.034 C 
HETATM   22  C11 UNL     1     -18.832 -38.859  -7.991  1.00  0.00     0.015 C 
HETATM   23  C15 UNL     1     -17.992 -41.233  -8.237  1.00  0.00     0.015 C 
HETATM   24  C12 UNL     1     -19.356 -38.895  -9.400  1.00  0.00    -0.013 C 
HETATM   25  C13 UNL     1     -19.747 -40.312  -9.730  1.00  0.00     0.009 C 
HETATM   26  C18 UNL     1     -18.258 -38.387 -10.320  1.00  0.00     0.015 C 
HETATM   27  C14 UNL     1     -18.537 -41.198  -9.646  1.00  0.00    -0.013 C 
HETATM   28  C16 UNL     1     -17.514 -40.688 -10.624  1.00  0.00     0.015 C 
ATOM     29  H4  UNL     1     -15.277 -39.269  -7.360  1.00  0.00     0.186 HD
ENDBRANCH   3  18
TORSDOF 4
ENDMDL
