MODEL 1
REMARK VINA RESULT: -9.594646082      0.000      0.000
REMARK  12 active torsions:
REMARK  status: ('A' for Active; 'I' for Inactive)
REMARK    1  A    between atoms: S1_2  and  N1_5 
REMARK    2  A    between atoms: N1_5  and  C2_7 
REMARK    3  A    between atoms: C5_10  and  O3_11 
REMARK    4  A    between atoms: O3_11  and  S2_12 
REMARK    5  A    between atoms: S2_12  and  C6_15 
REMARK    6  A    between atoms: C6_15  and  S3_16 
REMARK    7  A    between atoms: S3_16  and  C7_17 
REMARK    8  A    between atoms: C10_27  and  S4_28 
REMARK    9  A    between atoms: S4_28  and  N5_29 
REMARK   10  A    between atoms: N8_38  and  N9_40 
REMARK       I    between atoms: N9_40  and  C13_42 
REMARK   11  A    between atoms: C14_47  and  N12_48 
REMARK   12  A    between atoms: C15_52  and  O7_53 
ROOT
HETATM    1  C2  UNL     1      21.821  44.654  12.248  1.00  0.00     0.124 C 
HETATM    2  C3  UNL     1      21.177  44.422  13.573  1.00  0.00     0.031 C 
HETATM    3  C4  UNL     1      22.072  43.925  14.654  1.00  0.00     0.041 C 
HETATM    4  C5  UNL     1      23.049  44.949  15.185  1.00  0.00     0.191 C 
HETATM    5  C12 UNL     1      23.225  46.056  14.223  1.00  0.00     0.067 C 
HETATM    6  N8  UNL     1      22.830  47.230  14.440  1.00  0.00    -0.302 N 
ATOM      7  H8  UNL     1      23.024  47.884  13.681  1.00  0.00     0.186 HD
HETATM    8  C14 UNL     1      23.896  45.900  12.879  1.00  0.00     0.263 C 
HETATM    9  C15 UNL     1      23.324  44.630  12.285  1.00  0.00     0.177 C 
ENDROOT
BRANCH   4  10
HETATM   10  O3  UNL     1      22.789  45.343  16.471  1.00  0.00    -0.264 OA
BRANCH  10  11
HETATM   11  S2  UNL     1      23.943  44.678  17.533  1.00  0.00     0.275 S 
HETATM   12  O4  UNL     1      24.973  43.902  16.762  1.00  0.00    -0.198 OA
HETATM   13  O5  UNL     1      23.192  43.707  18.381  1.00  0.00    -0.198 OA
BRANCH  11  14
HETATM   14  C6  UNL     1      24.684  45.906  18.529  1.00  0.00     0.252 C 
BRANCH  14  15
HETATM   15  S3  UNL     1      25.618  45.162  19.869  1.00  0.00    -0.074 SA
BRANCH  15  16
HETATM   16  C7  UNL     1      24.636  44.576  21.201  1.00  0.00     0.183 A 
HETATM   17  N2  UNL     1      23.608  45.198  21.777  1.00  0.00    -0.169 N 
HETATM   18  C8  UNL     1      22.917  44.661  22.795  1.00  0.00     0.679 A 
ATOM     19  H2  UNL     1      23.335  46.117  21.430  1.00  0.00     0.186 HD
HETATM   20  N3  UNL     1      21.935  45.334  23.293  1.00  0.00    -0.234 N 
HETATM   21  N4  UNL     1      23.236  43.443  23.296  1.00  0.00    -0.173 N 
ATOM     22  H32 UNL     1      21.695  46.251  22.916  1.00  0.00     0.174 HD
ATOM     23  H31 UNL     1      21.410  44.927  24.067  1.00  0.00     0.174 HD
HETATM   24  C9  UNL     1      24.261  42.802  22.735  1.00  0.00     0.167 A 
ATOM     25  H4  UNL     1      22.713  43.034  24.070  1.00  0.00     0.186 HD
HETATM   26  C10 UNL     1      24.803  41.553  23.042  1.00  0.00     0.115 A 
HETATM   27  N7  UNL     1      24.946  43.345  21.717  1.00  0.00    -0.215 N 
HETATM   28  C11 UNL     1      25.842  41.391  22.151  1.00  0.00     0.134 A 
HETATM   29  N6  UNL     1      25.908  42.480  21.366  1.00  0.00    -0.300 N 
ATOM     30  H6  UNL     1      26.585  42.627  20.617  1.00  0.00     0.186 HD
BRANCH  26  31
HETATM   31  S4  UNL     1      24.294  40.440  24.266  1.00  0.00     0.149 S 
HETATM   32  O6  UNL     1      23.211  41.078  25.349  1.00  0.00    -0.230 OA
BRANCH  31  33
HETATM   33  N5  UNL     1      25.615  39.759  25.125  1.00  0.00    -0.345 NA
ATOM     34  H52 UNL     1      25.396  38.793  25.366  1.00  0.00     0.166 HD
ATOM     35  H51 UNL     1      25.899  40.331  25.920  1.00  0.00     0.166 HD
ENDBRANCH  31  33
ENDBRANCH  26  31
ENDBRANCH  15  16
ENDBRANCH  14  15
ENDBRANCH  11  14
ENDBRANCH  10  11
ENDBRANCH   4  10
BRANCH   6  36
HETATM   36  N9  UNL     1      22.190  47.786  15.506  1.00  0.00    -0.274 N 
HETATM   37  C13 UNL     1      20.797  48.042  15.462  1.00  0.00     0.200 C 
HETATM   38  N10 UNL     1      20.024  47.609  14.526  1.00  0.00    -0.372 N 
HETATM   39  N11 UNL     1      20.155  48.819  16.485  1.00  0.00    -0.062 NA
ATOM     40 2H10 UNL     1      20.480  47.058  13.800  1.00  0.00     0.158 HD
ATOM     41 1H10 UNL     1      19.022  47.794  14.494  1.00  0.00     0.158 HD
ATOM     42  H9  UNL     1      22.720  48.020  16.346  1.00  0.00     0.189 HD
ENDBRANCH   6  36
BRANCH   8  43
HETATM   43  N12 UNL     1      25.299  45.597  13.197  1.00  0.00    -0.067 N 
ATOM     44 3H12 UNL     1      25.665  46.118  13.994  1.00  0.00     0.275 HD
ATOM     45 2H12 UNL     1      25.444  44.668  13.591  1.00  0.00     0.275 HD
ATOM     46 1H12 UNL     1      25.803  45.763  12.326  1.00  0.00     0.275 HD
ENDBRANCH   8  43
BRANCH   1  47
HETATM   47  N1  UNL     1      21.354  43.779  11.215  1.00  0.00    -0.312 N 
ATOM     48  H1  UNL     1      20.973  44.115  10.331  1.00  0.00     0.172 HD
BRANCH  47  49
HETATM   49  S1  UNL     1      21.495  42.109  11.600  1.00  0.00     0.223 S 
HETATM   50  C1  UNL     1      21.398  41.090  10.157  1.00  0.00     0.185 C 
HETATM   51  O1  UNL     1      22.872  41.908  12.203  1.00  0.00    -0.206 OA
HETATM   52  O2  UNL     1      20.468  41.661  12.595  1.00  0.00    -0.206 OA
ENDBRANCH  47  49
ENDBRANCH   1  47
BRANCH   9  53
HETATM   53  O7  UNL     1      23.786  44.493  10.979  1.00  0.00    -0.391 OA
ATOM     54  H7  UNL     1      24.735  44.453  11.004  1.00  0.00     0.210 HD
ENDBRANCH   9  53
TORSDOF 12
ENDMDL
MODEL 2
REMARK VINA RESULT: -9.570578960      1.116      1.169
REMARK  12 active torsions:
REMARK  status: ('A' for Active; 'I' for Inactive)
REMARK    1  A    between atoms: S1_2  and  N1_5 
REMARK    2  A    between atoms: N1_5  and  C2_7 
REMARK    3  A    between atoms: C5_10  and  O3_11 
REMARK    4  A    between atoms: O3_11  and  S2_12 
REMARK    5  A    between atoms: S2_12  and  C6_15 
REMARK    6  A    between atoms: C6_15  and  S3_16 
REMARK    7  A    between atoms: S3_16  and  C7_17 
REMARK    8  A    between atoms: C10_27  and  S4_28 
REMARK    9  A    between atoms: S4_28  and  N5_29 
REMARK   10  A    between atoms: N8_38  and  N9_40 
REMARK       I    between atoms: N9_40  and  C13_42 
REMARK   11  A    between atoms: C14_47  and  N12_48 
REMARK   12  A    between atoms: C15_52  and  O7_53 
ROOT
HETATM    1  C2  UNL     1      21.770  44.650  12.285  1.00  0.00     0.124 C 
HETATM    2  C3  UNL     1      21.107  44.487  13.611  1.00  0.00     0.031 C 
HETATM    3  C4  UNL     1      21.984  44.032  14.726  1.00  0.00     0.041 C 
HETATM    4  C5  UNL     1      22.966  45.070  15.220  1.00  0.00     0.191 C 
HETATM    5  C12 UNL     1      23.165  46.129  14.210  1.00  0.00     0.067 C 
HETATM    6  N8  UNL     1      22.781  47.316  14.367  1.00  0.00    -0.302 N 
ATOM      7  H8  UNL     1      22.992  47.931  13.580  1.00  0.00     0.186 HD
HETATM    8  C14 UNL     1      23.851  45.903  12.883  1.00  0.00     0.263 C 
HETATM    9  C15 UNL     1      23.273  44.612  12.342  1.00  0.00     0.177 C 
ENDROOT
BRANCH   4  10
HETATM   10  O3  UNL     1      22.695  45.526  16.483  1.00  0.00    -0.264 OA
BRANCH  10  11
HETATM   11  S2  UNL     1      24.021  45.233  17.511  1.00  0.00     0.275 S 
HETATM   12  O4  UNL     1      24.961  46.405  17.494  1.00  0.00    -0.198 OA
HETATM   13  O5  UNL     1      24.741  44.072  16.912  1.00  0.00    -0.198 OA
BRANCH  11  14
HETATM   14  C6  UNL     1      23.504  44.853  19.135  1.00  0.00     0.252 C 
BRANCH  14  15
HETATM   15  S3  UNL     1      24.851  45.076  20.301  1.00  0.00    -0.074 SA
BRANCH  15  16
HETATM   16  C7  UNL     1      24.536  44.434  21.905  1.00  0.00     0.183 A 
HETATM   17  N2  UNL     1      23.738  44.953  22.836  1.00  0.00    -0.169 N 
HETATM   18  C8  UNL     1      23.564  44.382  24.039  1.00  0.00     0.679 A 
ATOM     19  H2  UNL     1      23.240  45.819  22.629  1.00  0.00     0.186 HD
HETATM   20  N3  UNL     1      22.772  44.955  24.882  1.00  0.00    -0.234 N 
HETATM   21  N4  UNL     1      24.201  43.233  24.370  1.00  0.00    -0.173 N 
ATOM     22  H32 UNL     1      22.293  45.820  24.633  1.00  0.00     0.174 HD
ATOM     23  H31 UNL     1      22.639  44.521  25.796  1.00  0.00     0.174 HD
HETATM   24  C9  UNL     1      25.004  42.694  23.452  1.00  0.00     0.167 A 
ATOM     25  H4  UNL     1      24.070  42.797  25.283  1.00  0.00     0.186 HD
HETATM   26  C10 UNL     1      25.774  41.532  23.518  1.00  0.00     0.115 A 
HETATM   27  N7  UNL     1      25.173  43.271  22.253  1.00  0.00    -0.215 N 
HETATM   28  C11 UNL     1      26.403  41.457  22.294  1.00  0.00     0.134 A 
HETATM   29  N6  UNL     1      26.026  42.512  21.552  1.00  0.00    -0.300 N 
ATOM     30  H6  UNL     1      26.340  42.706  20.601  1.00  0.00     0.186 HD
BRANCH  26  31
HETATM   31  S4  UNL     1      25.917  40.419  24.836  1.00  0.00     0.149 S 
HETATM   32  O6  UNL     1      27.352  39.586  24.861  1.00  0.00    -0.230 OA
BRANCH  31  33
HETATM   33  N5  UNL     1      24.616  39.302  24.897  1.00  0.00    -0.345 NA
ATOM     34  H52 UNL     1      24.547  38.818  24.002  1.00  0.00     0.166 HD
ATOM     35  H51 UNL     1      23.744  39.734  25.202  1.00  0.00     0.166 HD
ENDBRANCH  31  33
ENDBRANCH  26  31
ENDBRANCH  15  16
ENDBRANCH  14  15
ENDBRANCH  11  14
ENDBRANCH  10  11
ENDBRANCH   4  10
BRANCH   6  36
HETATM   36  N9  UNL     1      22.134  47.927  15.398  1.00  0.00    -0.274 N 
HETATM   37  C13 UNL     1      20.733  48.135  15.353  1.00  0.00     0.200 C 
HETATM   38  N10 UNL     1      19.965  47.610  14.461  1.00  0.00    -0.372 N 
HETATM   39  N11 UNL     1      20.077  48.964  16.324  1.00  0.00    -0.062 NA
ATOM     40 2H10 UNL     1      20.431  47.022  13.772  1.00  0.00     0.158 HD
ATOM     41 1H10 UNL     1      18.957  47.760  14.429  1.00  0.00     0.158 HD
ATOM     42  H9  UNL     1      22.665  48.239  16.212  1.00  0.00     0.189 HD
ENDBRANCH   6  36
BRANCH   8  43
HETATM   43  N12 UNL     1      25.246  45.601  13.233  1.00  0.00    -0.067 N 
ATOM     44 3H12 UNL     1      25.757  46.392  13.625  1.00  0.00     0.275 HD
ATOM     45 2H12 UNL     1      25.349  44.987  14.042  1.00  0.00     0.275 HD
ATOM     46 1H12 UNL     1      25.653  45.229  12.375  1.00  0.00     0.275 HD
ENDBRANCH   8  43
BRANCH   1  47
HETATM   47  N1  UNL     1      21.306  43.732  11.289  1.00  0.00    -0.312 N 
ATOM     48  H1  UNL     1      20.900  44.032  10.402  1.00  0.00     0.172 HD
BRANCH  47  49
HETATM   49  S1  UNL     1      21.496  42.079  11.721  1.00  0.00     0.223 S 
HETATM   50  C1  UNL     1      21.481  41.022  10.302  1.00  0.00     0.185 C 
HETATM   51  O1  UNL     1      22.861  41.945  12.369  1.00  0.00    -0.206 OA
HETATM   52  O2  UNL     1      20.458  41.618  12.697  1.00  0.00    -0.206 OA
ENDBRANCH  47  49
ENDBRANCH   1  47
BRANCH   9  53
HETATM   53  O7  UNL     1      23.749  44.410  11.050  1.00  0.00    -0.391 OA
ATOM     54  H7  UNL     1      24.595  44.836  10.977  1.00  0.00     0.210 HD
ENDBRANCH   9  53
TORSDOF 12
ENDMDL
MODEL 3
REMARK VINA RESULT: -9.139921245      1.429      2.035
REMARK  12 active torsions:
REMARK  status: ('A' for Active; 'I' for Inactive)
REMARK    1  A    between atoms: S1_2  and  N1_5 
REMARK    2  A    between atoms: N1_5  and  C2_7 
REMARK    3  A    between atoms: C5_10  and  O3_11 
REMARK    4  A    between atoms: O3_11  and  S2_12 
REMARK    5  A    between atoms: S2_12  and  C6_15 
REMARK    6  A    between atoms: C6_15  and  S3_16 
REMARK    7  A    between atoms: S3_16  and  C7_17 
REMARK    8  A    between atoms: C10_27  and  S4_28 
REMARK    9  A    between atoms: S4_28  and  N5_29 
REMARK   10  A    between atoms: N8_38  and  N9_40 
REMARK       I    between atoms: N9_40  and  C13_42 
REMARK   11  A    between atoms: C14_47  and  N12_48 
REMARK   12  A    between atoms: C15_52  and  O7_53 
ROOT
HETATM    1  C2  UNL     1      21.734  44.655  12.450  1.00  0.00     0.124 C 
HETATM    2  C3  UNL     1      21.104  44.472  13.790  1.00  0.00     0.031 C 
HETATM    3  C4  UNL     1      22.008  43.999  14.875  1.00  0.00     0.041 C 
HETATM    4  C5  UNL     1      23.002  45.028  15.361  1.00  0.00     0.191 C 
HETATM    5  C12 UNL     1      23.178  46.103  14.363  1.00  0.00     0.067 C 
HETATM    6  N8  UNL     1      22.798  47.287  14.548  1.00  0.00    -0.302 N 
ATOM      7  H8  UNL     1      22.990  47.915  13.767  1.00  0.00     0.186 HD
HETATM    8  C14 UNL     1      23.830  45.898  13.017  1.00  0.00     0.263 C 
HETATM    9  C15 UNL     1      23.237  44.616  12.469  1.00  0.00     0.177 C 
ENDROOT
BRANCH   4  10
HETATM   10  O3  UNL     1      22.763  45.464  16.637  1.00  0.00    -0.264 OA
BRANCH  10  11
HETATM   11  S2  UNL     1      23.829  44.704  17.728  1.00  0.00     0.275 S 
HETATM   12  O4  UNL     1      25.232  44.743  17.195  1.00  0.00    -0.198 OA
HETATM   13  O5  UNL     1      23.404  43.274  17.768  1.00  0.00    -0.198 OA
BRANCH  11  14
HETATM   14  C6  UNL     1      23.730  45.411  19.322  1.00  0.00     0.252 C 
BRANCH  14  15
HETATM   15  S3  UNL     1      22.684  44.422  20.394  1.00  0.00    -0.074 SA
BRANCH  15  16
HETATM   16  C7  UNL     1      23.397  42.899  20.899  1.00  0.00     0.183 A 
HETATM   17  N2  UNL     1      23.470  41.772  20.193  1.00  0.00    -0.169 N 
HETATM   18  C8  UNL     1      24.039  40.654  20.672  1.00  0.00     0.679 A 
ATOM     19  H2  UNL     1      23.079  41.757  19.251  1.00  0.00     0.186 HD
HETATM   20  N3  UNL     1      24.066  39.607  19.918  1.00  0.00    -0.234 N 
HETATM   21  N4  UNL     1      24.574  40.616  21.917  1.00  0.00    -0.173 N 
ATOM     22  H32 UNL     1      23.663  39.636  18.981  1.00  0.00     0.174 HD
ATOM     23  H31 UNL     1      24.499  38.757  20.282  1.00  0.00     0.174 HD
HETATM   24  C9  UNL     1      24.513  41.733  22.642  1.00  0.00     0.167 A 
ATOM     25  H4  UNL     1      25.006  39.768  22.283  1.00  0.00     0.186 HD
HETATM   26  C10 UNL     1      24.976  41.979  23.935  1.00  0.00     0.115 A 
HETATM   27  N7  UNL     1      23.943  42.846  22.156  1.00  0.00    -0.215 N 
HETATM   28  C11 UNL     1      24.647  43.294  24.183  1.00  0.00     0.134 A 
HETATM   29  N6  UNL     1      24.028  43.793  23.099  1.00  0.00    -0.300 N 
ATOM     30  H6  UNL     1      23.678  44.747  23.008  1.00  0.00     0.186 HD
BRANCH  26  31
HETATM   31  S4  UNL     1      25.785  40.885  25.006  1.00  0.00     0.149 S 
HETATM   32  O6  UNL     1      27.436  40.879  24.839  1.00  0.00    -0.230 OA
BRANCH  31  33
HETATM   33  N5  UNL     1      25.198  39.278  24.870  1.00  0.00    -0.345 NA
ATOM     34  H52 UNL     1      24.575  39.215  24.065  1.00  0.00     0.166 HD
ATOM     35  H51 UNL     1      24.787  38.939  25.740  1.00  0.00     0.166 HD
ENDBRANCH  31  33
ENDBRANCH  26  31
ENDBRANCH  15  16
ENDBRANCH  14  15
ENDBRANCH  11  14
ENDBRANCH  10  11
ENDBRANCH   4  10
BRANCH   6  36
HETATM   36  N9  UNL     1      22.178  47.883  15.605  1.00  0.00    -0.274 N 
HETATM   37  C13 UNL     1      20.775  48.082  15.602  1.00  0.00     0.200 C 
HETATM   38  N10 UNL     1      19.985  47.562  14.727  1.00  0.00    -0.372 N 
HETATM   39  N11 UNL     1      20.142  48.896  16.602  1.00  0.00    -0.062 NA
ATOM     40 2H10 UNL     1      20.434  46.985  14.018  1.00  0.00     0.158 HD
ATOM     41 1H10 UNL     1      18.975  47.706  14.726  1.00  0.00     0.158 HD
ATOM     42  H9  UNL     1      22.730  48.189  16.407  1.00  0.00     0.189 HD
ENDBRANCH   6  36
BRANCH   8  43
HETATM   43  N12 UNL     1      25.234  45.590  13.327  1.00  0.00    -0.067 N 
ATOM     44 3H12 UNL     1      25.819  46.413  13.466  1.00  0.00     0.275 HD
ATOM     45 2H12 UNL     1      25.376  45.191  14.255  1.00  0.00     0.275 HD
ATOM     46 1H12 UNL     1      25.540  44.986  12.564  1.00  0.00     0.275 HD
ENDBRANCH   8  43
BRANCH   1  47
HETATM   47  N1  UNL     1      21.245  43.754  11.451  1.00  0.00    -0.312 N 
ATOM     48  H1  UNL     1      20.798  44.068  10.590  1.00  0.00     0.172 HD
BRANCH  47  49
HETATM   49  S1  UNL     1      21.478  42.095  11.836  1.00  0.00     0.223 S 
HETATM   50  C1  UNL     1      21.457  41.075  10.390  1.00  0.00     0.185 C 
HETATM   51  O1  UNL     1      22.858  41.973  12.453  1.00  0.00    -0.206 OA
HETATM   52  O2  UNL     1      20.469  41.586  12.819  1.00  0.00    -0.206 OA
ENDBRANCH  47  49
ENDBRANCH   1  47
BRANCH   9  53
HETATM   53  O7  UNL     1      23.681  44.434  11.163  1.00  0.00    -0.391 OA
ATOM     54  H7  UNL     1      24.617  44.271  11.189  1.00  0.00     0.210 HD
ENDBRANCH   9  53
TORSDOF 12
ENDMDL
MODEL 4
REMARK VINA RESULT: -9.090303897      1.129      2.223
REMARK  12 active torsions:
REMARK  status: ('A' for Active; 'I' for Inactive)
REMARK    1  A    between atoms: S1_2  and  N1_5 
REMARK    2  A    between atoms: N1_5  and  C2_7 
REMARK    3  A    between atoms: C5_10  and  O3_11 
REMARK    4  A    between atoms: O3_11  and  S2_12 
REMARK    5  A    between atoms: S2_12  and  C6_15 
REMARK    6  A    between atoms: C6_15  and  S3_16 
REMARK    7  A    between atoms: S3_16  and  C7_17 
REMARK    8  A    between atoms: C10_27  and  S4_28 
REMARK    9  A    between atoms: S4_28  and  N5_29 
REMARK   10  A    between atoms: N8_38  and  N9_40 
REMARK       I    between atoms: N9_40  and  C13_42 
REMARK   11  A    between atoms: C14_47  and  N12_48 
REMARK   12  A    between atoms: C15_52  and  O7_53 
ROOT
HETATM    1  C2  UNL     1      21.770  44.649  12.318  1.00  0.00     0.124 C 
HETATM    2  C3  UNL     1      21.136  44.426  13.650  1.00  0.00     0.031 C 
HETATM    3  C4  UNL     1      22.040  43.938  14.728  1.00  0.00     0.041 C 
HETATM    4  C5  UNL     1      23.020  44.966  15.243  1.00  0.00     0.191 C 
HETATM    5  C12 UNL     1      23.188  46.066  14.272  1.00  0.00     0.067 C 
HETATM    6  N8  UNL     1      22.794  47.242  14.484  1.00  0.00    -0.302 N 
ATOM      7  H8  UNL     1      22.983  47.890  13.719  1.00  0.00     0.186 HD
HETATM    8  C14 UNL     1      23.850  45.901  12.925  1.00  0.00     0.263 C 
HETATM    9  C15 UNL     1      23.274  44.626  12.344  1.00  0.00     0.177 C 
ENDROOT
BRANCH   4  10
HETATM   10  O3  UNL     1      22.770  45.369  16.529  1.00  0.00    -0.264 OA
BRANCH  10  11
HETATM   11  S2  UNL     1      23.930  44.711  17.588  1.00  0.00     0.275 S 
HETATM   12  O4  UNL     1      24.916  43.874  16.823  1.00  0.00    -0.198 OA
HETATM   13  O5  UNL     1      23.173  43.798  18.492  1.00  0.00    -0.198 OA
BRANCH  11  14
HETATM   14  C6  UNL     1      24.733  45.954  18.515  1.00  0.00     0.252 C 
BRANCH  14  15
HETATM   15  S3  UNL     1      26.160  45.286  19.374  1.00  0.00    -0.074 SA
BRANCH  15  16
HETATM   16  C7  UNL     1      25.770  44.159  20.663  1.00  0.00     0.183 A 
HETATM   17  N2  UNL     1      26.242  42.923  20.821  1.00  0.00    -0.169 N 
HETATM   18  C8  UNL     1      25.879  42.136  21.847  1.00  0.00     0.679 A 
ATOM     19  H2  UNL     1      26.905  42.560  20.137  1.00  0.00     0.186 HD
HETATM   20  N3  UNL     1      26.386  40.952  21.922  1.00  0.00    -0.234 N 
HETATM   21  N4  UNL     1      25.001  42.566  22.786  1.00  0.00    -0.173 N 
ATOM     22  H32 UNL     1      27.047  40.629  21.215  1.00  0.00     0.174 HD
ATOM     23  H31 UNL     1      26.111  40.354  22.702  1.00  0.00     0.174 HD
HETATM   24  C9  UNL     1      24.516  43.800  22.649  1.00  0.00     0.167 A 
ATOM     25  H4  UNL     1      24.723  41.970  23.566  1.00  0.00     0.186 HD
HETATM   26  C10 UNL     1      23.610  44.493  23.453  1.00  0.00     0.115 A 
HETATM   27  N7  UNL     1      24.883  44.580  21.621  1.00  0.00    -0.215 N 
HETATM   28  C11 UNL     1      23.466  45.721  22.843  1.00  0.00     0.134 A 
HETATM   29  N6  UNL     1      24.241  45.749  21.745  1.00  0.00    -0.300 N 
ATOM     30  H6  UNL     1      24.326  46.538  21.105  1.00  0.00     0.186 HD
BRANCH  26  31
HETATM   31  S4  UNL     1      22.832  43.948  24.900  1.00  0.00     0.149 S 
HETATM   32  O6  UNL     1      22.624  42.303  24.973  1.00  0.00    -0.230 OA
BRANCH  31  33
HETATM   33  N5  UNL     1      21.322  44.719  25.165  1.00  0.00    -0.345 NA
ATOM     34  H52 UNL     1      21.308  45.608  24.664  1.00  0.00     0.166 HD
ATOM     35  H51 UNL     1      21.093  44.798  26.155  1.00  0.00     0.166 HD
ENDBRANCH  31  33
ENDBRANCH  26  31
ENDBRANCH  15  16
ENDBRANCH  14  15
ENDBRANCH  11  14
ENDBRANCH  10  11
ENDBRANCH   4  10
BRANCH   6  36
HETATM   36  N9  UNL     1      22.162  47.805  15.551  1.00  0.00    -0.274 N 
HETATM   37  C13 UNL     1      20.756  47.982  15.549  1.00  0.00     0.200 C 
HETATM   38  N10 UNL     1      19.976  47.470  14.660  1.00  0.00    -0.372 N 
HETATM   39  N11 UNL     1      20.108  48.765  16.564  1.00  0.00    -0.062 NA
ATOM     40 2H10 UNL     1      20.437  46.915  13.940  1.00  0.00     0.158 HD
ATOM     41 1H10 UNL     1      18.965  47.598  14.658  1.00  0.00     0.158 HD
ATOM     42  H9  UNL     1      22.707  48.102  16.361  1.00  0.00     0.189 HD
ENDBRANCH   6  36
BRANCH   8  43
HETATM   43  N12 UNL     1      25.255  45.601  13.235  1.00  0.00    -0.067 N 
ATOM     44 3H12 UNL     1      25.607  46.076  14.066  1.00  0.00     0.275 HD
ATOM     45 2H12 UNL     1      25.412  44.651  13.571  1.00  0.00     0.275 HD
ATOM     46 1H12 UNL     1      25.762  45.829  12.380  1.00  0.00     0.275 HD
ENDBRANCH   8  43
BRANCH   1  47
HETATM   47  N1  UNL     1      21.296  43.766  11.295  1.00  0.00    -0.312 N 
ATOM     48  H1  UNL     1      20.887  44.096  10.421  1.00  0.00     0.172 HD
BRANCH  47  49
HETATM   49  S1  UNL     1      21.479  42.099  11.674  1.00  0.00     0.223 S 
HETATM   50  C1  UNL     1      21.417  41.085  10.225  1.00  0.00     0.185 C 
HETATM   51  O1  UNL     1      22.858  41.932  12.283  1.00  0.00    -0.206 OA
HETATM   52  O2  UNL     1      20.460  41.619  12.662  1.00  0.00    -0.206 OA
ENDBRANCH  47  49
ENDBRANCH   1  47
BRANCH   9  53
HETATM   53  O7  UNL     1      23.726  44.480  11.036  1.00  0.00    -0.391 OA
ATOM     54  H7  UNL     1      24.320  43.739  11.010  1.00  0.00     0.210 HD
ENDBRANCH   9  53
TORSDOF 12
ENDMDL
MODEL 5
REMARK VINA RESULT: -9.010133008      1.438      2.513
REMARK  12 active torsions:
REMARK  status: ('A' for Active; 'I' for Inactive)
REMARK    1  A    between atoms: S1_2  and  N1_5 
REMARK    2  A    between atoms: N1_5  and  C2_7 
REMARK    3  A    between atoms: C5_10  and  O3_11 
REMARK    4  A    between atoms: O3_11  and  S2_12 
REMARK    5  A    between atoms: S2_12  and  C6_15 
REMARK    6  A    between atoms: C6_15  and  S3_16 
REMARK    7  A    between atoms: S3_16  and  C7_17 
REMARK    8  A    between atoms: C10_27  and  S4_28 
REMARK    9  A    between atoms: S4_28  and  N5_29 
REMARK   10  A    between atoms: N8_38  and  N9_40 
REMARK       I    between atoms: N9_40  and  C13_42 
REMARK   11  A    between atoms: C14_47  and  N12_48 
REMARK   12  A    between atoms: C15_52  and  O7_53 
ROOT
HETATM    1  C2  UNL     1      21.904  44.682  12.339  1.00  0.00     0.124 C 
HETATM    2  C3  UNL     1      21.177  44.471  13.624  1.00  0.00     0.031 C 
HETATM    3  C4  UNL     1      21.993  43.950  14.756  1.00  0.00     0.041 C 
HETATM    4  C5  UNL     1      22.966  44.946  15.343  1.00  0.00     0.191 C 
HETATM    5  C12 UNL     1      23.230  46.046  14.393  1.00  0.00     0.067 C 
HETATM    6  N8  UNL     1      22.858  47.232  14.587  1.00  0.00    -0.302 N 
ATOM      7  H8  UNL     1      23.115  47.878  13.841  1.00  0.00     0.186 HD
HETATM    8  C14 UNL     1      23.974  45.869  13.091  1.00  0.00     0.263 C 
HETATM    9  C15 UNL     1      23.401  44.615  12.464  1.00  0.00     0.177 C 
ENDROOT
BRANCH   4  10
HETATM   10  O3  UNL     1      22.644  45.349  16.612  1.00  0.00    -0.264 OA
BRANCH  10  11
HETATM   11  S2  UNL     1      24.051  45.475  17.564  1.00  0.00     0.275 S 
HETATM   12  O4  UNL     1      24.733  46.790  17.311  1.00  0.00    -0.198 OA
HETATM   13  O5  UNL     1      24.959  44.397  17.078  1.00  0.00    -0.198 OA
BRANCH  11  14
HETATM   14  C6  UNL     1      23.701  45.254  19.261  1.00  0.00     0.252 C 
BRANCH  14  15
HETATM   15  S3  UNL     1      23.640  43.510  19.676  1.00  0.00    -0.074 SA
BRANCH  15  16
HETATM   16  C7  UNL     1      23.969  43.153  21.364  1.00  0.00     0.183 A 
HETATM   17  N2  UNL     1      24.939  42.379  21.848  1.00  0.00    -0.169 N 
HETATM   18  C8  UNL     1      25.108  42.169  23.163  1.00  0.00     0.679 A 
ATOM     19  H2  UNL     1      25.578  41.928  21.194  1.00  0.00     0.186 HD
HETATM   20  N3  UNL     1      26.075  41.404  23.544  1.00  0.00    -0.234 N 
HETATM   21  N4  UNL     1      24.288  42.743  24.077  1.00  0.00    -0.173 N 
ATOM     22  H32 UNL     1      26.692  40.972  22.855  1.00  0.00     0.174 HD
ATOM     23  H31 UNL     1      26.204  41.244  24.543  1.00  0.00     0.174 HD
HETATM   24  C9  UNL     1      23.311  43.523  23.616  1.00  0.00     0.167 A 
ATOM     25  H4  UNL     1      24.415  42.585  25.077  1.00  0.00     0.186 HD
HETATM   26  C10 UNL     1      22.334  44.231  24.317  1.00  0.00     0.115 A 
HETATM   27  N7  UNL     1      23.149  43.728  22.300  1.00  0.00    -0.215 N 
HETATM   28  C11 UNL     1      21.589  44.862  23.343  1.00  0.00     0.134 A 
HETATM   29  N6  UNL     1      22.099  44.545  22.141  1.00  0.00    -0.300 N 
ATOM     30  H6  UNL     1      21.741  44.875  21.244  1.00  0.00     0.186 HD
BRANCH  26  31
HETATM   31  S4  UNL     1      22.096  44.311  26.030  1.00  0.00     0.149 S 
HETATM   32  O6  UNL     1      21.806  42.839  26.739  1.00  0.00    -0.230 OA
BRANCH  31  33
HETATM   33  N5  UNL     1      20.847  45.404  26.469  1.00  0.00    -0.345 NA
ATOM     34  H52 UNL     1      20.318  45.013  27.248  1.00  0.00     0.166 HD
ATOM     35  H51 UNL     1      20.272  45.679  25.673  1.00  0.00     0.166 HD
ENDBRANCH  31  33
ENDBRANCH  26  31
ENDBRANCH  15  16
ENDBRANCH  14  15
ENDBRANCH  11  14
ENDBRANCH  10  11
ENDBRANCH   4  10
BRANCH   6  36
HETATM   36  N9  UNL     1      22.173  47.807  15.615  1.00  0.00    -0.274 N 
HETATM   37  C13 UNL     1      20.790  48.091  15.494  1.00  0.00     0.200 C 
HETATM   38  N10 UNL     1      20.059  47.667  14.521  1.00  0.00    -0.372 N 
HETATM   39  N11 UNL     1      20.110  48.888  16.477  1.00  0.00    -0.062 NA
ATOM     40 2H10 UNL     1      20.542  47.102  13.823  1.00  0.00     0.158 HD
ATOM     41 1H10 UNL     1      19.064  47.872  14.434  1.00  0.00     0.158 HD
ATOM     42  H9  UNL     1      22.661  48.036  16.481  1.00  0.00     0.189 HD
ENDBRANCH   6  36
BRANCH   8  43
HETATM   43  N12 UNL     1      25.346  45.526  13.491  1.00  0.00    -0.067 N 
ATOM     44 3H12 UNL     1      25.809  44.868  12.864  1.00  0.00     0.275 HD
ATOM     45 2H12 UNL     1      26.016  46.286  13.372  1.00  0.00     0.275 HD
ATOM     46 1H12 UNL     1      25.260  45.194  14.451  1.00  0.00     0.275 HD
ENDBRANCH   8  43
BRANCH   1  47
HETATM   47  N1  UNL     1      21.473  43.820  11.281  1.00  0.00    -0.312 N 
ATOM     48  H1  UNL     1      21.165  44.165  10.372  1.00  0.00     0.172 HD
BRANCH  47  49
HETATM   49  S1  UNL     1      21.522  42.148  11.680  1.00  0.00     0.223 S 
HETATM   50  C1  UNL     1      21.414  41.124  10.241  1.00  0.00     0.185 C 
HETATM   51  O1  UNL     1      22.872  41.886  12.321  1.00  0.00    -0.206 OA
HETATM   52  O2  UNL     1      20.450  41.758  12.651  1.00  0.00    -0.206 OA
ENDBRANCH  47  49
ENDBRANCH   1  47
BRANCH   9  53
HETATM   53  O7  UNL     1      23.935  44.463  11.187  1.00  0.00    -0.391 OA
ATOM     54  H7  UNL     1      24.880  44.426  11.265  1.00  0.00     0.210 HD
ENDBRANCH   9  53
TORSDOF 12
ENDMDL
