MODEL 1
REMARK VINA RESULT: -9.684755404      0.000      0.000
REMARK  4 active torsions:
REMARK  status: ('A' for Active; 'I' for Inactive)
REMARK       I    between atoms: C1_2  and  N1_3 
REMARK    1  A    between atoms: C1_2  and  C12_23 
REMARK    2  A    between atoms: C3_6  and  C4_7 
REMARK    3  A    between atoms: N3_13  and  C6_14 
REMARK    4  A    between atoms: C9_17  and  N4_18 
ROOT
HETATM    1  O1  UNL     1      23.607 -12.167   4.612  1.00  0.00    -0.267 OA
HETATM    2  C1  UNL     1      23.358 -11.900   5.854  1.00  0.00     0.257 C 
HETATM    3  N1  UNL     1      22.403 -12.600   6.483  1.00  0.00    -0.306 N 
ATOM      4  H1  UNL     1      21.553 -12.044   6.390  1.00  0.00     0.170 HD
HETATM    5  C2  UNL     1      22.074 -13.602   7.120  1.00  0.00     0.148 A 
HETATM    6  C3  UNL     1      22.808 -14.690   7.538  1.00  0.00     0.103 A 
HETATM    7  C5  UNL     1      21.881 -15.496   8.219  1.00  0.00     0.130 A 
HETATM    8  N2  UNL     1      20.700 -14.887   8.180  1.00  0.00    -0.302 N 
ATOM      9  H2  UNL     1      19.852 -15.264   8.604  1.00  0.00     0.186 HD
HETATM   10  N3  UNL     1      20.748 -13.755   7.539  1.00  0.00    -0.239 N 
ENDROOT
BRANCH   6  11
HETATM   11  C4  UNL     1      24.214 -14.990   7.350  1.00  0.00     0.214 C 
HETATM   12  O2  UNL     1      24.946 -14.491   6.507  1.00  0.00    -0.644 OA
HETATM   13  O3  UNL     1      24.803 -15.944   8.213  1.00  0.00    -0.644 OA
ENDBRANCH   6  11
BRANCH  10  14
HETATM   14  C6  UNL     1      19.691 -12.819   7.287  1.00  0.00     0.058 A 
HETATM   15  C7  UNL     1      18.775 -13.085   6.309  1.00  0.00     0.034 A 
HETATM   16  C8  UNL     1      17.758 -12.163   6.082  1.00  0.00     0.038 A 
HETATM   17  C9  UNL     1      17.644 -10.998   6.806  1.00  0.00     0.103 A 
HETATM   18  C10 UNL     1      18.572 -10.737   7.790  1.00  0.00     0.038 A 
HETATM   19  C11 UNL     1      19.575 -11.653   8.010  1.00  0.00     0.034 A 
BRANCH  17  20
HETATM   20  N4  UNL     1      16.608 -10.090   6.553  1.00  0.00    -0.116 N 
HETATM   21  O4  UNL     1      15.435 -10.488   6.518  1.00  0.00    -0.532 OA
HETATM   22  O5  UNL     1      16.873  -8.765   6.343  1.00  0.00    -0.532 OA
ENDBRANCH  17  20
ENDBRANCH  10  14
BRANCH   2  23
HETATM   23  C12 UNL     1      24.182 -10.821   6.449  1.00  0.00     0.032 A 
HETATM   24  C13 UNL     1      23.636  -9.611   6.806  1.00  0.00     0.017 A 
HETATM   25  C14 UNL     1      24.412  -8.600   7.365  1.00  0.00     0.001 A 
HETATM   26  C15 UNL     1      25.760  -8.798   7.574  1.00  0.00     0.000 A 
HETATM   27  C16 UNL     1      26.308  -9.994   7.223  1.00  0.00     0.001 A 
HETATM   28  C17 UNL     1      25.529 -11.000   6.664  1.00  0.00     0.017 A 
ENDBRANCH   2  23
TORSDOF 4
ENDMDL
MODEL 2
REMARK VINA RESULT: -9.674310160      0.039      1.310
REMARK  4 active torsions:
REMARK  status: ('A' for Active; 'I' for Inactive)
REMARK       I    between atoms: C1_2  and  N1_3 
REMARK    1  A    between atoms: C1_2  and  C12_23 
REMARK    2  A    between atoms: C3_6  and  C4_7 
REMARK    3  A    between atoms: N3_13  and  C6_14 
REMARK    4  A    between atoms: C9_17  and  N4_18 
ROOT
HETATM    1  O1  UNL     1      23.615 -12.177   4.611  1.00  0.00    -0.267 OA
HETATM    2  C1  UNL     1      23.370 -11.910   5.853  1.00  0.00     0.257 C 
HETATM    3  N1  UNL     1      22.417 -12.610   6.484  1.00  0.00    -0.306 N 
ATOM      4  H1  UNL     1      21.567 -12.054   6.395  1.00  0.00     0.170 HD
HETATM    5  C2  UNL     1      22.089 -13.612   7.122  1.00  0.00     0.148 A 
HETATM    6  C3  UNL     1      22.824 -14.701   7.538  1.00  0.00     0.103 A 
HETATM    7  C5  UNL     1      21.899 -15.507   8.220  1.00  0.00     0.130 A 
HETATM    8  N2  UNL     1      20.718 -14.897   8.186  1.00  0.00    -0.302 N 
ATOM      9  H2  UNL     1      19.871 -15.274   8.612  1.00  0.00     0.186 HD
HETATM   10  N3  UNL     1      20.765 -13.765   7.545  1.00  0.00    -0.239 N 
ENDROOT
BRANCH   6  11
HETATM   11  C4  UNL     1      24.229 -15.001   7.345  1.00  0.00     0.214 C 
HETATM   12  O2  UNL     1      24.978 -14.447   6.552  1.00  0.00    -0.644 OA
HETATM   13  O3  UNL     1      24.797 -16.025   8.139  1.00  0.00    -0.644 OA
ENDBRANCH   6  11
BRANCH  10  14
HETATM   14  C6  UNL     1      19.707 -12.829   7.297  1.00  0.00     0.058 A 
HETATM   15  C7  UNL     1      19.638 -11.680   8.033  1.00  0.00     0.034 A 
HETATM   16  C8  UNL     1      18.604 -10.785   7.775  1.00  0.00     0.038 A 
HETATM   17  C9  UNL     1      17.653 -11.018   6.808  1.00  0.00     0.103 A 
HETATM   18  C10 UNL     1      17.730 -12.179   6.070  1.00  0.00     0.038 A 
HETATM   19  C11 UNL     1      18.755 -13.059   6.330  1.00  0.00     0.034 A 
BRANCH  17  20
HETATM   20  N4  UNL     1      16.624 -10.097   6.571  1.00  0.00    -0.116 N 
HETATM   21  O4  UNL     1      15.446 -10.480   6.565  1.00  0.00    -0.532 OA
HETATM   22  O5  UNL     1      16.902  -8.777   6.346  1.00  0.00    -0.532 OA
ENDBRANCH  17  20
ENDBRANCH  10  14
BRANCH   2  23
HETATM   23  C12 UNL     1      24.196 -10.832   6.446  1.00  0.00     0.032 A 
HETATM   24  C13 UNL     1      25.541 -10.999   6.679  1.00  0.00     0.017 A 
HETATM   25  C14 UNL     1      26.314  -9.984   7.235  1.00  0.00     0.001 A 
HETATM   26  C15 UNL     1      25.737  -8.777   7.566  1.00  0.00     0.000 A 
HETATM   27  C16 UNL     1      24.406  -8.604   7.339  1.00  0.00     0.001 A 
HETATM   28  C17 UNL     1      23.638  -9.621   6.783  1.00  0.00     0.017 A 
ENDBRANCH   2  23
TORSDOF 4
ENDMDL
MODEL 3
REMARK VINA RESULT: -7.755893515      4.177      6.296
REMARK  4 active torsions:
REMARK  status: ('A' for Active; 'I' for Inactive)
REMARK       I    between atoms: C1_2  and  N1_3 
REMARK    1  A    between atoms: C1_2  and  C12_23 
REMARK    2  A    between atoms: C3_6  and  C4_7 
REMARK    3  A    between atoms: N3_13  and  C6_14 
REMARK    4  A    between atoms: C9_17  and  N4_18 
ROOT
HETATM    1  O1  UNL     1      20.533 -15.046   8.407  1.00  0.00    -0.267 OA
HETATM    2  C1  UNL     1      20.554 -14.489   7.240  1.00  0.00     0.257 C 
HETATM    3  N1  UNL     1      19.396 -14.339   6.580  1.00  0.00    -0.306 N 
ATOM      4  H1  UNL     1      19.318 -15.158   5.978  1.00  0.00     0.170 HD
HETATM    5  C2  UNL     1      18.383 -13.672   6.362  1.00  0.00     0.148 A 
HETATM    6  C3  UNL     1      17.959 -12.471   6.889  1.00  0.00     0.103 A 
HETATM    7  C5  UNL     1      16.733 -12.223   6.250  1.00  0.00     0.130 A 
HETATM    8  N2  UNL     1      16.493 -13.230   5.416  1.00  0.00    -0.302 N 
ATOM      9  H2  UNL     1      15.663 -13.294   4.826  1.00  0.00     0.186 HD
HETATM   10  N3  UNL     1      17.437 -14.126   5.437  1.00  0.00    -0.239 N 
ENDROOT
BRANCH   6  11
HETATM   11  C4  UNL     1      18.588 -11.616   7.876  1.00  0.00     0.214 C 
HETATM   12  O2  UNL     1      19.791 -11.512   8.071  1.00  0.00    -0.644 OA
HETATM   13  O3  UNL     1      17.746 -10.825   8.692  1.00  0.00    -0.644 OA
ENDBRANCH   6  11
BRANCH  10  14
HETATM   14  C6  UNL     1      17.538 -15.344   4.687  1.00  0.00     0.058 A 
HETATM   15  C7  UNL     1      17.518 -15.297   3.322  1.00  0.00     0.034 A 
HETATM   16  C8  UNL     1      17.617 -16.491   2.613  1.00  0.00     0.038 A 
HETATM   17  C9  UNL     1      17.734 -17.711   3.239  1.00  0.00     0.103 A 
HETATM   18  C10 UNL     1      17.753 -17.750   4.616  1.00  0.00     0.038 A 
HETATM   19  C11 UNL     1      17.654 -16.565   5.311  1.00  0.00     0.034 A 
BRANCH  17  20
HETATM   20  N4  UNL     1      17.832 -18.896   2.498  1.00  0.00    -0.116 N 
HETATM   21  O4  UNL     1      16.842 -19.630   2.377  1.00  0.00    -0.532 OA
HETATM   22  O5  UNL     1      19.011 -19.256   1.905  1.00  0.00    -0.532 OA
ENDBRANCH  17  20
ENDBRANCH  10  14
BRANCH   2  23
HETATM   23  C12 UNL     1      21.892 -14.072   6.757  1.00  0.00     0.032 A 
HETATM   24  C13 UNL     1      23.045 -14.494   7.375  1.00  0.00     0.017 A 
HETATM   25  C14 UNL     1      24.300 -14.102   6.919  1.00  0.00     0.001 A 
HETATM   26  C15 UNL     1      24.409 -13.271   5.824  1.00  0.00     0.000 A 
HETATM   27  C16 UNL     1      23.272 -12.849   5.207  1.00  0.00     0.001 A 
HETATM   28  C17 UNL     1      22.020 -13.244   5.667  1.00  0.00     0.017 A 
ENDBRANCH   2  23
TORSDOF 4
ENDMDL
MODEL 4
REMARK VINA RESULT: -7.681391994      3.083      7.312
REMARK  4 active torsions:
REMARK  status: ('A' for Active; 'I' for Inactive)
REMARK       I    between atoms: C1_2  and  N1_3 
REMARK    1  A    between atoms: C1_2  and  C12_23 
REMARK    2  A    between atoms: C3_6  and  C4_7 
REMARK    3  A    between atoms: N3_13  and  C6_14 
REMARK    4  A    between atoms: C9_17  and  N4_18 
ROOT
HETATM    1  O1  UNL     1      17.038 -11.519   9.620  1.00  0.00    -0.267 OA
HETATM    2  C1  UNL     1      17.044 -11.818   8.361  1.00  0.00     0.257 C 
HETATM    3  N1  UNL     1      17.518 -13.015   7.988  1.00  0.00    -0.306 N 
ATOM      4  H1  UNL     1      18.500 -12.860   7.761  1.00  0.00     0.170 HD
HETATM    5  C2  UNL     1      17.321 -14.215   7.791  1.00  0.00     0.148 A 
HETATM    6  C3  UNL     1      16.183 -14.981   7.930  1.00  0.00     0.103 A 
HETATM    7  C5  UNL     1      16.584 -16.273   7.557  1.00  0.00     0.130 A 
HETATM    8  N2  UNL     1      17.871 -16.226   7.228  1.00  0.00    -0.302 N 
ATOM      9  H2  UNL     1      18.408 -17.036   6.917  1.00  0.00     0.186 HD
HETATM   10  N3  UNL     1      18.368 -15.029   7.347  1.00  0.00    -0.239 N 
ENDROOT
BRANCH   6  11
HETATM   11  C4  UNL     1      14.853 -14.597   8.360  1.00  0.00     0.214 C 
HETATM   12  O2  UNL     1      14.586 -13.904   9.332  1.00  0.00    -0.644 OA
HETATM   13  O3  UNL     1      13.757 -15.058   7.594  1.00  0.00    -0.644 OA
ENDBRANCH   6  11
BRANCH  10  14
HETATM   14  C6  UNL     1      19.706 -14.582   7.088  1.00  0.00     0.058 A 
HETATM   15  C7  UNL     1      19.947 -13.754   6.029  1.00  0.00     0.034 A 
HETATM   16  C8  UNL     1      21.252 -13.332   5.797  1.00  0.00     0.038 A 
HETATM   17  C9  UNL     1      22.304 -13.718   6.595  1.00  0.00     0.103 A 
HETATM   18  C10 UNL     1      22.053 -14.554   7.662  1.00  0.00     0.038 A 
HETATM   19  C11 UNL     1      20.760 -14.967   7.886  1.00  0.00     0.034 A 
BRANCH  17  20
HETATM   20  N4  UNL     1      23.608 -13.276   6.335  1.00  0.00    -0.116 N 
HETATM   21  O4  UNL     1      23.804 -12.097   6.008  1.00  0.00    -0.532 OA
HETATM   22  O5  UNL     1      24.671 -14.130   6.437  1.00  0.00    -0.532 OA
ENDBRANCH  17  20
ENDBRANCH  10  14
BRANCH   2  23
HETATM   23  C12 UNL     1      16.511 -10.772   7.457  1.00  0.00     0.032 A 
HETATM   24  C13 UNL     1      15.166 -10.665   7.192  1.00  0.00     0.017 A 
HETATM   25  C14 UNL     1      14.668  -9.680   6.343  1.00  0.00     0.001 A 
HETATM   26  C15 UNL     1      15.528  -8.783   5.745  1.00  0.00     0.000 A 
HETATM   27  C16 UNL     1      16.860  -8.883   6.003  1.00  0.00     0.001 A 
HETATM   28  C17 UNL     1      17.353  -9.868   6.852  1.00  0.00     0.017 A 
ENDBRANCH   2  23
TORSDOF 4
ENDMDL
MODEL 5
REMARK VINA RESULT: -7.456679400      4.155      6.322
REMARK  4 active torsions:
REMARK  status: ('A' for Active; 'I' for Inactive)
REMARK       I    between atoms: C1_2  and  N1_3 
REMARK    1  A    between atoms: C1_2  and  C12_23 
REMARK    2  A    between atoms: C3_6  and  C4_7 
REMARK    3  A    between atoms: N3_13  and  C6_14 
REMARK    4  A    between atoms: C9_17  and  N4_18 
ROOT
HETATM    1  O1  UNL     1      20.625 -14.720   8.412  1.00  0.00    -0.267 OA
HETATM    2  C1  UNL     1      20.621 -14.296   7.190  1.00  0.00     0.257 C 
HETATM    3  N1  UNL     1      19.454 -14.245   6.532  1.00  0.00    -0.306 N 
ATOM      4  H1  UNL     1      19.389 -15.127   6.025  1.00  0.00     0.170 HD
HETATM    5  C2  UNL     1      18.424 -13.628   6.254  1.00  0.00     0.148 A 
HETATM    6  C3  UNL     1      17.979 -12.385   6.649  1.00  0.00     0.103 A 
HETATM    7  C5  UNL     1      16.742 -12.236   6.002  1.00  0.00     0.130 A 
HETATM    8  N2  UNL     1      16.516 -13.334   5.288  1.00  0.00    -0.302 N 
ATOM      9  H2  UNL     1      15.682 -13.481   4.718  1.00  0.00     0.186 HD
HETATM   10  N3  UNL     1      17.480 -14.202   5.396  1.00  0.00    -0.239 N 
ENDROOT
BRANCH   6  11
HETATM   11  C4  UNL     1      18.598 -11.413   7.527  1.00  0.00     0.214 C 
HETATM   12  O2  UNL     1      19.567 -11.612   8.247  1.00  0.00    -0.644 OA
HETATM   13  O3  UNL     1      18.042 -10.113   7.564  1.00  0.00    -0.644 OA
ENDBRANCH   6  11
BRANCH  10  14
HETATM   14  C6  UNL     1      17.601 -15.493   4.784  1.00  0.00     0.058 A 
HETATM   15  C7  UNL     1      17.723 -16.603   5.571  1.00  0.00     0.034 A 
HETATM   16  C8  UNL     1      17.839 -17.845   4.956  1.00  0.00     0.038 A 
HETATM   17  C9  UNL     1      17.833 -17.994   3.588  1.00  0.00     0.103 A 
HETATM   18  C10 UNL     1      17.709 -16.869   2.801  1.00  0.00     0.038 A 
HETATM   19  C11 UNL     1      17.595 -15.643   3.416  1.00  0.00     0.034 A 
BRANCH  17  20
HETATM   20  N4  UNL     1      17.951 -19.259   2.998  1.00  0.00    -0.116 N 
HETATM   21  O4  UNL     1      16.965 -20.008   2.947  1.00  0.00    -0.532 OA
HETATM   22  O5  UNL     1      19.142 -19.682   2.478  1.00  0.00    -0.532 OA
ENDBRANCH  17  20
ENDBRANCH  10  14
BRANCH   2  23
HETATM   23  C12 UNL     1      21.945 -13.907   6.648  1.00  0.00     0.032 A 
HETATM   24  C13 UNL     1      22.062 -13.114   5.531  1.00  0.00     0.017 A 
HETATM   25  C14 UNL     1      23.306 -12.750   5.025  1.00  0.00     0.001 A 
HETATM   26  C15 UNL     1      24.459 -13.184   5.644  1.00  0.00     0.000 A 
HETATM   27  C16 UNL     1      24.351 -13.969   6.751  1.00  0.00     0.001 A 
HETATM   28  C17 UNL     1      23.106 -14.331   7.252  1.00  0.00     0.017 A 
ENDBRANCH   2  23
TORSDOF 4
ENDMDL
