MODEL 1
REMARK VINA RESULT: -8.745714408      0.000      0.000
REMARK  4 active torsions:
REMARK  status: ('A' for Active; 'I' for Inactive)
REMARK    1  A    between atoms: C2_3  and  C3_4 
REMARK    2  A    between atoms: C3_4  and  C4_5 
REMARK    3  A    between atoms: C14_17  and  C15_18 
REMARK    4  A    between atoms: C15_18  and  N3_19 
ROOT
HETATM    1  C1  UNL     1      18.615 -15.725   6.733  1.00  0.00     0.156 C 
HETATM    2  N1  UNL     1      19.053 -14.439   7.152  1.00  0.00    -0.354 N 
HETATM    3  C2  UNL     1      20.355 -14.211   7.360  1.00  0.00     0.019 A 
HETATM    4  C10 UNL     1      20.684 -12.915   7.776  1.00  0.00     0.081 A 
HETATM    5  C11 UNL     1      19.754 -11.928   7.963  1.00  0.00     0.186 A 
HETATM    6  O1  UNL     1      20.080 -10.774   8.337  1.00  0.00    -0.287 OA
HETATM    7  C12 UNL     1      18.425 -12.210   7.736  1.00  0.00     0.041 A 
HETATM    8  C13 UNL     1      17.488 -11.228   7.921  1.00  0.00     0.026 A 
HETATM    9  C14 UNL     1      16.170 -11.507   7.696  1.00  0.00    -0.039 A 
HETATM   10  C19 UNL     1      15.795 -12.764   7.287  1.00  0.00     0.011 A 
HETATM   11  C20 UNL     1      16.765 -13.747   7.105  1.00  0.00     0.031 A 
HETATM   12  C21 UNL     1      18.107 -13.486   7.328  1.00  0.00     0.048 A 
ENDROOT
BRANCH   3  13
HETATM   13  C3  UNL     1      21.447 -15.174   7.192  1.00  0.00     0.095 C 
BRANCH  13  14
HETATM   14  C4  UNL     1      22.800 -14.558   7.163  1.00  0.00    -0.052 A 
HETATM   15  C5  UNL     1      23.781 -15.062   8.014  1.00  0.00     0.009 A 
HETATM   16  C6  UNL     1      25.052 -14.536   8.027  1.00  0.00     0.027 A 
HETATM   17  C7  UNL     1      25.425 -13.490   7.210  1.00  0.00     0.046 A 
HETATM   18  N2  UNL     1      26.740 -12.958   7.235  1.00  0.00    -0.102 NA
HETATM   19  C8  UNL     1      24.445 -13.000   6.372  1.00  0.00     0.027 A 
HETATM   20  C9  UNL     1      23.166 -13.514   6.343  1.00  0.00     0.009 A 
ENDBRANCH  13  14
ENDBRANCH   3  13
BRANCH   9  21
HETATM   21  C15 UNL     1      15.144 -10.457   7.892  1.00  0.00     0.171 C 
BRANCH  21  22
HETATM   22  N3  UNL     1      14.819  -9.871   6.587  1.00  0.00    -0.304 N 
HETATM   23  C16 UNL     1      13.749 -10.154   5.821  1.00  0.00     0.113 A 
HETATM   24  C17 UNL     1      13.818  -9.379   4.663  1.00  0.00     0.110 A 
HETATM   25  N4  UNL     1      14.925  -8.641   4.745  1.00  0.00    -0.317 N 
HETATM   26  C18 UNL     1      15.524  -8.945   5.912  1.00  0.00     0.326 A 
ATOM     27  H4  UNL     1      15.257  -7.971   4.052  1.00  0.00     0.170 HD
HETATM   28  O2  UNL     1      16.602  -8.403   6.275  1.00  0.00    -0.246 OA
ENDBRANCH  21  22
ENDBRANCH   9  21
TORSDOF 4
ENDMDL
MODEL 2
REMARK VINA RESULT: -8.644962212      4.659      7.651
REMARK  4 active torsions:
REMARK  status: ('A' for Active; 'I' for Inactive)
REMARK    1  A    between atoms: C2_3  and  C3_4 
REMARK    2  A    between atoms: C3_4  and  C4_5 
REMARK    3  A    between atoms: C14_17  and  C15_18 
REMARK    4  A    between atoms: C15_18  and  N3_19 
ROOT
HETATM    1  C1  UNL     1      22.903 -16.912   8.527  1.00  0.00     0.156 C 
HETATM    2  N1  UNL     1      22.042 -15.913   7.995  1.00  0.00    -0.354 N 
HETATM    3  C2  UNL     1      20.715 -16.057   8.084  1.00  0.00     0.019 A 
HETATM    4  C10 UNL     1      19.954 -15.022   7.526  1.00  0.00     0.081 A 
HETATM    5  C11 UNL     1      20.508 -13.924   6.926  1.00  0.00     0.186 A 
HETATM    6  O1  UNL     1      19.798 -13.012   6.434  1.00  0.00    -0.287 OA
HETATM    7  C12 UNL     1      21.880 -13.819   6.858  1.00  0.00     0.041 A 
HETATM    8  C13 UNL     1      22.442 -12.723   6.258  1.00  0.00     0.026 A 
HETATM    9  C14 UNL     1      23.802 -12.619   6.191  1.00  0.00    -0.039 A 
HETATM   10  C19 UNL     1      24.593 -13.608   6.723  1.00  0.00     0.011 A 
HETATM   11  C20 UNL     1      24.000 -14.713   7.328  1.00  0.00     0.031 A 
HETATM   12  C21 UNL     1      22.623 -14.840   7.407  1.00  0.00     0.048 A 
ENDROOT
BRANCH   3  13
HETATM   13  C3  UNL     1      19.999 -17.176   8.704  1.00  0.00     0.095 C 
BRANCH  13  14
HETATM   14  C4  UNL     1      19.404 -18.129   7.729  1.00  0.00    -0.052 A 
HETATM   15  C5  UNL     1      18.016 -18.213   7.641  1.00  0.00     0.009 A 
HETATM   16  C6  UNL     1      17.409 -19.072   6.755  1.00  0.00     0.027 A 
HETATM   17  C7  UNL     1      18.131 -19.892   5.912  1.00  0.00     0.046 A 
HETATM   18  N2  UNL     1      17.490 -20.774   5.002  1.00  0.00    -0.102 NA
HETATM   19  C8  UNL     1      19.504 -19.799   6.009  1.00  0.00     0.027 A 
HETATM   20  C9  UNL     1      20.130 -18.944   6.891  1.00  0.00     0.009 A 
ENDBRANCH  13  14
ENDBRANCH   3  13
BRANCH   9  21
HETATM   21  C15 UNL     1      24.425 -11.441   5.546  1.00  0.00     0.171 C 
BRANCH  21  22
HETATM   22  N3  UNL     1      24.592 -10.388   6.554  1.00  0.00    -0.304 N 
HETATM   23  C16 UNL     1      23.690  -9.448   6.892  1.00  0.00     0.113 A 
HETATM   24  C17 UNL     1      24.244  -8.644   7.889  1.00  0.00     0.110 A 
HETATM   25  N4  UNL     1      25.468  -9.108   8.138  1.00  0.00    -0.317 N 
HETATM   26  C18 UNL     1      25.670 -10.163   7.326  1.00  0.00     0.326 A 
ATOM     27  H4  UNL     1      26.131  -8.734   8.817  1.00  0.00     0.170 HD
HETATM   28  O2  UNL     1      26.747 -10.818   7.329  1.00  0.00    -0.246 OA
ENDBRANCH  21  22
ENDBRANCH   9  21
TORSDOF 4
ENDMDL
MODEL 3
REMARK VINA RESULT: -8.563482055      4.656      7.734
REMARK  4 active torsions:
REMARK  status: ('A' for Active; 'I' for Inactive)
REMARK    1  A    between atoms: C2_3  and  C3_4 
REMARK    2  A    between atoms: C3_4  and  C4_5 
REMARK    3  A    between atoms: C14_17  and  C15_18 
REMARK    4  A    between atoms: C15_18  and  N3_19 
ROOT
HETATM    1  C1  UNL     1      22.893 -16.892   8.522  1.00  0.00     0.156 C 
HETATM    2  N1  UNL     1      22.043 -15.895   7.968  1.00  0.00    -0.354 N 
HETATM    3  C2  UNL     1      20.715 -16.040   8.027  1.00  0.00     0.019 A 
HETATM    4  C10 UNL     1      19.966 -15.007   7.449  1.00  0.00     0.081 A 
HETATM    5  C11 UNL     1      20.532 -13.910   6.859  1.00  0.00     0.186 A 
HETATM    6  O1  UNL     1      19.834 -12.999   6.349  1.00  0.00    -0.287 OA
HETATM    7  C12 UNL     1      21.906 -13.803   6.823  1.00  0.00     0.041 A 
HETATM    8  C13 UNL     1      22.480 -12.709   6.233  1.00  0.00     0.026 A 
HETATM    9  C14 UNL     1      23.842 -12.603   6.197  1.00  0.00    -0.039 A 
HETATM   10  C19 UNL     1      24.621 -13.590   6.750  1.00  0.00     0.011 A 
HETATM   11  C20 UNL     1      24.015 -14.694   7.344  1.00  0.00     0.031 A 
HETATM   12  C21 UNL     1      22.637 -14.823   7.391  1.00  0.00     0.048 A 
ENDROOT
BRANCH   3  13
HETATM   13  C3  UNL     1      19.985 -17.158   8.633  1.00  0.00     0.095 C 
BRANCH  13  14
HETATM   14  C4  UNL     1      18.835 -17.641   7.823  1.00  0.00    -0.052 A 
HETATM   15  C5  UNL     1      19.092 -18.420   6.698  1.00  0.00     0.009 A 
HETATM   16  C6  UNL     1      18.068 -18.900   5.914  1.00  0.00     0.027 A 
HETATM   17  C7  UNL     1      16.742 -18.640   6.193  1.00  0.00     0.046 A 
HETATM   18  N2  UNL     1      15.696 -19.141   5.376  1.00  0.00    -0.102 NA
HETATM   19  C8  UNL     1      16.501 -17.867   7.311  1.00  0.00     0.027 A 
HETATM   20  C9  UNL     1      17.514 -17.378   8.109  1.00  0.00     0.009 A 
ENDBRANCH  13  14
ENDBRANCH   3  13
BRANCH   9  21
HETATM   21  C15 UNL     1      24.479 -11.426   5.564  1.00  0.00     0.171 C 
BRANCH  21  22
HETATM   22  N3  UNL     1      24.615 -10.368   6.572  1.00  0.00    -0.304 N 
HETATM   23  C16 UNL     1      23.682  -9.462   6.918  1.00  0.00     0.113 A 
HETATM   24  C17 UNL     1      24.216  -8.639   7.911  1.00  0.00     0.110 A 
HETATM   25  N4  UNL     1      25.458  -9.059   8.149  1.00  0.00    -0.317 N 
HETATM   26  C18 UNL     1      25.691 -10.106   7.335  1.00  0.00     0.326 A 
ATOM     27  H4  UNL     1      26.112  -8.661   8.824  1.00  0.00     0.170 HD
HETATM   28  O2  UNL     1      26.790 -10.721   7.329  1.00  0.00    -0.246 OA
ENDBRANCH  21  22
ENDBRANCH   9  21
TORSDOF 4
ENDMDL
MODEL 4
REMARK VINA RESULT: -8.558903660      4.747      7.740
REMARK  4 active torsions:
REMARK  status: ('A' for Active; 'I' for Inactive)
REMARK    1  A    between atoms: C2_3  and  C3_4 
REMARK    2  A    between atoms: C3_4  and  C4_5 
REMARK    3  A    between atoms: C14_17  and  C15_18 
REMARK    4  A    between atoms: C15_18  and  N3_19 
ROOT
HETATM    1  C1  UNL     1      19.113 -14.822   7.263  1.00  0.00     0.156 C 
HETATM    2  N1  UNL     1      20.450 -15.191   7.581  1.00  0.00    -0.354 N 
HETATM    3  C2  UNL     1      20.683 -16.249   8.366  1.00  0.00     0.019 A 
HETATM    4  C10 UNL     1      22.031 -16.526   8.623  1.00  0.00     0.081 A 
HETATM    5  C11 UNL     1      23.061 -15.781   8.116  1.00  0.00     0.186 A 
HETATM    6  O1  UNL     1      24.261 -16.054   8.365  1.00  0.00    -0.287 OA
HETATM    7  C12 UNL     1      22.771 -14.700   7.311  1.00  0.00     0.041 A 
HETATM    8  C13 UNL     1      23.796 -13.948   6.800  1.00  0.00     0.026 A 
HETATM    9  C14 UNL     1      23.509 -12.877   6.003  1.00  0.00    -0.039 A 
HETATM   10  C19 UNL     1      22.202 -12.563   5.720  1.00  0.00     0.011 A 
HETATM   11  C20 UNL     1      21.176 -13.341   6.251  1.00  0.00     0.031 A 
HETATM   12  C21 UNL     1      21.444 -14.431   7.062  1.00  0.00     0.048 A 
ENDROOT
BRANCH   3  13
HETATM   13  C3  UNL     1      19.676 -17.129   8.966  1.00  0.00     0.095 C 
BRANCH  13  14
HETATM   14  C4  UNL     1      19.675 -18.511   8.416  1.00  0.00    -0.052 A 
HETATM   15  C5  UNL     1      19.492 -18.684   7.046  1.00  0.00     0.009 A 
HETATM   16  C6  UNL     1      19.487 -19.938   6.481  1.00  0.00     0.027 A 
HETATM   17  C7  UNL     1      19.659 -21.084   7.228  1.00  0.00     0.046 A 
HETATM   18  N2  UNL     1      19.651 -22.371   6.631  1.00  0.00    -0.102 NA
HETATM   19  C8  UNL     1      19.839 -20.899   8.584  1.00  0.00     0.027 A 
HETATM   20  C9  UNL     1      19.848 -19.651   9.169  1.00  0.00     0.009 A 
ENDBRANCH  13  14
ENDBRANCH   3  13
BRANCH   9  21
HETATM   21  C15 UNL     1      24.605 -12.054   5.442  1.00  0.00     0.171 C 
BRANCH  21  22
HETATM   22  N3  UNL     1      24.912 -10.975   6.388  1.00  0.00    -0.304 N 
HETATM   23  C16 UNL     1      24.192  -9.857   6.594  1.00  0.00     0.113 A 
HETATM   24  C17 UNL     1      24.831  -9.097   7.574  1.00  0.00     0.110 A 
HETATM   25  N4  UNL     1      25.924  -9.765   7.945  1.00  0.00    -0.317 N 
HETATM   26  C18 UNL     1      25.964 -10.900   7.222  1.00  0.00     0.326 A 
ATOM     27  H4  UNL     1      26.604  -9.470   8.646  1.00  0.00     0.170 HD
HETATM   28  O2  UNL     1      26.890 -11.745   7.350  1.00  0.00    -0.246 OA
ENDBRANCH  21  22
ENDBRANCH   9  21
TORSDOF 4
ENDMDL
MODEL 5
REMARK VINA RESULT: -8.294662800      4.689      7.480
REMARK  4 active torsions:
REMARK  status: ('A' for Active; 'I' for Inactive)
REMARK    1  A    between atoms: C2_3  and  C3_4 
REMARK    2  A    between atoms: C3_4  and  C4_5 
REMARK    3  A    between atoms: C14_17  and  C15_18 
REMARK    4  A    between atoms: C15_18  and  N3_19 
ROOT
HETATM    1  C1  UNL     1      23.171 -16.724   8.407  1.00  0.00     0.156 C 
HETATM    2  N1  UNL     1      22.234 -15.774   7.914  1.00  0.00    -0.354 N 
HETATM    3  C2  UNL     1      20.922 -16.006   8.032  1.00  0.00     0.019 A 
HETATM    4  C10 UNL     1      20.082 -15.014   7.511  1.00  0.00     0.081 A 
HETATM    5  C11 UNL     1      20.548 -13.873   6.918  1.00  0.00     0.186 A 
HETATM    6  O1  UNL     1      19.769 -13.000   6.460  1.00  0.00    -0.287 OA
HETATM    7  C12 UNL     1      21.908 -13.676   6.820  1.00  0.00     0.041 A 
HETATM    8  C13 UNL     1      22.383 -12.537   6.227  1.00  0.00     0.026 A 
HETATM    9  C14 UNL     1      23.731 -12.342   6.129  1.00  0.00    -0.039 A 
HETATM   10  C19 UNL     1      24.597 -13.287   6.625  1.00  0.00     0.011 A 
HETATM   11  C20 UNL     1      24.092 -14.438   7.223  1.00  0.00     0.031 A 
HETATM   12  C21 UNL     1      22.729 -14.656   7.332  1.00  0.00     0.048 A 
ENDROOT
BRANCH   3  13
HETATM   13  C3  UNL     1      20.295 -17.180   8.648  1.00  0.00     0.095 C 
BRANCH  13  14
HETATM   14  C4  UNL     1      19.793 -18.182   7.670  1.00  0.00    -0.052 A 
HETATM   15  C5  UNL     1      20.693 -19.103   7.137  1.00  0.00     0.009 A 
HETATM   16  C6  UNL     1      20.286 -20.056   6.234  1.00  0.00     0.027 A 
HETATM   17  C7  UNL     1      18.978 -20.156   5.806  1.00  0.00     0.046 A 
HETATM   18  N2  UNL     1      18.572 -21.145   4.873  1.00  0.00    -0.102 NA
HETATM   19  C8  UNL     1      18.097 -19.239   6.342  1.00  0.00     0.027 A 
HETATM   20  C9  UNL     1      18.486 -18.276   7.249  1.00  0.00     0.009 A 
ENDBRANCH  13  14
ENDBRANCH   3  13
BRANCH   9  21
HETATM   21  C15 UNL     1      24.261 -11.116   5.491  1.00  0.00     0.171 C 
BRANCH  21  22
HETATM   22  N3  UNL     1      24.762 -10.221   6.541  1.00  0.00    -0.304 N 
HETATM   23  C16 UNL     1      26.038 -10.099   6.952  1.00  0.00     0.113 A 
HETATM   24  C17 UNL     1      26.084  -9.141   7.966  1.00  0.00     0.110 A 
HETATM   25  N4  UNL     1      24.840  -8.700   8.151  1.00  0.00    -0.317 N 
HETATM   26  C18 UNL     1      24.047  -9.359   7.285  1.00  0.00     0.326 A 
ATOM     27  H4  UNL     1      24.543  -7.995   8.826  1.00  0.00     0.170 HD
HETATM   28  O2  UNL     1      22.805  -9.155   7.222  1.00  0.00    -0.246 OA
ENDBRANCH  21  22
ENDBRANCH   9  21
TORSDOF 4
ENDMDL
