MODEL 1
REMARK VINA RESULT: -8.031231004      0.000      0.000
REMARK  4 active torsions:
REMARK  status: ('A' for Active; 'I' for Inactive)
REMARK    1  A    between atoms: C9_12  and  N2_13 
REMARK    2  A    between atoms: N2_13  and  S1_15 
REMARK    3  A    between atoms: S1_15  and  C10_18 
REMARK    4  A    between atoms: C14_22  and  N3_23 
ROOT
HETATM    1  N2  UNL     1      19.045 -13.196   7.912  1.00  0.00    -0.277 N 
ATOM      2  H2  UNL     1      19.485 -12.766   8.725  1.00  0.00     0.179 HD
ENDROOT
BRANCH   1   3
HETATM    3  C9  UNL     1      17.798 -12.715   7.469  1.00  0.00     0.093 C 
HETATM    4  C1  UNL     1      16.652 -13.413   7.874  1.00  0.00     0.199 C 
HETATM    5  O1  UNL     1      16.921 -14.568   8.281  1.00  0.00    -0.286 OA
HETATM    6  C2  UNL     1      15.334 -12.990   7.874  1.00  0.00     0.059 C 
HETATM    7  C3  UNL     1      14.860 -11.728   7.581  1.00  0.00     0.034 C 
HETATM    8  C4  UNL     1      15.515 -10.645   7.003  1.00  0.00     0.042 A 
HETATM    9  N1  UNL     1      14.971  -9.446   6.749  1.00  0.00    -0.365 N 
HETATM   10  C7  UNL     1      16.834 -10.577   6.577  1.00  0.00    -0.006 A 
HETATM   11  C5  UNL     1      15.850  -8.600   6.186  1.00  0.00     0.089 A 
ATOM     12  H1  UNL     1      14.002  -9.204   6.958  1.00  0.00     0.165 HD
HETATM   13  C6  UNL     1      17.042  -9.313   6.073  1.00  0.00     0.030 A 
HETATM   14  C8  UNL     1      17.772 -11.609   6.653  1.00  0.00     0.048 C 
ENDBRANCH   1   3
BRANCH   1  15
HETATM   15  S1  UNL     1      19.834 -14.485   7.117  1.00  0.00     0.263 S 
HETATM   16  O2  UNL     1      19.848 -15.730   8.011  1.00  0.00    -0.200 OA
HETATM   17  O3  UNL     1      19.101 -14.805   5.853  1.00  0.00    -0.200 OA
BRANCH  15  18
HETATM   18  C10 UNL     1      21.490 -14.064   6.702  1.00  0.00     0.082 A 
HETATM   19  C11 UNL     1      21.705 -13.214   5.632  1.00  0.00     0.025 A 
HETATM   20  C12 UNL     1      22.987 -12.852   5.274  1.00  0.00     0.004 A 
HETATM   21  C13 UNL     1      24.046 -13.354   6.003  1.00  0.00     0.036 A 
HETATM   22  C14 UNL     1      23.876 -14.202   7.072  1.00  0.00     0.104 A 
HETATM   23  C15 UNL     1      22.558 -14.538   7.396  1.00  0.00     0.061 A 
BRANCH  22  24
HETATM   24  N3  UNL     1      24.966 -14.719   7.823  1.00  0.00    -0.116 N 
HETATM   25  O4  UNL     1      26.121 -14.372   7.547  1.00  0.00    -0.532 OA
HETATM   26  O5  UNL     1      24.777 -15.599   8.854  1.00  0.00    -0.532 OA
ENDBRANCH  22  24
ENDBRANCH  15  18
ENDBRANCH   1  15
TORSDOF 4
ENDMDL
MODEL 2
REMARK VINA RESULT: -8.030813519      2.162      3.246
REMARK  4 active torsions:
REMARK  status: ('A' for Active; 'I' for Inactive)
REMARK    1  A    between atoms: C9_12  and  N2_13 
REMARK    2  A    between atoms: N2_13  and  S1_15 
REMARK    3  A    between atoms: S1_15  and  C10_18 
REMARK    4  A    between atoms: C14_22  and  N3_23 
ROOT
HETATM    1  N2  UNL     1      18.400 -11.466   7.088  1.00  0.00    -0.277 N 
ATOM      2  H2  UNL     1      19.231 -10.934   7.343  1.00  0.00     0.179 HD
ENDROOT
BRANCH   1   3
HETATM    3  C9  UNL     1      17.155 -10.812   7.024  1.00  0.00     0.093 C 
HETATM    4  C1  UNL     1      17.139  -9.491   6.555  1.00  0.00     0.199 C 
HETATM    5  O1  UNL     1      18.276  -8.962   6.594  1.00  0.00    -0.286 OA
HETATM    6  C2  UNL     1      16.069  -8.751   6.083  1.00  0.00     0.059 C 
HETATM    7  C3  UNL     1      14.783  -9.192   5.853  1.00  0.00     0.034 C 
HETATM    8  C4  UNL     1      14.170 -10.381   6.237  1.00  0.00     0.042 A 
HETATM    9  N1  UNL     1      12.902 -10.729   5.973  1.00  0.00    -0.365 N 
HETATM   10  C7  UNL     1      14.724 -11.431   6.956  1.00  0.00    -0.006 A 
HETATM   11  C5  UNL     1      12.594 -11.939   6.471  1.00  0.00     0.089 A 
ATOM     12  H1  UNL     1      12.247 -10.144   5.453  1.00  0.00     0.165 HD
HETATM   13  C6  UNL     1      13.751 -12.394   7.101  1.00  0.00     0.030 A 
HETATM   14  C8  UNL     1      16.033 -11.490   7.439  1.00  0.00     0.048 C 
ENDBRANCH   1   3
BRANCH   1  15
HETATM   15  S1  UNL     1      18.546 -13.133   6.745  1.00  0.00     0.263 S 
HETATM   16  O2  UNL     1      17.622 -13.945   7.659  1.00  0.00    -0.200 OA
HETATM   17  O3  UNL     1      18.156 -13.379   5.322  1.00  0.00    -0.200 OA
BRANCH  15  18
HETATM   18  C10 UNL     1      20.199 -13.691   6.967  1.00  0.00     0.082 A 
HETATM   19  C11 UNL     1      20.434 -14.712   7.870  1.00  0.00     0.025 A 
HETATM   20  C12 UNL     1      21.713 -15.186   8.073  1.00  0.00     0.004 A 
HETATM   21  C13 UNL     1      22.750 -14.621   7.358  1.00  0.00     0.036 A 
HETATM   22  C14 UNL     1      22.560 -13.604   6.452  1.00  0.00     0.104 A 
HETATM   23  C15 UNL     1      21.245 -13.160   6.282  1.00  0.00     0.061 A 
BRANCH  22  24
HETATM   24  N3  UNL     1      23.628 -13.023   5.716  1.00  0.00    -0.116 N 
HETATM   25  O4  UNL     1      24.740 -13.565   5.715  1.00  0.00    -0.532 OA
HETATM   26  O5  UNL     1      23.464 -11.868   5.000  1.00  0.00    -0.532 OA
ENDBRANCH  22  24
ENDBRANCH  15  18
ENDBRANCH   1  15
TORSDOF 4
ENDMDL
MODEL 3
REMARK VINA RESULT: -7.927976129      2.728      6.784
REMARK  4 active torsions:
REMARK  status: ('A' for Active; 'I' for Inactive)
REMARK    1  A    between atoms: C9_12  and  N2_13 
REMARK    2  A    between atoms: N2_13  and  S1_15 
REMARK    3  A    between atoms: S1_15  and  C10_18 
REMARK    4  A    between atoms: C14_22  and  N3_23 
ROOT
HETATM    1  N2  UNL     1      18.122 -15.156   5.562  1.00  0.00    -0.277 N 
ATOM      2  H2  UNL     1      18.260 -15.767   4.758  1.00  0.00     0.179 HD
ENDROOT
BRANCH   1   3
HETATM    3  C9  UNL     1      19.209 -14.880   6.413  1.00  0.00     0.093 C 
HETATM    4  C1  UNL     1      19.348 -15.667   7.565  1.00  0.00     0.199 C 
HETATM    5  O1  UNL     1      18.288 -16.270   7.856  1.00  0.00    -0.286 OA
HETATM    6  C2  UNL     1      20.462 -15.841   8.367  1.00  0.00     0.059 C 
HETATM    7  C3  UNL     1      21.737 -15.365   8.144  1.00  0.00     0.034 C 
HETATM    8  C4  UNL     1      22.185 -14.425   7.221  1.00  0.00     0.042 A 
HETATM    9  N1  UNL     1      23.454 -14.014   7.074  1.00  0.00    -0.365 N 
HETATM   10  C7  UNL     1      21.436 -13.730   6.281  1.00  0.00    -0.006 A 
HETATM   11  C5  UNL     1      23.580 -13.098   6.099  1.00  0.00     0.089 A 
ATOM     12  H1  UNL     1      24.232 -14.357   7.637  1.00  0.00     0.165 HD
HETATM   13  C6  UNL     1      22.297 -12.911   5.588  1.00  0.00     0.030 A 
HETATM   14  C8  UNL     1      20.059 -13.850   6.083  1.00  0.00     0.048 C 
ENDBRANCH   1   3
BRANCH   1  15
HETATM   15  S1  UNL     1      16.577 -14.487   5.850  1.00  0.00     0.263 S 
HETATM   16  O2  UNL     1      15.912 -14.099   4.524  1.00  0.00    -0.200 OA
HETATM   17  O3  UNL     1      15.723 -15.501   6.541  1.00  0.00    -0.200 OA
BRANCH  15  18
HETATM   18  C10 UNL     1      16.677 -13.061   6.875  1.00  0.00     0.082 A 
HETATM   19  C11 UNL     1      16.663 -13.234   8.247  1.00  0.00     0.025 A 
HETATM   20  C12 UNL     1      16.745 -12.144   9.089  1.00  0.00     0.004 A 
HETATM   21  C13 UNL     1      16.841 -10.884   8.535  1.00  0.00     0.036 A 
HETATM   22  C14 UNL     1      16.857 -10.668   7.178  1.00  0.00     0.104 A 
HETATM   23  C15 UNL     1      16.772 -11.804   6.367  1.00  0.00     0.061 A 
BRANCH  22  24
HETATM   24  N3  UNL     1      16.956  -9.370   6.608  1.00  0.00    -0.116 N 
HETATM   25  O4  UNL     1      18.063  -8.825   6.511  1.00  0.00    -0.532 OA
HETATM   26  O5  UNL     1      15.854  -8.695   6.157  1.00  0.00    -0.532 OA
ENDBRANCH  22  24
ENDBRANCH  15  18
ENDBRANCH   1  15
TORSDOF 4
ENDMDL
MODEL 4
REMARK VINA RESULT: -7.773410737      2.317      3.334
REMARK  4 active torsions:
REMARK  status: ('A' for Active; 'I' for Inactive)
REMARK    1  A    between atoms: C9_12  and  N2_13 
REMARK    2  A    between atoms: N2_13  and  S1_15 
REMARK    3  A    between atoms: S1_15  and  C10_18 
REMARK    4  A    between atoms: C14_22  and  N3_23 
ROOT
HETATM    1  N2  UNL     1      18.565 -11.855   7.881  1.00  0.00    -0.277 N 
ATOM      2  H2  UNL     1      19.374 -11.285   8.130  1.00  0.00     0.179 HD
ENDROOT
BRANCH   1   3
HETATM    3  C9  UNL     1      17.273 -11.395   8.200  1.00  0.00     0.093 C 
HETATM    4  C1  UNL     1      16.624 -10.583   7.259  1.00  0.00     0.199 C 
HETATM    5  O1  UNL     1      17.421 -10.093   6.426  1.00  0.00    -0.286 OA
HETATM    6  C2  UNL     1      15.276 -10.282   7.158  1.00  0.00     0.059 C 
HETATM    7  C3  UNL     1      14.241 -10.815   7.897  1.00  0.00     0.034 C 
HETATM    8  C4  UNL     1      14.282 -11.587   9.054  1.00  0.00     0.042 A 
HETATM    9  N1  UNL     1      13.217 -12.063   9.716  1.00  0.00    -0.365 N 
HETATM   10  C7  UNL     1      15.403 -12.016   9.752  1.00  0.00    -0.006 A 
HETATM   11  C5  UNL     1      13.570 -12.776  10.799  1.00  0.00     0.089 A 
ATOM     12  H1  UNL     1      12.251 -11.903   9.430  1.00  0.00     0.165 HD
HETATM   13  C6  UNL     1      14.963 -12.751  10.830  1.00  0.00     0.030 A 
HETATM   14  C8  UNL     1      16.730 -11.746   9.413  1.00  0.00     0.048 C 
ENDBRANCH   1   3
BRANCH   1  15
HETATM   15  S1  UNL     1      18.806 -13.347   7.085  1.00  0.00     0.263 S 
HETATM   16  O2  UNL     1      17.907 -14.426   7.700  1.00  0.00    -0.200 OA
HETATM   17  O3  UNL     1      18.457 -13.194   5.638  1.00  0.00    -0.200 OA
BRANCH  15  18
HETATM   18  C10 UNL     1      20.481 -13.870   7.196  1.00  0.00     0.082 A 
HETATM   19  C11 UNL     1      20.788 -14.921   8.041  1.00  0.00     0.025 A 
HETATM   20  C12 UNL     1      22.087 -15.369   8.156  1.00  0.00     0.004 A 
HETATM   21  C13 UNL     1      23.071 -14.748   7.411  1.00  0.00     0.036 A 
HETATM   22  C14 UNL     1      22.808 -13.701   6.560  1.00  0.00     0.104 A 
HETATM   23  C15 UNL     1      21.476 -13.284   6.479  1.00  0.00     0.061 A 
BRANCH  22  24
HETATM   24  N3  UNL     1      23.820 -13.063   5.794  1.00  0.00    -0.116 N 
HETATM   25  O4  UNL     1      24.980 -13.493   5.828  1.00  0.00    -0.532 OA
HETATM   26  O5  UNL     1      23.551 -11.974   5.010  1.00  0.00    -0.532 OA
ENDBRANCH  22  24
ENDBRANCH  15  18
ENDBRANCH   1  15
TORSDOF 4
ENDMDL
MODEL 5
REMARK VINA RESULT: -7.722800001      1.842      2.684
REMARK  4 active torsions:
REMARK  status: ('A' for Active; 'I' for Inactive)
REMARK    1  A    between atoms: C9_12  and  N2_13 
REMARK    2  A    between atoms: N2_13  and  S1_15 
REMARK    3  A    between atoms: S1_15  and  C10_18 
REMARK    4  A    between atoms: C14_22  and  N3_23 
ROOT
HETATM    1  N2  UNL     1      18.066 -13.561   7.948  1.00  0.00    -0.277 N 
ATOM      2  H2  UNL     1      18.053 -13.968   8.883  1.00  0.00     0.179 HD
ENDROOT
BRANCH   1   3
HETATM    3  C9  UNL     1      17.414 -12.335   7.720  1.00  0.00     0.093 C 
HETATM    4  C1  UNL     1      18.195 -11.171   7.741  1.00  0.00     0.199 C 
HETATM    5  O1  UNL     1      19.299 -11.352   8.308  1.00  0.00    -0.286 OA
HETATM    6  C2  UNL     1      17.898  -9.918   7.234  1.00  0.00     0.059 C 
HETATM    7  C3  UNL     1      16.800  -9.559   6.479  1.00  0.00     0.034 C 
HETATM    8  C4  UNL     1      15.625 -10.262   6.231  1.00  0.00     0.042 A 
HETATM    9  N1  UNL     1      14.599  -9.832   5.482  1.00  0.00    -0.365 N 
HETATM   10  C7  UNL     1      15.274 -11.523   6.692  1.00  0.00    -0.006 A 
HETATM   11  C5  UNL     1      13.602 -10.731   5.424  1.00  0.00     0.089 A 
ATOM     12  H1  UNL     1      14.578  -8.927   5.011  1.00  0.00     0.165 HD
HETATM   13  C6  UNL     1      14.024 -11.813   6.194  1.00  0.00     0.030 A 
HETATM   14  C8  UNL     1      16.055 -12.340   7.511  1.00  0.00     0.048 C 
ENDBRANCH   1   3
BRANCH   1  15
HETATM   15  S1  UNL     1      18.880 -14.381   6.690  1.00  0.00     0.263 S 
HETATM   16  O2  UNL     1      18.342 -15.811   6.555  1.00  0.00    -0.200 OA
HETATM   17  O3  UNL     1      18.652 -13.656   5.402  1.00  0.00    -0.200 OA
BRANCH  15  18
HETATM   18  C10 UNL     1      20.612 -14.451   6.985  1.00  0.00     0.082 A 
HETATM   19  C11 UNL     1      21.091 -15.394   7.876  1.00  0.00     0.025 A 
HETATM   20  C12 UNL     1      22.443 -15.489   8.134  1.00  0.00     0.004 A 
HETATM   21  C13 UNL     1      23.303 -14.626   7.486  1.00  0.00     0.036 A 
HETATM   22  C14 UNL     1      22.869 -13.674   6.594  1.00  0.00     0.104 A 
HETATM   23  C15 UNL     1      21.490 -13.618   6.366  1.00  0.00     0.061 A 
BRANCH  22  24
HETATM   24  N3  UNL     1      23.755 -12.786   5.926  1.00  0.00    -0.116 N 
HETATM   25  O4  UNL     1      23.376 -12.190   4.910  1.00  0.00    -0.532 OA
HETATM   26  O5  UNL     1      25.029 -12.567   6.376  1.00  0.00    -0.532 OA
ENDBRANCH  22  24
ENDBRANCH  15  18
ENDBRANCH   1  15
TORSDOF 4
ENDMDL
