MODEL 1
REMARK VINA RESULT: -6.387094743      0.000      0.000
REMARK  4 active torsions:
REMARK  status: ('A' for Active; 'I' for Inactive)
REMARK    1  A    between atoms: C2_2  and  C4_4 
REMARK    2  A    between atoms: C5_5  and  C6_7 
REMARK    3  A    between atoms: C8_10  and  C9_11 
REMARK    4  A    between atoms: C12_18  and  N3_19 
ROOT
HETATM    1  C6  UNL     1      66.747  35.493  25.522  1.00  0.00     0.045 A 
HETATM    2  C7  UNL     1      66.238  34.197  25.504  1.00  0.00     0.051 A 
HETATM    3  S1  UNL     1      64.732  33.912  24.636  1.00  0.00    -0.049 SA
HETATM    4  C8  UNL     1      66.839  33.122  26.122  1.00  0.00     0.048 A 
HETATM    5  N1  UNL     1      67.990  33.440  26.761  1.00  0.00    -0.302 N 
ATOM      6  H1  UNL     1      68.498  32.697  27.240  1.00  0.00     0.186 HD
HETATM    7  N2  UNL     1      68.482  34.640  26.797  1.00  0.00    -0.285 N 
ATOM      8  H2  UNL     1      69.353  34.779  27.309  1.00  0.00     0.188 HD
HETATM    9  C12 UNL     1      67.910  35.744  26.191  1.00  0.00     0.126 A 
ENDROOT
BRANCH   1  10
HETATM   10  C5  UNL     1      66.114  36.494  24.654  1.00  0.00     0.023 C 
HETATM   11  C4  UNL     1      66.095  36.609  23.374  1.00  0.00    -0.003 C 
HETATM   12 BR1  UNL     1      64.891  37.676  25.610  1.00  0.00    -0.050 Br
BRANCH  11  13
HETATM   13  C2  UNL     1      65.157  37.590  22.709  1.00  0.00     0.001 C 
HETATM   14  C1  UNL     1      63.984  36.771  22.150  1.00  0.00     0.013 C 
HETATM   15  C3  UNL     1      65.836  38.162  21.473  1.00  0.00     0.013 C 
ENDBRANCH  11  13
ENDBRANCH   1  10
BRANCH   9  16
HETATM   16  N3  UNL     1      68.549  36.843  26.284  1.00  0.00    -0.384 N 
ATOM     17  H32 UNL     1      68.199  37.624  25.730  1.00  0.00     0.157 HD
ATOM     18  H31 UNL     1      69.351  37.062  26.874  1.00  0.00     0.157 HD
ENDBRANCH   9  16
BRANCH   4  19
HETATM   19  C9  UNL     1      66.274  31.816  26.269  1.00  0.00     0.030 C 
HETATM   20  C10 UNL     1      67.070  30.579  26.060  1.00  0.00     0.016 C 
HETATM   21  C11 UNL     1      66.047  31.685  27.861  1.00  0.00     0.016 C 
ENDBRANCH   4  19
TORSDOF 4
ENDMDL
MODEL 2
REMARK VINA RESULT: -6.265706005      2.651      3.059
REMARK  4 active torsions:
REMARK  status: ('A' for Active; 'I' for Inactive)
REMARK    1  A    between atoms: C2_2  and  C4_4 
REMARK    2  A    between atoms: C5_5  and  C6_7 
REMARK    3  A    between atoms: C8_10  and  C9_11 
REMARK    4  A    between atoms: C12_18  and  N3_19 
ROOT
HETATM    1  C6  UNL     1      64.665  34.397  25.663  1.00  0.00     0.045 A 
HETATM    2  C7  UNL     1      65.601  33.569  26.279  1.00  0.00     0.051 A 
HETATM    3  S1  UNL     1      67.308  33.889  25.984  1.00  0.00    -0.049 SA
HETATM    4  C8  UNL     1      65.274  32.517  27.106  1.00  0.00     0.048 A 
HETATM    5  N1  UNL     1      63.941  32.352  27.272  1.00  0.00    -0.302 N 
ATOM      6  H1  UNL     1      63.619  31.595  27.875  1.00  0.00     0.186 HD
HETATM    7  N2  UNL     1      63.050  33.105  26.705  1.00  0.00    -0.285 N 
ATOM      8  H2  UNL     1      62.069  32.897  26.888  1.00  0.00     0.188 HD
HETATM    9  C12 UNL     1      63.335  34.170  25.869  1.00  0.00     0.126 A 
ENDROOT
BRANCH   1  10
HETATM   10  C5  UNL     1      65.155  35.599  24.976  1.00  0.00     0.023 C 
HETATM   11  C4  UNL     1      65.308  35.852  23.726  1.00  0.00    -0.003 C 
HETATM   12 BR1  UNL     1      65.345  37.138  26.161  1.00  0.00    -0.050 Br
BRANCH  11  13
HETATM   13  C2  UNL     1      65.593  37.261  23.261  1.00  0.00     0.001 C 
HETATM   14  C1  UNL     1      64.715  37.505  22.024  1.00  0.00     0.013 C 
HETATM   15  C3  UNL     1      67.017  37.328  22.726  1.00  0.00     0.013 C 
ENDBRANCH  11  13
ENDBRANCH   1  10
BRANCH   9  16
HETATM   16  N3  UNL     1      62.340  34.837  25.433  1.00  0.00    -0.384 N 
ATOM     17  H32 UNL     1      62.414  35.201  24.483  1.00  0.00     0.157 HD
ATOM     18  H31 UNL     1      61.452  35.027  25.896  1.00  0.00     0.157 HD
ENDBRANCH   9  16
BRANCH   4  19
HETATM   19  C9  UNL     1      66.188  31.545  27.625  1.00  0.00     0.030 C 
HETATM   20  C10 UNL     1      65.810  30.600  28.707  1.00  0.00     0.016 C 
HETATM   21  C11 UNL     1      66.327  30.483  26.419  1.00  0.00     0.016 C 
ENDBRANCH   4  19
TORSDOF 4
ENDMDL
MODEL 3
REMARK VINA RESULT: -6.165509778      2.076      5.461
REMARK  4 active torsions:
REMARK  status: ('A' for Active; 'I' for Inactive)
REMARK    1  A    between atoms: C2_2  and  C4_4 
REMARK    2  A    between atoms: C5_5  and  C6_7 
REMARK    3  A    between atoms: C8_10  and  C9_11 
REMARK    4  A    between atoms: C12_18  and  N3_19 
ROOT
HETATM    1  C6  UNL     1      66.542  34.608  25.624  1.00  0.00     0.045 A 
HETATM    2  C7  UNL     1      65.801  35.160  24.582  1.00  0.00     0.051 A 
HETATM    3  S1  UNL     1      64.373  34.289  24.031  1.00  0.00    -0.049 SA
HETATM    4  C8  UNL     1      66.114  36.347  23.956  1.00  0.00     0.048 A 
HETATM    5  N1  UNL     1      67.226  36.942  24.450  1.00  0.00    -0.302 N 
ATOM      6  H1  UNL     1      67.521  37.829  24.041  1.00  0.00     0.186 HD
HETATM    7  N2  UNL     1      67.936  36.446  25.414  1.00  0.00    -0.285 N 
ATOM      8  H2  UNL     1      68.760  36.968  25.713  1.00  0.00     0.188 HD
HETATM    9  C12 UNL     1      67.657  35.259  26.068  1.00  0.00     0.126 A 
ENDROOT
BRANCH   1  10
HETATM   10  C5  UNL     1      65.981  33.449  26.330  1.00  0.00     0.023 C 
HETATM   11  C4  UNL     1      64.909  33.325  27.026  1.00  0.00    -0.003 C 
HETATM   12 BR1  UNL     1      66.893  31.776  25.907  1.00  0.00    -0.050 Br
BRANCH  11  13
HETATM   13  C2  UNL     1      64.422  31.956  27.442  1.00  0.00     0.001 C 
HETATM   14  C1  UNL     1      62.893  31.967  27.297  1.00  0.00     0.013 C 
HETATM   15  C3  UNL     1      64.655  31.781  28.936  1.00  0.00     0.013 C 
ENDBRANCH  11  13
ENDBRANCH   1  10
BRANCH   9  16
HETATM   16  N3  UNL     1      68.432  34.938  27.028  1.00  0.00    -0.384 N 
ATOM     17  H32 UNL     1      67.988  34.609  27.885  1.00  0.00     0.157 HD
ATOM     18  H31 UNL     1      69.452  34.929  27.043  1.00  0.00     0.157 HD
ENDBRANCH   9  16
BRANCH   4  19
HETATM   19  C9  UNL     1      65.482  36.867  22.782  1.00  0.00     0.030 C 
HETATM   20  C10 UNL     1      64.481  37.964  22.841  1.00  0.00     0.016 C 
HETATM   21  C11 UNL     1      66.671  37.670  22.044  1.00  0.00     0.016 C 
ENDBRANCH   4  19
TORSDOF 4
ENDMDL
MODEL 4
REMARK VINA RESULT: -5.954024247      2.439      2.901
REMARK  4 active torsions:
REMARK  status: ('A' for Active; 'I' for Inactive)
REMARK    1  A    between atoms: C2_2  and  C4_4 
REMARK    2  A    between atoms: C5_5  and  C6_7 
REMARK    3  A    between atoms: C8_10  and  C9_11 
REMARK    4  A    between atoms: C12_18  and  N3_19 
ROOT
HETATM    1  C6  UNL     1      65.361  34.974  24.490  1.00  0.00     0.045 A 
HETATM    2  C7  UNL     1      66.062  34.437  25.567  1.00  0.00     0.051 A 
HETATM    3  S1  UNL     1      67.498  35.290  26.127  1.00  0.00    -0.049 SA
HETATM    4  C8  UNL     1      65.701  33.281  26.224  1.00  0.00     0.048 A 
HETATM    5  N1  UNL     1      64.585  32.700  25.723  1.00  0.00    -0.302 N 
ATOM      6  H1  UNL     1      64.251  31.840  26.159  1.00  0.00     0.186 HD
HETATM    7  N2  UNL     1      63.919  33.176  24.718  1.00  0.00    -0.285 N 
ATOM      8  H2  UNL     1      63.093  32.662  24.411  1.00  0.00     0.188 HD
HETATM    9  C12 UNL     1      64.247  34.332  24.032  1.00  0.00     0.126 A 
ENDROOT
BRANCH   1  10
HETATM   10  C5  UNL     1      65.739  36.313  24.021  1.00  0.00     0.023 C 
HETATM   11  C4  UNL     1      66.350  36.691  22.956  1.00  0.00    -0.003 C 
HETATM   12 BR1  UNL     1      64.941  37.750  25.072  1.00  0.00    -0.050 Br
BRANCH  11  13
HETATM   13  C2  UNL     1      66.397  38.154  22.581  1.00  0.00     0.001 C 
HETATM   14  C1  UNL     1      65.498  38.324  21.347  1.00  0.00     0.013 C 
HETATM   15  C3  UNL     1      67.793  38.491  22.075  1.00  0.00     0.013 C 
ENDBRANCH  11  13
ENDBRANCH   1  10
BRANCH   9  16
HETATM   16  N3  UNL     1      63.457  34.686  23.096  1.00  0.00    -0.384 N 
ATOM     17  H32 UNL     1      63.755  34.482  22.143  1.00  0.00     0.157 HD
ATOM     18  H31 UNL     1      62.536  35.118  23.174  1.00  0.00     0.157 HD
ENDBRANCH   9  16
BRANCH   4  19
HETATM   19  C9  UNL     1      66.476  32.607  27.222  1.00  0.00     0.030 C 
HETATM   20  C10 UNL     1      65.871  31.647  28.180  1.00  0.00     0.016 C 
HETATM   21  C11 UNL     1      67.359  31.564  26.365  1.00  0.00     0.016 C 
ENDBRANCH   4  19
TORSDOF 4
ENDMDL
MODEL 5
REMARK VINA RESULT: -5.678211868      3.122      3.663
REMARK  4 active torsions:
REMARK  status: ('A' for Active; 'I' for Inactive)
REMARK    1  A    between atoms: C2_2  and  C4_4 
REMARK    2  A    between atoms: C5_5  and  C6_7 
REMARK    3  A    between atoms: C8_10  and  C9_11 
REMARK    4  A    between atoms: C12_18  and  N3_19 
ROOT
HETATM    1  C6  UNL     1      64.611  34.469  25.912  1.00  0.00     0.045 A 
HETATM    2  C7  UNL     1      65.572  33.596  26.416  1.00  0.00     0.051 A 
HETATM    3  S1  UNL     1      67.263  34.077  26.306  1.00  0.00    -0.049 SA
HETATM    4  C8  UNL     1      65.283  32.381  26.996  1.00  0.00     0.048 A 
HETATM    5  N1  UNL     1      63.959  32.101  27.036  1.00  0.00    -0.302 N 
ATOM      6  H1  UNL     1      63.664  31.220  27.456  1.00  0.00     0.186 HD
HETATM    7  N2  UNL     1      63.045  32.894  26.568  1.00  0.00    -0.285 N 
ATOM      8  H2  UNL     1      62.074  32.591  26.641  1.00  0.00     0.188 HD
HETATM    9  C12 UNL     1      63.293  34.121  25.979  1.00  0.00     0.126 A 
ENDROOT
BRANCH   1  10
HETATM   10  C5  UNL     1      65.043  35.814  25.509  1.00  0.00     0.023 C 
HETATM   11  C4  UNL     1      65.567  36.769  26.190  1.00  0.00    -0.003 C 
HETATM   12 BR1  UNL     1      65.060  36.068  23.575  1.00  0.00    -0.050 Br
BRANCH  11  13
HETATM   13  C2  UNL     1      66.158  37.971  25.489  1.00  0.00     0.001 C 
HETATM   14  C1  UNL     1      67.646  37.663  25.261  1.00  0.00     0.013 C 
HETATM   15  C3  UNL     1      66.165  39.151  26.451  1.00  0.00     0.013 C 
ENDBRANCH  11  13
ENDBRANCH   1  10
BRANCH   9  16
HETATM   16  N3  UNL     1      62.275  34.797  25.615  1.00  0.00    -0.384 N 
ATOM     17  H32 UNL     1      62.438  35.771  25.364  1.00  0.00     0.157 HD
ATOM     18  H31 UNL     1      61.312  34.481  25.504  1.00  0.00     0.157 HD
ENDBRANCH   9  16
BRANCH   4  19
HETATM   19  C9  UNL     1      66.239  31.386  27.376  1.00  0.00     0.030 C 
HETATM   20  C10 UNL     1      65.930  30.330  28.375  1.00  0.00     0.016 C 
HETATM   21  C11 UNL     1      66.344  30.451  26.066  1.00  0.00     0.016 C 
ENDBRANCH   4  19
TORSDOF 4
ENDMDL
