MODEL 1
REMARK VINA RESULT: -7.781108044      0.000      0.000
REMARK  5 active torsions:
REMARK  status: ('A' for Active; 'I' for Inactive)
REMARK    1  A    between atoms: C1_4  and  N2_5 
REMARK    2  A    between atoms: C1_4  and  C8_13 
REMARK    3  A    between atoms: N2_5  and  C2_7 
REMARK    4  A    between atoms: C10_17  and  C11_18 
REMARK    5  A    between atoms: C16_24  and  O1_25 
ROOT
HETATM    1  C8  UNL     1      64.547  35.234  24.330  1.00  0.00     0.057 A 
HETATM    2  C9  UNL     1      64.161  35.396  23.007  1.00  0.00     0.106 A 
HETATM    3  N3  UNL     1      64.618  36.381  22.207  1.00  0.00    -0.366 N 
ATOM      4  H3  UNL     1      64.292  36.459  21.244  1.00  0.00     0.165 HD
HETATM    5  C10 UNL     1      65.529  37.277  22.711  1.00  0.00     0.038 A 
HETATM    6  C15 UNL     1      65.935  37.134  24.015  1.00  0.00     0.091 A 
HETATM    7 CL1  UNL     1      67.079  38.295  24.719  1.00  0.00    -0.079 Cl
HETATM    8  C16 UNL     1      65.469  36.117  24.889  1.00  0.00     0.104 A 
ENDROOT
BRANCH   1   9
HETATM    9  C1  UNL     1      63.913  34.229  25.147  1.00  0.00     0.109 C 
HETATM   10  N1  UNL     1      62.656  33.906  24.936  1.00  0.00    -0.385 N 
ATOM     11  H12 UNL     1      62.208  33.195  25.514  1.00  0.00     0.157 HD
ATOM     12  H11 UNL     1      62.174  34.418  24.197  1.00  0.00     0.157 HD
BRANCH   9  13
HETATM   13  N2  UNL     1      64.576  33.524  26.165  1.00  0.00    -0.371 N 
ATOM     14  H2  UNL     1      64.271  33.685  27.124  1.00  0.00     0.161 HD
BRANCH  13  15
HETATM   15  C2  UNL     1      65.651  32.594  25.956  1.00  0.00     0.083 C 
HETATM   16  C3  UNL     1      66.917  32.990  26.722  1.00  0.00     0.025 C 
HETATM   17  C4  UNL     1      68.010  32.075  26.199  1.00  0.00     0.002 C 
HETATM   18  C5  UNL     1      67.528  30.709  25.813  1.00  0.00     0.000 C 
HETATM   19  C6  UNL     1      66.331  30.283  26.657  1.00  0.00     0.002 C 
HETATM   20  C7  UNL     1      65.236  31.285  26.654  1.00  0.00     0.025 C 
ENDBRANCH  13  15
ENDBRANCH   9  13
ENDBRANCH   1   9
BRANCH   8  21
HETATM   21  O1  UNL     1      65.950  36.120  26.140  1.00  0.00    -0.358 OA
ATOM     22  H1  UNL     1      66.411  36.821  26.585  1.00  0.00     0.217 HD
ENDBRANCH   8  21
BRANCH   5  23
HETATM   23  C11 UNL     1      66.182  38.239  21.848  1.00  0.00     0.037 C 
HETATM   24  C12 UNL     1      65.689  38.397  20.417  1.00  0.00     0.011 C 
HETATM   25  C13 UNL     1      67.181  38.514  20.030  1.00  0.00     0.001 C 
HETATM   26  C14 UNL     1      67.348  37.410  21.109  1.00  0.00     0.011 C 
ENDBRANCH   5  23
TORSDOF 5
ENDMDL
MODEL 2
REMARK VINA RESULT: -7.518190141      1.149      1.851
REMARK  5 active torsions:
REMARK  status: ('A' for Active; 'I' for Inactive)
REMARK    1  A    between atoms: C1_4  and  N2_5 
REMARK    2  A    between atoms: C1_4  and  C8_13 
REMARK    3  A    between atoms: N2_5  and  C2_7 
REMARK    4  A    between atoms: C10_17  and  C11_18 
REMARK    5  A    between atoms: C16_24  and  O1_25 
ROOT
HETATM    1  C8  UNL     1      64.634  35.192  23.875  1.00  0.00     0.057 A 
HETATM    2  C9  UNL     1      64.104  35.627  22.668  1.00  0.00     0.106 A 
HETATM    3  N3  UNL     1      64.579  36.683  21.977  1.00  0.00    -0.366 N 
ATOM      4  H3  UNL     1      64.143  36.965  21.099  1.00  0.00     0.165 HD
HETATM    5  C10 UNL     1      65.658  37.372  22.475  1.00  0.00     0.038 A 
HETATM    6  C15 UNL     1      66.208  36.958  23.662  1.00  0.00     0.091 A 
HETATM    7 CL1  UNL     1      67.577  37.845  24.363  1.00  0.00    -0.079 Cl
HETATM    8  C16 UNL     1      65.729  35.858  24.423  1.00  0.00     0.104 A 
ENDROOT
BRANCH   1   9
HETATM    9  C1  UNL     1      63.985  34.133  24.606  1.00  0.00     0.109 C 
HETATM   10  N1  UNL     1      62.673  34.104  24.699  1.00  0.00    -0.385 N 
ATOM     11  H12 UNL     1      62.214  33.355  25.216  1.00  0.00     0.157 HD
ATOM     12  H11 UNL     1      62.171  34.872  24.253  1.00  0.00     0.157 HD
BRANCH   9  13
HETATM   13  N2  UNL     1      64.676  33.076  25.219  1.00  0.00    -0.371 N 
ATOM     14  H2  UNL     1      65.264  32.490  24.626  1.00  0.00     0.161 HD
BRANCH  13  15
HETATM   15  C2  UNL     1      64.619  32.756  26.619  1.00  0.00     0.083 C 
HETATM   16  C3  UNL     1      63.413  31.877  26.964  1.00  0.00     0.025 C 
HETATM   17  C4  UNL     1      63.352  31.850  28.481  1.00  0.00     0.002 C 
HETATM   18  C5  UNL     1      64.693  31.916  29.146  1.00  0.00     0.000 C 
HETATM   19  C6  UNL     1      65.775  31.274  28.282  1.00  0.00     0.002 C 
HETATM   20  C7  UNL     1      65.806  31.816  26.901  1.00  0.00     0.025 C 
ENDBRANCH  13  15
ENDBRANCH   9  13
ENDBRANCH   1   9
BRANCH   8  21
HETATM   21  O1  UNL     1      66.365  35.587  25.571  1.00  0.00    -0.358 OA
ATOM     22  H1  UNL     1      66.769  36.202  26.172  1.00  0.00     0.217 HD
ENDBRANCH   8  21
BRANCH   5  23
HETATM   23  C11 UNL     1      66.315  38.395  21.688  1.00  0.00     0.037 C 
HETATM   24  C12 UNL     1      65.685  38.827  20.372  1.00  0.00     0.011 C 
HETATM   25  C13 UNL     1      67.129  38.866  19.819  1.00  0.00     0.001 C 
HETATM   26  C14 UNL     1      67.290  37.591  20.691  1.00  0.00     0.011 C 
ENDBRANCH   5  23
TORSDOF 5
ENDMDL
MODEL 3
REMARK VINA RESULT: -7.407191584      4.212      7.067
REMARK  5 active torsions:
REMARK  status: ('A' for Active; 'I' for Inactive)
REMARK    1  A    between atoms: C1_4  and  N2_5 
REMARK    2  A    between atoms: C1_4  and  C8_13 
REMARK    3  A    between atoms: N2_5  and  C2_7 
REMARK    4  A    between atoms: C10_17  and  C11_18 
REMARK    5  A    between atoms: C16_24  and  O1_25 
ROOT
HETATM    1  C8  UNL     1      66.617  36.513  26.257  1.00  0.00     0.057 A 
HETATM    2  C9  UNL     1      67.639  35.609  26.509  1.00  0.00     0.106 A 
HETATM    3  N3  UNL     1      67.491  34.270  26.446  1.00  0.00    -0.366 N 
ATOM      4  H3  UNL     1      68.275  33.651  26.651  1.00  0.00     0.165 HD
HETATM    5  C10 UNL     1      66.265  33.754  26.099  1.00  0.00     0.038 A 
HETATM    6  C15 UNL     1      65.238  34.625  25.836  1.00  0.00     0.091 A 
HETATM    7 CL1  UNL     1      63.628  34.001  25.427  1.00  0.00    -0.079 Cl
HETATM    8  C16 UNL     1      65.354  36.039  25.903  1.00  0.00     0.104 A 
ENDROOT
BRANCH   1   9
HETATM    9  C1  UNL     1      66.833  37.922  26.472  1.00  0.00     0.109 C 
HETATM   10  N1  UNL     1      65.847  38.682  26.897  1.00  0.00    -0.385 N 
ATOM     11  H12 UNL     1      66.000  39.679  27.048  1.00  0.00     0.157 HD
ATOM     12  H11 UNL     1      64.947  38.222  27.033  1.00  0.00     0.157 HD
BRANCH   9  13
HETATM   13  N2  UNL     1      68.072  38.555  26.284  1.00  0.00    -0.371 N 
ATOM     14  H2  UNL     1      68.555  38.391  25.400  1.00  0.00     0.161 HD
BRANCH  13  15
HETATM   15  C2  UNL     1      68.711  39.414  27.241  1.00  0.00     0.083 C 
HETATM   16  C3  UNL     1      69.053  38.681  28.542  1.00  0.00     0.025 C 
HETATM   17  C4  UNL     1      69.471  39.764  29.520  1.00  0.00     0.002 C 
HETATM   18  C5  UNL     1      70.168  40.926  28.881  1.00  0.00     0.000 C 
HETATM   19  C6  UNL     1      70.941  40.496  27.638  1.00  0.00     0.002 C 
HETATM   20  C7  UNL     1      70.103  39.743  26.670  1.00  0.00     0.025 C 
ENDBRANCH  13  15
ENDBRANCH   9  13
ENDBRANCH   1   9
BRANCH   8  21
HETATM   21  O1  UNL     1      64.254  36.755  25.632  1.00  0.00    -0.358 OA
ATOM     22  H1  UNL     1      63.704  36.706  24.859  1.00  0.00     0.217 HD
ENDBRANCH   8  21
BRANCH   5  23
HETATM   23  C11 UNL     1      66.100  32.338  25.844  1.00  0.00     0.037 C 
HETATM   24  C12 UNL     1      65.906  31.395  27.022  1.00  0.00     0.011 C 
HETATM   25  C13 UNL     1      66.832  30.422  26.257  1.00  0.00     0.001 C 
HETATM   26  C14 UNL     1      67.589  31.729  25.899  1.00  0.00     0.011 C 
ENDBRANCH   5  23
TORSDOF 5
ENDMDL
MODEL 4
REMARK VINA RESULT: -7.255757727      4.533      7.443
REMARK  5 active torsions:
REMARK  status: ('A' for Active; 'I' for Inactive)
REMARK    1  A    between atoms: C1_4  and  N2_5 
REMARK    2  A    between atoms: C1_4  and  C8_13 
REMARK    3  A    between atoms: N2_5  and  C2_7 
REMARK    4  A    between atoms: C10_17  and  C11_18 
REMARK    5  A    between atoms: C16_24  and  O1_25 
ROOT
HETATM    1  C8  UNL     1      66.968  37.080  26.718  1.00  0.00     0.057 A 
HETATM    2  C9  UNL     1      68.012  36.183  26.893  1.00  0.00     0.106 A 
HETATM    3  N3  UNL     1      67.919  34.862  26.635  1.00  0.00    -0.366 N 
ATOM      4  H3  UNL     1      68.717  34.246  26.791  1.00  0.00     0.165 HD
HETATM    5  C10 UNL     1      66.732  34.361  26.158  1.00  0.00     0.038 A 
HETATM    6  C15 UNL     1      65.685  35.227  25.968  1.00  0.00     0.091 A 
HETATM    7 CL1  UNL     1      64.120  34.616  25.394  1.00  0.00    -0.079 Cl
HETATM    8  C16 UNL     1      65.742  36.621  26.238  1.00  0.00     0.104 A 
ENDROOT
BRANCH   1   9
HETATM    9  C1  UNL     1      67.119  38.451  27.138  1.00  0.00     0.109 C 
HETATM   10  N1  UNL     1      66.380  38.924  28.117  1.00  0.00    -0.385 N 
ATOM     11  H12 UNL     1      66.487  39.894  28.414  1.00  0.00     0.157 HD
ATOM     12  H11 UNL     1      65.701  38.282  28.524  1.00  0.00     0.157 HD
BRANCH   9  13
HETATM   13  N2  UNL     1      68.054  39.335  26.578  1.00  0.00    -0.371 N 
ATOM     14  H2  UNL     1      68.020  39.479  25.569  1.00  0.00     0.161 HD
BRANCH  13  15
HETATM   15  C2  UNL     1      69.055  40.053  27.318  1.00  0.00     0.083 C 
HETATM   16  C3  UNL     1      70.440  39.951  26.671  1.00  0.00     0.025 C 
HETATM   17  C4  UNL     1      71.407  40.525  27.690  1.00  0.00     0.002 C 
HETATM   18  C5  UNL     1      70.832  41.633  28.519  1.00  0.00     0.000 C 
HETATM   19  C6  UNL     1      69.777  42.418  27.744  1.00  0.00     0.002 C 
HETATM   20  C7  UNL     1      68.725  41.548  27.161  1.00  0.00     0.025 C 
ENDBRANCH  13  15
ENDBRANCH   9  13
ENDBRANCH   1   9
BRANCH   8  21
HETATM   21  O1  UNL     1      64.629  37.332  26.013  1.00  0.00    -0.358 OA
ATOM     22  H1  UNL     1      63.729  37.068  26.163  1.00  0.00     0.217 HD
ENDBRANCH   8  21
BRANCH   5  23
HETATM   23  C11 UNL     1      66.634  32.991  25.699  1.00  0.00     0.037 C 
HETATM   24  C12 UNL     1      65.962  31.961  26.596  1.00  0.00     0.011 C 
HETATM   25  C13 UNL     1      67.081  30.996  26.142  1.00  0.00     0.001 C 
HETATM   26  C14 UNL     1      67.961  32.270  26.256  1.00  0.00     0.011 C 
ENDBRANCH   5  23
TORSDOF 5
ENDMDL
MODEL 5
REMARK VINA RESULT: -7.169860687      1.781      6.439
REMARK  5 active torsions:
REMARK  status: ('A' for Active; 'I' for Inactive)
REMARK    1  A    between atoms: C1_4  and  N2_5 
REMARK    2  A    between atoms: C1_4  and  C8_13 
REMARK    3  A    between atoms: N2_5  and  C2_7 
REMARK    4  A    between atoms: C10_17  and  C11_18 
REMARK    5  A    between atoms: C16_24  and  O1_25 
ROOT
HETATM    1  C8  UNL     1      65.474  36.008  25.578  1.00  0.00     0.057 A 
HETATM    2  C9  UNL     1      64.745  34.853  25.334  1.00  0.00     0.106 A 
HETATM    3  N3  UNL     1      65.185  33.611  25.625  1.00  0.00    -0.366 N 
ATOM      4  H3  UNL     1      64.610  32.795  25.415  1.00  0.00     0.165 HD
HETATM    5  C10 UNL     1      66.419  33.464  26.210  1.00  0.00     0.038 A 
HETATM    6  C15 UNL     1      67.159  34.591  26.470  1.00  0.00     0.091 A 
HETATM    7 CL1  UNL     1      68.777  34.445  27.185  1.00  0.00    -0.079 Cl
HETATM    8  C16 UNL     1      66.734  35.912  26.168  1.00  0.00     0.104 A 
ENDROOT
BRANCH   1   9
HETATM    9  C1  UNL     1      64.980  37.282  25.119  1.00  0.00     0.109 C 
HETATM   10  N1  UNL     1      64.799  38.264  25.974  1.00  0.00    -0.385 N 
ATOM     11  H12 UNL     1      64.449  39.165  25.649  1.00  0.00     0.157 HD
ATOM     12  H11 UNL     1      65.002  38.058  26.952  1.00  0.00     0.157 HD
BRANCH   9  13
HETATM   13  N2  UNL     1      64.700  37.567  23.773  1.00  0.00    -0.371 N 
ATOM     14  H2  UNL     1      63.757  37.882  23.544  1.00  0.00     0.161 HD
BRANCH  13  15
HETATM   15  C2  UNL     1      65.640  37.448  22.693  1.00  0.00     0.083 C 
HETATM   16  C3  UNL     1      65.207  38.240  21.456  1.00  0.00     0.025 C 
HETATM   17  C4  UNL     1      66.149  37.807  20.347  1.00  0.00     0.002 C 
HETATM   18  C5  UNL     1      67.532  37.474  20.817  1.00  0.00     0.000 C 
HETATM   19  C6  UNL     1      67.913  38.293  22.047  1.00  0.00     0.002 C 
HETATM   20  C7  UNL     1      66.911  38.196  23.138  1.00  0.00     0.025 C 
ENDBRANCH  13  15
ENDBRANCH   9  13
ENDBRANCH   1   9
BRANCH   8  21
HETATM   21  O1  UNL     1      67.577  36.908  26.471  1.00  0.00    -0.358 OA
ATOM     22  H1  UNL     1      67.420  37.650  27.043  1.00  0.00     0.217 HD
ENDBRANCH   8  21
BRANCH   5  23
HETATM   23  C11 UNL     1      66.860  32.176  26.703  1.00  0.00     0.037 C 
HETATM   24  C12 UNL     1      67.456  31.178  25.722  1.00  0.00     0.011 C 
HETATM   25  C13 UNL     1      66.665  30.103  26.503  1.00  0.00     0.001 C 
HETATM   26  C14 UNL     1      65.580  31.212  26.550  1.00  0.00     0.011 C 
ENDBRANCH   5  23
TORSDOF 5
ENDMDL
