MODEL 1
REMARK VINA RESULT: -6.760383593      0.000      0.000
REMARK  10 active torsions:
REMARK  status: ('A' for Active; 'I' for Inactive)
REMARK    1  A    between atoms: C2_2  and  C3_3 
REMARK    2  A    between atoms: C3_3  and  N1_4 
REMARK    3  A    between atoms: N1_4  and  C4_5 
REMARK    4  A    between atoms: C4_5  and  C5_6 
REMARK    5  A    between atoms: C5_6  and  C6_7 
REMARK    6  A    between atoms: C6_7  and  C7_8 
REMARK    7  A    between atoms: C7_8  and  C8_9 
REMARK    8  A    between atoms: C9_10  and  C10_11 
REMARK    9  A    between atoms: C10_11  and  C11_12 
REMARK   10  A    between atoms: C11_12  and  N2_13 
ROOT
HETATM    1  C6  UNL     1     -22.129 -38.074 -23.360  1.00  0.00     0.005 C 
ENDROOT
BRANCH   1   2
HETATM    2  C5  UNL     1     -22.140 -39.576 -23.545  1.00  0.00     0.028 C 
BRANCH   2   3
HETATM    3  C4  UNL     1     -22.196 -40.299 -22.216  1.00  0.00     0.238 C 
BRANCH   3   4
HETATM    4  N1  UNL     1     -21.844 -41.695 -22.491  1.00  0.00    -0.064 N 
HETATM    5  C12 UNL     1     -21.778 -41.827 -23.933  1.00  0.00     0.238 C 
HETATM    6  C13 UNL     1     -22.609 -43.036 -24.296  1.00  0.00     0.029 C 
HETATM    7  C14 UNL     1     -23.691 -42.983 -23.227  1.00  0.00     0.029 C 
HETATM    8  C15 UNL     1     -22.888 -42.552 -22.020  1.00  0.00     0.238 C 
BRANCH   4   9
HETATM    9  C3  UNL     1     -20.554 -41.938 -21.885  1.00  0.00     0.264 C 
BRANCH   9  10
HETATM   10  C2  UNL     1     -20.364 -43.341 -21.451  1.00  0.00    -0.009 C 
HETATM   11  C1  UNL     1     -19.563 -44.186 -22.079  1.00  0.00     0.008 C 
ENDBRANCH   9  10
ENDBRANCH   4   9
ENDBRANCH   3   4
ENDBRANCH   2   3
ENDBRANCH   1   2
BRANCH   1  12
HETATM   12  C7  UNL     1     -21.746 -37.467 -24.680  1.00  0.00     0.027 C 
BRANCH  12  13
HETATM   13  C8  UNL     1     -21.397 -38.452 -25.726  1.00  0.00    -0.031 C 
HETATM   14  C9  UNL     1     -21.043 -37.992 -26.920  1.00  0.00    -0.029 C 
BRANCH  14  15
HETATM   15  C10 UNL     1     -20.673 -38.921 -28.036  1.00  0.00     0.048 C 
BRANCH  15  16
HETATM   16  C11 UNL     1     -21.455 -38.436 -29.256  1.00  0.00     0.142 C 
BRANCH  16  17
HETATM   17  N2  UNL     1     -21.455 -37.017 -29.290  1.00  0.00    -0.343 N 
HETATM   18  N3  UNL     1     -21.102 -36.428 -30.310  1.00  0.00    -0.349 N 
ATOM     19  H32 UNL     1     -20.812 -36.973 -31.121  1.00  0.00     0.176 HD
ATOM     20  H31 UNL     1     -21.102 -35.409 -30.335  1.00  0.00     0.176 HD
ATOM     21  H2  UNL     1     -21.748 -36.487 -28.469  1.00  0.00     0.179 HD
ENDBRANCH  16  17
ENDBRANCH  15  16
ENDBRANCH  14  15
ENDBRANCH  12  13
ENDBRANCH   1  12
TORSDOF 10
ENDMDL
MODEL 2
REMARK VINA RESULT: -6.679385006      1.962      2.436
REMARK  10 active torsions:
REMARK  status: ('A' for Active; 'I' for Inactive)
REMARK    1  A    between atoms: C2_2  and  C3_3 
REMARK    2  A    between atoms: C3_3  and  N1_4 
REMARK    3  A    between atoms: N1_4  and  C4_5 
REMARK    4  A    between atoms: C4_5  and  C5_6 
REMARK    5  A    between atoms: C5_6  and  C6_7 
REMARK    6  A    between atoms: C6_7  and  C7_8 
REMARK    7  A    between atoms: C7_8  and  C8_9 
REMARK    8  A    between atoms: C9_10  and  C10_11 
REMARK    9  A    between atoms: C10_11  and  C11_12 
REMARK   10  A    between atoms: C11_12  and  N2_13 
ROOT
HETATM    1  C6  UNL     1     -21.813 -37.029 -24.203  1.00  0.00     0.005 C 
ENDROOT
BRANCH   1   2
HETATM    2  C5  UNL     1     -22.225 -38.058 -23.173  1.00  0.00     0.028 C 
BRANCH   2   3
HETATM    3  C4  UNL     1     -22.214 -39.457 -23.752  1.00  0.00     0.238 C 
BRANCH   3   4
HETATM    4  N1  UNL     1     -22.058 -40.371 -22.617  1.00  0.00    -0.064 N 
HETATM    5  C12 UNL     1     -22.389 -41.695 -23.105  1.00  0.00     0.238 C 
HETATM    6  C13 UNL     1     -23.378 -42.283 -22.125  1.00  0.00     0.029 C 
HETATM    7  C14 UNL     1     -24.129 -41.037 -21.679  1.00  0.00     0.029 C 
HETATM    8  C15 UNL     1     -23.002 -40.031 -21.597  1.00  0.00     0.238 C 
BRANCH   4   9
HETATM    9  C3  UNL     1     -20.677 -40.299 -22.197  1.00  0.00     0.264 C 
BRANCH   9  10
HETATM   10  C2  UNL     1     -19.724 -40.774 -23.226  1.00  0.00    -0.009 C 
HETATM   11  C1  UNL     1     -18.569 -40.176 -23.468  1.00  0.00     0.008 C 
ENDBRANCH   9  10
ENDBRANCH   4   9
ENDBRANCH   3   4
ENDBRANCH   2   3
ENDBRANCH   1   2
BRANCH   1  12
HETATM   12  C7  UNL     1     -20.822 -37.689 -25.120  1.00  0.00     0.027 C 
BRANCH  12  13
HETATM   13  C8  UNL     1     -21.005 -37.368 -26.551  1.00  0.00    -0.031 C 
HETATM   14  C9  UNL     1     -21.355 -38.351 -27.370  1.00  0.00    -0.029 C 
BRANCH  14  15
HETATM   15  C10 UNL     1     -21.561 -38.112 -28.835  1.00  0.00     0.048 C 
BRANCH  15  16
HETATM   16  C11 UNL     1     -20.880 -39.279 -29.547  1.00  0.00     0.142 C 
BRANCH  16  17
HETATM   17  N2  UNL     1     -21.241 -40.499 -28.918  1.00  0.00    -0.343 N 
HETATM   18  N3  UNL     1     -21.297 -41.536 -29.576  1.00  0.00    -0.349 N 
ATOM     19  H32 UNL     1     -21.081 -41.502 -30.572  1.00  0.00     0.176 HD
ATOM     20  H31 UNL     1     -21.556 -42.412 -29.124  1.00  0.00     0.176 HD
ATOM     21  H2  UNL     1     -21.454 -40.515 -27.920  1.00  0.00     0.179 HD
ENDBRANCH  16  17
ENDBRANCH  15  16
ENDBRANCH  14  15
ENDBRANCH  12  13
ENDBRANCH   1  12
TORSDOF 10
ENDMDL
MODEL 3
REMARK VINA RESULT: -6.635754125      1.306      1.472
REMARK  10 active torsions:
REMARK  status: ('A' for Active; 'I' for Inactive)
REMARK    1  A    between atoms: C2_2  and  C3_3 
REMARK    2  A    between atoms: C3_3  and  N1_4 
REMARK    3  A    between atoms: N1_4  and  C4_5 
REMARK    4  A    between atoms: C4_5  and  C5_6 
REMARK    5  A    between atoms: C5_6  and  C6_7 
REMARK    6  A    between atoms: C6_7  and  C7_8 
REMARK    7  A    between atoms: C7_8  and  C8_9 
REMARK    8  A    between atoms: C9_10  and  C10_11 
REMARK    9  A    between atoms: C10_11  and  C11_12 
REMARK   10  A    between atoms: C11_12  and  N2_13 
ROOT
HETATM    1  C6  UNL     1     -22.090 -37.857 -23.604  1.00  0.00     0.005 C 
ENDROOT
BRANCH   1   2
HETATM    2  C5  UNL     1     -22.111 -39.360 -23.775  1.00  0.00     0.028 C 
BRANCH   2   3
HETATM    3  C4  UNL     1     -22.546 -40.057 -22.503  1.00  0.00     0.238 C 
BRANCH   3   4
HETATM    4  N1  UNL     1     -22.111 -41.451 -22.630  1.00  0.00    -0.064 N 
HETATM    5  C12 UNL     1     -22.021 -41.729 -24.049  1.00  0.00     0.238 C 
HETATM    6  C13 UNL     1     -22.778 -43.015 -24.288  1.00  0.00     0.029 C 
HETATM    7  C14 UNL     1     -23.874 -42.913 -23.237  1.00  0.00     0.029 C 
HETATM    8  C15 UNL     1     -23.110 -42.314 -22.076  1.00  0.00     0.238 C 
BRANCH   4   9
HETATM    9  C3  UNL     1     -20.817 -41.555 -21.994  1.00  0.00     0.264 C 
BRANCH   9  10
HETATM   10  C2  UNL     1     -20.581 -42.869 -21.352  1.00  0.00    -0.009 C 
HETATM   11  C1  UNL     1     -19.826 -43.810 -21.896  1.00  0.00     0.008 C 
ENDBRANCH   9  10
ENDBRANCH   4   9
ENDBRANCH   3   4
ENDBRANCH   2   3
ENDBRANCH   1   2
BRANCH   1  12
HETATM   12  C7  UNL     1     -21.229 -37.297 -24.702  1.00  0.00     0.027 C 
BRANCH  12  13
HETATM   13  C8  UNL     1     -21.368 -37.990 -26.001  1.00  0.00    -0.031 C 
HETATM   14  C9  UNL     1     -21.246 -37.269 -27.107  1.00  0.00    -0.029 C 
BRANCH  14  15
HETATM   15  C10 UNL     1     -21.372 -37.892 -28.464  1.00  0.00     0.048 C 
BRANCH  15  16
HETATM   16  C11 UNL     1     -20.864 -39.324 -28.313  1.00  0.00     0.142 C 
BRANCH  16  17
HETATM   17  N2  UNL     1     -20.979 -40.005 -29.554  1.00  0.00    -0.343 N 
HETATM   18  N3  UNL     1     -21.333 -41.182 -29.578  1.00  0.00    -0.349 N 
ATOM     19  H32 UNL     1     -21.540 -41.654 -28.698  1.00  0.00     0.176 HD
ATOM     20  H31 UNL     1     -21.415 -41.671 -30.468  1.00  0.00     0.176 HD
ATOM     21  H2  UNL     1     -20.767 -39.517 -30.425  1.00  0.00     0.179 HD
ENDBRANCH  16  17
ENDBRANCH  15  16
ENDBRANCH  14  15
ENDBRANCH  12  13
ENDBRANCH   1  12
TORSDOF 10
ENDMDL
MODEL 4
REMARK VINA RESULT: -6.635136038      1.258      1.759
REMARK  10 active torsions:
REMARK  status: ('A' for Active; 'I' for Inactive)
REMARK    1  A    between atoms: C2_2  and  C3_3 
REMARK    2  A    between atoms: C3_3  and  N1_4 
REMARK    3  A    between atoms: N1_4  and  C4_5 
REMARK    4  A    between atoms: C4_5  and  C5_6 
REMARK    5  A    between atoms: C5_6  and  C6_7 
REMARK    6  A    between atoms: C6_7  and  C7_8 
REMARK    7  A    between atoms: C7_8  and  C8_9 
REMARK    8  A    between atoms: C9_10  and  C10_11 
REMARK    9  A    between atoms: C10_11  and  C11_12 
REMARK   10  A    between atoms: C11_12  and  N2_13 
ROOT
HETATM    1  C6  UNL     1     -22.172 -37.804 -23.216  1.00  0.00     0.005 C 
ENDROOT
BRANCH   1   2
HETATM    2  C5  UNL     1     -22.336 -39.305 -23.320  1.00  0.00     0.028 C 
BRANCH   2   3
HETATM    3  C4  UNL     1     -21.508 -40.027 -22.278  1.00  0.00     0.238 C 
BRANCH   3   4
HETATM    4  N1  UNL     1     -21.228 -41.357 -22.825  1.00  0.00    -0.064 N 
HETATM    5  C12 UNL     1     -22.410 -41.758 -23.561  1.00  0.00     0.238 C 
HETATM    6  C13 UNL     1     -22.763 -43.150 -23.089  1.00  0.00     0.029 C 
HETATM    7  C14 UNL     1     -22.320 -43.090 -21.634  1.00  0.00     0.029 C 
HETATM    8  C15 UNL     1     -21.044 -42.285 -21.751  1.00  0.00     0.238 C 
BRANCH   4   9
HETATM    9  C3  UNL     1     -20.085 -41.228 -23.701  1.00  0.00     0.264 C 
BRANCH   9  10
HETATM   10  C2  UNL     1     -19.030 -40.338 -23.165  1.00  0.00    -0.009 C 
HETATM   11  C1  UNL     1     -18.256 -39.594 -23.937  1.00  0.00     0.008 C 
ENDBRANCH   9  10
ENDBRANCH   4   9
ENDBRANCH   3   4
ENDBRANCH   2   3
ENDBRANCH   1   2
BRANCH   1  12
HETATM   12  C7  UNL     1     -21.729 -37.312 -24.566  1.00  0.00     0.027 C 
BRANCH  12  13
HETATM   13  C8  UNL     1     -21.484 -38.383 -25.556  1.00  0.00    -0.031 C 
HETATM   14  C9  UNL     1     -21.074 -38.028 -26.767  1.00  0.00    -0.029 C 
BRANCH  14  15
HETATM   15  C10 UNL     1     -20.802 -39.049 -27.830  1.00  0.00     0.048 C 
BRANCH  15  16
HETATM   16  C11 UNL     1     -21.479 -38.523 -29.094  1.00  0.00     0.142 C 
BRANCH  16  17
HETATM   17  N2  UNL     1     -21.324 -37.114 -29.168  1.00  0.00    -0.343 N 
HETATM   18  N3  UNL     1     -21.232 -36.564 -30.264  1.00  0.00    -0.349 N 
ATOM     19  H32 UNL     1     -21.268 -37.134 -31.109  1.00  0.00     0.176 HD
ATOM     20  H31 UNL     1     -21.120 -35.552 -30.317  1.00  0.00     0.176 HD
ATOM     21  H2  UNL     1     -21.288 -36.559 -28.313  1.00  0.00     0.179 HD
ENDBRANCH  16  17
ENDBRANCH  15  16
ENDBRANCH  14  15
ENDBRANCH  12  13
ENDBRANCH   1  12
TORSDOF 10
ENDMDL
MODEL 5
REMARK VINA RESULT: -6.624179742      1.524      2.595
REMARK  10 active torsions:
REMARK  status: ('A' for Active; 'I' for Inactive)
REMARK    1  A    between atoms: C2_2  and  C3_3 
REMARK    2  A    between atoms: C3_3  and  N1_4 
REMARK    3  A    between atoms: N1_4  and  C4_5 
REMARK    4  A    between atoms: C4_5  and  C5_6 
REMARK    5  A    between atoms: C5_6  and  C6_7 
REMARK    6  A    between atoms: C6_7  and  C7_8 
REMARK    7  A    between atoms: C7_8  and  C8_9 
REMARK    8  A    between atoms: C9_10  and  C10_11 
REMARK    9  A    between atoms: C10_11  and  C11_12 
REMARK   10  A    between atoms: C11_12  and  N2_13 
ROOT
HETATM    1  C6  UNL     1     -21.882 -37.604 -23.249  1.00  0.00     0.005 C 
ENDROOT
BRANCH   1   2
HETATM    2  C5  UNL     1     -22.412 -39.020 -23.187  1.00  0.00     0.028 C 
BRANCH   2   3
HETATM    3  C4  UNL     1     -21.638 -39.860 -22.194  1.00  0.00     0.238 C 
BRANCH   3   4
HETATM    4  N1  UNL     1     -21.705 -41.241 -22.681  1.00  0.00    -0.064 N 
HETATM    5  C12 UNL     1     -22.633 -41.939 -21.815  1.00  0.00     0.238 C 
HETATM    6  C13 UNL     1     -21.943 -43.211 -21.377  1.00  0.00     0.029 C 
HETATM    7  C14 UNL     1     -20.491 -42.756 -21.324  1.00  0.00     0.029 C 
HETATM    8  C15 UNL     1     -20.422 -41.859 -22.540  1.00  0.00     0.238 C 
BRANCH   4   9
HETATM    9  C3  UNL     1     -22.194 -41.191 -24.040  1.00  0.00     0.264 C 
BRANCH   9  10
HETATM   10  C2  UNL     1     -21.444 -42.067 -24.968  1.00  0.00    -0.009 C 
HETATM   11  C1  UNL     1     -22.016 -42.707 -25.975  1.00  0.00     0.008 C 
ENDBRANCH   9  10
ENDBRANCH   4   9
ENDBRANCH   3   4
ENDBRANCH   2   3
ENDBRANCH   1   2
BRANCH   1  12
HETATM   12  C7  UNL     1     -21.769 -37.236 -24.702  1.00  0.00     0.027 C 
BRANCH  12  13
HETATM   13  C8  UNL     1     -20.968 -38.180 -25.510  1.00  0.00    -0.031 C 
HETATM   14  C9  UNL     1     -21.396 -38.473 -26.731  1.00  0.00    -0.029 C 
BRANCH  14  15
HETATM   15  C10 UNL     1     -20.645 -39.420 -27.616  1.00  0.00     0.048 C 
BRANCH  15  16
HETATM   16  C11 UNL     1     -21.090 -39.097 -29.042  1.00  0.00     0.142 C 
BRANCH  16  17
HETATM   17  N2  UNL     1     -21.052 -40.276 -29.832  1.00  0.00    -0.343 N 
HETATM   18  N3  UNL     1     -21.320 -41.364 -29.326  1.00  0.00    -0.349 N 
ATOM     19  H32 UNL     1     -21.567 -41.402 -28.337  1.00  0.00     0.176 HD
ATOM     20  H31 UNL     1     -21.293 -42.210 -29.893  1.00  0.00     0.176 HD
ATOM     21  H2  UNL     1     -20.803 -40.220 -30.820  1.00  0.00     0.179 HD
ENDBRANCH  16  17
ENDBRANCH  15  16
ENDBRANCH  14  15
ENDBRANCH  12  13
ENDBRANCH   1  12
TORSDOF 10
ENDMDL
