MODEL 1
REMARK VINA RESULT: -7.975565802      0.000      0.000
REMARK  9 active torsions:
REMARK  status: ('A' for Active; 'I' for Inactive)
REMARK    1  A    between atoms: N1_1  and  C1_4 
REMARK    2  A    between atoms: N4_13  and  C4_14 
REMARK    3  A    between atoms: C4_14  and  C5_15 
REMARK    4  A    between atoms: C5_15  and  C6_16 
REMARK    5  A    between atoms: C6_16  and  O3_17 
REMARK    6  A    between atoms: C7_22  and  C8_23 
REMARK    7  A    between atoms: C8_23  and  O4_24 
REMARK    8  A    between atoms: C9_26  and  O5_27 
REMARK    9  A    between atoms: C11_33  and  O6_34 
ROOT
HETATM    1  C6  UNL     1     130.827   6.834  72.211  1.00  0.00     0.287 C 
HETATM    2  N5  UNL     1     130.523   7.704  71.094  1.00  0.00    -0.019 N 
ATOM      3  H51 UNL     1     129.677   8.274  71.105  1.00  0.00     0.282 HD
ATOM      4  H52 UNL     1     130.241   7.306  70.198  1.00  0.00     0.282 HD
HETATM    5  C7  UNL     1     131.818   8.330  71.232  1.00  0.00     0.239 C 
HETATM    6  C9  UNL     1     132.951   7.704  70.507  1.00  0.00     0.187 C 
HETATM    7  C10 UNL     1     133.761   6.973  71.539  1.00  0.00     0.270 C 
HETATM    8  N6  UNL     1     133.188   7.212  72.819  1.00  0.00    -0.033 N 
ATOM      9  H61 UNL     1     133.790   7.779  73.417  1.00  0.00     0.281 HD
ATOM     10  H62 UNL     1     133.164   6.374  73.400  1.00  0.00     0.281 HD
HETATM   11  C11 UNL     1     131.883   7.797  72.636  1.00  0.00     0.320 C 
ENDROOT
BRANCH   1  12
HETATM   12  C5  UNL     1     129.692   6.623  73.187  1.00  0.00     0.095 C 
BRANCH  12  13
HETATM   13  C4  UNL     1     129.826   5.255  73.776  1.00  0.00     0.157 C 
BRANCH  13  14
HETATM   14  N4  UNL     1     130.199   5.270  75.171  1.00  0.00    -0.132 N 
HETATM   15  C1  UNL     1     129.326   5.404  76.186  1.00  0.00     0.686 A 
HETATM   16  N2  UNL     1     129.707   5.413  77.473  1.00  0.00    -0.141 N 
HETATM   17  C2  UNL     1     130.998   5.287  77.810  1.00  0.00     0.342 A 
ATOM     18  H2  UNL     1     129.004   5.517  78.205  1.00  0.00     0.189 HD
HETATM   19  O1  UNL     1     131.382   5.293  79.011  1.00  0.00    -0.246 OA
HETATM   20  N3  UNL     1     131.891   5.152  76.815  1.00  0.00    -0.259 N 
HETATM   21  C3  UNL     1     131.490   5.144  75.521  1.00  0.00     0.344 A 
ATOM     22  H3  UNL     1     132.882   5.055  77.037  1.00  0.00     0.175 HD
HETATM   23  O2  UNL     1     132.396   5.013  74.655  1.00  0.00    -0.246 OA
BRANCH  15  24
HETATM   24  N1  UNL     1     128.079   5.525  75.851  1.00  0.00    -0.234 N 
ATOM     25  H12 UNL     1     127.826   6.389  75.373  1.00  0.00     0.174 HD
ATOM     26  H11 UNL     1     127.402   4.791  76.059  1.00  0.00     0.174 HD
ENDBRANCH  15  24
ENDBRANCH  13  14
ENDBRANCH  12  13
ENDBRANCH   1  12
BRANCH   1  27
HETATM   27  O3  UNL     1     131.385   5.619  71.823  1.00  0.00    -0.361 OA
ATOM     28  H3  UNL     1     131.780   5.686  70.962  1.00  0.00     0.212 HD
ENDBRANCH   1  27
BRANCH  11  29
HETATM   29  O6  UNL     1     131.524   8.761  73.552  1.00  0.00    -0.359 OA
ATOM     30  H6  UNL     1     131.423   8.484  74.456  1.00  0.00     0.212 HD
ENDBRANCH  11  29
BRANCH   5  31
HETATM   31  C8  UNL     1     131.831   9.824  71.131  1.00  0.00     0.211 C 
BRANCH  31  32
HETATM   32  O4  UNL     1     131.480  10.168  69.811  1.00  0.00    -0.398 OA
ATOM     33  H4  UNL     1     130.995  10.984  69.844  1.00  0.00     0.209 HD
ENDBRANCH  31  32
ENDBRANCH   5  31
BRANCH   6  34
HETATM   34  O5  UNL     1     132.554   6.868  69.458  1.00  0.00    -0.391 OA
ATOM     35  H5  UNL     1     132.976   7.067  68.631  1.00  0.00     0.210 HD
ENDBRANCH   6  34
TORSDOF 9
ENDMDL
MODEL 2
REMARK VINA RESULT: -7.727947928      4.769      6.596
REMARK  9 active torsions:
REMARK  status: ('A' for Active; 'I' for Inactive)
REMARK    1  A    between atoms: N1_1  and  C1_4 
REMARK    2  A    between atoms: N4_13  and  C4_14 
REMARK    3  A    between atoms: C4_14  and  C5_15 
REMARK    4  A    between atoms: C5_15  and  C6_16 
REMARK    5  A    between atoms: C6_16  and  O3_17 
REMARK    6  A    between atoms: C7_22  and  C8_23 
REMARK    7  A    between atoms: C8_23  and  O4_24 
REMARK    8  A    between atoms: C9_26  and  O5_27 
REMARK    9  A    between atoms: C11_33  and  O6_34 
ROOT
HETATM    1  C6  UNL     1     135.111   6.947  73.496  1.00  0.00     0.287 C 
HETATM    2  N5  UNL     1     135.167   5.520  73.739  1.00  0.00    -0.019 N 
ATOM      3  H51 UNL     1     135.804   5.146  74.443  1.00  0.00     0.282 HD
ATOM      4  H52 UNL     1     135.576   4.898  73.041  1.00  0.00     0.282 HD
HETATM    5  C7  UNL     1     133.742   5.506  73.973  1.00  0.00     0.239 C 
HETATM    6  C9  UNL     1     132.865   5.326  72.790  1.00  0.00     0.187 C 
HETATM    7  C10 UNL     1     132.286   6.677  72.483  1.00  0.00     0.270 C 
HETATM    8  N6  UNL     1     132.731   7.598  73.473  1.00  0.00    -0.033 N 
ATOM      9  H61 UNL     1     131.974   7.921  74.074  1.00  0.00     0.281 HD
ATOM     10  H62 UNL     1     132.992   8.502  73.078  1.00  0.00     0.281 HD
HETATM   11  C11 UNL     1     133.806   6.988  74.215  1.00  0.00     0.320 C 
ENDROOT
BRANCH   1  12
HETATM   12  C5  UNL     1     136.235   7.747  74.115  1.00  0.00     0.095 C 
BRANCH  12  13
HETATM   13  C4  UNL     1     137.387   6.827  74.361  1.00  0.00     0.157 C 
BRANCH  13  14
HETATM   14  N4  UNL     1     137.956   6.966  75.682  1.00  0.00    -0.132 N 
HETATM   15  C1  UNL     1     139.100   7.622  75.947  1.00  0.00     0.686 A 
HETATM   16  N2  UNL     1     139.601   7.733  77.187  1.00  0.00    -0.141 N 
HETATM   17  C2  UNL     1     138.972   7.182  78.236  1.00  0.00     0.342 A 
ATOM     18  H2  UNL     1     140.473   8.242  77.335  1.00  0.00     0.189 HD
HETATM   19  O1  UNL     1     139.422   7.271  79.411  1.00  0.00    -0.246 OA
HETATM   20  N3  UNL     1     137.827   6.520  77.998  1.00  0.00    -0.259 N 
HETATM   21  C3  UNL     1     137.335   6.419  76.740  1.00  0.00     0.344 A 
ATOM     22  H3  UNL     1     137.324   6.089  78.774  1.00  0.00     0.175 HD
HETATM   23  O2  UNL     1     136.257   5.780  76.611  1.00  0.00    -0.246 OA
BRANCH  15  24
HETATM   24  N1  UNL     1     139.702   8.152  74.928  1.00  0.00    -0.234 N 
ATOM     25  H12 UNL     1     140.152   7.501  74.286  1.00  0.00     0.174 HD
ATOM     26  H11 UNL     1     139.715   9.162  74.787  1.00  0.00     0.174 HD
ENDBRANCH  15  24
ENDBRANCH  13  14
ENDBRANCH  12  13
ENDBRANCH   1  12
BRANCH   1  27
HETATM   27  O3  UNL     1     134.952   7.267  72.152  1.00  0.00    -0.361 OA
ATOM     28  H3  UNL     1     135.790   7.288  71.705  1.00  0.00     0.212 HD
ENDBRANCH   1  27
BRANCH  11  29
HETATM   29  O6  UNL     1     133.839   7.272  75.563  1.00  0.00    -0.359 OA
ATOM     30  H6  UNL     1     133.120   7.783  75.916  1.00  0.00     0.212 HD
ENDBRANCH  11  29
BRANCH   5  31
HETATM   31  C8  UNL     1     133.285   4.701  75.150  1.00  0.00     0.211 C 
BRANCH  31  32
HETATM   32  O4  UNL     1     133.839   3.412  75.030  1.00  0.00    -0.398 OA
ATOM     33  H4  UNL     1     134.783   3.506  74.973  1.00  0.00     0.209 HD
ENDBRANCH  31  32
ENDBRANCH   5  31
BRANCH   6  34
HETATM   34  O5  UNL     1     133.518   4.768  71.686  1.00  0.00    -0.391 OA
ATOM     35  H5  UNL     1     133.493   3.819  71.668  1.00  0.00     0.210 HD
ENDBRANCH   6  34
TORSDOF 9
ENDMDL
MODEL 3
REMARK VINA RESULT: -7.623180066      4.220      6.112
REMARK  9 active torsions:
REMARK  status: ('A' for Active; 'I' for Inactive)
REMARK    1  A    between atoms: N1_1  and  C1_4 
REMARK    2  A    between atoms: N4_13  and  C4_14 
REMARK    3  A    between atoms: C4_14  and  C5_15 
REMARK    4  A    between atoms: C5_15  and  C6_16 
REMARK    5  A    between atoms: C6_16  and  O3_17 
REMARK    6  A    between atoms: C7_22  and  C8_23 
REMARK    7  A    between atoms: C8_23  and  O4_24 
REMARK    8  A    between atoms: C9_26  and  O5_27 
REMARK    9  A    between atoms: C11_33  and  O6_34 
ROOT
HETATM    1  C6  UNL     1     134.106   5.637  73.132  1.00  0.00     0.287 C 
HETATM    2  N5  UNL     1     133.615   4.606  72.240  1.00  0.00    -0.019 N 
ATOM      3  H51 UNL     1     133.879   3.632  72.390  1.00  0.00     0.282 HD
ATOM      4  H52 UNL     1     133.963   4.551  71.282  1.00  0.00     0.282 HD
HETATM    5  C7  UNL     1     132.260   5.036  72.493  1.00  0.00     0.239 C 
HETATM    6  C9  UNL     1     131.722   6.117  71.630  1.00  0.00     0.187 C 
HETATM    7  C10 UNL     1     131.732   7.367  72.462  1.00  0.00     0.270 C 
HETATM    8  N6  UNL     1     132.178   7.037  73.773  1.00  0.00    -0.033 N 
ATOM      9  H61 UNL     1     131.441   7.130  74.471  1.00  0.00     0.281 HD
ATOM     10  H62 UNL     1     132.821   7.732  74.154  1.00  0.00     0.281 HD
HETATM   11  C11 UNL     1     132.749   5.713  73.743  1.00  0.00     0.320 C 
ENDROOT
BRANCH   1  12
HETATM   12  C5  UNL     1     135.224   5.207  74.054  1.00  0.00     0.095 C 
BRANCH  12  13
HETATM   13  C4  UNL     1     135.451   6.292  75.057  1.00  0.00     0.157 C 
BRANCH  13  14
HETATM   14  N4  UNL     1     136.837   6.685  75.169  1.00  0.00    -0.132 N 
HETATM   15  C1  UNL     1     137.701   6.164  76.058  1.00  0.00     0.686 A 
HETATM   16  N2  UNL     1     138.984   6.552  76.135  1.00  0.00    -0.141 N 
HETATM   17  C2  UNL     1     139.467   7.496  75.314  1.00  0.00     0.342 A 
ATOM     18  H2  UNL     1     139.599   6.124  76.827  1.00  0.00     0.189 HD
HETATM   19  O1  UNL     1     140.668   7.879  75.366  1.00  0.00    -0.246 OA
HETATM   20  N3  UNL     1     138.624   8.034  74.417  1.00  0.00    -0.259 N 
HETATM   21  C3  UNL     1     137.333   7.630  74.352  1.00  0.00     0.344 A 
ATOM     22  H3  UNL     1     138.961   8.755  73.779  1.00  0.00     0.175 HD
HETATM   23  O2  UNL     1     136.615   8.189  73.481  1.00  0.00    -0.246 OA
BRANCH  15  24
HETATM   24  N1  UNL     1     137.225   5.251  76.847  1.00  0.00    -0.234 N 
ATOM     25  H12 UNL     1     137.777   5.047  77.679  1.00  0.00     0.174 HD
ATOM     26  H11 UNL     1     136.348   4.775  76.637  1.00  0.00     0.174 HD
ENDBRANCH  15  24
ENDBRANCH  13  14
ENDBRANCH  12  13
ENDBRANCH   1  12
BRANCH   1  27
HETATM   27  O3  UNL     1     134.427   6.821  72.477  1.00  0.00    -0.361 OA
ATOM     28  H3  UNL     1     133.643   7.290  72.215  1.00  0.00     0.212 HD
ENDBRANCH   1  27
BRANCH  11  29
HETATM   29  O6  UNL     1     132.514   4.935  74.855  1.00  0.00    -0.359 OA
ATOM     30  H6  UNL     1     132.004   5.324  75.557  1.00  0.00     0.212 HD
ENDBRANCH  11  29
BRANCH   5  31
HETATM   31  C8  UNL     1     131.265   3.942  72.724  1.00  0.00     0.211 C 
BRANCH  31  32
HETATM   32  O4  UNL     1     130.959   3.367  71.476  1.00  0.00    -0.398 OA
ATOM     33  H4  UNL     1     131.719   3.471  70.915  1.00  0.00     0.209 HD
ENDBRANCH  31  32
ENDBRANCH   5  31
BRANCH   6  34
HETATM   34  O5  UNL     1     132.420   6.277  70.429  1.00  0.00    -0.391 OA
ATOM     35  H5  UNL     1     132.001   6.874  69.820  1.00  0.00     0.210 HD
ENDBRANCH   6  34
TORSDOF 9
ENDMDL
MODEL 4
REMARK VINA RESULT: -7.548848334      3.277      6.534
REMARK  9 active torsions:
REMARK  status: ('A' for Active; 'I' for Inactive)
REMARK    1  A    between atoms: N1_1  and  C1_4 
REMARK    2  A    between atoms: N4_13  and  C4_14 
REMARK    3  A    between atoms: C4_14  and  C5_15 
REMARK    4  A    between atoms: C5_15  and  C6_16 
REMARK    5  A    between atoms: C6_16  and  O3_17 
REMARK    6  A    between atoms: C7_22  and  C8_23 
REMARK    7  A    between atoms: C8_23  and  O4_24 
REMARK    8  A    between atoms: C9_26  and  O5_27 
REMARK    9  A    between atoms: C11_33  and  O6_34 
ROOT
HETATM    1  C6  UNL     1     131.821   8.440  71.296  1.00  0.00     0.287 C 
HETATM    2  N5  UNL     1     131.530   7.198  70.610  1.00  0.00    -0.019 N 
ATOM      3  H51 UNL     1     131.898   7.033  69.673  1.00  0.00     0.282 HD
ATOM      4  H52 UNL     1     130.586   7.010  70.270  1.00  0.00     0.282 HD
HETATM    5  C7  UNL     1     132.054   6.457  71.734  1.00  0.00     0.239 C 
HETATM    6  C9  UNL     1     131.108   6.138  72.832  1.00  0.00     0.187 C 
HETATM    7  C10 UNL     1     131.430   7.080  73.955  1.00  0.00     0.270 C 
HETATM    8  N6  UNL     1     132.555   7.867  73.581  1.00  0.00    -0.033 N 
ATOM      9  H61 UNL     1     133.383   7.655  74.136  1.00  0.00     0.281 HD
ATOM     10  H62 UNL     1     132.455   8.847  73.849  1.00  0.00     0.281 HD
HETATM   11  C11 UNL     1     132.779   7.701  72.166  1.00  0.00     0.320 C 
ENDROOT
BRANCH   1  12
HETATM   12  C5  UNL     1     132.416   9.527  70.428  1.00  0.00     0.095 C 
BRANCH  12  13
HETATM   13  C4  UNL     1     132.005  10.851  70.986  1.00  0.00     0.157 C 
BRANCH  13  14
HETATM   14  N4  UNL     1     133.103  11.593  71.562  1.00  0.00    -0.132 N 
HETATM   15  C1  UNL     1     133.931  12.387  70.858  1.00  0.00     0.686 A 
HETATM   16  N2  UNL     1     134.942  13.063  71.425  1.00  0.00    -0.141 N 
HETATM   17  C2  UNL     1     135.177  12.973  72.742  1.00  0.00     0.342 A 
ATOM     18  H2  UNL     1     135.541  13.652  70.846  1.00  0.00     0.189 HD
HETATM   19  O1  UNL     1     136.122  13.597  73.299  1.00  0.00    -0.246 OA
HETATM   20  N3  UNL     1     134.366  12.187  73.468  1.00  0.00    -0.259 N 
HETATM   21  C3  UNL     1     133.349  11.512  72.880  1.00  0.00     0.344 A 
ATOM     22  H3  UNL     1     134.518  12.096  74.473  1.00  0.00     0.175 HD
HETATM   23  O2  UNL     1     132.639  10.798  73.638  1.00  0.00    -0.246 OA
BRANCH  15  24
HETATM   24  N1  UNL     1     133.696  12.468  69.585  1.00  0.00    -0.234 N 
ATOM     25  H12 UNL     1     134.491  12.718  68.999  1.00  0.00     0.174 HD
ATOM     26  H11 UNL     1     132.767  12.288  69.206  1.00  0.00     0.174 HD
ENDBRANCH  15  24
ENDBRANCH  13  14
ENDBRANCH  12  13
ENDBRANCH   1  12
BRANCH   1  27
HETATM   27  O3  UNL     1     130.745   8.924  72.034  1.00  0.00    -0.361 OA
ATOM     28  H3  UNL     1     130.899   9.818  72.314  1.00  0.00     0.212 HD
ENDBRANCH   1  27
BRANCH  11  29
HETATM   29  O6  UNL     1     134.098   7.673  71.768  1.00  0.00    -0.359 OA
ATOM     30  H6  UNL     1     134.728   8.119  72.322  1.00  0.00     0.212 HD
ENDBRANCH  11  29
BRANCH   5  31
HETATM   31  C8  UNL     1     132.944   5.303  71.393  1.00  0.00     0.211 C 
BRANCH  31  32
HETATM   32  O4  UNL     1     132.138   4.152  71.299  1.00  0.00    -0.398 OA
ATOM     33  H4  UNL     1     132.712   3.395  71.304  1.00  0.00     0.209 HD
ENDBRANCH  31  32
ENDBRANCH   5  31
BRANCH   6  34
HETATM   34  O5  UNL     1     129.764   6.207  72.453  1.00  0.00    -0.391 OA
ATOM     35  H5  UNL     1     129.161   6.229  73.187  1.00  0.00     0.210 HD
ENDBRANCH   6  34
TORSDOF 9
ENDMDL
MODEL 5
REMARK VINA RESULT: -7.546631747      3.575      4.477
REMARK  9 active torsions:
REMARK  status: ('A' for Active; 'I' for Inactive)
REMARK    1  A    between atoms: N1_1  and  C1_4 
REMARK    2  A    between atoms: N4_13  and  C4_14 
REMARK    3  A    between atoms: C4_14  and  C5_15 
REMARK    4  A    between atoms: C5_15  and  C6_16 
REMARK    5  A    between atoms: C6_16  and  O3_17 
REMARK    6  A    between atoms: C7_22  and  C8_23 
REMARK    7  A    between atoms: C8_23  and  O4_24 
REMARK    8  A    between atoms: C9_26  and  O5_27 
REMARK    9  A    between atoms: C11_33  and  O6_34 
ROOT
HETATM    1  C6  UNL     1     133.467   8.549  72.553  1.00  0.00     0.287 C 
HETATM    2  N5  UNL     1     132.669   7.732  71.661  1.00  0.00    -0.019 N 
ATOM      3  H51 UNL     1     132.464   6.762  71.904  1.00  0.00     0.282 HD
ATOM      4  H52 UNL     1     133.054   7.425  70.768  1.00  0.00     0.282 HD
HETATM    5  C7  UNL     1     131.620   8.724  71.695  1.00  0.00     0.239 C 
HETATM    6  C9  UNL     1     131.700   9.825  70.703  1.00  0.00     0.187 C 
HETATM    7  C10 UNL     1     132.171  11.037  71.454  1.00  0.00     0.270 C 
HETATM    8  N6  UNL     1     132.291  10.700  72.831  1.00  0.00    -0.033 N 
ATOM      9  H61 UNL     1     131.602  11.177  73.412  1.00  0.00     0.281 HD
ATOM     10  H62 UNL     1     133.130  11.093  73.258  1.00  0.00     0.281 HD
HETATM   11  C11 UNL     1     132.225   9.266  72.959  1.00  0.00     0.320 C 
ENDROOT
BRANCH   1  12
HETATM   12  C5  UNL     1     134.184   7.791  73.647  1.00  0.00     0.095 C 
BRANCH  12  13
HETATM   13  C4  UNL     1     135.151   6.846  73.009  1.00  0.00     0.157 C 
BRANCH  13  14
HETATM   14  N4  UNL     1     135.122   5.523  73.590  1.00  0.00    -0.132 N 
HETATM   15  C1  UNL     1     135.872   5.141  74.639  1.00  0.00     0.686 A 
HETATM   16  N2  UNL     1     135.820   3.902  75.154  1.00  0.00    -0.141 N 
HETATM   17  C2  UNL     1     135.004   2.975  74.634  1.00  0.00     0.342 A 
ATOM     18  H2  UNL     1     136.410   3.663  75.951  1.00  0.00     0.189 HD
HETATM   19  O1  UNL     1     134.937   1.804  75.099  1.00  0.00    -0.246 OA
HETATM   20  N3  UNL     1     134.244   3.330  73.585  1.00  0.00    -0.259 N 
HETATM   21  C3  UNL     1     134.307   4.585  73.078  1.00  0.00     0.344 A 
ATOM     22  H3  UNL     1     133.612   2.648  73.166  1.00  0.00     0.175 HD
HETATM   23  O2  UNL     1     133.559   4.829  72.094  1.00  0.00    -0.246 OA
BRANCH  15  24
HETATM   24  N1  UNL     1     136.659   6.045  75.135  1.00  0.00    -0.234 N 
ATOM     25  H12 UNL     1     137.638   5.779  75.235  1.00  0.00     0.174 HD
ATOM     26  H11 UNL     1     136.307   6.963  75.404  1.00  0.00     0.174 HD
ENDBRANCH  15  24
ENDBRANCH  13  14
ENDBRANCH  12  13
ENDBRANCH   1  12
BRANCH   1  27
HETATM   27  O3  UNL     1     134.339   9.400  71.881  1.00  0.00    -0.361 OA
ATOM     28  H3  UNL     1     134.540  10.166  72.407  1.00  0.00     0.212 HD
ENDBRANCH   1  27
BRANCH  11  29
HETATM   29  O6  UNL     1     131.562   8.794  74.071  1.00  0.00    -0.359 OA
ATOM     30  H6  UNL     1     130.865   8.164  73.926  1.00  0.00     0.212 HD
ENDBRANCH  11  29
BRANCH   5  31
HETATM   31  C8  UNL     1     130.229   8.193  71.846  1.00  0.00     0.211 C 
BRANCH  31  32
HETATM   32  O4  UNL     1     129.973   7.340  70.756  1.00  0.00    -0.398 OA
ATOM     33  H4  UNL     1     129.033   7.218  70.697  1.00  0.00     0.209 HD
ENDBRANCH  31  32
ENDBRANCH   5  31
BRANCH   6  34
HETATM   34  O5  UNL     1     132.516   9.534  69.605  1.00  0.00    -0.391 OA
ATOM     35  H5  UNL     1     133.428   9.398  69.832  1.00  0.00     0.210 HD
ENDBRANCH   6  34
TORSDOF 9
ENDMDL
