MODEL 1
REMARK VINA RESULT: -8.587304355      0.000      0.000
REMARK  5 active torsions:
REMARK  status: ('A' for Active; 'I' for Inactive)
REMARK    1  A    between atoms: S1_2  and  N1_4 
REMARK    2  A    between atoms: S1_2  and  C13_18 
REMARK    3  A    between atoms: N1_4  and  C1_6 
REMARK    4  A    between atoms: C1_6  and  C2_7 
REMARK    5  A    between atoms: C2_7  and  C3_8 
ROOT
HETATM    1  C1  UNL     1      41.315 -17.923  43.043  1.00  0.00     0.132 C 
ENDROOT
BRANCH   1   2
HETATM    2  N1  UNL     1      41.254 -16.542  43.371  1.00  0.00    -0.319 N 
ATOM      3  H1  UNL     1      42.056 -15.956  43.602  1.00  0.00     0.172 HD
BRANCH   2   4
HETATM    4  S1  UNL     1      39.601 -16.007  43.321  1.00  0.00     0.230 S 
HETATM    5  O1  UNL     1      38.920 -16.656  42.149  1.00  0.00    -0.206 OA
HETATM    6  O2  UNL     1      39.009 -16.608  44.625  1.00  0.00    -0.206 OA
BRANCH   4   7
HETATM    7  C13 UNL     1      39.506 -14.292  43.258  1.00  0.00     0.129 C 
HETATM    8  C14 UNL     1      40.875 -13.752  43.297  1.00  0.00     0.022 C 
HETATM    9  C15 UNL     1      41.097 -13.204  44.673  1.00  0.00     0.001 C 
HETATM   10  C16 UNL     1      39.776 -13.183  45.384  1.00  0.00     0.001 C 
HETATM   11  C17 UNL     1      38.748 -13.789  44.476  1.00  0.00     0.022 C 
ENDBRANCH   4   7
ENDBRANCH   2   4
ENDBRANCH   1   2
BRANCH   1  12
HETATM   12  C2  UNL     1      42.159 -18.524  44.164  1.00  0.00     0.030 C 
BRANCH  12  13
HETATM   13  C3  UNL     1      42.020 -19.957  44.366  1.00  0.00    -0.038 C 
HETATM   14  C4  UNL     1      41.048 -20.415  45.402  1.00  0.00     0.014 C 
HETATM   15  C5  UNL     1      40.923 -21.920  45.402  1.00  0.00    -0.013 C 
HETATM   16  C6  UNL     1      42.277 -22.545  45.586  1.00  0.00     0.009 C 
HETATM   17  C10 UNL     1      40.350 -22.360  44.085  1.00  0.00     0.009 C 
HETATM   18  C7  UNL     1      43.236 -22.105  44.517  1.00  0.00    -0.013 C 
HETATM   19  C8  UNL     1      42.691 -22.551  43.188  1.00  0.00     0.009 C 
HETATM   20  C12 UNL     1      43.368 -20.614  44.573  1.00  0.00     0.014 C 
HETATM   21  C9  UNL     1      41.319 -21.968  43.003  1.00  0.00    -0.013 C 
HETATM   22  C11 UNL     1      41.435 -20.461  43.023  1.00  0.00     0.014 C 
ENDBRANCH  12  13
ENDBRANCH   1  12
TORSDOF 5
ENDMDL
MODEL 2
REMARK VINA RESULT: -8.496094787      0.204      1.649
REMARK  5 active torsions:
REMARK  status: ('A' for Active; 'I' for Inactive)
REMARK    1  A    between atoms: S1_2  and  N1_4 
REMARK    2  A    between atoms: S1_2  and  C13_18 
REMARK    3  A    between atoms: N1_4  and  C1_6 
REMARK    4  A    between atoms: C1_6  and  C2_7 
REMARK    5  A    between atoms: C2_7  and  C3_8 
ROOT
HETATM    1  C1  UNL     1      41.070 -17.974  42.905  1.00  0.00     0.132 C 
ENDROOT
BRANCH   1   2
HETATM    2  N1  UNL     1      41.110 -16.571  43.124  1.00  0.00    -0.319 N 
ATOM      3  H1  UNL     1      41.960 -16.012  43.205  1.00  0.00     0.172 HD
BRANCH   2   4
HETATM    4  S1  UNL     1      39.489 -15.954  43.232  1.00  0.00     0.230 S 
HETATM    5  O1  UNL     1      38.679 -16.526  42.102  1.00  0.00    -0.206 OA
HETATM    6  O2  UNL     1      38.978 -16.572  44.562  1.00  0.00    -0.206 OA
BRANCH   4   7
HETATM    7  C13 UNL     1      39.478 -14.236  43.232  1.00  0.00     0.129 C 
HETATM    8  C14 UNL     1      40.871 -13.765  43.303  1.00  0.00     0.022 C 
HETATM    9  C15 UNL     1      41.103 -13.279  44.701  1.00  0.00     0.001 C 
HETATM   10  C16 UNL     1      39.777 -13.220  45.400  1.00  0.00     0.001 C 
HETATM   11  C17 UNL     1      38.731 -13.741  44.460  1.00  0.00     0.022 C 
ENDBRANCH   4   7
ENDBRANCH   2   4
ENDBRANCH   1   2
BRANCH   1  12
HETATM   12  C2  UNL     1      41.877 -18.544  44.068  1.00  0.00     0.030 C 
BRANCH  12  13
HETATM   13  C3  UNL     1      42.023 -19.991  44.092  1.00  0.00    -0.038 C 
HETATM   14  C4  UNL     1      43.391 -20.540  44.327  1.00  0.00     0.014 C 
HETATM   15  C5  UNL     1      43.356 -22.045  44.454  1.00  0.00    -0.013 C 
HETATM   16  C6  UNL     1      42.711 -22.646  43.238  1.00  0.00     0.009 C 
HETATM   17  C10 UNL     1      42.557 -22.411  45.672  1.00  0.00     0.009 C 
HETATM   18  C7  UNL     1      41.321 -22.113  43.033  1.00  0.00    -0.013 C 
HETATM   19  C8  UNL     1      40.496 -22.484  44.235  1.00  0.00     0.009 C 
HETATM   20  C12 UNL     1      41.396 -20.626  42.869  1.00  0.00     0.014 C 
HETATM   21  C9  UNL     1      41.150 -21.925  45.466  1.00  0.00    -0.013 C 
HETATM   22  C11 UNL     1      41.205 -20.420  45.336  1.00  0.00     0.014 C 
ENDBRANCH  12  13
ENDBRANCH   1  12
TORSDOF 5
ENDMDL
MODEL 3
REMARK VINA RESULT: -8.440898860      0.901      2.096
REMARK  5 active torsions:
REMARK  status: ('A' for Active; 'I' for Inactive)
REMARK    1  A    between atoms: S1_2  and  N1_4 
REMARK    2  A    between atoms: S1_2  and  C13_18 
REMARK    3  A    between atoms: N1_4  and  C1_6 
REMARK    4  A    between atoms: C1_6  and  C2_7 
REMARK    5  A    between atoms: C2_7  and  C3_8 
ROOT
HETATM    1  C1  UNL     1      41.041 -17.671  41.953  1.00  0.00     0.132 C 
ENDROOT
BRANCH   1   2
HETATM    2  N1  UNL     1      41.103 -16.451  42.678  1.00  0.00    -0.319 N 
ATOM      3  H1  UNL     1      41.959 -15.953  42.921  1.00  0.00     0.172 HD
BRANCH   2   4
HETATM    4  S1  UNL     1      39.494 -15.936  43.087  1.00  0.00     0.230 S 
HETATM    5  O1  UNL     1      38.537 -16.492  42.069  1.00  0.00    -0.206 OA
HETATM    6  O2  UNL     1      39.240 -16.655  44.440  1.00  0.00    -0.206 OA
BRANCH   4   7
HETATM    7  C13 UNL     1      39.399 -14.224  43.198  1.00  0.00     0.129 C 
HETATM    8  C14 UNL     1      40.769 -13.691  43.283  1.00  0.00     0.022 C 
HETATM    9  C15 UNL     1      40.999 -13.284  44.706  1.00  0.00     0.001 C 
HETATM   10  C16 UNL     1      39.682 -13.336  45.424  1.00  0.00     0.001 C 
HETATM   11  C17 UNL     1      38.649 -13.846  44.465  1.00  0.00     0.022 C 
ENDBRANCH   4   7
ENDBRANCH   2   4
ENDBRANCH   1   2
BRANCH   1  12
HETATM   12  C2  UNL     1      42.293 -18.421  42.401  1.00  0.00     0.030 C 
BRANCH  12  13
HETATM   13  C3  UNL     1      42.089 -19.465  43.392  1.00  0.00    -0.038 C 
HETATM   14  C4  UNL     1      42.848 -20.738  43.216  1.00  0.00     0.014 C 
HETATM   15  C5  UNL     1      42.631 -21.665  44.388  1.00  0.00    -0.013 C 
HETATM   16  C6  UNL     1      41.161 -21.909  44.582  1.00  0.00     0.009 C 
HETATM   17  C10 UNL     1      43.193 -21.025  45.625  1.00  0.00     0.009 C 
HETATM   18  C7  UNL     1      40.414 -20.623  44.794  1.00  0.00    -0.013 C 
HETATM   19  C8  UNL     1      40.949 -19.971  46.039  1.00  0.00     0.009 C 
HETATM   20  C12 UNL     1      40.616 -19.746  43.597  1.00  0.00     0.014 C 
HETATM   21  C9  UNL     1      42.427 -19.756  45.881  1.00  0.00    -0.013 C 
HETATM   22  C11 UNL     1      42.651 -18.845  44.696  1.00  0.00     0.014 C 
ENDBRANCH  12  13
ENDBRANCH   1  12
TORSDOF 5
ENDMDL
MODEL 4
REMARK VINA RESULT: -8.411636057      0.817      1.323
REMARK  5 active torsions:
REMARK  status: ('A' for Active; 'I' for Inactive)
REMARK    1  A    between atoms: S1_2  and  N1_4 
REMARK    2  A    between atoms: S1_2  and  C13_18 
REMARK    3  A    between atoms: N1_4  and  C1_6 
REMARK    4  A    between atoms: C1_6  and  C2_7 
REMARK    5  A    between atoms: C2_7  and  C3_8 
ROOT
HETATM    1  C1  UNL     1      40.967 -17.558  41.871  1.00  0.00     0.132 C 
ENDROOT
BRANCH   1   2
HETATM    2  N1  UNL     1      41.046 -16.417  42.713  1.00  0.00    -0.319 N 
ATOM      3  H1  UNL     1      41.910 -15.984  43.038  1.00  0.00     0.172 HD
BRANCH   2   4
HETATM    4  S1  UNL     1      39.442 -15.871  43.103  1.00  0.00     0.230 S 
HETATM    5  O1  UNL     1      38.488 -16.401  42.069  1.00  0.00    -0.206 OA
HETATM    6  O2  UNL     1      39.155 -16.593  44.448  1.00  0.00    -0.206 OA
BRANCH   4   7
HETATM    7  C13 UNL     1      39.382 -14.159  43.224  1.00  0.00     0.129 C 
HETATM    8  C14 UNL     1      40.763 -13.649  43.249  1.00  0.00     0.022 C 
HETATM    9  C15 UNL     1      41.063 -13.252  44.663  1.00  0.00     0.001 C 
HETATM   10  C16 UNL     1      39.779 -13.284  45.438  1.00  0.00     0.001 C 
HETATM   11  C17 UNL     1      38.695 -13.773  44.524  1.00  0.00     0.022 C 
ENDBRANCH   4   7
ENDBRANCH   2   4
ENDBRANCH   1   2
BRANCH   1  12
HETATM   12  C2  UNL     1      42.056 -18.481  42.410  1.00  0.00     0.030 C 
BRANCH  12  13
HETATM   13  C3  UNL     1      41.615 -19.514  43.335  1.00  0.00    -0.038 C 
HETATM   14  C4  UNL     1      40.151 -19.797  43.403  1.00  0.00     0.014 C 
HETATM   15  C5  UNL     1      39.868 -20.974  44.305  1.00  0.00    -0.013 C 
HETATM   16  C6  UNL     1      40.457 -20.730  45.666  1.00  0.00     0.009 C 
HETATM   17  C10 UNL     1      40.492 -22.204  43.710  1.00  0.00     0.009 C 
HETATM   18  C7  UNL     1      41.937 -20.482  45.587  1.00  0.00    -0.013 C 
HETATM   19  C8  UNL     1      42.586 -21.709  45.009  1.00  0.00     0.009 C 
HETATM   20  C12 UNL     1      42.179 -19.284  44.721  1.00  0.00     0.014 C 
HETATM   21  C9  UNL     1      41.980 -21.993  43.664  1.00  0.00    -0.013 C 
HETATM   22  C11 UNL     1      42.243 -20.809  42.763  1.00  0.00     0.014 C 
ENDBRANCH  12  13
ENDBRANCH   1  12
TORSDOF 5
ENDMDL
MODEL 5
REMARK VINA RESULT: -8.356916292      1.433      2.682
REMARK  5 active torsions:
REMARK  status: ('A' for Active; 'I' for Inactive)
REMARK    1  A    between atoms: S1_2  and  N1_4 
REMARK    2  A    between atoms: S1_2  and  C13_18 
REMARK    3  A    between atoms: N1_4  and  C1_6 
REMARK    4  A    between atoms: C1_6  and  C2_7 
REMARK    5  A    between atoms: C2_7  and  C3_8 
ROOT
HETATM    1  C1  UNL     1      39.700 -18.338  43.121  1.00  0.00     0.132 C 
ENDROOT
BRANCH   1   2
HETATM    2  N1  UNL     1      39.247 -17.244  43.907  1.00  0.00    -0.319 N 
ATOM      3  H1  UNL     1      38.709 -17.322  44.770  1.00  0.00     0.172 HD
BRANCH   2   4
HETATM    4  S1  UNL     1      39.750 -15.753  43.169  1.00  0.00     0.230 S 
HETATM    5  O1  UNL     1      40.708 -16.065  42.055  1.00  0.00    -0.206 OA
HETATM    6  O2  UNL     1      38.431 -15.220  42.545  1.00  0.00    -0.206 OA
BRANCH   4   7
HETATM    7  C13 UNL     1      40.431 -14.686  44.331  1.00  0.00     0.129 C 
HETATM    8  C14 UNL     1      39.579 -13.488  44.414  1.00  0.00     0.022 C 
HETATM    9  C15 UNL     1      40.294 -12.384  43.697  1.00  0.00     0.001 C 
HETATM   10  C16 UNL     1      41.691 -12.848  43.404  1.00  0.00     0.001 C 
HETATM   11  C17 UNL     1      41.819 -14.267  43.871  1.00  0.00     0.022 C 
ENDBRANCH   4   7
ENDBRANCH   2   4
ENDBRANCH   1   2
BRANCH   1  12
HETATM   12  C2  UNL     1      40.084 -19.391  44.156  1.00  0.00     0.030 C 
BRANCH  12  13
HETATM   13  C3  UNL     1      41.506 -19.673  44.280  1.00  0.00    -0.038 C 
HETATM   14  C4  UNL     1      42.458 -18.640  43.778  1.00  0.00     0.014 C 
HETATM   15  C5  UNL     1      43.885 -19.020  44.095  1.00  0.00    -0.013 C 
HETATM   16  C6  UNL     1      44.189 -20.382  43.538  1.00  0.00     0.009 C 
HETATM   17  C10 UNL     1      44.062 -19.044  45.586  1.00  0.00     0.009 C 
HETATM   18  C7  UNL     1      43.246 -21.419  44.078  1.00  0.00    -0.013 C 
HETATM   19  C8  UNL     1      43.418 -21.474  45.572  1.00  0.00     0.009 C 
HETATM   20  C12 UNL     1      41.845 -21.034  43.711  1.00  0.00     0.014 C 
HETATM   21  C9  UNL     1      43.159 -20.109  46.143  1.00  0.00    -0.013 C 
HETATM   22  C11 UNL     1      41.737 -19.716  45.812  1.00  0.00     0.014 C 
ENDBRANCH  12  13
ENDBRANCH   1  12
TORSDOF 5
ENDMDL
