MODEL 1
REMARK VINA RESULT: -7.658773183      0.000      0.000
REMARK  7 active torsions:
REMARK  status: ('A' for Active; 'I' for Inactive)
REMARK    1  A    between atoms: C2_2  and  C4_4 
REMARK    2  A    between atoms: C4_4  and  C5_6 
REMARK    3  A    between atoms: C5_6  and  N1_7 
REMARK    4  A    between atoms: N1_7  and  C6_8 
REMARK    5  A    between atoms: N1_7  and  C13_18 
REMARK    6  A    between atoms: C6_8  and  N2_10 
REMARK    7  A    between atoms: N2_10  and  C7_12 
ROOT
HETATM    1  N1  UNL     1      41.615 -18.677  44.056  1.00  0.00    -0.347 N 
ENDROOT
BRANCH   1   2
HETATM    2  C5  UNL     1      40.717 -19.593  44.759  1.00  0.00     0.204 C 
BRANCH   2   3
HETATM    3  C4  UNL     1      39.920 -20.410  43.843  1.00  0.00     0.148 C 
HETATM    4  O1  UNL     1      38.824 -20.041  43.479  1.00  0.00    -0.296 OA
BRANCH   3   5
HETATM    5  C2  UNL     1      40.425 -21.709  43.334  1.00  0.00     0.049 C 
HETATM    6  C1  UNL     1      41.166 -22.429  44.428  1.00  0.00     0.017 C 
HETATM    7  C3  UNL     1      41.234 -21.531  42.075  1.00  0.00     0.017 C 
ENDBRANCH   3   5
ENDBRANCH   2   3
ENDBRANCH   1   2
BRANCH   1   8
HETATM    8  C6  UNL     1      41.123 -17.587  43.302  1.00  0.00     0.170 C 
HETATM    9  S1  UNL     1      41.285 -17.691  41.666  1.00  0.00    -0.041 SA
BRANCH   8  10
HETATM   10  N2  UNL     1      40.510 -16.441  43.819  1.00  0.00    -0.362 N 
ATOM     11  H2  UNL     1      40.127 -16.501  44.762  1.00  0.00     0.162 HD
BRANCH  10  12
HETATM   12  C7  UNL     1      40.375 -15.185  43.129  1.00  0.00     0.083 C 
HETATM   13  C8  UNL     1      41.424 -14.175  43.396  1.00  0.00     0.025 C 
HETATM   14  C9  UNL     1      41.189 -13.298  44.583  1.00  0.00     0.002 C 
HETATM   15  C10 UNL     1      39.903 -13.352  45.272  1.00  0.00     0.000 C 
HETATM   16  C11 UNL     1      38.734 -13.912  44.546  1.00  0.00     0.002 C 
HETATM   17  C12 UNL     1      39.032 -14.558  43.245  1.00  0.00     0.025 C 
ENDBRANCH  10  12
ENDBRANCH   8  10
ENDBRANCH   1   8
BRANCH   1  18
HETATM   18  C13 UNL     1      43.018 -18.936  44.169  1.00  0.00     0.087 C 
HETATM   19  C14 UNL     1      43.763 -17.615  44.166  1.00  0.00     0.025 C 
HETATM   20  C15 UNL     1      45.065 -17.992  44.851  1.00  0.00     0.002 C 
HETATM   21  C16 UNL     1      44.550 -18.807  46.022  1.00  0.00     0.002 C 
HETATM   22  C17 UNL     1      43.386 -19.602  45.477  1.00  0.00     0.025 C 
ENDBRANCH   1  18
TORSDOF 7
ENDMDL
MODEL 2
REMARK VINA RESULT: -7.556515282      0.740      1.064
REMARK  7 active torsions:
REMARK  status: ('A' for Active; 'I' for Inactive)
REMARK    1  A    between atoms: C2_2  and  C4_4 
REMARK    2  A    between atoms: C4_4  and  C5_6 
REMARK    3  A    between atoms: C5_6  and  N1_7 
REMARK    4  A    between atoms: N1_7  and  C6_8 
REMARK    5  A    between atoms: N1_7  and  C13_18 
REMARK    6  A    between atoms: C6_8  and  N2_10 
REMARK    7  A    between atoms: N2_10  and  C7_12 
ROOT
HETATM    1  N1  UNL     1      41.599 -18.645  44.206  1.00  0.00    -0.347 N 
ENDROOT
BRANCH   1   2
HETATM    2  C5  UNL     1      41.001 -19.496  45.233  1.00  0.00     0.204 C 
BRANCH   2   3
HETATM    3  C4  UNL     1      40.479 -20.751  44.688  1.00  0.00     0.148 C 
HETATM    4  O1  UNL     1      39.389 -20.789  44.160  1.00  0.00    -0.296 OA
BRANCH   3   5
HETATM    5  C2  UNL     1      41.264 -22.008  44.765  1.00  0.00     0.049 C 
HETATM    6  C1  UNL     1      41.919 -22.278  43.437  1.00  0.00     0.017 C 
HETATM    7  C3  UNL     1      40.423 -23.153  45.267  1.00  0.00     0.017 C 
ENDBRANCH   3   5
ENDBRANCH   2   3
ENDBRANCH   1   2
BRANCH   1   8
HETATM    8  C6  UNL     1      40.820 -17.756  43.432  1.00  0.00     0.170 C 
HETATM    9  S1  UNL     1      40.569 -18.177  41.859  1.00  0.00    -0.041 SA
BRANCH   8  10
HETATM   10  N2  UNL     1      40.243 -16.564  43.881  1.00  0.00    -0.362 N 
ATOM     11  H2  UNL     1      39.806 -16.575  44.802  1.00  0.00     0.162 HD
BRANCH  10  12
HETATM   12  C7  UNL     1      40.215 -15.324  43.151  1.00  0.00     0.083 C 
HETATM   13  C8  UNL     1      41.357 -14.408  43.372  1.00  0.00     0.025 C 
HETATM   14  C9  UNL     1      41.222 -13.475  44.531  1.00  0.00     0.002 C 
HETATM   15  C10 UNL     1      39.947 -13.386  45.236  1.00  0.00     0.000 C 
HETATM   16  C11 UNL     1      38.720 -13.858  44.543  1.00  0.00     0.002 C 
HETATM   17  C12 UNL     1      38.937 -14.571  43.261  1.00  0.00     0.025 C 
ENDBRANCH  10  12
ENDBRANCH   8  10
ENDBRANCH   1   8
BRANCH   1  18
HETATM   18  C13 UNL     1      43.015 -18.753  44.023  1.00  0.00     0.087 C 
HETATM   19  C14 UNL     1      43.584 -17.371  43.767  1.00  0.00     0.025 C 
HETATM   20  C15 UNL     1      45.037 -17.555  44.171  1.00  0.00     0.002 C 
HETATM   21  C16 UNL     1      44.880 -18.307  45.478  1.00  0.00     0.002 C 
HETATM   22  C17 UNL     1      43.727 -19.259  45.259  1.00  0.00     0.025 C 
ENDBRANCH   1  18
TORSDOF 7
ENDMDL
MODEL 3
REMARK VINA RESULT: -7.517854701      1.870      3.400
REMARK  7 active torsions:
REMARK  status: ('A' for Active; 'I' for Inactive)
REMARK    1  A    between atoms: C2_2  and  C4_4 
REMARK    2  A    between atoms: C4_4  and  C5_6 
REMARK    3  A    between atoms: C5_6  and  N1_7 
REMARK    4  A    between atoms: N1_7  and  C6_8 
REMARK    5  A    between atoms: N1_7  and  C13_18 
REMARK    6  A    between atoms: C6_8  and  N2_10 
REMARK    7  A    between atoms: N2_10  and  C7_12 
ROOT
HETATM    1  N1  UNL     1      41.859 -18.435  43.308  1.00  0.00    -0.347 N 
ENDROOT
BRANCH   1   2
HETATM    2  C5  UNL     1      43.121 -18.192  42.611  1.00  0.00     0.204 C 
BRANCH   2   3
HETATM    3  C4  UNL     1      44.075 -17.437  43.425  1.00  0.00     0.148 C 
HETATM    4  O1  UNL     1      43.898 -16.260  43.653  1.00  0.00    -0.296 OA
BRANCH   3   5
HETATM    5  C2  UNL     1      45.283 -18.086  43.994  1.00  0.00     0.049 C 
HETATM    6  C1  UNL     1      45.473 -17.642  45.419  1.00  0.00     0.017 C 
HETATM    7  C3  UNL     1      46.492 -17.857  43.124  1.00  0.00     0.017 C 
ENDBRANCH   3   5
ENDBRANCH   2   3
ENDBRANCH   1   2
BRANCH   1   8
HETATM    8  C6  UNL     1      40.786 -17.517  43.243  1.00  0.00     0.170 C 
HETATM    9  S1  UNL     1      39.454 -18.000  42.402  1.00  0.00    -0.041 SA
BRANCH   8  10
HETATM   10  N2  UNL     1      40.753 -16.249  43.832  1.00  0.00    -0.362 N 
ATOM     11  H2  UNL     1      40.938 -16.194  44.833  1.00  0.00     0.162 HD
BRANCH  10  12
HETATM   12  C7  UNL     1      40.480 -15.017  43.141  1.00  0.00     0.083 C 
HETATM   13  C8  UNL     1      41.423 -13.903  43.391  1.00  0.00     0.025 C 
HETATM   14  C9  UNL     1      41.117 -13.050  44.579  1.00  0.00     0.002 C 
HETATM   15  C10 UNL     1      39.853 -13.233  45.286  1.00  0.00     0.000 C 
HETATM   16  C11 UNL     1      38.737 -13.913  44.578  1.00  0.00     0.002 C 
HETATM   17  C12 UNL     1      39.081 -14.530  43.275  1.00  0.00     0.025 C 
ENDBRANCH  10  12
ENDBRANCH   8  10
ENDBRANCH   1   8
BRANCH   1  18
HETATM   18  C13 UNL     1      41.760 -19.649  44.060  1.00  0.00     0.087 C 
HETATM   19  C14 UNL     1      42.746 -20.655  43.498  1.00  0.00     0.025 C 
HETATM   20  C15 UNL     1      42.943 -21.589  44.680  1.00  0.00     0.002 C 
HETATM   21  C16 UNL     1      43.119 -20.592  45.809  1.00  0.00     0.002 C 
HETATM   22  C17 UNL     1      42.149 -19.471  45.511  1.00  0.00     0.025 C 
ENDBRANCH   1  18
TORSDOF 7
ENDMDL
MODEL 4
REMARK VINA RESULT: -7.401726057      1.523      5.031
REMARK  7 active torsions:
REMARK  status: ('A' for Active; 'I' for Inactive)
REMARK    1  A    between atoms: C2_2  and  C4_4 
REMARK    2  A    between atoms: C4_4  and  C5_6 
REMARK    3  A    between atoms: C5_6  and  N1_7 
REMARK    4  A    between atoms: N1_7  and  C6_8 
REMARK    5  A    between atoms: N1_7  and  C13_18 
REMARK    6  A    between atoms: C6_8  and  N2_10 
REMARK    7  A    between atoms: N2_10  and  C7_12 
ROOT
HETATM    1  N1  UNL     1      41.184 -16.211  43.220  1.00  0.00    -0.347 N 
ENDROOT
BRANCH   1   2
HETATM    2  C5  UNL     1      40.518 -17.413  43.719  1.00  0.00     0.204 C 
BRANCH   2   3
HETATM    3  C4  UNL     1      40.027 -18.272  42.640  1.00  0.00     0.148 C 
HETATM    4  O1  UNL     1      38.974 -18.032  42.089  1.00  0.00    -0.296 OA
BRANCH   3   5
HETATM    5  C2  UNL     1      40.798 -19.458  42.190  1.00  0.00     0.049 C 
HETATM    6  C1  UNL     1      40.661 -19.616  40.700  1.00  0.00     0.017 C 
HETATM    7  C3  UNL     1      40.414 -20.692  42.965  1.00  0.00     0.017 C 
ENDBRANCH   3   5
ENDBRANCH   2   3
ENDBRANCH   1   2
BRANCH   1   8
HETATM    8  C6  UNL     1      42.496 -16.251  42.697  1.00  0.00     0.170 C 
HETATM    9  S1  UNL     1      42.643 -16.113  41.062  1.00  0.00    -0.041 SA
BRANCH   8  10
HETATM   10  N2  UNL     1      43.672 -16.390  43.441  1.00  0.00    -0.362 N 
ATOM     11  H2  UNL     1      43.871 -15.673  44.139  1.00  0.00     0.162 HD
BRANCH  10  12
HETATM   12  C7  UNL     1      44.625 -17.459  43.303  1.00  0.00     0.083 C 
HETATM   13  C8  UNL     1      44.066 -18.823  43.174  1.00  0.00     0.025 C 
HETATM   14  C9  UNL     1      43.787 -19.532  44.459  1.00  0.00     0.002 C 
HETATM   15  C10 UNL     1      44.242 -18.944  45.716  1.00  0.00     0.000 C 
HETATM   16  C11 UNL     1      45.326 -17.929  45.671  1.00  0.00     0.002 C 
HETATM   17  C12 UNL     1      45.711 -17.455  44.320  1.00  0.00     0.025 C 
ENDBRANCH  10  12
ENDBRANCH   8  10
ENDBRANCH   1   8
BRANCH   1  18
HETATM   18  C13 UNL     1      40.441 -14.989  43.284  1.00  0.00     0.087 C 
HETATM   19  C14 UNL     1      39.337 -15.139  44.313  1.00  0.00     0.025 C 
HETATM   20  C15 UNL     1      39.054 -13.692  44.676  1.00  0.00     0.002 C 
HETATM   21  C16 UNL     1      40.462 -13.156  44.844  1.00  0.00     0.002 C 
HETATM   22  C17 UNL     1      41.278 -13.821  43.759  1.00  0.00     0.025 C 
ENDBRANCH   1  18
TORSDOF 7
ENDMDL
MODEL 5
REMARK VINA RESULT: -7.381346593      1.408      1.938
REMARK  7 active torsions:
REMARK  status: ('A' for Active; 'I' for Inactive)
REMARK    1  A    between atoms: C2_2  and  C4_4 
REMARK    2  A    between atoms: C4_4  and  C5_6 
REMARK    3  A    between atoms: C5_6  and  N1_7 
REMARK    4  A    between atoms: N1_7  and  C6_8 
REMARK    5  A    between atoms: N1_7  and  C13_18 
REMARK    6  A    between atoms: C6_8  and  N2_10 
REMARK    7  A    between atoms: N2_10  and  C7_12 
ROOT
HETATM    1  N1  UNL     1      41.863 -18.155  43.788  1.00  0.00    -0.347 N 
ENDROOT
BRANCH   1   2
HETATM    2  C5  UNL     1      40.547 -18.782  43.666  1.00  0.00     0.204 C 
BRANCH   2   3
HETATM    3  C4  UNL     1      40.314 -19.344  42.335  1.00  0.00     0.148 C 
HETATM    4  O1  UNL     1      39.740 -18.699  41.484  1.00  0.00    -0.296 OA
BRANCH   3   5
HETATM    5  C2  UNL     1      40.772 -20.712  41.987  1.00  0.00     0.049 C 
HETATM    6  C1  UNL     1      40.556 -20.961  40.519  1.00  0.00     0.017 C 
HETATM    7  C3  UNL     1      40.133 -21.749  42.875  1.00  0.00     0.017 C 
ENDBRANCH   3   5
ENDBRANCH   2   3
ENDBRANCH   1   2
BRANCH   1   8
HETATM    8  C6  UNL     1      42.144 -16.898  43.207  1.00  0.00     0.170 C 
HETATM    9  S1  UNL     1      42.940 -16.916  41.765  1.00  0.00    -0.041 SA
BRANCH   8  10
HETATM   10  N2  UNL     1      41.801 -15.652  43.740  1.00  0.00    -0.362 N 
ATOM     11  H2  UNL     1      42.168 -15.421  44.663  1.00  0.00     0.162 HD
BRANCH  10  12
HETATM   12  C7  UNL     1      40.974 -14.667  43.094  1.00  0.00     0.083 C 
HETATM   13  C8  UNL     1      41.338 -13.251  43.325  1.00  0.00     0.025 C 
HETATM   14  C9  UNL     1      40.750 -12.624  44.547  1.00  0.00     0.002 C 
HETATM   15  C10 UNL     1      39.737 -13.349  45.309  1.00  0.00     0.000 C 
HETATM   16  C11 UNL     1      39.002 -14.453  44.638  1.00  0.00     0.002 C 
HETATM   17  C12 UNL     1      39.513 -14.852  43.305  1.00  0.00     0.025 C 
ENDBRANCH  10  12
ENDBRANCH   8  10
ENDBRANCH   1   8
BRANCH   1  18
HETATM   18  C13 UNL     1      42.854 -18.876  44.527  1.00  0.00     0.087 C 
HETATM   19  C14 UNL     1      42.166 -19.695  45.602  1.00  0.00     0.025 C 
HETATM   20  C15 UNL     1      43.196 -20.778  45.873  1.00  0.00     0.002 C 
HETATM   21  C16 UNL     1      43.581 -21.170  44.459  1.00  0.00     0.002 C 
HETATM   22  C17 UNL     1      43.603 -19.878  43.676  1.00  0.00     0.025 C 
ENDBRANCH   1  18
TORSDOF 7
ENDMDL
