MODEL 1
REMARK VINA RESULT: -7.682015785      0.000      0.000
REMARK  8 active torsions:
REMARK  status: ('A' for Active; 'I' for Inactive)
REMARK    1  A    between atoms: O1_2  and  C2_3 
REMARK    2  A    between atoms: C2_3  and  C3_5 
REMARK    3  A    between atoms: C8_10  and  C9_11 
REMARK    4  A    between atoms: C9_11  and  C10_13 
REMARK    5  A    between atoms: C10_13  and  C12_15 
REMARK    6  A    between atoms: N1_26  and  C23_27 
REMARK    7  A    between atoms: C23_27  and  C24_28 
REMARK    8  A    between atoms: C24_28  and  C25_29 
ROOT
HETATM    1  C3  UNL     1      -1.301   5.070  11.057  1.00  0.00     0.056 C 
HETATM    2  C4  UNL     1      -0.760   3.926  11.870  1.00  0.00     0.027 C 
HETATM    3  C5  UNL     1      -0.357   6.221  11.415  1.00  0.00     0.021 C 
HETATM    4  C6  UNL     1      -0.750   7.552  10.923  1.00  0.00     0.006 C 
HETATM    5  C7  UNL     1      -2.198   7.881  10.991  1.00  0.00     0.039 C 
HETATM    6  C8  UNL     1      -2.954   6.639  10.524  1.00  0.00    -0.024 C 
HETATM    7  C20 UNL     1      -2.752   5.459  11.382  1.00  0.00     0.007 C 
HETATM    8  C21 UNL     1      -3.622   4.310  11.098  1.00  0.00     0.043 C 
HETATM    9  C22 UNL     1      -4.615   3.809  12.045  1.00  0.00     0.239 C 
HETATM   10  N1  UNL     1      -4.476   4.035  13.431  1.00  0.00    -0.062 N 
HETATM   11  C26 UNL     1      -5.791   4.327  14.071  1.00  0.00     0.238 C 
HETATM   12  C27 UNL     1      -5.310   4.927  15.388  1.00  0.00     0.030 C 
HETATM   13  C28 UNL     1      -4.019   5.662  15.037  1.00  0.00     0.035 C 
HETATM   14  C29 UNL     1      -3.977   5.384  13.572  1.00  0.00     0.191 C 
HETATM   15  C30 UNL     1      -2.735   5.716  12.863  1.00  0.00     0.049 C 
ENDROOT
BRANCH   1  16
HETATM   16  C2  UNL     1      -1.098   4.664   9.649  1.00  0.00     0.268 C 
HETATM   17  O2  UNL     1      -1.835   3.959   8.935  1.00  0.00    -0.264 OA
BRANCH  16  18
HETATM   18  O1  UNL     1       0.074   5.113   9.001  1.00  0.00    -0.326 OA
HETATM   19  C1  UNL     1       0.837   4.306   8.164  1.00  0.00     0.213 C 
ENDBRANCH  16  18
ENDBRANCH   1  16
BRANCH   6  20
HETATM   20  C9  UNL     1      -4.255   7.053  10.029  1.00  0.00     0.157 C 
HETATM   21  O3  UNL     1      -4.855   7.925  10.565  1.00  0.00    -0.293 OA
BRANCH  20  22
HETATM   22  C10 UNL     1      -4.935   6.449   8.849  1.00  0.00     0.068 C 
HETATM   23  C11 UNL     1      -6.422   6.286   9.096  1.00  0.00     0.019 C 
BRANCH  22  24
HETATM   24  C12 UNL     1      -4.675   7.235   7.581  1.00  0.00    -0.016 C 
HETATM   25  C13 UNL     1      -5.971   7.418   6.774  1.00  0.00     0.020 C 
HETATM   26  C14 UNL     1      -3.807   6.385   6.731  1.00  0.00    -0.014 C 
HETATM   27  C15 UNL     1      -2.505   6.491   6.587  1.00  0.00    -0.087 C 
HETATM   28  C16 UNL     1      -1.747   5.554   5.685  1.00  0.00     0.043 C 
HETATM   29  C17 UNL     1      -1.794   7.553   7.325  1.00  0.00     0.033 C 
HETATM   30  C18 UNL     1      -2.675   8.773   7.287  1.00  0.00     0.005 C 
HETATM   31  C19 UNL     1      -4.051   8.549   7.807  1.00  0.00     0.014 C 
ENDBRANCH  22  24
ENDBRANCH  20  22
ENDBRANCH   6  20
BRANCH  10  32
HETATM   32  C23 UNL     1      -3.887   3.047  14.242  1.00  0.00     0.248 C 
BRANCH  32  33
HETATM   33  C24 UNL     1      -4.299   1.646  14.167  1.00  0.00     0.141 C 
BRANCH  33  34
HETATM   34  C25 UNL     1      -4.098   0.781  15.328  1.00  0.00     0.174 C 
HETATM   35  O4  UNL     1      -4.741  -0.325  15.397  1.00  0.00    -0.648 OA
HETATM   36  O5  UNL     1      -3.263   1.038  16.386  1.00  0.00    -0.648 OA
ENDBRANCH  33  34
ENDBRANCH  32  33
ENDBRANCH  10  32
TORSDOF 8
ENDMDL
MODEL 2
REMARK VINA RESULT: -7.608125242      1.573      2.606
REMARK  8 active torsions:
REMARK  status: ('A' for Active; 'I' for Inactive)
REMARK    1  A    between atoms: O1_2  and  C2_3 
REMARK    2  A    between atoms: C2_3  and  C3_5 
REMARK    3  A    between atoms: C8_10  and  C9_11 
REMARK    4  A    between atoms: C9_11  and  C10_13 
REMARK    5  A    between atoms: C10_13  and  C12_15 
REMARK    6  A    between atoms: N1_26  and  C23_27 
REMARK    7  A    between atoms: C23_27  and  C24_28 
REMARK    8  A    between atoms: C24_28  and  C25_29 
ROOT
HETATM    1  C3  UNL     1      -1.501   4.890  11.518  1.00  0.00     0.056 C 
HETATM    2  C4  UNL     1      -0.854   4.173  12.671  1.00  0.00     0.027 C 
HETATM    3  C5  UNL     1      -0.915   6.302  11.620  1.00  0.00     0.021 C 
HETATM    4  C6  UNL     1      -1.516   7.312  10.734  1.00  0.00     0.006 C 
HETATM    5  C7  UNL     1      -2.992   7.253  10.568  1.00  0.00     0.039 C 
HETATM    6  C8  UNL     1      -3.359   5.780  10.406  1.00  0.00    -0.024 C 
HETATM    7  C20 UNL     1      -3.035   4.952  11.581  1.00  0.00     0.007 C 
HETATM    8  C21 UNL     1      -3.563   3.581  11.556  1.00  0.00     0.043 C 
HETATM    9  C22 UNL     1      -4.556   3.092  12.509  1.00  0.00     0.239 C 
HETATM   10  N1  UNL     1      -4.700   3.689  13.780  1.00  0.00    -0.062 N 
HETATM   11  C26 UNL     1      -6.133   3.776  14.183  1.00  0.00     0.238 C 
HETATM   12  C27 UNL     1      -6.022   4.794  15.313  1.00  0.00     0.030 C 
HETATM   13  C28 UNL     1      -4.893   5.730  14.889  1.00  0.00     0.035 C 
HETATM   14  C29 UNL     1      -4.551   5.112  13.576  1.00  0.00     0.191 C 
HETATM   15  C30 UNL     1      -3.319   5.570  12.922  1.00  0.00     0.049 C 
ENDROOT
BRANCH   1  16
HETATM   16  C2  UNL     1      -0.984   4.211  10.310  1.00  0.00     0.268 C 
HETATM   17  O2  UNL     1      -1.552   4.048   9.214  1.00  0.00    -0.264 OA
BRANCH  16  18
HETATM   18  O1  UNL     1       0.315   3.661  10.373  1.00  0.00    -0.326 OA
HETATM   19  C1  UNL     1       1.369   4.105   9.582  1.00  0.00     0.213 C 
ENDBRANCH  16  18
ENDBRANCH   1  16
BRANCH   6  20
HETATM   20  C9  UNL     1      -4.621   5.697   9.694  1.00  0.00     0.157 C 
HETATM   21  O3  UNL     1      -5.345   4.770   9.853  1.00  0.00    -0.293 OA
BRANCH  20  22
HETATM   22  C10 UNL     1      -5.113   6.726   8.735  1.00  0.00     0.068 C 
HETATM   23  C11 UNL     1      -5.071   6.212   7.310  1.00  0.00     0.019 C 
BRANCH  22  24
HETATM   24  C12 UNL     1      -6.497   7.223   9.097  1.00  0.00    -0.016 C 
HETATM   25  C13 UNL     1      -7.580   6.374   8.412  1.00  0.00     0.020 C 
HETATM   26  C14 UNL     1      -6.628   8.573   8.498  1.00  0.00    -0.014 C 
HETATM   27  C15 UNL     1      -6.491   9.723   9.118  1.00  0.00    -0.087 C 
HETATM   28  C16 UNL     1      -6.653  11.025   8.380  1.00  0.00     0.043 C 
HETATM   29  C17 UNL     1      -6.177   9.718  10.560  1.00  0.00     0.033 C 
HETATM   30  C18 UNL     1      -6.979   8.602  11.174  1.00  0.00     0.005 C 
HETATM   31  C19 UNL     1      -6.757   7.272  10.545  1.00  0.00     0.014 C 
ENDBRANCH  22  24
ENDBRANCH  20  22
ENDBRANCH   6  20
BRANCH  10  32
HETATM   32  C23 UNL     1      -4.041   3.130  14.891  1.00  0.00     0.248 C 
BRANCH  32  33
HETATM   33  C24 UNL     1      -3.625   1.727  14.911  1.00  0.00     0.141 C 
BRANCH  33  34
HETATM   34  C25 UNL     1      -4.341   0.785  15.770  1.00  0.00     0.174 C 
HETATM   35  O4  UNL     1      -4.719  -0.337  15.280  1.00  0.00    -0.648 OA
HETATM   36  O5  UNL     1      -4.659   0.983  17.089  1.00  0.00    -0.648 OA
ENDBRANCH  33  34
ENDBRANCH  32  33
ENDBRANCH  10  32
TORSDOF 8
ENDMDL
MODEL 3
REMARK VINA RESULT: -7.555221011      1.879      2.871
REMARK  8 active torsions:
REMARK  status: ('A' for Active; 'I' for Inactive)
REMARK    1  A    between atoms: O1_2  and  C2_3 
REMARK    2  A    between atoms: C2_3  and  C3_5 
REMARK    3  A    between atoms: C8_10  and  C9_11 
REMARK    4  A    between atoms: C9_11  and  C10_13 
REMARK    5  A    between atoms: C10_13  and  C12_15 
REMARK    6  A    between atoms: N1_26  and  C23_27 
REMARK    7  A    between atoms: C23_27  and  C24_28 
REMARK    8  A    between atoms: C24_28  and  C25_29 
ROOT
HETATM    1  C3  UNL     1      -1.585   5.758  12.932  1.00  0.00     0.056 C 
HETATM    2  C4  UNL     1      -1.006   5.133  14.171  1.00  0.00     0.027 C 
HETATM    3  C5  UNL     1      -1.403   7.257  13.187  1.00  0.00     0.021 C 
HETATM    4  C6  UNL     1      -2.061   8.157  12.226  1.00  0.00     0.006 C 
HETATM    5  C7  UNL     1      -3.417   7.757  11.766  1.00  0.00     0.039 C 
HETATM    6  C8  UNL     1      -3.364   6.255  11.493  1.00  0.00    -0.024 C 
HETATM    7  C20 UNL     1      -3.069   5.442  12.687  1.00  0.00     0.007 C 
HETATM    8  C21 UNL     1      -3.220   3.991  12.520  1.00  0.00     0.043 C 
HETATM    9  C22 UNL     1      -4.219   3.205  13.240  1.00  0.00     0.239 C 
HETATM   10  N1  UNL     1      -4.744   3.652  14.471  1.00  0.00    -0.062 N 
HETATM   11  C26 UNL     1      -6.203   3.360  14.581  1.00  0.00     0.238 C 
HETATM   12  C27 UNL     1      -6.566   4.285  15.737  1.00  0.00     0.030 C 
HETATM   13  C28 UNL     1      -5.650   5.495  15.574  1.00  0.00     0.035 C 
HETATM   14  C29 UNL     1      -4.923   5.080  14.340  1.00  0.00     0.191 C 
HETATM   15  C30 UNL     1      -3.746   5.870  13.959  1.00  0.00     0.049 C 
ENDROOT
BRANCH   1  16
HETATM   16  C2  UNL     1      -0.696   5.317  11.834  1.00  0.00     0.268 C 
HETATM   17  O2  UNL     1      -0.780   4.286  11.141  1.00  0.00    -0.264 OA
BRANCH  16  18
HETATM   18  O1  UNL     1       0.400   6.145  11.506  1.00  0.00    -0.326 OA
HETATM   19  C1  UNL     1       1.724   5.757  11.677  1.00  0.00     0.213 C 
ENDBRANCH  16  18
ENDBRANCH   1  16
BRANCH   6  20
HETATM   20  C9  UNL     1      -4.408   5.924  10.541  1.00  0.00     0.157 C 
HETATM   21  O3  UNL     1      -5.086   4.963  10.697  1.00  0.00    -0.293 OA
BRANCH  20  22
HETATM   22  C10 UNL     1      -4.718   6.727   9.323  1.00  0.00     0.068 C 
HETATM   23  C11 UNL     1      -4.412   5.948   8.060  1.00  0.00     0.019 C 
BRANCH  22  24
HETATM   24  C12 UNL     1      -6.148   7.227   9.324  1.00  0.00    -0.016 C 
HETATM   25  C13 UNL     1      -7.069   6.254   8.570  1.00  0.00     0.020 C 
HETATM   26  C14 UNL     1      -6.157   8.471   8.518  1.00  0.00    -0.014 C 
HETATM   27  C15 UNL     1      -6.149   9.703   8.977  1.00  0.00    -0.087 C 
HETATM   28  C16 UNL     1      -6.160  10.879   8.038  1.00  0.00     0.043 C 
HETATM   29  C17 UNL     1      -6.133   9.915  10.437  1.00  0.00     0.033 C 
HETATM   30  C18 UNL     1      -7.041   8.875  11.037  1.00  0.00     0.005 C 
HETATM   31  C19 UNL     1      -6.696   7.476  10.667  1.00  0.00     0.014 C 
ENDBRANCH  22  24
ENDBRANCH  20  22
ENDBRANCH   6  20
BRANCH  10  32
HETATM   32  C23 UNL     1      -4.187   3.185  15.677  1.00  0.00     0.248 C 
BRANCH  32  33
HETATM   33  C24 UNL     1      -3.561   1.867  15.773  1.00  0.00     0.141 C 
BRANCH  33  34
HETATM   34  C25 UNL     1      -4.398   0.700  16.046  1.00  0.00     0.174 C 
HETATM   35  O4  UNL     1      -4.959   0.594  17.193  1.00  0.00    -0.648 OA
HETATM   36  O5  UNL     1      -4.655  -0.327  15.173  1.00  0.00    -0.648 OA
ENDBRANCH  33  34
ENDBRANCH  32  33
ENDBRANCH  10  32
TORSDOF 8
ENDMDL
MODEL 4
REMARK VINA RESULT: -7.519251037      1.517      2.242
REMARK  8 active torsions:
REMARK  status: ('A' for Active; 'I' for Inactive)
REMARK    1  A    between atoms: O1_2  and  C2_3 
REMARK    2  A    between atoms: C2_3  and  C3_5 
REMARK    3  A    between atoms: C8_10  and  C9_11 
REMARK    4  A    between atoms: C9_11  and  C10_13 
REMARK    5  A    between atoms: C10_13  and  C12_15 
REMARK    6  A    between atoms: N1_26  and  C23_27 
REMARK    7  A    between atoms: C23_27  and  C24_28 
REMARK    8  A    between atoms: C24_28  and  C25_29 
ROOT
HETATM    1  C3  UNL     1      -2.202   5.207  10.469  1.00  0.00     0.056 C 
HETATM    2  C4  UNL     1      -1.371   4.133  11.116  1.00  0.00     0.027 C 
HETATM    3  C5  UNL     1      -1.344   6.462  10.655  1.00  0.00     0.021 C 
HETATM    4  C6  UNL     1      -1.985   7.738  10.296  1.00  0.00     0.006 C 
HETATM    5  C7  UNL     1      -3.414   7.890  10.676  1.00  0.00     0.039 C 
HETATM    6  C8  UNL     1      -4.102   6.568  10.342  1.00  0.00    -0.024 C 
HETATM    7  C20 UNL     1      -3.586   5.417  11.103  1.00  0.00     0.007 C 
HETATM    8  C21 UNL     1      -4.357   4.173  10.975  1.00  0.00     0.043 C 
HETATM    9  C22 UNL     1      -5.061   3.553  12.095  1.00  0.00     0.239 C 
HETATM   10  N1  UNL     1      -4.658   3.788  13.426  1.00  0.00    -0.062 N 
HETATM   11  C26 UNL     1      -5.832   3.918  14.337  1.00  0.00     0.238 C 
HETATM   12  C27 UNL     1      -5.156   4.566  15.540  1.00  0.00     0.030 C 
HETATM   13  C28 UNL     1      -4.063   5.452  14.947  1.00  0.00     0.035 C 
HETATM   14  C29 UNL     1      -4.301   5.187  13.499  1.00  0.00     0.191 C 
HETATM   15  C30 UNL     1      -3.285   5.669  12.555  1.00  0.00     0.049 C 
ENDROOT
BRANCH   1  16
HETATM   16  C2  UNL     1      -2.256   4.835   9.038  1.00  0.00     0.268 C 
HETATM   17  O2  UNL     1      -3.093   5.179   8.183  1.00  0.00    -0.264 OA
BRANCH  16  18
HETATM   18  O1  UNL     1      -1.248   3.977   8.546  1.00  0.00    -0.326 OA
HETATM   19  C1  UNL     1      -0.406   4.318   7.494  1.00  0.00     0.213 C 
ENDBRANCH  16  18
ENDBRANCH   1  16
BRANCH   6  20
HETATM   20  C9  UNL     1      -5.517   6.825  10.145  1.00  0.00     0.157 C 
HETATM   21  O3  UNL     1      -6.273   6.775  11.058  1.00  0.00    -0.293 OA
BRANCH  20  22
HETATM   22  C10 UNL     1      -6.134   7.163   8.830  1.00  0.00     0.068 C 
HETATM   23  C11 UNL     1      -7.072   6.066   8.366  1.00  0.00     0.019 C 
BRANCH  22  24
HETATM   24  C12 UNL     1      -6.836   8.505   8.862  1.00  0.00    -0.016 C 
HETATM   25  C13 UNL     1      -8.345   8.339   8.623  1.00  0.00     0.020 C 
HETATM   26  C14 UNL     1      -6.339   9.265   7.691  1.00  0.00    -0.014 C 
HETATM   27  C15 UNL     1      -5.415  10.200   7.696  1.00  0.00    -0.087 C 
HETATM   28  C16 UNL     1      -5.007  10.893   6.424  1.00  0.00     0.043 C 
HETATM   29  C17 UNL     1      -4.782  10.563   8.979  1.00  0.00     0.033 C 
HETATM   30  C18 UNL     1      -5.870  10.549  10.019  1.00  0.00     0.005 C 
HETATM   31  C19 UNL     1      -6.618   9.266  10.103  1.00  0.00     0.014 C 
ENDBRANCH  22  24
ENDBRANCH  20  22
ENDBRANCH   6  20
BRANCH  10  32
HETATM   32  C23 UNL     1      -3.799   2.875  14.066  1.00  0.00     0.248 C 
BRANCH  32  33
HETATM   33  C24 UNL     1      -4.062   1.436  14.054  1.00  0.00     0.141 C 
BRANCH  33  34
HETATM   34  C25 UNL     1      -4.018   0.694  15.313  1.00  0.00     0.174 C 
HETATM   35  O4  UNL     1      -4.722  -0.369  15.431  1.00  0.00    -0.648 OA
HETATM   36  O5  UNL     1      -3.275   1.028  16.417  1.00  0.00    -0.648 OA
ENDBRANCH  33  34
ENDBRANCH  32  33
ENDBRANCH  10  32
TORSDOF 8
ENDMDL
MODEL 5
REMARK VINA RESULT: -7.402657088      2.582      7.190
REMARK  8 active torsions:
REMARK  status: ('A' for Active; 'I' for Inactive)
REMARK    1  A    between atoms: O1_2  and  C2_3 
REMARK    2  A    between atoms: C2_3  and  C3_5 
REMARK    3  A    between atoms: C8_10  and  C9_11 
REMARK    4  A    between atoms: C9_11  and  C10_13 
REMARK    5  A    between atoms: C10_13  and  C12_15 
REMARK    6  A    between atoms: N1_26  and  C23_27 
REMARK    7  A    between atoms: C23_27  and  C24_28 
REMARK    8  A    between atoms: C24_28  and  C25_29 
ROOT
HETATM    1  C3  UNL     1      -3.302   5.349  10.242  1.00  0.00     0.056 C 
HETATM    2  C4  UNL     1      -2.708   5.351   8.860  1.00  0.00     0.027 C 
HETATM    3  C5  UNL     1      -4.040   6.690  10.300  1.00  0.00     0.021 C 
HETATM    4  C6  UNL     1      -4.568   7.077  11.619  1.00  0.00     0.006 C 
HETATM    5  C7  UNL     1      -3.701   6.784  12.790  1.00  0.00     0.039 C 
HETATM    6  C8  UNL     1      -3.129   5.384  12.576  1.00  0.00    -0.024 C 
HETATM    7  C20 UNL     1      -2.274   5.265  11.382  1.00  0.00     0.007 C 
HETATM    8  C21 UNL     1      -1.533   4.003  11.255  1.00  0.00     0.043 C 
HETATM    9  C22 UNL     1      -0.075   3.927  11.298  1.00  0.00     0.239 C 
HETATM   10  N1  UNL     1       0.720   5.042  10.959  1.00  0.00    -0.062 N 
HETATM   11  C26 UNL     1       1.910   5.155  11.851  1.00  0.00     0.238 C 
HETATM   12  C27 UNL     1       2.316   6.596  11.561  1.00  0.00     0.030 C 
HETATM   13  C28 UNL     1       1.002   7.330  11.307  1.00  0.00     0.035 C 
HETATM   14  C29 UNL     1       0.053   6.198  11.512  1.00  0.00     0.191 C 
HETATM   15  C30 UNL     1      -1.345   6.416  11.118  1.00  0.00     0.049 C 
ENDROOT
BRANCH   1  16
HETATM   16  C2  UNL     1      -4.274   4.233  10.236  1.00  0.00     0.268 C 
HETATM   17  O2  UNL     1      -5.509   4.287  10.090  1.00  0.00    -0.264 OA
BRANCH  16  18
HETATM   18  O1  UNL     1      -3.771   2.927  10.421  1.00  0.00    -0.326 OA
HETATM   19  C1  UNL     1      -4.576   1.841  10.749  1.00  0.00     0.213 C 
ENDBRANCH  16  18
ENDBRANCH   1  16
BRANCH   6  20
HETATM   20  C9  UNL     1      -2.773   4.832  13.871  1.00  0.00     0.157 C 
HETATM   21  O3  UNL     1      -1.651   4.531  14.112  1.00  0.00    -0.293 OA
BRANCH  20  22
HETATM   22  C10 UNL     1      -3.743   4.597  14.978  1.00  0.00     0.068 C 
HETATM   23  C11 UNL     1      -4.460   5.877  15.360  1.00  0.00     0.019 C 
BRANCH  22  24
HETATM   24  C12 UNL     1      -4.728   3.497  14.645  1.00  0.00    -0.016 C 
HETATM   25  C13 UNL     1      -5.799   3.999  13.662  1.00  0.00     0.020 C 
HETATM   26  C14 UNL     1      -5.463   3.197  15.897  1.00  0.00    -0.014 C 
HETATM   27  C15 UNL     1      -5.238   2.197  16.719  1.00  0.00    -0.087 C 
HETATM   28  C16 UNL     1      -6.067   2.014  17.962  1.00  0.00     0.043 C 
HETATM   29  C17 UNL     1      -4.155   1.247  16.399  1.00  0.00     0.033 C 
HETATM   30  C18 UNL     1      -4.196   1.028  14.910  1.00  0.00     0.005 C 
HETATM   31  C19 UNL     1      -4.106   2.276  14.106  1.00  0.00     0.014 C 
ENDBRANCH  22  24
ENDBRANCH  20  22
ENDBRANCH   6  20
BRANCH  10  32
HETATM   32  C23 UNL     1       1.231   5.162   9.653  1.00  0.00     0.248 C 
BRANCH  32  33
HETATM   33  C24 UNL     1       1.373   4.002   8.774  1.00  0.00     0.141 C 
BRANCH  33  34
HETATM   34  C25 UNL     1       2.668   3.329   8.688  1.00  0.00     0.174 C 
HETATM   35  O4  UNL     1       2.829   2.403   7.817  1.00  0.00    -0.648 OA
HETATM   36  O5  UNL     1       3.765   3.596   9.467  1.00  0.00    -0.648 OA
ENDBRANCH  33  34
ENDBRANCH  32  33
ENDBRANCH  10  32
TORSDOF 8
ENDMDL
