MODEL 1
REMARK VINA RESULT: -6.412743849      0.000      0.000
REMARK  12 active torsions:
REMARK  status: ('A' for Active; 'I' for Inactive)
REMARK    1  A    between atoms: O1_1  and  C1_3 
REMARK    2  A    between atoms: C1_3  and  C2_4 
REMARK    3  A    between atoms: C2_4  and  C3_5 
REMARK    4  A    between atoms: C3_5  and  C4_6 
REMARK    5  A    between atoms: C7_13  and  N3_14 
REMARK    6  A    between atoms: N3_14  and  C8_16 
REMARK    7  A    between atoms: N4_26  and  C16_27 
REMARK    8  A    between atoms: C16_27  and  C17_28 
REMARK    9  A    between atoms: C16_27  and  C19_34 
REMARK   10  A    between atoms: C17_28  and  O2_29 
REMARK   11  A    between atoms: C17_28  and  C18_31 
REMARK   12  A    between atoms: C18_31  and  O3_32 
ROOT
HETATM    1  C4  UNL     1       4.257 -12.377   0.201  1.00  0.00     0.274 C 
HETATM    2  C5  UNL     1       5.478 -11.600  -0.030  1.00  0.00     0.055 A 
HETATM    3  N1  UNL     1       6.313 -11.365  -1.055  1.00  0.00    -0.353 N 
ATOM      4  H1  UNL     1       6.149 -11.798  -1.964  1.00  0.00     0.166 HD
HETATM    5  C6  UNL     1       7.382 -10.541  -0.867  1.00  0.00     0.182 A 
HETATM    6  N2  UNL     1       7.620  -9.963   0.316  1.00  0.00    -0.338 N 
ATOM      7  H2  UNL     1       8.430  -9.353   0.419  1.00  0.00     0.168 HD
HETATM    8  C7  UNL     1       6.823 -10.166   1.359  1.00  0.00     0.116 A 
HETATM    9  C14 UNL     1       5.725 -11.008   1.173  1.00  0.00     0.039 A 
HETATM   10  C15 UNL     1       4.663 -11.404   2.134  1.00  0.00     0.318 C 
HETATM   11  N4  UNL     1       4.185 -12.715   1.533  1.00  0.00     0.111 N 
ENDROOT
BRANCH  11  12
HETATM   12  C16 UNL     1       5.055 -13.649   2.192  1.00  0.00     0.259 C 
BRANCH  12  13
HETATM   13  C17 UNL     1       5.156 -14.967   1.474  1.00  0.00     0.175 C 
BRANCH  13  14
HETATM   14  O2  UNL     1       4.294 -14.990   0.349  1.00  0.00    -0.391 OA
ATOM     15  H2  UNL     1       3.530 -15.526   0.524  1.00  0.00     0.210 HD
ENDBRANCH  13  14
BRANCH  13  16
HETATM   16  C18 UNL     1       6.482 -15.203   0.821  1.00  0.00     0.198 C 
BRANCH  16  17
HETATM   17  O3  UNL     1       6.533 -14.722  -0.498  1.00  0.00    -0.398 OA
ATOM     18  H3  UNL     1       7.358 -14.915  -0.929  1.00  0.00     0.209 HD
ENDBRANCH  16  17
ENDBRANCH  13  16
ENDBRANCH  12  13
BRANCH  12  19
HETATM   19  C19 UNL     1       4.226 -13.999   3.440  1.00  0.00     0.022 C 
HETATM   20  C20 UNL     1       2.765 -13.946   3.341  1.00  0.00     0.007 C 
HETATM   21  C21 UNL     1       2.128 -15.199   4.014  1.00  0.00     0.000 C 
HETATM   22  C22 UNL     1       2.526 -15.203   5.453  1.00  0.00     0.000 C 
HETATM   23  C23 UNL     1       3.990 -14.936   5.681  1.00  0.00     0.000 C 
HETATM   24  C24 UNL     1       4.676 -15.119   4.304  1.00  0.00     0.007 C 
ENDBRANCH  12  19
ENDBRANCH  11  12
BRANCH   1  25
HETATM   25  C3  UNL     1       3.084 -11.469  -0.129  1.00  0.00     0.044 C 
BRANCH  25  26
HETATM   26  C2  UNL     1       1.740 -12.060   0.103  1.00  0.00     0.028 C 
BRANCH  26  27
HETATM   27  C1  UNL     1       1.373 -13.299  -0.617  1.00  0.00     0.164 C 
BRANCH  27  28
HETATM   28  O1  UNL     1       1.435 -14.492   0.036  1.00  0.00    -0.401 OA
ATOM     29  H1  UNL     1       1.585 -15.287  -0.461  1.00  0.00     0.209 HD
ENDBRANCH  27  28
ENDBRANCH  26  27
ENDBRANCH  25  26
ENDBRANCH   1  25
BRANCH   8  30
HETATM   30  N3  UNL     1       7.013  -9.641   2.519  1.00  0.00    -0.342 N 
ATOM     31  H3  UNL     1       6.569 -10.049   3.342  1.00  0.00     0.167 HD
BRANCH  30  32
HETATM   32  C8  UNL     1       7.839  -8.496   2.654  1.00  0.00     0.035 A 
HETATM   33  C9  UNL     1       9.098  -8.515   3.211  1.00  0.00     0.031 A 
HETATM   34  C10 UNL     1       9.860  -7.382   3.325  1.00  0.00     0.028 A 
HETATM   35  C11 UNL     1       9.338  -6.192   2.861  1.00  0.00     0.055 A 
HETATM   36 CL1  UNL     1      10.238  -4.687   2.962  1.00  0.00    -0.083 Cl
HETATM   37  C12 UNL     1       8.068  -6.141   2.292  1.00  0.00     0.058 A 
HETATM   38 CL2  UNL     1       7.407  -4.613   1.698  1.00  0.00    -0.082 Cl
HETATM   39  C13 UNL     1       7.344  -7.296   2.200  1.00  0.00     0.055 A 
ENDBRANCH  30  32
ENDBRANCH   8  30
TORSDOF 12
ENDMDL
MODEL 2
REMARK VINA RESULT: -6.170064255      0.917      1.293
REMARK  12 active torsions:
REMARK  status: ('A' for Active; 'I' for Inactive)
REMARK    1  A    between atoms: O1_1  and  C1_3 
REMARK    2  A    between atoms: C1_3  and  C2_4 
REMARK    3  A    between atoms: C2_4  and  C3_5 
REMARK    4  A    between atoms: C3_5  and  C4_6 
REMARK    5  A    between atoms: C7_13  and  N3_14 
REMARK    6  A    between atoms: N3_14  and  C8_16 
REMARK    7  A    between atoms: N4_26  and  C16_27 
REMARK    8  A    between atoms: C16_27  and  C17_28 
REMARK    9  A    between atoms: C16_27  and  C19_34 
REMARK   10  A    between atoms: C17_28  and  O2_29 
REMARK   11  A    between atoms: C17_28  and  C18_31 
REMARK   12  A    between atoms: C18_31  and  O3_32 
ROOT
HETATM    1  C4  UNL     1       4.672 -12.091   0.067  1.00  0.00     0.274 C 
HETATM    2  C5  UNL     1       5.868 -11.258  -0.101  1.00  0.00     0.055 A 
HETATM    3  N1  UNL     1       6.768 -11.019  -1.068  1.00  0.00    -0.353 N 
ATOM      4  H1  UNL     1       6.699 -11.495  -1.968  1.00  0.00     0.166 HD
HETATM    5  C6  UNL     1       7.776 -10.132  -0.833  1.00  0.00     0.182 A 
HETATM    6  N2  UNL     1       7.889  -9.496   0.338  1.00  0.00    -0.338 N 
ATOM      7  H2  UNL     1       8.657  -8.840   0.477  1.00  0.00     0.168 HD
HETATM    8  C7  UNL     1       7.023  -9.702   1.324  1.00  0.00     0.116 A 
HETATM    9  C14 UNL     1       5.987 -10.607   1.090  1.00  0.00     0.039 A 
HETATM   10  C15 UNL     1       4.874 -11.023   1.982  1.00  0.00     0.318 C 
HETATM   11  N4  UNL     1       4.512 -12.380   1.403  1.00  0.00     0.111 N 
ENDROOT
BRANCH  11  12
HETATM   12  C16 UNL     1       5.373 -13.240   2.167  1.00  0.00     0.259 C 
BRANCH  12  13
HETATM   13  C17 UNL     1       6.102 -14.247   1.319  1.00  0.00     0.175 C 
BRANCH  13  14
HETATM   14  O2  UNL     1       6.849 -15.136   2.130  1.00  0.00    -0.391 OA
ATOM     15  H2  UNL     1       6.276 -15.761   2.557  1.00  0.00     0.210 HD
ENDBRANCH  13  14
BRANCH  13  16
HETATM   16  C18 UNL     1       5.200 -15.203   0.603  1.00  0.00     0.198 C 
BRANCH  16  17
HETATM   17  O3  UNL     1       5.397 -15.199  -0.788  1.00  0.00    -0.398 OA
ATOM     18  H3  UNL     1       4.616 -15.446  -1.271  1.00  0.00     0.209 HD
ENDBRANCH  16  17
ENDBRANCH  13  16
ENDBRANCH  12  13
BRANCH  12  19
HETATM   19  C19 UNL     1       4.343 -14.101   2.917  1.00  0.00     0.022 C 
HETATM   20  C20 UNL     1       4.690 -14.593   4.254  1.00  0.00     0.007 C 
HETATM   21  C21 UNL     1       3.491 -14.404   5.231  1.00  0.00     0.000 C 
HETATM   22  C22 UNL     1       2.335 -15.186   4.701  1.00  0.00     0.000 C 
HETATM   23  C23 UNL     1       2.093 -14.994   3.228  1.00  0.00     0.000 C 
HETATM   24  C24 UNL     1       2.906 -13.739   2.823  1.00  0.00     0.007 C 
ENDBRANCH  12  19
ENDBRANCH  11  12
BRANCH   1  25
HETATM   25  C3  UNL     1       3.485 -11.261  -0.391  1.00  0.00     0.044 C 
BRANCH  25  26
HETATM   26  C2  UNL     1       2.171 -11.952  -0.342  1.00  0.00     0.028 C 
BRANCH  26  27
HETATM   27  C1  UNL     1       2.031 -13.265  -1.009  1.00  0.00     0.164 C 
BRANCH  27  28
HETATM   28  O1  UNL     1       1.955 -13.317  -2.368  1.00  0.00    -0.401 OA
ATOM     29  H1  UNL     1       1.163 -13.020  -2.800  1.00  0.00     0.209 HD
ENDBRANCH  27  28
ENDBRANCH  26  27
ENDBRANCH  25  26
ENDBRANCH   1  25
BRANCH   8  30
HETATM   30  N3  UNL     1       7.094  -9.122   2.471  1.00  0.00    -0.342 N 
ATOM     31  H3  UNL     1       6.518  -9.453   3.246  1.00  0.00     0.167 HD
BRANCH  30  32
HETATM   32  C8  UNL     1       7.972  -8.024   2.661  1.00  0.00     0.035 A 
HETATM   33  C9  UNL     1       9.128  -8.081   3.406  1.00  0.00     0.031 A 
HETATM   34  C10 UNL     1       9.944  -6.993   3.566  1.00  0.00     0.028 A 
HETATM   35  C11 UNL     1       9.586  -5.810   2.953  1.00  0.00     0.055 A 
HETATM   36 CL1  UNL     1      10.568  -4.360   3.097  1.00  0.00    -0.083 Cl
HETATM   37  C12 UNL     1       8.423  -5.721   2.192  1.00  0.00     0.058 A 
HETATM   38 CL2  UNL     1       7.972  -4.202   1.407  1.00  0.00    -0.082 Cl
HETATM   39  C13 UNL     1       7.639  -6.833   2.062  1.00  0.00     0.055 A 
ENDBRANCH  30  32
ENDBRANCH   8  30
TORSDOF 12
ENDMDL
MODEL 3
REMARK VINA RESULT: -5.953987510      1.254      1.507
REMARK  12 active torsions:
REMARK  status: ('A' for Active; 'I' for Inactive)
REMARK    1  A    between atoms: O1_1  and  C1_3 
REMARK    2  A    between atoms: C1_3  and  C2_4 
REMARK    3  A    between atoms: C2_4  and  C3_5 
REMARK    4  A    between atoms: C3_5  and  C4_6 
REMARK    5  A    between atoms: C7_13  and  N3_14 
REMARK    6  A    between atoms: N3_14  and  C8_16 
REMARK    7  A    between atoms: N4_26  and  C16_27 
REMARK    8  A    between atoms: C16_27  and  C17_28 
REMARK    9  A    between atoms: C16_27  and  C19_34 
REMARK   10  A    between atoms: C17_28  and  O2_29 
REMARK   11  A    between atoms: C17_28  and  C18_31 
REMARK   12  A    between atoms: C18_31  and  O3_32 
ROOT
HETATM    1  C4  UNL     1       3.604 -12.708   0.457  1.00  0.00     0.274 C 
HETATM    2  C5  UNL     1       4.860 -12.122  -0.023  1.00  0.00     0.055 A 
HETATM    3  N1  UNL     1       5.647 -12.241  -1.105  1.00  0.00    -0.353 N 
ATOM      4  H1  UNL     1       5.402 -12.889  -1.853  1.00  0.00     0.166 HD
HETATM    5  C6  UNL     1       6.778 -11.485  -1.190  1.00  0.00     0.182 A 
HETATM    6  N2  UNL     1       7.122 -10.630  -0.221  1.00  0.00    -0.338 N 
ATOM      7  H2  UNL     1       7.977 -10.081  -0.319  1.00  0.00     0.168 HD
HETATM    8  C7  UNL     1       6.375 -10.479   0.867  1.00  0.00     0.116 A 
HETATM    9  C14 UNL     1       5.215 -11.248   0.961  1.00  0.00     0.039 A 
HETATM   10  C15 UNL     1       4.186 -11.284   2.032  1.00  0.00     0.318 C 
HETATM   11  N4  UNL     1       3.588 -12.665   1.832  1.00  0.00     0.111 N 
ENDROOT
BRANCH  11  12
HETATM   12  C16 UNL     1       4.430 -13.453   2.689  1.00  0.00     0.259 C 
BRANCH  12  13
HETATM   13  C17 UNL     1       4.541 -14.888   2.248  1.00  0.00     0.175 C 
BRANCH  13  14
HETATM   14  O2  UNL     1       3.579 -15.178   1.249  1.00  0.00    -0.391 OA
ATOM     15  H2  UNL     1       3.464 -16.116   1.159  1.00  0.00     0.210 HD
ENDBRANCH  13  14
BRANCH  13  16
HETATM   16  C18 UNL     1       5.811 -15.203   1.522  1.00  0.00     0.198 C 
BRANCH  16  17
HETATM   17  O3  UNL     1       6.857 -14.323   1.850  1.00  0.00    -0.398 OA
ATOM     18  H3  UNL     1       7.662 -14.776   2.073  1.00  0.00     0.209 HD
ENDBRANCH  16  17
ENDBRANCH  13  16
ENDBRANCH  12  13
BRANCH  12  19
HETATM   19  C19 UNL     1       3.562 -13.547   3.956  1.00  0.00     0.022 C 
HETATM   20  C20 UNL     1       2.115 -13.359   3.821  1.00  0.00     0.007 C 
HETATM   21  C21 UNL     1       1.347 -14.440   4.641  1.00  0.00     0.000 C 
HETATM   22  C22 UNL     1       1.734 -14.293   6.075  1.00  0.00     0.000 C 
HETATM   23  C23 UNL     1       3.216 -14.149   6.296  1.00  0.00     0.000 C 
HETATM   24  C24 UNL     1       3.888 -14.583   4.969  1.00  0.00     0.007 C 
ENDBRANCH  12  19
ENDBRANCH  11  12
BRANCH   1  25
HETATM   25  C3  UNL     1       2.478 -11.832  -0.065  1.00  0.00     0.044 C 
BRANCH  25  26
HETATM   26  C2  UNL     1       1.108 -12.264   0.318  1.00  0.00     0.028 C 
BRANCH  26  27
HETATM   27  C1  UNL     1       0.642 -13.605  -0.099  1.00  0.00     0.164 C 
BRANCH  27  28
HETATM   28  O1  UNL     1       0.664 -14.627   0.800  1.00  0.00    -0.401 OA
ATOM     29  H1  UNL     1      -0.111 -14.805   1.320  1.00  0.00     0.209 HD
ENDBRANCH  27  28
ENDBRANCH  26  27
ENDBRANCH  25  26
ENDBRANCH   1  25
BRANCH   8  30
HETATM   30  N3  UNL     1       6.667  -9.676   1.831  1.00  0.00    -0.342 N 
ATOM     31  H3  UNL     1       6.163  -9.738   2.716  1.00  0.00     0.167 HD
BRANCH  30  32
HETATM   32  C8  UNL     1       7.689  -8.706   1.663  1.00  0.00     0.035 A 
HETATM   33  C9  UNL     1       8.142  -8.267   0.440  1.00  0.00     0.031 A 
HETATM   34  C10 UNL     1       9.135  -7.331   0.326  1.00  0.00     0.028 A 
HETATM   35  C11 UNL     1       9.689  -6.819   1.481  1.00  0.00     0.055 A 
HETATM   36 CL1  UNL     1      10.966  -5.614   1.438  1.00  0.00    -0.083 Cl
HETATM   37  C12 UNL     1       9.251  -7.243   2.733  1.00  0.00     0.058 A 
HETATM   38 CL2  UNL     1       9.963  -6.580   4.210  1.00  0.00    -0.082 Cl
HETATM   39  C13 UNL     1       8.258  -8.180   2.798  1.00  0.00     0.055 A 
ENDBRANCH  30  32
ENDBRANCH   8  30
TORSDOF 12
ENDMDL
MODEL 4
REMARK VINA RESULT: -5.647534605      4.261      7.538
REMARK  12 active torsions:
REMARK  status: ('A' for Active; 'I' for Inactive)
REMARK    1  A    between atoms: O1_1  and  C1_3 
REMARK    2  A    between atoms: C1_3  and  C2_4 
REMARK    3  A    between atoms: C2_4  and  C3_5 
REMARK    4  A    between atoms: C3_5  and  C4_6 
REMARK    5  A    between atoms: C7_13  and  N3_14 
REMARK    6  A    between atoms: N3_14  and  C8_16 
REMARK    7  A    between atoms: N4_26  and  C16_27 
REMARK    8  A    between atoms: C16_27  and  C17_28 
REMARK    9  A    between atoms: C16_27  and  C19_34 
REMARK   10  A    between atoms: C17_28  and  O2_29 
REMARK   11  A    between atoms: C17_28  and  C18_31 
REMARK   12  A    between atoms: C18_31  and  O3_32 
ROOT
HETATM    1  C4  UNL     1       5.183 -11.287   1.694  1.00  0.00     0.274 C 
HETATM    2  C5  UNL     1       5.528 -12.567   1.067  1.00  0.00     0.055 A 
HETATM    3  N1  UNL     1       5.567 -13.859   1.431  1.00  0.00    -0.353 N 
ATOM      4  H1  UNL     1       5.313 -14.136   2.379  1.00  0.00     0.166 HD
HETATM    5  C6  UNL     1       5.952 -14.795   0.518  1.00  0.00     0.182 A 
HETATM    6  N2  UNL     1       6.292 -14.457  -0.730  1.00  0.00    -0.338 N 
ATOM      7  H2  UNL     1       6.575 -15.186  -1.385  1.00  0.00     0.168 HD
HETATM    8  C7  UNL     1       6.269 -13.192  -1.135  1.00  0.00     0.116 A 
HETATM    9  C14 UNL     1       5.876 -12.227  -0.207  1.00  0.00     0.039 A 
HETATM   10  C15 UNL     1       5.737 -10.757  -0.370  1.00  0.00     0.318 C 
HETATM   11  N4  UNL     1       5.876 -10.279   1.064  1.00  0.00     0.111 N 
ENDROOT
BRANCH  11  12
HETATM   12  C16 UNL     1       7.297 -10.081   1.148  1.00  0.00     0.259 C 
BRANCH  12  13
HETATM   13  C17 UNL     1       7.870 -10.484   2.480  1.00  0.00     0.175 C 
BRANCH  13  14
HETATM   14  O2  UNL     1       7.978 -11.894   2.571  1.00  0.00    -0.391 OA
ATOM     15  H2  UNL     1       7.299 -12.245   3.136  1.00  0.00     0.210 HD
ENDBRANCH  13  14
BRANCH  13  16
HETATM   16  C18 UNL     1       9.296 -10.075   2.675  1.00  0.00     0.198 C 
BRANCH  16  17
HETATM   17  O3  UNL     1      10.191 -11.154   2.571  1.00  0.00    -0.398 OA
ATOM     18  H3  UNL     1      10.918 -10.974   1.987  1.00  0.00     0.209 HD
ENDBRANCH  16  17
ENDBRANCH  13  16
ENDBRANCH  12  13
BRANCH  12  19
HETATM   19  C19 UNL     1       7.382  -8.546   1.186  1.00  0.00     0.022 C 
HETATM   20  C20 UNL     1       6.736  -7.841   2.297  1.00  0.00     0.007 C 
HETATM   21  C21 UNL     1       7.675  -6.731   2.858  1.00  0.00     0.000 C 
HETATM   22  C22 UNL     1       7.957  -5.764   1.755  1.00  0.00     0.000 C 
HETATM   23  C23 UNL     1       8.324  -6.417   0.450  1.00  0.00     0.000 C 
HETATM   24  C24 UNL     1       8.656  -7.892   0.790  1.00  0.00     0.007 C 
ENDBRANCH  12  19
ENDBRANCH  11  12
BRANCH   1  25
HETATM   25  C3  UNL     1       3.698 -11.066   1.464  1.00  0.00     0.044 C 
BRANCH  25  26
HETATM   26  C2  UNL     1       2.857 -12.290   1.530  1.00  0.00     0.028 C 
BRANCH  26  27
HETATM   27  C1  UNL     1       1.903 -12.558   0.432  1.00  0.00     0.164 C 
BRANCH  27  28
HETATM   28  O1  UNL     1       2.041 -11.892  -0.748  1.00  0.00    -0.401 OA
ATOM     29  H1  UNL     1       2.348 -12.363  -1.514  1.00  0.00     0.209 HD
ENDBRANCH  27  28
ENDBRANCH  26  27
ENDBRANCH  25  26
ENDBRANCH   1  25
BRANCH   8  30
HETATM   30  N3  UNL     1       6.596 -12.814  -2.322  1.00  0.00    -0.342 N 
ATOM     31  H3  UNL     1       7.505 -12.382  -2.487  1.00  0.00     0.167 HD
BRANCH  30  32
HETATM   32  C8  UNL     1       5.693 -12.998  -3.400  1.00  0.00     0.035 A 
HETATM   33  C9  UNL     1       4.332 -12.809  -3.308  1.00  0.00     0.031 A 
HETATM   34  C10 UNL     1       3.497 -13.003  -4.376  1.00  0.00     0.028 A 
HETATM   35  C11 UNL     1       4.048 -13.398  -5.576  1.00  0.00     0.055 A 
HETATM   36 CL1  UNL     1       3.060 -13.671  -7.002  1.00  0.00    -0.083 Cl
HETATM   37  C12 UNL     1       5.422 -13.598  -5.701  1.00  0.00     0.058 A 
HETATM   38 CL2  UNL     1       6.122 -14.103  -7.244  1.00  0.00    -0.082 Cl
HETATM   39  C13 UNL     1       6.216 -13.393  -4.609  1.00  0.00     0.055 A 
ENDBRANCH  30  32
ENDBRANCH   8  30
TORSDOF 12
ENDMDL
MODEL 5
REMARK VINA RESULT: -5.558769725      4.256      7.516
REMARK  12 active torsions:
REMARK  status: ('A' for Active; 'I' for Inactive)
REMARK    1  A    between atoms: O1_1  and  C1_3 
REMARK    2  A    between atoms: C1_3  and  C2_4 
REMARK    3  A    between atoms: C2_4  and  C3_5 
REMARK    4  A    between atoms: C3_5  and  C4_6 
REMARK    5  A    between atoms: C7_13  and  N3_14 
REMARK    6  A    between atoms: N3_14  and  C8_16 
REMARK    7  A    between atoms: N4_26  and  C16_27 
REMARK    8  A    between atoms: C16_27  and  C17_28 
REMARK    9  A    between atoms: C16_27  and  C19_34 
REMARK   10  A    between atoms: C17_28  and  O2_29 
REMARK   11  A    between atoms: C17_28  and  C18_31 
REMARK   12  A    between atoms: C18_31  and  O3_32 
ROOT
HETATM    1  C4  UNL     1       5.117 -11.330   1.556  1.00  0.00     0.274 C 
HETATM    2  C5  UNL     1       5.472 -12.590   0.894  1.00  0.00     0.055 A 
HETATM    3  N1  UNL     1       5.490 -13.894   1.212  1.00  0.00    -0.353 N 
ATOM      4  H1  UNL     1       5.203 -14.203   2.141  1.00  0.00     0.166 HD
HETATM    5  C6  UNL     1       5.895 -14.801   0.279  1.00  0.00     0.182 A 
HETATM    6  N2  UNL     1       6.277 -14.421  -0.946  1.00  0.00    -0.338 N 
ATOM      7  H2  UNL     1       6.575 -15.128  -1.617  1.00  0.00     0.168 HD
HETATM    8  C7  UNL     1       6.277 -13.142  -1.305  1.00  0.00     0.116 A 
HETATM    9  C14 UNL     1       5.862 -12.208  -0.355  1.00  0.00     0.039 A 
HETATM   10  C15 UNL     1       5.740 -10.732  -0.469  1.00  0.00     0.318 C 
HETATM   11  N4  UNL     1       5.838 -10.306   0.985  1.00  0.00     0.111 N 
ENDROOT
BRANCH  11  12
HETATM   12  C16 UNL     1       7.257 -10.124   1.120  1.00  0.00     0.259 C 
BRANCH  12  13
HETATM   13  C17 UNL     1       7.775 -10.527   2.474  1.00  0.00     0.175 C 
BRANCH  13  14
HETATM   14  O2  UNL     1       7.893 -11.936   2.564  1.00  0.00    -0.391 OA
ATOM     15  H2  UNL     1       7.098 -12.317   2.918  1.00  0.00     0.210 HD
ENDBRANCH  13  14
BRANCH  13  16
HETATM   16  C18 UNL     1       9.188 -10.106   2.732  1.00  0.00     0.198 C 
BRANCH  16  17
HETATM   17  O3  UNL     1      10.107 -11.158   2.576  1.00  0.00    -0.398 OA
ATOM     18  H3  UNL     1      10.667 -11.047   1.816  1.00  0.00     0.209 HD
ENDBRANCH  16  17
ENDBRANCH  13  16
ENDBRANCH  12  13
BRANCH  12  19
HETATM   19  C19 UNL     1       7.358  -8.590   1.154  1.00  0.00     0.022 C 
HETATM   20  C20 UNL     1       6.715  -7.875   2.261  1.00  0.00     0.007 C 
HETATM   21  C21 UNL     1       7.664  -6.774   2.823  1.00  0.00     0.000 C 
HETATM   22  C22 UNL     1       7.960  -5.813   1.719  1.00  0.00     0.000 C 
HETATM   23  C23 UNL     1       8.325  -6.473   0.416  1.00  0.00     0.000 C 
HETATM   24  C24 UNL     1       8.640  -7.951   0.762  1.00  0.00     0.007 C 
ENDBRANCH  12  19
ENDBRANCH  11  12
BRANCH   1  25
HETATM   25  C3  UNL     1       3.642 -11.088   1.288  1.00  0.00     0.044 C 
BRANCH  25  26
HETATM   26  C2  UNL     1       2.763 -12.274   1.458  1.00  0.00     0.028 C 
BRANCH  26  27
HETATM   27  C1  UNL     1       1.823 -12.625   0.371  1.00  0.00     0.164 C 
BRANCH  27  28
HETATM   28  O1  UNL     1       2.115 -12.258  -0.907  1.00  0.00    -0.401 OA
ATOM     29  H1  UNL     1       2.752 -12.760  -1.401  1.00  0.00     0.209 HD
ENDBRANCH  27  28
ENDBRANCH  26  27
ENDBRANCH  25  26
ENDBRANCH   1  25
BRANCH   8  30
HETATM   30  N3  UNL     1       6.644 -12.725  -2.467  1.00  0.00    -0.342 N 
ATOM     31  H3  UNL     1       7.449 -12.105  -2.555  1.00  0.00     0.167 HD
BRANCH  30  32
HETATM   32  C8  UNL     1       5.929 -13.127  -3.625  1.00  0.00     0.035 A 
HETATM   33  C9  UNL     1       6.522 -13.638  -4.758  1.00  0.00     0.031 A 
HETATM   34  C10 UNL     1       5.792 -14.009  -5.855  1.00  0.00     0.028 A 
HETATM   35  C11 UNL     1       4.421 -13.864  -5.811  1.00  0.00     0.055 A 
HETATM   36 CL1  UNL     1       3.399 -14.314  -7.167  1.00  0.00    -0.083 Cl
HETATM   37  C12 UNL     1       3.792 -13.351  -4.678  1.00  0.00     0.058 A 
HETATM   38 CL2  UNL     1       2.034 -13.171  -4.627  1.00  0.00    -0.082 Cl
HETATM   39  C13 UNL     1       4.561 -12.993  -3.607  1.00  0.00     0.055 A 
ENDBRANCH  30  32
ENDBRANCH   8  30
TORSDOF 12
ENDMDL
