MODEL 1
REMARK VINA RESULT: -8.576354386      0.000      0.000
REMARK  4 active torsions:
REMARK  status: ('A' for Active; 'I' for Inactive)
REMARK    1  A    between atoms: C2_2  and  C3_3 
REMARK    2  A    between atoms: C6_8  and  C7_9 
REMARK    3  A    between atoms: C7_9  and  N3_13 
REMARK       I    between atoms: N3_13  and  C10_15 
REMARK       I    between atoms: C10_15  and  N4_17 
REMARK    4  A    between atoms: N4_17  and  C11_19 
ROOT
HETATM    1  C7  UNL     1      23.543 -20.656  -9.346  1.00  0.00     0.171 C 
HETATM    2  C8  UNL     1      22.987 -20.810 -10.732  1.00  0.00     0.063 C 
HETATM    3  C9  UNL     1      24.929 -20.183  -9.499  1.00  0.00     0.098 C 
HETATM    4  N2  UNL     1      26.007 -19.808  -9.602  1.00  0.00    -0.194 NA
ENDROOT
BRANCH   1   5
HETATM    5  C6  UNL     1      23.469 -21.870  -8.516  1.00  0.00     0.125 A 
HETATM    6  C5  UNL     1      22.345 -22.678  -8.477  1.00  0.00     0.098 A 
HETATM    7  C4  UNL     1      22.304 -23.822  -7.680  1.00  0.00     0.050 A 
HETATM    8  N1  UNL     1      21.211 -22.372  -9.237  1.00  0.00    -0.098 NA
HETATM    9  S1  UNL     1      21.141 -25.029  -7.375  1.00  0.00    -0.090 SA
HETATM   10  C15 UNL     1      23.361 -24.200  -6.908  1.00  0.00     0.081 A 
HETATM   11  C3  UNL     1      22.024 -25.987  -6.273  1.00  0.00     0.006 A 
HETATM   12  C16 UNL     1      23.216 -25.332  -6.170  1.00  0.00     0.064 A 
HETATM   13 CL1  UNL     1      24.478 -26.006  -5.087  1.00  0.00    -0.082 Cl
HETATM   14  C14 UNL     1      24.470 -23.329  -6.999  1.00  0.00     0.301 A 
HETATM   15  O2  UNL     1      24.449 -22.290  -7.750  1.00  0.00    -0.273 OA
HETATM   16  O3  UNL     1      25.510 -23.562  -6.336  1.00  0.00    -0.259 OA
BRANCH  11  17
HETATM   17  C2  UNL     1      21.603 -27.258  -5.566  1.00  0.00     0.043 C 
HETATM   18  C1  UNL     1      20.261 -27.647  -6.130  1.00  0.00     0.010 C 
ENDBRANCH  11  17
ENDBRANCH   1   5
BRANCH   1  19
HETATM   19  N3  UNL     1      22.802 -19.611  -8.668  1.00  0.00    -0.316 N 
HETATM   20  C10 UNL     1      22.596 -18.327  -9.236  1.00  0.00     0.318 C 
HETATM   21  O1  UNL     1      23.043 -18.013 -10.370  1.00  0.00    -0.247 OA
HETATM   22  N4  UNL     1      21.867 -17.345  -8.530  1.00  0.00    -0.339 N 
ATOM     23  H4  UNL     1      21.499 -17.586  -7.610  1.00  0.00     0.164 HD
ATOM     24  H3  UNL     1      22.413 -19.806  -7.745  1.00  0.00     0.166 HD
BRANCH  22  25
HETATM   25  C11 UNL     1      21.614 -16.017  -9.038  1.00  0.00     0.078 C 
HETATM   26  C12 UNL     1      20.134 -15.724  -9.096  1.00  0.00     0.032 C 
HETATM   27  C13 UNL     1      22.259 -15.039  -8.056  1.00  0.00     0.032 C 
ENDBRANCH  22  25
ENDBRANCH   1  19
TORSDOF 4
ENDMDL
MODEL 2
REMARK VINA RESULT: -8.141625336      3.361      8.115
REMARK  4 active torsions:
REMARK  status: ('A' for Active; 'I' for Inactive)
REMARK    1  A    between atoms: C2_2  and  C3_3 
REMARK    2  A    between atoms: C6_8  and  C7_9 
REMARK    3  A    between atoms: C7_9  and  N3_13 
REMARK       I    between atoms: N3_13  and  C10_15 
REMARK       I    between atoms: C10_15  and  N4_17 
REMARK    4  A    between atoms: N4_17  and  C11_19 
ROOT
HETATM    1  C7  UNL     1      21.305 -25.378  -6.564  1.00  0.00     0.171 C 
HETATM    2  C8  UNL     1      19.906 -24.924  -6.264  1.00  0.00     0.063 C 
HETATM    3  C9  UNL     1      21.834 -25.959  -5.319  1.00  0.00     0.098 C 
HETATM    4  N2  UNL     1      22.257 -26.422  -4.360  1.00  0.00    -0.194 NA
ENDROOT
BRANCH   1   5
HETATM    5  C6  UNL     1      22.191 -24.328  -7.095  1.00  0.00     0.125 A 
HETATM    6  C5  UNL     1      21.786 -23.438  -8.076  1.00  0.00     0.098 A 
HETATM    7  C4  UNL     1      22.648 -22.454  -8.560  1.00  0.00     0.050 A 
HETATM    8  N1  UNL     1      20.497 -23.498  -8.615  1.00  0.00    -0.098 NA
HETATM    9  S1  UNL     1      22.521 -21.216  -9.724  1.00  0.00    -0.090 SA
HETATM   10  C15 UNL     1      23.921 -22.319  -8.094  1.00  0.00     0.081 A 
HETATM   11  C3  UNL     1      24.089 -20.556  -9.592  1.00  0.00     0.006 A 
HETATM   12  C16 UNL     1      24.677 -21.326  -8.633  1.00  0.00     0.064 A 
HETATM   13 CL1  UNL     1      26.374 -20.975  -8.167  1.00  0.00    -0.082 Cl
HETATM   14  C14 UNL     1      24.262 -23.260  -7.096  1.00  0.00     0.301 A 
HETATM   15  O2  UNL     1      23.426 -24.143  -6.691  1.00  0.00    -0.273 OA
HETATM   16  O3  UNL     1      25.407 -23.245  -6.582  1.00  0.00    -0.259 OA
BRANCH  11  17
HETATM   17  C2  UNL     1      24.699 -19.395 -10.350  1.00  0.00     0.043 C 
HETATM   18  C1  UNL     1      23.886 -18.174 -10.008  1.00  0.00     0.010 C 
ENDBRANCH  11  17
ENDBRANCH   1   5
BRANCH   1  19
HETATM   19  N3  UNL     1      21.242 -26.442  -7.547  1.00  0.00    -0.316 N 
HETATM   20  C10 UNL     1      20.445 -27.601  -7.368  1.00  0.00     0.318 C 
HETATM   21  O1  UNL     1      19.737 -27.780  -6.342  1.00  0.00    -0.247 OA
HETATM   22  N4  UNL     1      20.422 -28.609  -8.358  1.00  0.00    -0.339 N 
ATOM     23  H4  UNL     1      20.991 -28.476  -9.194  1.00  0.00     0.164 HD
ATOM     24  H3  UNL     1      21.793 -26.353  -8.400  1.00  0.00     0.166 HD
BRANCH  22  25
HETATM   25  C11 UNL     1      19.639 -29.818  -8.251  1.00  0.00     0.078 C 
HETATM   26  C12 UNL     1      18.572 -29.875  -9.318  1.00  0.00     0.032 C 
HETATM   27  C13 UNL     1      20.599 -30.987  -8.469  1.00  0.00     0.032 C 
ENDBRANCH  22  25
ENDBRANCH   1  19
TORSDOF 4
ENDMDL
MODEL 3
REMARK VINA RESULT: -8.065261629      3.864      8.266
REMARK  4 active torsions:
REMARK  status: ('A' for Active; 'I' for Inactive)
REMARK    1  A    between atoms: C2_2  and  C3_3 
REMARK    2  A    between atoms: C6_8  and  C7_9 
REMARK    3  A    between atoms: C7_9  and  N3_13 
REMARK       I    between atoms: N3_13  and  C10_15 
REMARK       I    between atoms: C10_15  and  N4_17 
REMARK    4  A    between atoms: N4_17  and  C11_19 
ROOT
HETATM    1  C7  UNL     1      19.680 -25.969  -7.951  1.00  0.00     0.171 C 
HETATM    2  C8  UNL     1      19.079 -26.039  -9.325  1.00  0.00     0.063 C 
HETATM    3  C9  UNL     1      18.610 -25.512  -7.048  1.00  0.00     0.098 C 
HETATM    4  N2  UNL     1      17.786 -25.163  -6.331  1.00  0.00    -0.194 NA
ENDROOT
BRANCH   1   5
HETATM    5  C6  UNL     1      20.880 -25.123  -7.848  1.00  0.00     0.125 A 
HETATM    6  C5  UNL     1      21.018 -23.937  -8.551  1.00  0.00     0.098 A 
HETATM    7  C4  UNL     1      22.168 -23.157  -8.433  1.00  0.00     0.050 A 
HETATM    8  N1  UNL     1      20.007 -23.484  -9.404  1.00  0.00    -0.098 NA
HETATM    9  S1  UNL     1      22.692 -21.685  -9.113  1.00  0.00    -0.090 SA
HETATM   10  C15 UNL     1      23.204 -23.518  -7.626  1.00  0.00     0.081 A 
HETATM   11  C3  UNL     1      24.216 -21.562  -8.356  1.00  0.00     0.006 A 
HETATM   12  C16 UNL     1      24.277 -22.685  -7.584  1.00  0.00     0.064 A 
HETATM   13 CL1  UNL     1      25.745 -22.969  -6.592  1.00  0.00    -0.082 Cl
HETATM   14  C14 UNL     1      22.992 -24.736  -6.942  1.00  0.00     0.301 A 
HETATM   15  O2  UNL     1      21.912 -25.412  -7.090  1.00  0.00    -0.273 OA
HETATM   16  O3  UNL     1      23.871 -25.184  -6.165  1.00  0.00    -0.259 OA
BRANCH  11  17
HETATM   17  C2  UNL     1      25.264 -20.477  -8.495  1.00  0.00     0.043 C 
HETATM   18  C1  UNL     1      25.049 -19.834  -9.841  1.00  0.00     0.010 C 
ENDBRANCH  11  17
ENDBRANCH   1   5
BRANCH   1  19
HETATM   19  N3  UNL     1      20.047 -27.310  -7.542  1.00  0.00    -0.316 N 
HETATM   20  C10 UNL     1      20.618 -28.253  -8.435  1.00  0.00     0.318 C 
HETATM   21  O1  UNL     1      20.845 -27.984  -9.643  1.00  0.00    -0.247 OA
HETATM   22  N4  UNL     1      20.955 -29.548  -7.982  1.00  0.00    -0.339 N 
ATOM     23  H4  UNL     1      20.776 -29.779  -7.005  1.00  0.00     0.164 HD
ATOM     24  H3  UNL     1      19.888 -27.587  -6.573  1.00  0.00     0.166 HD
BRANCH  22  25
HETATM   25  C11 UNL     1      21.539 -30.564  -8.827  1.00  0.00     0.078 C 
HETATM   26  C12 UNL     1      23.047 -30.500  -8.800  1.00  0.00     0.032 C 
HETATM   27  C13 UNL     1      21.105 -31.914  -8.258  1.00  0.00     0.032 C 
ENDBRANCH  22  25
ENDBRANCH   1  19
TORSDOF 4
ENDMDL
MODEL 4
REMARK VINA RESULT: -8.038499798      3.538      7.365
REMARK  4 active torsions:
REMARK  status: ('A' for Active; 'I' for Inactive)
REMARK    1  A    between atoms: C2_2  and  C3_3 
REMARK    2  A    between atoms: C6_8  and  C7_9 
REMARK    3  A    between atoms: C7_9  and  N3_13 
REMARK       I    between atoms: N3_13  and  C10_15 
REMARK       I    between atoms: C10_15  and  N4_17 
REMARK    4  A    between atoms: N4_17  and  C11_19 
ROOT
HETATM    1  C7  UNL     1      20.960 -25.157  -7.143  1.00  0.00     0.171 C 
HETATM    2  C8  UNL     1      20.358 -24.927  -5.787  1.00  0.00     0.063 C 
HETATM    3  C9  UNL     1      21.577 -26.493  -7.108  1.00  0.00     0.098 C 
HETATM    4  N2  UNL     1      22.057 -27.534  -7.099  1.00  0.00    -0.194 NA
ENDROOT
BRANCH   1   5
HETATM    5  C6  UNL     1      21.918 -24.124  -7.573  1.00  0.00     0.125 A 
HETATM    6  C5  UNL     1      21.627 -23.207  -8.569  1.00  0.00     0.098 A 
HETATM    7  C4  UNL     1      22.555 -22.240  -8.955  1.00  0.00     0.050 A 
HETATM    8  N1  UNL     1      20.390 -23.221  -9.222  1.00  0.00    -0.098 NA
HETATM    9  S1  UNL     1      22.567 -20.981 -10.103  1.00  0.00    -0.090 SA
HETATM   10  C15 UNL     1      23.784 -22.149  -8.375  1.00  0.00     0.081 A 
HETATM   11  C3  UNL     1      24.134 -20.367  -9.819  1.00  0.00     0.006 A 
HETATM   12  C16 UNL     1      24.612 -21.170  -8.825  1.00  0.00     0.064 A 
HETATM   13 CL1  UNL     1      26.269 -20.875  -8.203  1.00  0.00    -0.082 Cl
HETATM   14  C14 UNL     1      24.008 -23.116  -7.368  1.00  0.00     0.301 A 
HETATM   15  O2  UNL     1      23.116 -23.982  -7.056  1.00  0.00    -0.273 OA
HETATM   16  O3  UNL     1      25.103 -23.143  -6.754  1.00  0.00    -0.259 OA
BRANCH  11  17
HETATM   17  C2  UNL     1      24.841 -19.213 -10.496  1.00  0.00     0.043 C 
HETATM   18  C1  UNL     1      24.028 -17.976 -10.215  1.00  0.00     0.010 C 
ENDBRANCH  11  17
ENDBRANCH   1   5
BRANCH   1  19
HETATM   19  N3  UNL     1      19.889 -25.201  -8.119  1.00  0.00    -0.316 N 
HETATM   20  C10 UNL     1      18.614 -25.751  -7.831  1.00  0.00     0.318 C 
HETATM   21  O1  UNL     1      18.328 -26.237  -6.705  1.00  0.00    -0.247 OA
HETATM   22  N4  UNL     1      17.606 -25.770  -8.822  1.00  0.00    -0.339 N 
ATOM     23  H4  UNL     1      17.824 -25.379  -9.738  1.00  0.00     0.164 HD
ATOM     24  H3  UNL     1      20.059 -24.820  -9.050  1.00  0.00     0.166 HD
BRANCH  22  25
HETATM   25  C11 UNL     1      16.285 -26.312  -8.608  1.00  0.00     0.078 C 
HETATM   26  C12 UNL     1      15.235 -25.228  -8.643  1.00  0.00     0.032 C 
HETATM   27  C13 UNL     1      16.014 -27.280  -9.760  1.00  0.00     0.032 C 
ENDBRANCH  22  25
ENDBRANCH   1  19
TORSDOF 4
ENDMDL
MODEL 5
REMARK VINA RESULT: -7.988554400      4.497      7.922
REMARK  4 active torsions:
REMARK  status: ('A' for Active; 'I' for Inactive)
REMARK    1  A    between atoms: C2_2  and  C3_3 
REMARK    2  A    between atoms: C6_8  and  C7_9 
REMARK    3  A    between atoms: C7_9  and  N3_13 
REMARK       I    between atoms: N3_13  and  C10_15 
REMARK       I    between atoms: C10_15  and  N4_17 
REMARK    4  A    between atoms: N4_17  and  C11_19 
ROOT
HETATM    1  C7  UNL     1      19.278 -27.157  -8.767  1.00  0.00     0.171 C 
HETATM    2  C8  UNL     1      19.253 -28.446  -7.997  1.00  0.00     0.063 C 
HETATM    3  C9  UNL     1      19.319 -27.521 -10.193  1.00  0.00     0.098 C 
HETATM    4  N2  UNL     1      19.344 -27.788 -11.308  1.00  0.00    -0.194 NA
ENDROOT
BRANCH   1   5
HETATM    5  C6  UNL     1      20.377 -26.246  -8.404  1.00  0.00     0.125 A 
HETATM    6  C5  UNL     1      20.465 -24.954  -8.894  1.00  0.00     0.098 A 
HETATM    7  C4  UNL     1      21.518 -24.114  -8.533  1.00  0.00     0.050 A 
HETATM    8  N1  UNL     1      19.498 -24.447  -9.768  1.00  0.00    -0.098 NA
HETATM    9  S1  UNL     1      21.959 -22.513  -8.913  1.00  0.00    -0.090 SA
HETATM   10  C15 UNL     1      22.505 -24.520  -7.686  1.00  0.00     0.081 A 
HETATM   11  C3  UNL     1      23.388 -22.396  -7.987  1.00  0.00     0.006 A 
HETATM   12  C16 UNL     1      23.485 -23.623  -7.399  1.00  0.00     0.064 A 
HETATM   13 CL1  UNL     1      24.875 -23.949  -6.312  1.00  0.00    -0.082 Cl
HETATM   14  C14 UNL     1      22.348 -25.848  -7.228  1.00  0.00     0.301 A 
HETATM   15  O2  UNL     1      21.358 -26.574  -7.595  1.00  0.00    -0.273 OA
HETATM   16  O3  UNL     1      23.191 -26.346  -6.442  1.00  0.00    -0.259 OA
BRANCH  11  17
HETATM   17  C2  UNL     1      24.334 -21.223  -7.842  1.00  0.00     0.043 C 
HETATM   18  C1  UNL     1      23.578 -20.138  -7.119  1.00  0.00     0.010 C 
ENDBRANCH  11  17
ENDBRANCH   1   5
BRANCH   1  19
HETATM   19  N3  UNL     1      18.029 -26.459  -8.534  1.00  0.00    -0.316 N 
HETATM   20  C10 UNL     1      16.768 -27.017  -8.866  1.00  0.00     0.318 C 
HETATM   21  O1  UNL     1      16.651 -28.159  -9.384  1.00  0.00    -0.247 OA
HETATM   22  N4  UNL     1      15.581 -26.291  -8.618  1.00  0.00    -0.339 N 
ATOM     23  H4  UNL     1      15.662 -25.364  -8.199  1.00  0.00     0.164 HD
ATOM     24  H3  UNL     1      18.059 -25.530  -8.115  1.00  0.00     0.166 HD
BRANCH  22  25
HETATM   25  C11 UNL     1      14.261 -26.787  -8.927  1.00  0.00     0.078 C 
HETATM   26  C12 UNL     1      13.347 -26.699  -7.729  1.00  0.00     0.032 C 
HETATM   27  C13 UNL     1      13.698 -25.888 -10.028  1.00  0.00     0.032 C 
ENDBRANCH  22  25
ENDBRANCH   1  19
TORSDOF 4
ENDMDL
