MODEL 1
REMARK VINA RESULT: -7.560767367      0.000      0.000
REMARK  5 active torsions:
REMARK  status: ('A' for Active; 'I' for Inactive)
REMARK    1  A    between atoms: O1_2  and  C2_3 
REMARK    2  A    between atoms: C2_3  and  C3_5 
REMARK    3  A    between atoms: N3_13  and  C7_14 
REMARK    4  A    between atoms: C8_20  and  N6_21 
REMARK    5  A    between atoms: C9_24  and  N7_25 
ROOT
HETATM    1  C3  UNL     1     -14.319  66.977  20.412  1.00  0.00     0.121 A 
HETATM    2  C4  UNL     1     -14.498  67.675  19.250  1.00  0.00     0.138 A 
HETATM    3  C5  UNL     1     -13.969  67.140  18.019  1.00  0.00     0.119 C 
HETATM    4  N1  UNL     1     -13.548  66.718  17.014  1.00  0.00    -0.190 NA
HETATM    5  N2  UNL     1     -15.165  68.842  19.293  1.00  0.00    -0.298 N 
ATOM      6  H2  UNL     1     -15.308  69.376  18.436  1.00  0.00     0.171 HD
HETATM    7  C6  UNL     1     -15.640  69.305  20.450  1.00  0.00     0.335 A 
HETATM    8  O3  UNL     1     -16.257  70.411  20.412  1.00  0.00    -0.246 OA
HETATM    9  N3  UNL     1     -15.499  68.672  21.626  1.00  0.00    -0.229 N 
HETATM   10  C9  UNL     1     -14.825  67.489  21.591  1.00  0.00     0.131 A 
ENDROOT
BRANCH   1  11
HETATM   11  C2  UNL     1     -13.599  65.697  20.426  1.00  0.00     0.299 C 
HETATM   12  O2  UNL     1     -14.277  64.663  20.198  1.00  0.00    -0.259 OA
BRANCH  11  13
HETATM   13  O1  UNL     1     -12.260  65.569  20.668  1.00  0.00    -0.322 OA
HETATM   14  C1  UNL     1     -11.385  64.970  19.722  1.00  0.00     0.213 C 
ENDBRANCH  11  13
ENDBRANCH   1  11
BRANCH  10  15
HETATM   15  N7  UNL     1     -14.676  66.865  22.692  1.00  0.00    -0.384 N 
ATOM     16  H72 UNL     1     -14.774  65.850  22.675  1.00  0.00     0.157 HD
ATOM     17  H71 UNL     1     -14.468  67.368  23.555  1.00  0.00     0.157 HD
ENDBRANCH  10  15
BRANCH   9  18
HETATM   18  C7  UNL     1     -16.026  69.211  22.832  1.00  0.00     0.185 A 
HETATM   19  N4  UNL     1     -15.413  69.358  24.020  1.00  0.00    -0.221 N 
HETATM   20  O4  UNL     1     -16.220  69.892  24.885  1.00  0.00    -0.153 OA
ATOM     21  H4  UNL     1     -14.449  69.088  24.215  1.00  0.00     0.198 HD
HETATM   22  N5  UNL     1     -17.364  70.114  24.320  1.00  0.00    -0.222 N 
HETATM   23  C8  UNL     1     -17.312  69.714  23.040  1.00  0.00     0.168 A 
ATOM     24  H5  UNL     1     -18.176  70.528  24.777  1.00  0.00     0.198 HD
BRANCH  23  25
HETATM   25  N6  UNL     1     -18.230  69.765  22.165  1.00  0.00    -0.381 N 
ATOM     26  H62 UNL     1     -18.382  69.140  21.373  1.00  0.00     0.157 HD
ATOM     27  H61 UNL     1     -18.971  70.465  22.128  1.00  0.00     0.157 HD
ENDBRANCH  23  25
ENDBRANCH   9  18
TORSDOF 5
ENDMDL
MODEL 2
REMARK VINA RESULT: -7.543284771      1.978      6.180
REMARK  5 active torsions:
REMARK  status: ('A' for Active; 'I' for Inactive)
REMARK    1  A    between atoms: O1_2  and  C2_3 
REMARK    2  A    between atoms: C2_3  and  C3_5 
REMARK    3  A    between atoms: N3_13  and  C7_14 
REMARK    4  A    between atoms: C8_20  and  N6_21 
REMARK    5  A    between atoms: C9_24  and  N7_25 
ROOT
HETATM    1  C3  UNL     1     -16.325  69.358  21.689  1.00  0.00     0.121 A 
HETATM    2  C4  UNL     1     -15.745  68.747  22.766  1.00  0.00     0.138 A 
HETATM    3  C5  UNL     1     -16.245  69.031  24.090  1.00  0.00     0.119 C 
HETATM    4  N1  UNL     1     -16.639  69.250  25.167  1.00  0.00    -0.190 NA
HETATM    5  N2  UNL     1     -14.726  67.896  22.555  1.00  0.00    -0.298 N 
ATOM      6  H2  UNL     1     -14.282  67.430  23.347  1.00  0.00     0.171 HD
HETATM    7  C6  UNL     1     -14.291  67.658  21.317  1.00  0.00     0.335 A 
HETATM    8  O3  UNL     1     -13.327  66.845  21.197  1.00  0.00    -0.246 OA
HETATM    9  N3  UNL     1     -14.814  68.223  20.217  1.00  0.00    -0.229 N 
HETATM   10  C9  UNL     1     -15.847  69.086  20.421  1.00  0.00     0.131 A 
ENDROOT
BRANCH   1  11
HETATM   11  C2  UNL     1     -17.442  70.296  21.858  1.00  0.00     0.299 C 
HETATM   12  O2  UNL     1     -18.601  69.810  21.823  1.00  0.00    -0.259 OA
BRANCH  11  13
HETATM   13  O1  UNL     1     -17.296  71.642  22.048  1.00  0.00    -0.322 OA
HETATM   14  C1  UNL     1     -17.083  72.194  23.340  1.00  0.00     0.213 C 
ENDBRANCH  11  13
ENDBRANCH   1  11
BRANCH  10  15
HETATM   15  N7  UNL     1     -16.364  69.639  19.396  1.00  0.00    -0.384 N 
ATOM     16  H72 UNL     1     -17.254  69.271  19.061  1.00  0.00     0.157 HD
ATOM     17  H71 UNL     1     -15.898  70.418  18.931  1.00  0.00     0.157 HD
ENDBRANCH  10  15
BRANCH   9  18
HETATM   18  C7  UNL     1     -14.311  67.934  18.918  1.00  0.00     0.185 A 
HETATM   19  N4  UNL     1     -14.595  66.883  18.127  1.00  0.00    -0.221 N 
HETATM   20  O4  UNL     1     -13.940  66.967  17.009  1.00  0.00    -0.153 OA
ATOM     21  H4  UNL     1     -15.235  66.127  18.370  1.00  0.00     0.198 HD
HETATM   22  N5  UNL     1     -13.221  68.043  17.016  1.00  0.00    -0.222 N 
HETATM   23  C8  UNL     1     -13.405  68.693  18.176  1.00  0.00     0.168 A 
ATOM     24  H5  UNL     1     -12.610  68.348  16.258  1.00  0.00     0.198 HD
BRANCH  23  25
HETATM   25  N6  UNL     1     -12.876  69.783  18.556  1.00  0.00    -0.381 N 
ATOM     26  H62 UNL     1     -13.145  70.735  18.308  1.00  0.00     0.157 HD
ATOM     27  H61 UNL     1     -12.078  69.862  19.186  1.00  0.00     0.157 HD
ENDBRANCH  23  25
ENDBRANCH   9  18
TORSDOF 5
ENDMDL
MODEL 3
REMARK VINA RESULT: -7.490055436      1.210      1.652
REMARK  5 active torsions:
REMARK  status: ('A' for Active; 'I' for Inactive)
REMARK    1  A    between atoms: O1_2  and  C2_3 
REMARK    2  A    between atoms: C2_3  and  C3_5 
REMARK    3  A    between atoms: N3_13  and  C7_14 
REMARK    4  A    between atoms: C8_20  and  N6_21 
REMARK    5  A    between atoms: C9_24  and  N7_25 
ROOT
HETATM    1  C3  UNL     1     -14.007  67.137  19.812  1.00  0.00     0.121 A 
HETATM    2  C4  UNL     1     -13.730  67.796  18.646  1.00  0.00     0.138 A 
HETATM    3  C5  UNL     1     -12.807  67.206  17.706  1.00  0.00     0.119 C 
HETATM    4  N1  UNL     1     -12.064  66.739  16.936  1.00  0.00    -0.190 NA
HETATM    5  N2  UNL     1     -14.329  68.977  18.412  1.00  0.00    -0.298 N 
ATOM      6  H2  UNL     1     -14.135  69.482  17.547  1.00  0.00     0.171 HD
HETATM    7  C6  UNL     1     -15.177  69.491  19.304  1.00  0.00     0.335 A 
HETATM    8  O3  UNL     1     -15.703  70.607  19.014  1.00  0.00    -0.246 OA
HETATM    9  N3  UNL     1     -15.494  68.899  20.466  1.00  0.00    -0.229 N 
HETATM   10  C9  UNL     1     -14.891  67.702  20.711  1.00  0.00     0.131 A 
ENDROOT
BRANCH   1  11
HETATM   11  C2  UNL     1     -13.383  65.845  20.121  1.00  0.00     0.299 C 
HETATM   12  O2  UNL     1     -14.070  64.816  19.899  1.00  0.00    -0.259 OA
BRANCH  11  13
HETATM   13  O1  UNL     1     -12.122  65.700  20.626  1.00  0.00    -0.322 OA
HETATM   14  C1  UNL     1     -11.196  64.778  20.068  1.00  0.00     0.213 C 
ENDBRANCH  11  13
ENDBRANCH   1  11
BRANCH  10  15
HETATM   15  N7  UNL     1     -15.172  67.116  21.807  1.00  0.00    -0.384 N 
ATOM     16  H72 UNL     1     -15.666  67.657  22.517  1.00  0.00     0.157 HD
ATOM     17  H71 UNL     1     -14.910  66.143  21.963  1.00  0.00     0.157 HD
ENDBRANCH  10  15
BRANCH   9  18
HETATM   18  C7  UNL     1     -16.405  69.492  21.383  1.00  0.00     0.185 A 
HETATM   19  N4  UNL     1     -17.591  70.072  21.126  1.00  0.00    -0.221 N 
HETATM   20  O4  UNL     1     -18.136  70.499  22.224  1.00  0.00    -0.153 OA
ATOM     21  H4  UNL     1     -18.005  70.164  20.198  1.00  0.00     0.198 HD
HETATM   22  N5  UNL     1     -17.357  70.224  23.221  1.00  0.00    -0.222 N 
HETATM   23  C8  UNL     1     -16.260  69.597  22.768  1.00  0.00     0.168 A 
ATOM     24  H5  UNL     1     -17.547  70.450  24.197  1.00  0.00     0.198 HD
BRANCH  23  25
HETATM   25  N6  UNL     1     -15.268  69.170  23.436  1.00  0.00    -0.381 N 
ATOM     26  H62 UNL     1     -14.282  69.173  23.173  1.00  0.00     0.157 HD
ATOM     27  H61 UNL     1     -15.319  68.749  24.363  1.00  0.00     0.157 HD
ENDBRANCH  23  25
ENDBRANCH   9  18
TORSDOF 5
ENDMDL
MODEL 4
REMARK VINA RESULT: -7.344053021      2.519      5.836
REMARK  5 active torsions:
REMARK  status: ('A' for Active; 'I' for Inactive)
REMARK    1  A    between atoms: O1_2  and  C2_3 
REMARK    2  A    between atoms: C2_3  and  C3_5 
REMARK    3  A    between atoms: N3_13  and  C7_14 
REMARK    4  A    between atoms: C8_20  and  N6_21 
REMARK    5  A    between atoms: C9_24  and  N7_25 
ROOT
HETATM    1  C3  UNL     1     -14.717  67.765  20.770  1.00  0.00     0.121 A 
HETATM    2  C4  UNL     1     -14.650  68.379  19.550  1.00  0.00     0.138 A 
HETATM    3  C5  UNL     1     -15.390  69.599  19.334  1.00  0.00     0.119 C 
HETATM    4  N1  UNL     1     -15.982  70.588  19.146  1.00  0.00    -0.190 NA
HETATM    5  N2  UNL     1     -13.893  67.824  18.587  1.00  0.00    -0.298 N 
ATOM      6  H2  UNL     1     -13.830  68.269  17.671  1.00  0.00     0.171 HD
HETATM    7  C6  UNL     1     -13.223  66.695  18.823  1.00  0.00     0.335 A 
HETATM    8  O3  UNL     1     -12.530  66.232  17.868  1.00  0.00    -0.246 OA
HETATM    9  N3  UNL     1     -13.244  66.041  19.996  1.00  0.00    -0.229 N 
HETATM   10  C9  UNL     1     -14.009  66.597  20.976  1.00  0.00     0.131 A 
ENDROOT
BRANCH   1  11
HETATM   11  C2  UNL     1     -15.528  68.325  21.858  1.00  0.00     0.299 C 
HETATM   12  O2  UNL     1     -14.921  68.634  22.915  1.00  0.00    -0.259 OA
BRANCH  11  13
HETATM   13  O1  UNL     1     -16.877  68.526  21.789  1.00  0.00    -0.322 OA
HETATM   14  C1  UNL     1     -17.498  69.645  22.407  1.00  0.00     0.213 C 
ENDBRANCH  11  13
ENDBRANCH   1  11
BRANCH  10  15
HETATM   15  N7  UNL     1     -14.049  65.998  22.100  1.00  0.00    -0.384 N 
ATOM     16  H72 UNL     1     -14.966  65.737  22.462  1.00  0.00     0.157 HD
ATOM     17  H71 UNL     1     -13.193  65.790  22.614  1.00  0.00     0.157 HD
ENDBRANCH  10  15
BRANCH   9  18
HETATM   18  C7  UNL     1     -12.510  64.839  20.194  1.00  0.00     0.185 A 
HETATM   19  N4  UNL     1     -12.979  63.585  20.328  1.00  0.00    -0.221 N 
HETATM   20  O4  UNL     1     -11.999  62.750  20.493  1.00  0.00    -0.153 OA
ATOM     21  H4  UNL     1     -13.965  63.327  20.305  1.00  0.00     0.198 HD
HETATM   22  N5  UNL     1     -10.879  63.397  20.472  1.00  0.00    -0.222 N 
HETATM   23  C8  UNL     1     -11.123  64.704  20.289  1.00  0.00     0.168 A 
ATOM     24  H5  UNL     1      -9.954  62.979  20.578  1.00  0.00     0.198 HD
BRANCH  23  25
HETATM   25  N6  UNL     1     -10.287  65.656  20.213  1.00  0.00    -0.381 N 
ATOM     26  H62 UNL     1      -9.303  65.653  20.483  1.00  0.00     0.157 HD
ATOM     27  H61 UNL     1     -10.488  66.591  19.860  1.00  0.00     0.157 HD
ENDBRANCH  23  25
ENDBRANCH   9  18
TORSDOF 5
ENDMDL
MODEL 5
REMARK VINA RESULT: -7.333976038      1.779      2.986
REMARK  5 active torsions:
REMARK  status: ('A' for Active; 'I' for Inactive)
REMARK    1  A    between atoms: O1_2  and  C2_3 
REMARK    2  A    between atoms: C2_3  and  C3_5 
REMARK    3  A    between atoms: N3_13  and  C7_14 
REMARK    4  A    between atoms: C8_20  and  N6_21 
REMARK    5  A    between atoms: C9_24  and  N7_25 
ROOT
HETATM    1  C3  UNL     1     -14.429  67.164  20.271  1.00  0.00     0.121 A 
HETATM    2  C4  UNL     1     -14.005  66.295  21.239  1.00  0.00     0.138 A 
HETATM    3  C5  UNL     1     -13.156  65.189  20.869  1.00  0.00     0.119 C 
HETATM    4  N1  UNL     1     -12.466  64.290  20.585  1.00  0.00    -0.190 NA
HETATM    5  N2  UNL     1     -14.396  66.503  22.509  1.00  0.00    -0.298 N 
ATOM      6  H2  UNL     1     -14.089  65.865  23.244  1.00  0.00     0.171 HD
HETATM    7  C6  UNL     1     -15.182  67.536  22.813  1.00  0.00     0.335 A 
HETATM    8  O3  UNL     1     -15.508  67.667  24.030  1.00  0.00    -0.246 OA
HETATM    9  N3  UNL     1     -15.633  68.425  21.913  1.00  0.00    -0.229 N 
HETATM   10  C9  UNL     1     -15.242  68.223  20.625  1.00  0.00     0.131 A 
ENDROOT
BRANCH   1  11
HETATM   11  C2  UNL     1     -14.034  66.988  18.868  1.00  0.00     0.299 C 
HETATM   12  O2  UNL     1     -14.877  66.449  18.105  1.00  0.00    -0.259 OA
BRANCH  11  13
HETATM   13  O1  UNL     1     -12.828  67.370  18.353  1.00  0.00    -0.322 OA
HETATM   14  C1  UNL     1     -12.555  68.723  18.015  1.00  0.00     0.213 C 
ENDBRANCH  11  13
ENDBRANCH   1  11
BRANCH  10  15
HETATM   15  N7  UNL     1     -15.655  69.051  19.748  1.00  0.00    -0.384 N 
ATOM     16  H72 UNL     1     -15.363  70.024  19.846  1.00  0.00     0.157 HD
ATOM     17  H71 UNL     1     -16.254  68.747  18.981  1.00  0.00     0.157 HD
ENDBRANCH  10  15
BRANCH   9  18
HETATM   18  C7  UNL     1     -16.470  69.511  22.292  1.00  0.00     0.185 A 
HETATM   19  N4  UNL     1     -17.446  70.103  21.580  1.00  0.00    -0.221 N 
HETATM   20  O4  UNL     1     -17.989  71.063  22.264  1.00  0.00    -0.153 OA
ATOM     21  H4  UNL     1     -17.721  69.835  20.635  1.00  0.00     0.198 HD
HETATM   22  N5  UNL     1     -17.413  71.141  23.420  1.00  0.00    -0.222 N 
HETATM   23  C8  UNL     1     -16.457  70.203  23.505  1.00  0.00     0.168 A 
ATOM     24  H5  UNL     1     -17.650  71.810  24.153  1.00  0.00     0.198 HD
BRANCH  23  25
HETATM   25  N6  UNL     1     -15.677  69.963  24.478  1.00  0.00    -0.381 N 
ATOM     26  H62 UNL     1     -15.160  69.106  24.675  1.00  0.00     0.157 HD
ATOM     27  H61 UNL     1     -15.449  70.618  25.226  1.00  0.00     0.157 HD
ENDBRANCH  23  25
ENDBRANCH   9  18
TORSDOF 5
ENDMDL
