MODEL 1
REMARK VINA RESULT: -8.125817525      0.000      0.000
REMARK  4 active torsions:
REMARK  status: ('A' for Active; 'I' for Inactive)
REMARK    1  A    between atoms: O1_2  and  C2_3 
REMARK    2  A    between atoms: C7_14  and  N4_15 
REMARK    3  A    between atoms: N4_15  and  N5_16 
REMARK    4  A    between atoms: N4_15  and  O3_19 
ROOT
HETATM    1  C2  UNL     1     -13.777  66.570  21.090  1.00  0.00     0.373 C 
HETATM    2  N1  UNL     1     -12.606  67.190  20.513  1.00  0.00    -0.295 N 
ATOM      3  H1  UNL     1     -11.748  67.425  21.014  1.00  0.00     0.167 HD
HETATM    4  C3  UNL     1     -12.850  67.416  19.131  1.00  0.00     0.280 C 
HETATM    5  O2  UNL     1     -12.107  67.833  18.222  1.00  0.00    -0.268 OA
HETATM    6  C4  UNL     1     -14.283  67.033  18.936  1.00  0.00     0.294 C 
HETATM    7  C5  UNL     1     -14.586  66.617  17.541  1.00  0.00     0.083 C 
HETATM    8  N2  UNL     1     -15.065  68.190  19.369  1.00  0.00    -0.285 N 
ATOM      9  H2  UNL     1     -15.406  68.859  18.678  1.00  0.00     0.184 HD
HETATM   10  N3  UNL     1     -15.347  68.385  20.725  1.00  0.00    -0.247 N 
HETATM   11  C6  UNL     1     -16.134  69.213  21.430  1.00  0.00     0.164 A 
HETATM   12  C7  UNL     1     -16.005  68.942  22.777  1.00  0.00     0.147 A 
HETATM   13  N6  UNL     1     -15.123  67.934  22.854  1.00  0.00    -0.325 N 
ATOM     14  H6  UNL     1     -14.808  67.497  23.721  1.00  0.00     0.168 HD
HETATM   15  C8  UNL     1     -14.717  67.587  21.625  1.00  0.00     0.191 A 
HETATM   16  N7  UNL     1     -14.436  65.989  19.909  1.00  0.00     0.021 N 
ATOM     17  H71 UNL     1     -15.396  65.677  20.059  1.00  0.00     0.287 HD
ATOM     18  H72 UNL     1     -14.082  65.077  19.623  1.00  0.00     0.287 HD
ENDROOT
BRANCH  12  19
HETATM   19  N4  UNL     1     -16.673  69.600  23.875  1.00  0.00    -0.059 NA
BRANCH  19  20
HETATM   20  N5  UNL     1     -17.089  70.879  23.456  1.00  0.00    -0.335 NA
ATOM     21  H52 UNL     1     -17.431  70.836  22.496  1.00  0.00     0.173 HD
ATOM     22  H51 UNL     1     -17.800  71.224  24.101  1.00  0.00     0.173 HD
ENDBRANCH  19  20
BRANCH  19  23
HETATM   23  O3  UNL     1     -15.889  69.707  24.947  1.00  0.00    -0.288 OA
ATOM     24  H3  UNL     1     -16.270  69.292  25.712  1.00  0.00     0.239 HD
ENDBRANCH  19  23
ENDBRANCH  12  19
BRANCH   1  25
HETATM   25  O1  UNL     1     -13.491  65.546  21.950  1.00  0.00    -0.337 OA
HETATM   26  C1  UNL     1     -13.013  64.399  21.376  1.00  0.00     0.207 C 
ENDBRANCH   1  25
TORSDOF 4
ENDMDL
MODEL 2
REMARK VINA RESULT: -7.452131605      1.459      2.792
REMARK  4 active torsions:
REMARK  status: ('A' for Active; 'I' for Inactive)
REMARK    1  A    between atoms: O1_2  and  C2_3 
REMARK    2  A    between atoms: C7_14  and  N4_15 
REMARK    3  A    between atoms: N4_15  and  N5_16 
REMARK    4  A    between atoms: N4_15  and  O3_19 
ROOT
HETATM    1  C2  UNL     1     -14.190  67.656  19.847  1.00  0.00     0.373 C 
HETATM    2  N1  UNL     1     -14.823  66.513  19.228  1.00  0.00    -0.295 N 
ATOM      3  H1  UNL     1     -15.646  66.540  18.627  1.00  0.00     0.167 HD
HETATM    4  C3  UNL     1     -14.103  65.343  19.600  1.00  0.00     0.280 C 
HETATM    5  O2  UNL     1     -14.218  64.157  19.237  1.00  0.00    -0.268 OA
HETATM    6  C4  UNL     1     -13.091  65.825  20.591  1.00  0.00     0.294 C 
HETATM    7  C5  UNL     1     -11.887  64.955  20.658  1.00  0.00     0.083 C 
HETATM    8  N2  UNL     1     -13.799  65.919  21.866  1.00  0.00    -0.285 N 
ATOM      9  H2  UNL     1     -13.733  65.157  22.541  1.00  0.00     0.184 HD
HETATM   10  N3  UNL     1     -14.567  67.050  22.167  1.00  0.00    -0.247 N 
HETATM   11  C6  UNL     1     -15.193  67.520  23.257  1.00  0.00     0.164 A 
HETATM   12  C7  UNL     1     -15.811  68.717  22.959  1.00  0.00     0.147 A 
HETATM   13  N6  UNL     1     -15.536  68.946  21.666  1.00  0.00    -0.325 N 
ATOM     14  H6  UNL     1     -15.851  69.758  21.135  1.00  0.00     0.168 HD
HETATM   15  C8  UNL     1     -14.787  67.949  21.175  1.00  0.00     0.191 A 
HETATM   16  N7  UNL     1     -12.832  67.154  20.114  1.00  0.00     0.021 N 
ATOM     17  H71 UNL     1     -12.272  67.735  20.738  1.00  0.00     0.287 HD
ATOM     18  H72 UNL     1     -12.188  67.212  19.325  1.00  0.00     0.287 HD
ENDROOT
BRANCH  12  19
HETATM   19  N4  UNL     1     -16.588  69.551  23.844  1.00  0.00    -0.059 NA
BRANCH  19  20
HETATM   20  N5  UNL     1     -16.933  70.738  23.168  1.00  0.00    -0.335 NA
ATOM     21  H52 UNL     1     -17.167  70.530  22.198  1.00  0.00     0.173 HD
ATOM     22  H51 UNL     1     -17.705  71.187  23.661  1.00  0.00     0.173 HD
ENDBRANCH  19  20
BRANCH  19  23
HETATM   23  O3  UNL     1     -15.929  69.843  24.966  1.00  0.00    -0.288 OA
ATOM     24  H3  UNL     1     -16.483  69.770  25.735  1.00  0.00     0.239 HD
ENDBRANCH  19  23
ENDBRANCH  12  19
BRANCH   1  25
HETATM   25  O1  UNL     1     -14.076  68.737  19.018  1.00  0.00    -0.337 OA
HETATM   26  C1  UNL     1     -12.926  68.806  18.279  1.00  0.00     0.207 C 
ENDBRANCH   1  25
TORSDOF 4
ENDMDL
MODEL 3
REMARK VINA RESULT: -7.108311679      2.640      6.088
REMARK  4 active torsions:
REMARK  status: ('A' for Active; 'I' for Inactive)
REMARK    1  A    between atoms: O1_2  and  C2_3 
REMARK    2  A    between atoms: C7_14  and  N4_15 
REMARK    3  A    between atoms: N4_15  and  N5_16 
REMARK    4  A    between atoms: N4_15  and  O3_19 
ROOT
HETATM    1  C2  UNL     1     -13.631  66.806  19.650  1.00  0.00     0.373 C 
HETATM    2  N1  UNL     1     -13.791  67.346  20.981  1.00  0.00    -0.295 N 
ATOM      3  H1  UNL     1     -13.665  68.322  21.248  1.00  0.00     0.167 HD
HETATM    4  C3  UNL     1     -14.154  66.285  21.857  1.00  0.00     0.280 C 
HETATM    5  O2  UNL     1     -14.485  66.287  23.058  1.00  0.00    -0.268 OA
HETATM    6  C4  UNL     1     -14.062  65.054  21.012  1.00  0.00     0.294 C 
HETATM    7  C5  UNL     1     -14.937  63.953  21.497  1.00  0.00     0.083 C 
HETATM    8  N2  UNL     1     -12.646  64.691  20.993  1.00  0.00    -0.285 N 
ATOM      9  H2  UNL     1     -12.296  63.978  21.633  1.00  0.00     0.184 HD
HETATM   10  N3  UNL     1     -11.769  65.315  20.100  1.00  0.00    -0.247 N 
HETATM   11  C6  UNL     1     -10.496  65.125  19.717  1.00  0.00     0.164 A 
HETATM   12  C7  UNL     1     -10.146  66.074  18.779  1.00  0.00     0.147 A 
HETATM   13  N6  UNL     1     -11.241  66.832  18.614  1.00  0.00    -0.325 N 
ATOM     14  H6  UNL     1     -11.311  67.629  17.982  1.00  0.00     0.168 HD
HETATM   15  C8  UNL     1     -12.228  66.386  19.404  1.00  0.00     0.191 A 
HETATM   16  N7  UNL     1     -14.420  65.566  19.719  1.00  0.00     0.021 N 
ATOM     17  H71 UNL     1     -14.276  64.918  18.944  1.00  0.00     0.287 HD
ATOM     18  H72 UNL     1     -15.421  65.682  19.562  1.00  0.00     0.287 HD
ENDROOT
BRANCH  12  19
HETATM   19  N4  UNL     1      -8.874  66.226  18.113  1.00  0.00    -0.059 NA
BRANCH  19  20
HETATM   20  N5  UNL     1      -8.412  67.544  18.306  1.00  0.00    -0.335 NA
ATOM     21  H52 UNL     1      -9.025  68.034  18.958  1.00  0.00     0.173 HD
ATOM     22  H51 UNL     1      -7.448  67.511  18.637  1.00  0.00     0.173 HD
ENDBRANCH  19  20
BRANCH  19  23
HETATM   23  O3  UNL     1      -8.956  65.961  16.809  1.00  0.00    -0.288 OA
ATOM     24  H3  UNL     1      -9.527  65.223  16.630  1.00  0.00     0.239 HD
ENDBRANCH  19  23
ENDBRANCH  12  19
BRANCH   1  25
HETATM   25  O1  UNL     1     -14.175  67.589  18.670  1.00  0.00    -0.337 OA
HETATM   26  C1  UNL     1     -14.187  68.935  18.918  1.00  0.00     0.207 C 
ENDBRANCH   1  25
TORSDOF 4
ENDMDL
MODEL 4
REMARK VINA RESULT: -7.016459649      2.931      6.491
REMARK  4 active torsions:
REMARK  status: ('A' for Active; 'I' for Inactive)
REMARK    1  A    between atoms: O1_2  and  C2_3 
REMARK    2  A    between atoms: C7_14  and  N4_15 
REMARK    3  A    between atoms: N4_15  and  N5_16 
REMARK    4  A    between atoms: N4_15  and  O3_19 
ROOT
HETATM    1  C2  UNL     1     -13.418  66.751  19.193  1.00  0.00     0.373 C 
HETATM    2  N1  UNL     1     -13.329  67.254  20.545  1.00  0.00    -0.295 N 
ATOM      3  H1  UNL     1     -13.054  68.200  20.812  1.00  0.00     0.167 HD
HETATM    4  C3  UNL     1     -13.689  66.209  21.440  1.00  0.00     0.280 C 
HETATM    5  O2  UNL     1     -13.848  66.203  22.676  1.00  0.00    -0.268 OA
HETATM    6  C4  UNL     1     -13.859  65.008  20.565  1.00  0.00     0.294 C 
HETATM    7  C5  UNL     1     -14.782  63.996  21.145  1.00  0.00     0.083 C 
HETATM    8  N2  UNL     1     -12.512  64.489  20.337  1.00  0.00    -0.285 N 
ATOM      9  H2  UNL     1     -12.162  63.717  20.906  1.00  0.00     0.184 HD
HETATM   10  N3  UNL     1     -11.699  65.044  19.343  1.00  0.00    -0.247 N 
HETATM   11  C6  UNL     1     -10.523  64.726  18.780  1.00  0.00     0.164 A 
HETATM   12  C7  UNL     1     -10.197  65.664  17.822  1.00  0.00     0.147 A 
HETATM   13  N6  UNL     1     -11.208  66.546  17.830  1.00  0.00    -0.325 N 
ATOM     14  H6  UNL     1     -11.272  67.369  17.231  1.00  0.00     0.168 HD
HETATM   15  C8  UNL     1     -12.122  66.185  18.742  1.00  0.00     0.191 A 
HETATM   16  N7  UNL     1     -14.330  65.605  19.347  1.00  0.00     0.021 N 
ATOM     17  H71 UNL     1     -14.371  64.975  18.545  1.00  0.00     0.287 HD
ATOM     18  H72 UNL     1     -15.322  65.839  19.336  1.00  0.00     0.287 HD
ENDROOT
BRANCH  12  19
HETATM   19  N4  UNL     1      -9.021  65.696  16.986  1.00  0.00    -0.059 NA
BRANCH  19  20
HETATM   20  N5  UNL     1      -9.421  65.720  15.635  1.00  0.00    -0.335 NA
ATOM     21  H52 UNL     1     -10.388  65.405  15.554  1.00  0.00     0.173 HD
ATOM     22  H51 UNL     1      -9.293  66.663  15.269  1.00  0.00     0.173 HD
ENDBRANCH  19  20
BRANCH  19  23
HETATM   23  O3  UNL     1      -8.222  64.651  17.204  1.00  0.00    -0.288 OA
ATOM     24  H3  UNL     1      -8.549  64.089  17.896  1.00  0.00     0.239 HD
ENDBRANCH  19  23
ENDBRANCH  12  19
BRANCH   1  25
HETATM   25  O1  UNL     1     -13.998  67.626  18.318  1.00  0.00    -0.337 OA
HETATM   26  C1  UNL     1     -13.879  68.953  18.632  1.00  0.00     0.207 C 
ENDBRANCH   1  25
TORSDOF 4
ENDMDL
MODEL 5
REMARK VINA RESULT: -6.888100467      3.494      6.495
REMARK  4 active torsions:
REMARK  status: ('A' for Active; 'I' for Inactive)
REMARK    1  A    between atoms: O1_2  and  C2_3 
REMARK    2  A    between atoms: C7_14  and  N4_15 
REMARK    3  A    between atoms: N4_15  and  N5_16 
REMARK    4  A    between atoms: N4_15  and  O3_19 
ROOT
HETATM    1  C2  UNL     1     -12.036  65.360  20.026  1.00  0.00     0.373 C 
HETATM    2  N1  UNL     1     -13.287  64.639  19.953  1.00  0.00    -0.295 N 
ATOM      3  H1  UNL     1     -13.392  63.625  19.979  1.00  0.00     0.167 HD
HETATM    4  C3  UNL     1     -14.345  65.583  19.840  1.00  0.00     0.280 C 
HETATM    5  O2  UNL     1     -15.582  65.436  19.844  1.00  0.00    -0.268 OA
HETATM    6  C4  UNL     1     -13.655  66.904  19.703  1.00  0.00     0.294 C 
HETATM    7  C5  UNL     1     -14.493  68.043  20.163  1.00  0.00     0.083 C 
HETATM    8  N2  UNL     1     -13.274  67.008  18.295  1.00  0.00    -0.285 N 
ATOM      9  H2  UNL     1     -13.865  67.527  17.646  1.00  0.00     0.184 HD
HETATM   10  N3  UNL     1     -12.103  66.398  17.833  1.00  0.00    -0.247 N 
HETATM   11  C6  UNL     1     -11.397  66.421  16.691  1.00  0.00     0.164 A 
HETATM   12  C7  UNL     1     -10.296  65.598  16.809  1.00  0.00     0.147 A 
HETATM   13  N6  UNL     1     -10.365  65.086  18.047  1.00  0.00    -0.325 N 
ATOM     14  H6  UNL     1      -9.692  64.434  18.449  1.00  0.00     0.168 HD
HETATM   15  C8  UNL     1     -11.449  65.559  18.677  1.00  0.00     0.191 A 
HETATM   16  N7  UNL     1     -12.469  66.691  20.482  1.00  0.00     0.021 N 
ATOM     17  H71 UNL     1     -11.764  67.424  20.405  1.00  0.00     0.287 HD
ATOM     18  H72 UNL     1     -12.592  66.783  21.490  1.00  0.00     0.287 HD
ENDROOT
BRANCH  12  19
HETATM   19  N4  UNL     1      -9.282  65.338  15.815  1.00  0.00    -0.059 NA
BRANCH  19  20
HETATM   20  N5  UNL     1      -8.120  66.064  16.146  1.00  0.00    -0.335 NA
ATOM     21  H52 UNL     1      -7.812  65.816  17.087  1.00  0.00     0.173 HD
ATOM     22  H51 UNL     1      -7.402  65.877  15.447  1.00  0.00     0.173 HD
ENDBRANCH  19  20
BRANCH  19  23
HETATM   23  O3  UNL     1      -9.686  65.667  14.588  1.00  0.00    -0.288 OA
ATOM     24  H3  UNL     1     -10.617  65.520  14.467  1.00  0.00     0.239 HD
ENDBRANCH  19  23
ENDBRANCH  12  19
BRANCH   1  25
HETATM   25  O1  UNL     1     -11.169  64.864  20.960  1.00  0.00    -0.337 OA
HETATM   26  C1  UNL     1     -11.368  63.561  21.329  1.00  0.00     0.207 C 
ENDBRANCH   1  25
TORSDOF 4
ENDMDL
