MODEL 1
REMARK VINA RESULT: -8.183000315      0.000      0.000
REMARK  7 active torsions:
REMARK  status: ('A' for Active; 'I' for Inactive)
REMARK    1  A    between atoms: N1_1  and  C1_5 
REMARK    2  A    between atoms: C1_5  and  C2_6 
REMARK    3  A    between atoms: C2_6  and  N2_7 
REMARK    4  A    between atoms: C15_21  and  C16_22 
REMARK    5  A    between atoms: C16_22  and  O1_23 
REMARK    6  A    between atoms: C16_22  and  C17_25 
REMARK    7  A    between atoms: C17_25  and  C18_27 
ROOT
HETATM    1  N2  UNL     1       2.199  32.568  25.510  1.00  0.00    -0.283 NA
HETATM    2  C3  UNL     1       3.180  31.727  24.903  1.00  0.00     0.095 C 
HETATM    3  C4  UNL     1       2.636  30.481  24.240  1.00  0.00     0.015 C 
HETATM    4  C5  UNL     1       3.600  29.996  23.144  1.00  0.00     0.001 C 
HETATM    5  C6  UNL     1       4.729  29.299  23.831  1.00  0.00     0.000 C 
HETATM    6  C7  UNL     1       6.080  29.952  23.617  1.00  0.00     0.000 C 
HETATM    7  C8  UNL     1       6.810  30.196  24.915  1.00  0.00     0.000 C 
HETATM    8  C9  UNL     1       7.717  31.379  24.906  1.00  0.00     0.000 C 
HETATM    9  C10 UNL     1       7.099  32.633  25.502  1.00  0.00     0.002 C 
HETATM   10  C11 UNL     1       6.903  33.624  24.415  1.00  0.00     0.024 C 
HETATM   11  C12 UNL     1       5.738  34.569  24.592  1.00  0.00     0.105 C 
HETATM   12 CL1  UNL     1       6.452  36.232  24.536  1.00  0.00    -0.121 Cl
HETATM   13  C13 UNL     1       5.055  34.455  25.877  1.00  0.00    -0.005 C 
HETATM   14  C14 UNL     1       3.832  34.226  26.225  1.00  0.00     0.020 C 
HETATM   15  C15 UNL     1       2.590  33.980  25.510  1.00  0.00     0.024 C 
ENDROOT
BRANCH  15  16
HETATM   16  C16 UNL     1       2.397  34.646  24.191  1.00  0.00     0.232 C 
BRANCH  16  17
HETATM   17  O1  UNL     1       2.890  35.966  24.306  1.00  0.00    -0.382 OA
ATOM     18  H1  UNL     1       3.303  36.190  23.480  1.00  0.00     0.211 HD
ENDBRANCH  16  17
BRANCH  16  19
HETATM   19  C17 UNL     1       0.954  34.831  23.874  1.00  0.00     0.165 C 
HETATM   20  O2  UNL     1       0.148  34.835  24.788  1.00  0.00    -0.294 OA
BRANCH  19  21
HETATM   21  C18 UNL     1       0.431  35.015  22.519  1.00  0.00     0.058 C 
HETATM   22  C19 UNL     1      -0.027  36.433  22.245  1.00  0.00     0.012 C 
HETATM   23  C20 UNL     1      -0.682  36.258  20.891  1.00  0.00     0.001 C 
HETATM   24  C21 UNL     1      -1.494  35.000  21.118  1.00  0.00     0.001 C 
HETATM   25  C22 UNL     1      -0.845  34.252  22.265  1.00  0.00     0.012 C 
ENDBRANCH  19  21
ENDBRANCH  16  19
ENDBRANCH  15  16
BRANCH   1  26
HETATM   26  C2  UNL     1       1.824  32.211  26.841  1.00  0.00     0.122 C 
BRANCH  26  27
HETATM   27  C1  UNL     1       0.458  31.807  27.154  1.00  0.00     0.244 C 
BRANCH  27  28
HETATM   28  N1  UNL     1      -0.468  32.112  26.080  1.00  0.00    -0.078 N 
ATOM     29  H13 UNL     1      -0.744  33.094  26.099  1.00  0.00     0.274 HD
ATOM     30  H12 UNL     1       0.000  32.092  25.174  1.00  0.00     0.274 HD
ATOM     31  H11 UNL     1      -1.285  31.500  26.086  1.00  0.00     0.274 HD
ENDBRANCH  27  28
ENDBRANCH  26  27
ENDBRANCH   1  26
TORSDOF 7
ENDMDL
MODEL 2
REMARK VINA RESULT: -7.996072337      3.388      7.544
REMARK  7 active torsions:
REMARK  status: ('A' for Active; 'I' for Inactive)
REMARK    1  A    between atoms: N1_1  and  C1_5 
REMARK    2  A    between atoms: C1_5  and  C2_6 
REMARK    3  A    between atoms: C2_6  and  N2_7 
REMARK    4  A    between atoms: C15_21  and  C16_22 
REMARK    5  A    between atoms: C16_22  and  O1_23 
REMARK    6  A    between atoms: C16_22  and  C17_25 
REMARK    7  A    between atoms: C17_25  and  C18_27 
ROOT
HETATM    1  N2  UNL     1       6.413  33.926  24.981  1.00  0.00    -0.283 NA
HETATM    2  C3  UNL     1       5.036  34.195  24.721  1.00  0.00     0.095 C 
HETATM    3  C4  UNL     1       4.714  35.635  24.393  1.00  0.00     0.015 C 
HETATM    4  C5  UNL     1       3.420  35.717  23.564  1.00  0.00     0.001 C 
HETATM    5  C6  UNL     1       2.281  35.540  24.514  1.00  0.00     0.000 C 
HETATM    6  C7  UNL     1       1.435  34.313  24.240  1.00  0.00     0.000 C 
HETATM    7  C8  UNL     1       1.237  33.467  25.475  1.00  0.00     0.000 C 
HETATM    8  C9  UNL     1       1.074  32.009  25.210  1.00  0.00     0.000 C 
HETATM    9  C10 UNL     1       2.355  31.206  25.374  1.00  0.00     0.002 C 
HETATM   10  C11 UNL     1       2.776  30.713  24.039  1.00  0.00     0.024 C 
HETATM   11  C12 UNL     1       4.264  30.541  23.843  1.00  0.00     0.105 C 
HETATM   12 CL1  UNL     1       4.492  28.805  23.381  1.00  0.00    -0.121 Cl
HETATM   13  C13 UNL     1       5.063  30.760  25.044  1.00  0.00    -0.005 C 
HETATM   14  C14 UNL     1       6.045  31.546  25.337  1.00  0.00     0.020 C 
HETATM   15  C15 UNL     1       6.798  32.560  24.617  1.00  0.00     0.024 C 
ENDROOT
BRANCH  15  16
HETATM   16  C16 UNL     1       7.001  32.374  23.152  1.00  0.00     0.232 C 
BRANCH  16  17
HETATM   17  O1  UNL     1       5.737  32.106  22.579  1.00  0.00    -0.382 OA
ATOM     18  H1  UNL     1       5.119  32.729  22.944  1.00  0.00     0.211 HD
ENDBRANCH  16  17
BRANCH  16  19
HETATM   19  C17 UNL     1       7.793  31.148  22.857  1.00  0.00     0.165 C 
HETATM   20  O2  UNL     1       7.288  30.273  22.176  1.00  0.00    -0.294 OA
BRANCH  19  21
HETATM   21  C18 UNL     1       9.158  30.921  23.334  1.00  0.00     0.058 C 
HETATM   22  C19 UNL     1      10.057  32.128  23.163  1.00  0.00     0.012 C 
HETATM   23  C20 UNL     1      11.399  31.533  23.538  1.00  0.00     0.001 C 
HETATM   24  C21 UNL     1      11.365  30.228  22.771  1.00  0.00     0.001 C 
HETATM   25  C22 UNL     1       9.908  29.893  22.524  1.00  0.00     0.012 C 
ENDBRANCH  19  21
ENDBRANCH  16  19
ENDBRANCH  15  16
BRANCH   1  26
HETATM   26  C2  UNL     1       6.843  34.166  26.321  1.00  0.00     0.122 C 
BRANCH  26  27
HETATM   27  C1  UNL     1       8.021  34.980  26.598  1.00  0.00     0.244 C 
BRANCH  27  28
HETATM   28  N1  UNL     1       7.844  36.362  26.193  1.00  0.00    -0.078 N 
ATOM     29  H13 UNL     1       8.109  36.496  25.217  1.00  0.00     0.274 HD
ATOM     30  H12 UNL     1       6.855  36.603  26.129  1.00  0.00     0.274 HD
ATOM     31  H11 UNL     1       8.343  37.012  26.802  1.00  0.00     0.274 HD
ENDBRANCH  27  28
ENDBRANCH  26  27
ENDBRANCH   1  26
TORSDOF 7
ENDMDL
MODEL 3
REMARK VINA RESULT: -7.958952565      2.936      4.308
REMARK  7 active torsions:
REMARK  status: ('A' for Active; 'I' for Inactive)
REMARK    1  A    between atoms: N1_1  and  C1_5 
REMARK    2  A    between atoms: C1_5  and  C2_6 
REMARK    3  A    between atoms: C2_6  and  N2_7 
REMARK    4  A    between atoms: C15_21  and  C16_22 
REMARK    5  A    between atoms: C16_22  and  O1_23 
REMARK    6  A    between atoms: C16_22  and  C17_25 
REMARK    7  A    between atoms: C17_25  and  C18_27 
ROOT
HETATM    1  N2  UNL     1       4.978  34.841  26.478  1.00  0.00    -0.283 NA
HETATM    2  C3  UNL     1       4.319  33.763  25.814  1.00  0.00     0.095 C 
HETATM    3  C4  UNL     1       2.816  33.896  25.711  1.00  0.00     0.015 C 
HETATM    4  C5  UNL     1       2.288  33.080  24.518  1.00  0.00     0.001 C 
HETATM    5  C6  UNL     1       2.266  31.648  24.944  1.00  0.00     0.000 C 
HETATM    6  C7  UNL     1       3.177  30.749  24.133  1.00  0.00     0.000 C 
HETATM    7  C8  UNL     1       4.082  29.914  25.006  1.00  0.00     0.000 C 
HETATM    8  C9  UNL     1       5.399  29.577  24.395  1.00  0.00     0.000 C 
HETATM    9  C10 UNL     1       6.531  30.497  24.822  1.00  0.00     0.002 C 
HETATM   10  C11 UNL     1       6.954  31.300  23.649  1.00  0.00     0.024 C 
HETATM   11  C12 UNL     1       7.495  32.677  23.956  1.00  0.00     0.105 C 
HETATM   12 CL1  UNL     1       9.159  32.712  23.244  1.00  0.00    -0.121 Cl
HETATM   13  C13 UNL     1       7.647  32.963  25.379  1.00  0.00    -0.005 C 
HETATM   14  C14 UNL     1       7.196  33.888  26.161  1.00  0.00     0.020 C 
HETATM   15  C15 UNL     1       6.343  35.053  25.988  1.00  0.00     0.024 C 
ENDROOT
BRANCH  15  16
HETATM   16  C16 UNL     1       6.398  35.774  24.685  1.00  0.00     0.232 C 
BRANCH  16  17
HETATM   17  O1  UNL     1       7.744  36.142  24.459  1.00  0.00    -0.382 OA
ATOM     18  H1  UNL     1       8.013  35.750  23.637  1.00  0.00     0.211 HD
ENDBRANCH  16  17
BRANCH  16  19
HETATM   19  C17 UNL     1       5.678  37.076  24.746  1.00  0.00     0.165 C 
HETATM   20  O2  UNL     1       6.107  37.949  25.479  1.00  0.00    -0.294 OA
BRANCH  19  21
HETATM   21  C18 UNL     1       4.475  37.383  23.971  1.00  0.00     0.058 C 
HETATM   22  C19 UNL     1       3.307  37.819  24.831  1.00  0.00     0.012 C 
HETATM   23  C20 UNL     1       2.199  37.860  23.798  1.00  0.00     0.001 C 
HETATM   24  C21 UNL     1       2.435  36.556  23.065  1.00  0.00     0.001 C 
HETATM   25  C22 UNL     1       3.886  36.177  23.283  1.00  0.00     0.012 C 
ENDBRANCH  19  21
ENDBRANCH  16  19
ENDBRANCH  15  16
BRANCH   1  26
HETATM   26  C2  UNL     1       5.027  34.746  27.902  1.00  0.00     0.122 C 
BRANCH  26  27
HETATM   27  C1  UNL     1       5.131  35.941  28.731  1.00  0.00     0.244 C 
BRANCH  27  28
HETATM   28  N1  UNL     1       4.488  37.091  28.125  1.00  0.00    -0.078 N 
ATOM     29  H13 UNL     1       5.139  37.608  27.535  1.00  0.00     0.274 HD
ATOM     30  H12 UNL     1       3.815  36.804  27.415  1.00  0.00     0.274 HD
ATOM     31  H11 UNL     1       4.054  37.704  28.817  1.00  0.00     0.274 HD
ENDBRANCH  27  28
ENDBRANCH  26  27
ENDBRANCH   1  26
TORSDOF 7
ENDMDL
MODEL 4
REMARK VINA RESULT: -7.757339979      3.298      4.805
REMARK  7 active torsions:
REMARK  status: ('A' for Active; 'I' for Inactive)
REMARK    1  A    between atoms: N1_1  and  C1_5 
REMARK    2  A    between atoms: C1_5  and  C2_6 
REMARK    3  A    between atoms: C2_6  and  N2_7 
REMARK    4  A    between atoms: C15_21  and  C16_22 
REMARK    5  A    between atoms: C16_22  and  O1_23 
REMARK    6  A    between atoms: C16_22  and  C17_25 
REMARK    7  A    between atoms: C17_25  and  C18_27 
ROOT
HETATM    1  N2  UNL     1       5.266  35.289  26.551  1.00  0.00    -0.283 NA
HETATM    2  C3  UNL     1       4.600  34.237  25.854  1.00  0.00     0.095 C 
HETATM    3  C4  UNL     1       3.114  34.435  25.660  1.00  0.00     0.015 C 
HETATM    4  C5  UNL     1       2.623  33.634  24.441  1.00  0.00     0.001 C 
HETATM    5  C6  UNL     1       2.512  32.208  24.871  1.00  0.00     0.000 C 
HETATM    6  C7  UNL     1       3.429  31.263  24.121  1.00  0.00     0.000 C 
HETATM    7  C8  UNL     1       4.242  30.396  25.051  1.00  0.00     0.000 C 
HETATM    8  C9  UNL     1       5.577  29.996  24.522  1.00  0.00     0.000 C 
HETATM    9  C10 UNL     1       6.721  30.870  25.012  1.00  0.00     0.002 C 
HETATM   10  C11 UNL     1       7.249  31.645  23.862  1.00  0.00     0.024 C 
HETATM   11  C12 UNL     1       7.831  32.998  24.196  1.00  0.00     0.105 C 
HETATM   12 CL1  UNL     1       9.535  32.955  23.585  1.00  0.00    -0.121 Cl
HETATM   13  C13 UNL     1       7.910  33.288  25.624  1.00  0.00    -0.005 C 
HETATM   14  C14 UNL     1       7.454  34.238  26.373  1.00  0.00     0.020 C 
HETATM   15  C15 UNL     1       6.665  35.437  26.144  1.00  0.00     0.024 C 
ENDROOT
BRANCH  15  16
HETATM   16  C16 UNL     1       6.830  36.146  24.843  1.00  0.00     0.232 C 
BRANCH  16  17
HETATM   17  O1  UNL     1       8.208  36.415  24.678  1.00  0.00    -0.382 OA
ATOM     18  H1  UNL     1       8.562  36.633  25.532  1.00  0.00     0.211 HD
ENDBRANCH  16  17
BRANCH  16  19
HETATM   19  C17 UNL     1       6.204  37.496  24.869  1.00  0.00     0.165 C 
HETATM   20  O2  UNL     1       6.557  38.290  25.722  1.00  0.00    -0.294 OA
BRANCH  19  21
HETATM   21  C18 UNL     1       5.181  37.942  23.922  1.00  0.00     0.058 C 
HETATM   22  C19 UNL     1       5.220  39.434  23.661  1.00  0.00     0.012 C 
HETATM   23  C20 UNL     1       3.959  39.607  22.839  1.00  0.00     0.001 C 
HETATM   24  C21 UNL     1       2.972  38.786  23.641  1.00  0.00     0.001 C 
HETATM   25  C22 UNL     1       3.775  37.784  24.446  1.00  0.00     0.012 C 
ENDBRANCH  19  21
ENDBRANCH  16  19
ENDBRANCH  15  16
BRANCH   1  26
HETATM   26  C2  UNL     1       5.225  35.203  27.976  1.00  0.00     0.122 C 
BRANCH  26  27
HETATM   27  C1  UNL     1       4.826  36.347  28.787  1.00  0.00     0.244 C 
BRANCH  27  28
HETATM   28  N1  UNL     1       4.376  37.466  27.981  1.00  0.00    -0.078 N 
ATOM     29  H13 UNL     1       4.178  38.281  28.560  1.00  0.00     0.274 HD
ATOM     30  H12 UNL     1       5.138  37.845  27.419  1.00  0.00     0.274 HD
ATOM     31  H11 UNL     1       3.573  37.227  27.397  1.00  0.00     0.274 HD
ENDBRANCH  27  28
ENDBRANCH  26  27
ENDBRANCH   1  26
TORSDOF 7
ENDMDL
MODEL 5
REMARK VINA RESULT: -7.627433642      3.362      5.442
REMARK  7 active torsions:
REMARK  status: ('A' for Active; 'I' for Inactive)
REMARK    1  A    between atoms: N1_1  and  C1_5 
REMARK    2  A    between atoms: C1_5  and  C2_6 
REMARK    3  A    between atoms: C2_6  and  N2_7 
REMARK    4  A    between atoms: C15_21  and  C16_22 
REMARK    5  A    between atoms: C16_22  and  O1_23 
REMARK    6  A    between atoms: C16_22  and  C17_25 
REMARK    7  A    between atoms: C17_25  and  C18_27 
ROOT
HETATM    1  N2  UNL     1       5.262  35.266  26.461  1.00  0.00    -0.283 NA
HETATM    2  C3  UNL     1       4.606  34.189  25.792  1.00  0.00     0.095 C 
HETATM    3  C4  UNL     1       3.116  34.365  25.601  1.00  0.00     0.015 C 
HETATM    4  C5  UNL     1       2.630  33.530  24.403  1.00  0.00     0.001 C 
HETATM    5  C6  UNL     1       2.538  32.113  24.866  1.00  0.00     0.000 C 
HETATM    6  C7  UNL     1       3.464  31.163  24.133  1.00  0.00     0.000 C 
HETATM    7  C8  UNL     1       4.291  30.327  25.079  1.00  0.00     0.000 C 
HETATM    8  C9  UNL     1       5.629  29.932  24.552  1.00  0.00     0.000 C 
HETATM    9  C10 UNL     1       6.764  30.830  25.017  1.00  0.00     0.002 C 
HETATM   10  C11 UNL     1       7.277  31.585  23.847  1.00  0.00     0.024 C 
HETATM   11  C12 UNL     1       7.843  32.953  24.146  1.00  0.00     0.105 C 
HETATM   12 CL1  UNL     1       9.545  32.917  23.527  1.00  0.00    -0.121 Cl
HETATM   13  C13 UNL     1       7.926  33.277  25.567  1.00  0.00    -0.005 C 
HETATM   14  C14 UNL     1       7.462  34.237  26.296  1.00  0.00     0.020 C 
HETATM   15  C15 UNL     1       6.657  35.422  26.043  1.00  0.00     0.024 C 
ENDROOT
BRANCH  15  16
HETATM   16  C16 UNL     1       6.807  36.102  24.726  1.00  0.00     0.232 C 
BRANCH  16  17
HETATM   17  O1  UNL     1       8.143  36.556  24.632  1.00  0.00    -0.382 OA
ATOM     18  H1  UNL     1       8.182  37.185  23.920  1.00  0.00     0.211 HD
ENDBRANCH  16  17
BRANCH  16  19
HETATM   19  C17 UNL     1       6.000  37.352  24.657  1.00  0.00     0.165 C 
HETATM   20  O2  UNL     1       4.796  37.263  24.491  1.00  0.00    -0.294 OA
BRANCH  19  21
HETATM   21  C18 UNL     1       6.562  38.697  24.781  1.00  0.00     0.058 C 
HETATM   22  C19 UNL     1       5.997  39.473  25.953  1.00  0.00     0.012 C 
HETATM   23  C20 UNL     1       6.595  40.841  25.696  1.00  0.00     0.001 C 
HETATM   24  C21 UNL     1       6.340  40.999  24.212  1.00  0.00     0.001 C 
HETATM   25  C22 UNL     1       6.190  39.606  23.635  1.00  0.00     0.012 C 
ENDBRANCH  19  21
ENDBRANCH  16  19
ENDBRANCH  15  16
BRANCH   1  26
HETATM   26  C2  UNL     1       5.229  35.212  27.888  1.00  0.00     0.122 C 
BRANCH  26  27
HETATM   27  C1  UNL     1       4.828  36.372  28.674  1.00  0.00     0.244 C 
BRANCH  27  28
HETATM   28  N1  UNL     1       4.242  37.418  27.858  1.00  0.00    -0.078 N 
ATOM     29  H13 UNL     1       3.810  38.138  28.437  1.00  0.00     0.274 HD
ATOM     30  H12 UNL     1       4.964  37.981  27.409  1.00  0.00     0.274 HD
ATOM     31  H11 UNL     1       3.581  37.052  27.172  1.00  0.00     0.274 HD
ENDBRANCH  27  28
ENDBRANCH  26  27
ENDBRANCH   1  26
TORSDOF 7
ENDMDL
