MODEL 1
REMARK VINA RESULT: -9.267059373      0.000      0.000
REMARK  5 active torsions:
REMARK  status: ('A' for Active; 'I' for Inactive)
REMARK    1  A    between atoms: C1_2  and  C2_3 
REMARK       I    between atoms: C1_2  and  N2_16 
REMARK    2  A    between atoms: C2_3  and  N1_4 
REMARK    3  A    between atoms: N1_4  and  C3_6 
REMARK    4  A    between atoms: N2_16  and  C13_18 
REMARK    5  A    between atoms: C16_22  and  C17_23 
ROOT
HETATM    1  O1  UNL     1      70.943  35.729  23.332  1.00  0.00    -0.272 OA
HETATM    2  C1  UNL     1      70.724  36.199  24.479  1.00  0.00     0.236 C 
HETATM    3  N2  UNL     1      70.820  35.390  25.659  1.00  0.00    -0.319 N 
ATOM      4  H2  UNL     1      70.642  35.774  26.587  1.00  0.00     0.169 HD
ENDROOT
BRANCH   2   5
HETATM    5  C2  UNL     1      70.360  37.623  24.594  1.00  0.00     0.212 C 
BRANCH   5   6
HETATM    6  N1  UNL     1      68.942  37.756  24.558  1.00  0.00    -0.210 NA
HETATM    7 CL1  UNL     1      68.293  38.225  26.091  1.00  0.00    -0.021 Cl
BRANCH   6   8
HETATM    8  C3  UNL     1      68.499  38.650  23.528  1.00  0.00     0.030 C 
HETATM    9  C4  UNL     1      69.479  38.747  22.408  1.00  0.00     0.031 C 
HETATM   10  C5  UNL     1      68.946  39.662  21.315  1.00  0.00    -0.012 C 
HETATM   11  C6  UNL     1      67.723  39.016  20.734  1.00  0.00     0.009 C 
HETATM   12  C10 UNL     1      68.686  41.000  21.932  1.00  0.00     0.009 C 
HETATM   13  C7  UNL     1      66.688  38.883  21.835  1.00  0.00    -0.012 C 
HETATM   14  C8  UNL     1      66.359  40.287  22.300  1.00  0.00     0.009 C 
HETATM   15  C12 UNL     1      67.213  38.036  22.965  1.00  0.00     0.031 C 
HETATM   16  C9  UNL     1      67.593  40.855  22.965  1.00  0.00    -0.012 C 
HETATM   17  C11 UNL     1      68.101  40.000  24.082  1.00  0.00     0.031 C 
ENDBRANCH   6   8
ENDBRANCH   5   6
ENDBRANCH   2   5
BRANCH   3  18
HETATM   18  C13 UNL     1      71.179  34.017  25.468  1.00  0.00     0.094 A 
HETATM   19  S1  UNL     1      70.083  32.734  25.079  1.00  0.00    -0.075 SA
HETATM   20  C14 UNL     1      71.193  31.456  25.006  1.00  0.00    -0.008 A 
HETATM   21  C15 UNL     1      72.374  32.042  25.279  1.00  0.00    -0.025 A 
HETATM   22  C21 UNL     1      70.938  30.016  24.711  1.00  0.00     0.047 C 
HETATM   23  C16 UNL     1      72.389  33.376  25.524  1.00  0.00     0.082 A 
HETATM   24  C18 UNL     1      73.578  31.124  25.262  1.00  0.00     0.041 C 
HETATM   25  C19 UNL     1      73.312  29.779  24.769  1.00  0.00     0.005 C 
HETATM   26  C20 UNL     1      72.139  29.587  23.851  1.00  0.00     0.005 C 
BRANCH  23  27
HETATM   27  C17 UNL     1      73.593  34.162  25.851  1.00  0.00     0.212 C 
HETATM   28  O2  UNL     1      74.034  35.088  25.165  1.00  0.00    -0.644 OA
HETATM   29  O3  UNL     1      74.290  33.858  27.000  1.00  0.00    -0.644 OA
ENDBRANCH  23  27
ENDBRANCH   3  18
TORSDOF 5
ENDMDL
MODEL 2
REMARK VINA RESULT: -9.229577751      0.153      1.325
REMARK  5 active torsions:
REMARK  status: ('A' for Active; 'I' for Inactive)
REMARK    1  A    between atoms: C1_2  and  C2_3 
REMARK       I    between atoms: C1_2  and  N2_16 
REMARK    2  A    between atoms: C2_3  and  N1_4 
REMARK    3  A    between atoms: N1_4  and  C3_6 
REMARK    4  A    between atoms: N2_16  and  C13_18 
REMARK    5  A    between atoms: C16_22  and  C17_23 
ROOT
HETATM    1  O1  UNL     1      70.943  35.738  23.363  1.00  0.00    -0.272 OA
HETATM    2  C1  UNL     1      70.705  36.198  24.510  1.00  0.00     0.236 C 
HETATM    3  N2  UNL     1      70.799  35.382  25.686  1.00  0.00    -0.319 N 
ATOM      4  H2  UNL     1      70.605  35.756  26.614  1.00  0.00     0.169 HD
ENDROOT
BRANCH   2   5
HETATM    5  C2  UNL     1      70.322  37.616  24.631  1.00  0.00     0.212 C 
BRANCH   5   6
HETATM    6  N1  UNL     1      68.904  37.732  24.570  1.00  0.00    -0.210 NA
HETATM    7 CL1  UNL     1      68.237  38.343  26.044  1.00  0.00    -0.021 Cl
BRANCH   6   8
HETATM    8  C3  UNL     1      68.464  38.518  23.454  1.00  0.00     0.030 C 
HETATM    9  C4  UNL     1      67.322  37.882  22.735  1.00  0.00     0.031 C 
HETATM   10  C5  UNL     1      66.852  38.773  21.594  1.00  0.00    -0.012 C 
HETATM   11  C6  UNL     1      66.306  40.035  22.194  1.00  0.00     0.009 C 
HETATM   12  C10 UNL     1      68.018  38.994  20.683  1.00  0.00     0.009 C 
HETATM   13  C7  UNL     1      67.425  40.725  22.950  1.00  0.00    -0.012 C 
HETATM   14  C8  UNL     1      68.499  41.059  21.933  1.00  0.00     0.009 C 
HETATM   15  C12 UNL     1      67.960  39.839  24.046  1.00  0.00     0.031 C 
HETATM   16  C9  UNL     1      69.084  39.756  21.433  1.00  0.00    -0.012 C 
HETATM   17  C11 UNL     1      69.606  38.890  22.535  1.00  0.00     0.031 C 
ENDBRANCH   6   8
ENDBRANCH   5   6
ENDBRANCH   2   5
BRANCH   3  18
HETATM   18  C13 UNL     1      71.177  34.014  25.489  1.00  0.00     0.094 A 
HETATM   19  S1  UNL     1      70.098  32.717  25.100  1.00  0.00    -0.075 SA
HETATM   20  C14 UNL     1      71.225  31.455  25.019  1.00  0.00    -0.008 A 
HETATM   21  C15 UNL     1      72.399  32.057  25.290  1.00  0.00    -0.025 A 
HETATM   22  C21 UNL     1      70.990  30.012  24.721  1.00  0.00     0.047 C 
HETATM   23  C16 UNL     1      72.396  33.390  25.539  1.00  0.00     0.082 A 
HETATM   24  C18 UNL     1      73.616  31.156  25.266  1.00  0.00     0.041 C 
HETATM   25  C19 UNL     1      73.367  29.810  24.770  1.00  0.00     0.005 C 
HETATM   26  C20 UNL     1      72.194  29.604  23.856  1.00  0.00     0.005 C 
BRANCH  23  27
HETATM   27  C17 UNL     1      73.589  34.192  25.864  1.00  0.00     0.212 C 
HETATM   28  O2  UNL     1      74.025  35.115  25.170  1.00  0.00    -0.644 OA
HETATM   29  O3  UNL     1      74.281  33.910  27.021  1.00  0.00    -0.644 OA
ENDBRANCH  23  27
ENDBRANCH   3  18
TORSDOF 5
ENDMDL
MODEL 3
REMARK VINA RESULT: -9.164358447      2.461      8.365
REMARK  5 active torsions:
REMARK  status: ('A' for Active; 'I' for Inactive)
REMARK    1  A    between atoms: C1_2  and  C2_3 
REMARK       I    between atoms: C1_2  and  N2_16 
REMARK    2  A    between atoms: C2_3  and  N1_4 
REMARK    3  A    between atoms: N1_4  and  C3_6 
REMARK    4  A    between atoms: N2_16  and  C13_18 
REMARK    5  A    between atoms: C16_22  and  C17_23 
ROOT
HETATM    1  O1  UNL     1      70.479  36.051  26.363  1.00  0.00    -0.272 OA
HETATM    2  C1  UNL     1      70.730  35.038  25.659  1.00  0.00     0.236 C 
HETATM    3  N2  UNL     1      70.398  34.987  24.265  1.00  0.00    -0.319 N 
ATOM      4  H2  UNL     1      70.602  34.165  23.696  1.00  0.00     0.169 HD
ENDROOT
BRANCH   2   5
HETATM    5  C2  UNL     1      71.384  33.883  26.300  1.00  0.00     0.212 C 
BRANCH   5   6
HETATM    6  N1  UNL     1      72.519  33.494  25.532  1.00  0.00    -0.210 NA
HETATM    7 CL1  UNL     1      73.966  33.462  26.481  1.00  0.00    -0.021 Cl
BRANCH   6   8
HETATM    8  C3  UNL     1      72.328  32.240  24.863  1.00  0.00     0.030 C 
HETATM    9  C4  UNL     1      72.350  32.386  23.379  1.00  0.00     0.031 C 
HETATM   10  C5  UNL     1      72.199  31.028  22.711  1.00  0.00    -0.012 C 
HETATM   11  C6  UNL     1      73.406  30.208  23.059  1.00  0.00     0.009 C 
HETATM   12  C10 UNL     1      70.910  30.433  23.182  1.00  0.00     0.009 C 
HETATM   13  C7  UNL     1      73.442  30.033  24.565  1.00  0.00    -0.012 C 
HETATM   14  C8  UNL     1      72.182  29.284  24.948  1.00  0.00     0.009 C 
HETATM   15  C12 UNL     1      73.524  31.367  25.260  1.00  0.00     0.031 C 
HETATM   16  C9  UNL     1      71.002  30.189  24.670  1.00  0.00    -0.012 C 
HETATM   17  C11 UNL     1      71.103  31.509  25.366  1.00  0.00     0.031 C 
ENDBRANCH   6   8
ENDBRANCH   5   6
ENDBRANCH   2   5
BRANCH   3  18
HETATM   18  C13 UNL     1      69.766  36.147  23.713  1.00  0.00     0.094 A 
HETATM   19  S1  UNL     1      70.569  37.616  23.269  1.00  0.00    -0.075 SA
HETATM   20  C14 UNL     1      69.228  38.487  22.708  1.00  0.00    -0.008 A 
HETATM   21  C15 UNL     1      68.200  37.632  22.873  1.00  0.00    -0.025 A 
HETATM   22  C21 UNL     1      69.179  39.873  22.158  1.00  0.00     0.047 C 
HETATM   23  C16 UNL     1      68.458  36.408  23.396  1.00  0.00     0.082 A 
HETATM   24  C18 UNL     1      66.846  38.144  22.425  1.00  0.00     0.041 C 
HETATM   25  C19 UNL     1      66.882  39.413  21.711  1.00  0.00     0.005 C 
HETATM   26  C20 UNL     1      68.156  39.791  21.014  1.00  0.00     0.005 C 
BRANCH  23  27
HETATM   27  C17 UNL     1      67.446  35.367  23.651  1.00  0.00     0.212 C 
HETATM   28  O2  UNL     1      66.787  34.800  22.776  1.00  0.00    -0.644 OA
HETATM   29  O3  UNL     1      67.204  34.985  24.952  1.00  0.00    -0.644 OA
ENDBRANCH  23  27
ENDBRANCH   3  18
TORSDOF 5
ENDMDL
MODEL 4
REMARK VINA RESULT: -9.153599073      0.479      1.599
REMARK  5 active torsions:
REMARK  status: ('A' for Active; 'I' for Inactive)
REMARK    1  A    between atoms: C1_2  and  C2_3 
REMARK       I    between atoms: C1_2  and  N2_16 
REMARK    2  A    between atoms: C2_3  and  N1_4 
REMARK    3  A    between atoms: N1_4  and  C3_6 
REMARK    4  A    between atoms: N2_16  and  C13_18 
REMARK    5  A    between atoms: C16_22  and  C17_23 
ROOT
HETATM    1  O1  UNL     1      70.914  35.719  23.358  1.00  0.00    -0.272 OA
HETATM    2  C1  UNL     1      70.656  36.165  24.506  1.00  0.00     0.236 C 
HETATM    3  N2  UNL     1      70.754  35.342  25.677  1.00  0.00    -0.319 N 
ATOM      4  H2  UNL     1      70.543  35.705  26.606  1.00  0.00     0.169 HD
ENDROOT
BRANCH   2   5
HETATM    5  C2  UNL     1      70.242  37.573  24.634  1.00  0.00     0.212 C 
BRANCH   5   6
HETATM    6  N1  UNL     1      68.819  37.653  24.630  1.00  0.00    -0.210 NA
HETATM    7 CL1  UNL     1      68.195  38.225  26.139  1.00  0.00    -0.021 Cl
BRANCH   6   8
HETATM    8  C3  UNL     1      68.315  38.443  23.545  1.00  0.00     0.030 C 
HETATM    9  C4  UNL     1      67.164  39.297  23.959  1.00  0.00     0.031 C 
HETATM   10  C5  UNL     1      66.696  40.157  22.794  1.00  0.00    -0.012 C 
HETATM   11  C6  UNL     1      67.806  41.105  22.449  1.00  0.00     0.009 C 
HETATM   12  C10 UNL     1      66.320  39.237  21.676  1.00  0.00     0.009 C 
HETATM   13  C7  UNL     1      69.013  40.290  22.027  1.00  0.00    -0.012 C 
HETATM   14  C8  UNL     1      68.603  39.506  20.796  1.00  0.00     0.009 C 
HETATM   15  C12 UNL     1      69.461  39.377  23.138  1.00  0.00     0.031 C 
HETATM   16  C9  UNL     1      67.555  38.499  21.216  1.00  0.00    -0.012 C 
HETATM   17  C11 UNL     1      68.017  37.604  22.322  1.00  0.00     0.031 C 
ENDBRANCH   6   8
ENDBRANCH   5   6
ENDBRANCH   2   5
BRANCH   3  18
HETATM   18  C13 UNL     1      71.163  33.984  25.473  1.00  0.00     0.094 A 
HETATM   19  S1  UNL     1      70.110  32.659  25.105  1.00  0.00    -0.075 SA
HETATM   20  C14 UNL     1      71.268  31.426  25.004  1.00  0.00    -0.008 A 
HETATM   21  C15 UNL     1      72.430  32.058  25.253  1.00  0.00    -0.025 A 
HETATM   22  C21 UNL     1      71.064  29.978  24.710  1.00  0.00     0.047 C 
HETATM   23  C16 UNL     1      72.398  33.391  25.501  1.00  0.00     0.082 A 
HETATM   24  C18 UNL     1      73.670  31.188  25.206  1.00  0.00     0.041 C 
HETATM   25  C19 UNL     1      73.445  29.836  24.716  1.00  0.00     0.005 C 
HETATM   26  C20 UNL     1      72.262  29.599  23.823  1.00  0.00     0.005 C 
BRANCH  23  27
HETATM   27  C17 UNL     1      73.577  34.223  25.804  1.00  0.00     0.212 C 
HETATM   28  O2  UNL     1      73.987  35.144  25.093  1.00  0.00    -0.644 OA
HETATM   29  O3  UNL     1      74.284  33.973  26.959  1.00  0.00    -0.644 OA
ENDBRANCH  23  27
ENDBRANCH   3  18
TORSDOF 5
ENDMDL
MODEL 5
REMARK VINA RESULT: -9.074523328      2.454      8.389
REMARK  5 active torsions:
REMARK  status: ('A' for Active; 'I' for Inactive)
REMARK    1  A    between atoms: C1_2  and  C2_3 
REMARK       I    between atoms: C1_2  and  N2_16 
REMARK    2  A    between atoms: C2_3  and  N1_4 
REMARK    3  A    between atoms: N1_4  and  C3_6 
REMARK    4  A    between atoms: N2_16  and  C13_18 
REMARK    5  A    between atoms: C16_22  and  C17_23 
ROOT
HETATM    1  O1  UNL     1      70.459  36.044  26.374  1.00  0.00    -0.272 OA
HETATM    2  C1  UNL     1      70.699  35.025  25.675  1.00  0.00     0.236 C 
HETATM    3  N2  UNL     1      70.364  34.969  24.282  1.00  0.00    -0.319 N 
ATOM      4  H2  UNL     1      70.559  34.142  23.717  1.00  0.00     0.169 HD
ENDROOT
BRANCH   2   5
HETATM    5  C2  UNL     1      71.342  33.867  26.321  1.00  0.00     0.212 C 
BRANCH   5   6
HETATM    6  N1  UNL     1      72.510  33.503  25.591  1.00  0.00    -0.210 NA
HETATM    7 CL1  UNL     1      73.938  33.593  26.563  1.00  0.00    -0.021 Cl
BRANCH   6   8
HETATM    8  C3  UNL     1      72.397  32.211  24.980  1.00  0.00     0.030 C 
HETATM    9  C4  UNL     1      71.114  31.535  25.328  1.00  0.00     0.031 C 
HETATM   10  C5  UNL     1      71.012  30.194  24.616  1.00  0.00    -0.012 C 
HETATM   11  C6  UNL     1      70.946  30.462  23.141  1.00  0.00     0.009 C 
HETATM   12  C10 UNL     1      72.192  29.372  25.028  1.00  0.00     0.009 C 
HETATM   13  C7  UNL     1      72.227  31.160  22.729  1.00  0.00    -0.012 C 
HETATM   14  C8  UNL     1      73.364  30.204  23.029  1.00  0.00     0.009 C 
HETATM   15  C12 UNL     1      72.392  32.463  23.468  1.00  0.00     0.031 C 
HETATM   16  C9  UNL     1      73.450  30.045  24.531  1.00  0.00    -0.012 C 
HETATM   17  C11 UNL     1      73.610  31.348  25.248  1.00  0.00     0.031 C 
ENDBRANCH   6   8
ENDBRANCH   5   6
ENDBRANCH   2   5
BRANCH   3  18
HETATM   18  C13 UNL     1      69.743  36.133  23.724  1.00  0.00     0.094 A 
HETATM   19  S1  UNL     1      70.560  37.592  23.272  1.00  0.00    -0.075 SA
HETATM   20  C14 UNL     1      69.227  38.473  22.708  1.00  0.00    -0.008 A 
HETATM   21  C15 UNL     1      68.192  37.630  22.878  1.00  0.00    -0.025 A 
HETATM   22  C21 UNL     1      69.193  39.857  22.151  1.00  0.00     0.047 C 
HETATM   23  C16 UNL     1      68.438  36.405  23.407  1.00  0.00     0.082 A 
HETATM   24  C18 UNL     1      66.843  38.153  22.429  1.00  0.00     0.041 C 
HETATM   25  C19 UNL     1      66.890  39.417  21.708  1.00  0.00     0.005 C 
HETATM   26  C20 UNL     1      68.168  39.779  21.008  1.00  0.00     0.005 C 
BRANCH  23  27
HETATM   27  C17 UNL     1      67.416  35.376  23.669  1.00  0.00     0.212 C 
HETATM   28  O2  UNL     1      66.753  34.808  22.797  1.00  0.00    -0.644 OA
HETATM   29  O3  UNL     1      67.168  35.006  24.972  1.00  0.00    -0.644 OA
ENDBRANCH  23  27
ENDBRANCH   3  18
TORSDOF 5
ENDMDL
