MODEL 1
REMARK VINA RESULT: -7.842047495      0.000      0.000
REMARK  7 active torsions:
REMARK  status: ('A' for Active; 'I' for Inactive)
REMARK    1  A    between atoms: C2_2  and  C5_5 
REMARK    2  A    between atoms: C7_8  and  C8_9 
REMARK    3  A    between atoms: C8_9  and  N1_10 
REMARK    4  A    between atoms: N1_10  and  N2_12 
REMARK       I    between atoms: N2_12  and  C9_13 
REMARK    5  A    between atoms: N2_12  and  C16_23 
REMARK       I    between atoms: C9_13  and  N3_15 
REMARK    6  A    between atoms: N3_15  and  C10_17 
REMARK    7  A    between atoms: C19_26  and  O2_27 
ROOT
HETATM    1  N1  UNL     1      71.002  36.216  24.555  1.00  0.00    -0.304 N 
ATOM      2  H1  UNL     1      70.880  36.314  23.547  1.00  0.00     0.186 HD
ENDROOT
BRANCH   1   3
HETATM    3  C8  UNL     1      70.006  36.377  25.321  1.00  0.00     0.122 C 
BRANCH   3   4
HETATM    4  C7  UNL     1      68.789  35.521  25.198  1.00  0.00     0.021 A 
HETATM    5  C6  UNL     1      67.681  35.989  24.545  1.00  0.00     0.066 A 
HETATM    6  S1  UNL     1      66.580  34.702  24.657  1.00  0.00    -0.102 SA
HETATM    7  C5  UNL     1      67.535  33.596  25.524  1.00  0.00     0.024 A 
HETATM    8  C19 UNL     1      68.712  34.269  25.710  1.00  0.00     0.091 A 
BRANCH   7   9
HETATM    9  C2  UNL     1      67.152  32.220  25.969  1.00  0.00    -0.015 C 
HETATM   10  C1  UNL     1      65.645  32.137  25.930  1.00  0.00     0.020 C 
HETATM   11  C3  UNL     1      67.638  31.981  27.355  1.00  0.00     0.020 C 
HETATM   12  C4  UNL     1      67.785  31.239  24.996  1.00  0.00     0.020 C 
ENDBRANCH   7   9
BRANCH   8  13
HETATM   13  O2  UNL     1      69.802  33.669  26.414  1.00  0.00    -0.359 OA
ATOM     14  H2  UNL     1      70.144  34.056  27.211  1.00  0.00     0.217 HD
ENDBRANCH   8  13
ENDBRANCH   3   4
ENDBRANCH   1   3
BRANCH   1  15
HETATM   15  N2  UNL     1      72.262  35.908  25.066  1.00  0.00    -0.238 N 
HETATM   16  C9  UNL     1      72.711  34.559  24.909  1.00  0.00     0.337 C 
HETATM   17  O1  UNL     1      73.831  34.177  25.335  1.00  0.00    -0.245 OA
HETATM   18  N3  UNL     1      71.911  33.584  24.262  1.00  0.00    -0.337 N 
ATOM     19  H3  UNL     1      70.995  33.849  23.900  1.00  0.00     0.164 HD
BRANCH  18  20
HETATM   20  C10 UNL     1      72.360  32.238  24.106  1.00  0.00     0.086 C 
HETATM   21  C11 UNL     1      71.299  31.215  24.436  1.00  0.00     0.025 C 
HETATM   22  C12 UNL     1      71.997  29.892  24.672  1.00  0.00     0.002 C 
HETATM   23  C13 UNL     1      73.204  29.834  23.783  1.00  0.00     0.000 C 
HETATM   24  C14 UNL     1      73.017  30.557  22.475  1.00  0.00     0.002 C 
HETATM   25  C15 UNL     1      72.721  32.016  22.633  1.00  0.00     0.025 C 
ENDBRANCH  18  20
BRANCH  15  26
HETATM   26  C16 UNL     1      73.044  36.912  25.709  1.00  0.00     0.113 A 
HETATM   27  C17 UNL     1      74.232  37.522  25.007  1.00  0.00     0.029 A 
HETATM   28  C18 UNL     1      73.011  38.342  25.370  1.00  0.00     0.029 A 
ENDBRANCH  15  26
ENDBRANCH   1  15
TORSDOF 7
ENDMDL
MODEL 2
REMARK VINA RESULT: -7.661922282      2.133      5.418
REMARK  7 active torsions:
REMARK  status: ('A' for Active; 'I' for Inactive)
REMARK    1  A    between atoms: C2_2  and  C5_5 
REMARK    2  A    between atoms: C7_8  and  C8_9 
REMARK    3  A    between atoms: C8_9  and  N1_10 
REMARK    4  A    between atoms: N1_10  and  N2_12 
REMARK       I    between atoms: N2_12  and  C9_13 
REMARK    5  A    between atoms: N2_12  and  C16_23 
REMARK       I    between atoms: C9_13  and  N3_15 
REMARK    6  A    between atoms: N3_15  and  C10_17 
REMARK    7  A    between atoms: C19_26  and  O2_27 
ROOT
HETATM    1  N1  UNL     1      67.692  33.870  25.680  1.00  0.00    -0.304 N 
ATOM      2  H1  UNL     1      67.722  34.453  26.516  1.00  0.00     0.186 HD
ENDROOT
BRANCH   1   3
HETATM    3  C8  UNL     1      67.863  34.400  24.543  1.00  0.00     0.122 C 
BRANCH   3   4
HETATM    4  C7  UNL     1      68.731  35.603  24.374  1.00  0.00     0.021 A 
HETATM    5  C6  UNL     1      68.442  36.531  23.410  1.00  0.00     0.066 A 
HETATM    6  S1  UNL     1      69.672  37.688  23.590  1.00  0.00    -0.102 SA
HETATM    7  C5  UNL     1      70.529  36.983  24.877  1.00  0.00     0.024 A 
HETATM    8  C19 UNL     1      69.824  35.840  25.141  1.00  0.00     0.091 A 
BRANCH   7   9
HETATM    9  C2  UNL     1      71.762  37.507  25.542  1.00  0.00    -0.015 C 
HETATM   10  C1  UNL     1      72.066  38.854  24.929  1.00  0.00     0.020 C 
HETATM   11  C3  UNL     1      72.899  36.576  25.310  1.00  0.00     0.020 C 
HETATM   12  C4  UNL     1      71.456  37.633  27.025  1.00  0.00     0.020 C 
ENDBRANCH   7   9
BRANCH   8  13
HETATM   13  O2  UNL     1      70.229  34.946  26.179  1.00  0.00    -0.359 OA
ATOM     14  H2  UNL     1      69.730  34.161  26.373  1.00  0.00     0.217 HD
ENDBRANCH   8  13
ENDBRANCH   3   4
ENDBRANCH   1   3
BRANCH   1  15
HETATM   15  N2  UNL     1      67.461  32.500  25.808  1.00  0.00    -0.238 N 
HETATM   16  C9  UNL     1      68.580  31.634  25.594  1.00  0.00     0.337 C 
HETATM   17  O1  UNL     1      68.479  30.384  25.684  1.00  0.00    -0.245 OA
HETATM   18  N3  UNL     1      69.861  32.147  25.268  1.00  0.00    -0.337 N 
ATOM     19  H3  UNL     1      69.988  33.155  25.184  1.00  0.00     0.164 HD
BRANCH  18  20
HETATM   20  C10 UNL     1      70.975  31.281  25.053  1.00  0.00     0.086 C 
HETATM   21  C11 UNL     1      71.142  30.873  23.609  1.00  0.00     0.025 C 
HETATM   22  C12 UNL     1      72.030  29.647  23.579  1.00  0.00     0.002 C 
HETATM   23  C13 UNL     1      73.008  29.750  24.712  1.00  0.00     0.000 C 
HETATM   24  C14 UNL     1      73.405  31.167  25.031  1.00  0.00     0.002 C 
HETATM   25  C15 UNL     1      72.255  32.036  25.433  1.00  0.00     0.025 C 
ENDBRANCH  18  20
BRANCH  15  26
HETATM   26  C16 UNL     1      66.162  32.016  26.141  1.00  0.00     0.113 A 
HETATM   27  C17 UNL     1      65.633  32.150  27.548  1.00  0.00     0.029 A 
HETATM   28  C18 UNL     1      64.988  32.868  26.380  1.00  0.00     0.029 A 
ENDBRANCH  15  26
ENDBRANCH   1  15
TORSDOF 7
ENDMDL
MODEL 3
REMARK VINA RESULT: -7.656331643      2.315      5.331
REMARK  7 active torsions:
REMARK  status: ('A' for Active; 'I' for Inactive)
REMARK    1  A    between atoms: C2_2  and  C5_5 
REMARK    2  A    between atoms: C7_8  and  C8_9 
REMARK    3  A    between atoms: C8_9  and  N1_10 
REMARK    4  A    between atoms: N1_10  and  N2_12 
REMARK       I    between atoms: N2_12  and  C9_13 
REMARK    5  A    between atoms: N2_12  and  C16_23 
REMARK       I    between atoms: C9_13  and  N3_15 
REMARK    6  A    between atoms: N3_15  and  C10_17 
REMARK    7  A    between atoms: C19_26  and  O2_27 
ROOT
HETATM    1  N1  UNL     1      68.599  35.003  24.567  1.00  0.00    -0.304 N 
ATOM      2  H1  UNL     1      68.788  35.084  23.568  1.00  0.00     0.186 HD
ENDROOT
BRANCH   1   3
HETATM    3  C8  UNL     1      68.995  35.914  25.352  1.00  0.00     0.122 C 
BRANCH   3   4
HETATM    4  C7  UNL     1      70.443  36.252  25.478  1.00  0.00     0.021 A 
HETATM    5  C6  UNL     1      70.942  37.378  24.880  1.00  0.00     0.066 A 
HETATM    6  S1  UNL     1      72.590  37.346  25.286  1.00  0.00    -0.102 SA
HETATM    7  C5  UNL     1      72.623  35.915  26.202  1.00  0.00     0.024 A 
HETATM    8  C19 UNL     1      71.324  35.487  26.169  1.00  0.00     0.091 A 
BRANCH   7   9
HETATM    9  C2  UNL     1      73.807  35.293  26.871  1.00  0.00    -0.015 C 
HETATM   10  C1  UNL     1      74.976  36.230  26.682  1.00  0.00     0.020 C 
HETATM   11  C3  UNL     1      74.107  33.975  26.249  1.00  0.00     0.020 C 
HETATM   12  C4  UNL     1      73.460  35.132  28.342  1.00  0.00     0.020 C 
ENDBRANCH   7   9
BRANCH   8  13
HETATM   13  O2  UNL     1      70.925  34.288  26.836  1.00  0.00    -0.359 OA
ATOM     14  H2  UNL     1      70.265  34.303  27.520  1.00  0.00     0.217 HD
ENDBRANCH   8  13
ENDBRANCH   3   4
ENDBRANCH   1   3
BRANCH   1  15
HETATM   15  N2  UNL     1      67.909  33.889  25.045  1.00  0.00    -0.238 N 
HETATM   16  C9  UNL     1      68.611  32.643  25.040  1.00  0.00     0.337 C 
HETATM   17  O1  UNL     1      68.079  31.579  25.448  1.00  0.00    -0.245 OA
HETATM   18  N3  UNL     1      69.945  32.547  24.571  1.00  0.00    -0.337 N 
ATOM     19  H3  UNL     1      70.416  33.385  24.230  1.00  0.00     0.164 HD
BRANCH  18  20
HETATM   20  C10 UNL     1      70.644  31.302  24.565  1.00  0.00     0.086 C 
HETATM   21  C11 UNL     1      70.876  30.756  23.177  1.00  0.00     0.025 C 
HETATM   22  C12 UNL     1      71.195  29.283  23.312  1.00  0.00     0.002 C 
HETATM   23  C13 UNL     1      71.929  29.079  24.605  1.00  0.00     0.000 C 
HETATM   24  C14 UNL     1      72.795  30.249  24.990  1.00  0.00     0.002 C 
HETATM   25  C15 UNL     1      72.034  31.525  25.173  1.00  0.00     0.025 C 
ENDBRANCH  18  20
BRANCH  15  26
HETATM   26  C16 UNL     1      66.568  34.018  25.512  1.00  0.00     0.113 A 
HETATM   27  C17 UNL     1      65.454  34.362  24.554  1.00  0.00     0.029 A 
HETATM   28  C18 UNL     1      65.502  33.033  25.279  1.00  0.00     0.029 A 
ENDBRANCH  15  26
ENDBRANCH   1  15
TORSDOF 7
ENDMDL
MODEL 4
REMARK VINA RESULT: -7.566290391      2.408      6.041
REMARK  7 active torsions:
REMARK  status: ('A' for Active; 'I' for Inactive)
REMARK    1  A    between atoms: C2_2  and  C5_5 
REMARK    2  A    between atoms: C7_8  and  C8_9 
REMARK    3  A    between atoms: C8_9  and  N1_10 
REMARK    4  A    between atoms: N1_10  and  N2_12 
REMARK       I    between atoms: N2_12  and  C9_13 
REMARK    5  A    between atoms: N2_12  and  C16_23 
REMARK       I    between atoms: C9_13  and  N3_15 
REMARK    6  A    between atoms: N3_15  and  C10_17 
REMARK    7  A    between atoms: C19_26  and  O2_27 
ROOT
HETATM    1  N1  UNL     1      71.308  32.569  24.729  1.00  0.00    -0.304 N 
ATOM      2  H1  UNL     1      71.152  32.982  23.810  1.00  0.00     0.186 HD
ENDROOT
BRANCH   1   3
HETATM    3  C8  UNL     1      71.960  33.217  25.601  1.00  0.00     0.122 C 
BRANCH   3   4
HETATM    4  C7  UNL     1      71.547  34.591  26.011  1.00  0.00     0.021 A 
HETATM    5  C6  UNL     1      72.153  35.204  27.075  1.00  0.00     0.066 A 
HETATM    6  S1  UNL     1      71.375  36.710  27.163  1.00  0.00    -0.102 SA
HETATM    7  C5  UNL     1      70.301  36.543  25.858  1.00  0.00     0.024 A 
HETATM    8  C19 UNL     1      70.578  35.293  25.375  1.00  0.00     0.091 A 
BRANCH   7   9
HETATM    9  C2  UNL     1      69.297  37.542  25.375  1.00  0.00    -0.015 C 
HETATM   10  C1  UNL     1      69.288  38.685  26.362  1.00  0.00     0.020 C 
HETATM   11  C3  UNL     1      67.949  36.916  25.310  1.00  0.00     0.020 C 
HETATM   12  C4  UNL     1      69.747  38.005  23.999  1.00  0.00     0.020 C 
ENDBRANCH   7   9
BRANCH   8  13
HETATM   13  O2  UNL     1      69.872  34.763  24.251  1.00  0.00    -0.359 OA
ATOM     14  H2  UNL     1      69.757  35.274  23.459  1.00  0.00     0.217 HD
ENDBRANCH   8  13
ENDBRANCH   3   4
ENDBRANCH   1   3
BRANCH   1  15
HETATM   15  N2  UNL     1      70.800  31.300  25.006  1.00  0.00    -0.238 N 
HETATM   16  C9  UNL     1      69.419  31.221  25.368  1.00  0.00     0.337 C 
HETATM   17  O1  UNL     1      68.863  30.126  25.639  1.00  0.00    -0.245 OA
HETATM   18  N3  UNL     1      68.606  32.381  25.442  1.00  0.00    -0.337 N 
ATOM     19  H3  UNL     1      69.015  33.291  25.232  1.00  0.00     0.164 HD
BRANCH  18  20
HETATM   20  C10 UNL     1      67.228  32.301  25.806  1.00  0.00     0.086 C 
HETATM   21  C11 UNL     1      66.995  32.455  27.290  1.00  0.00     0.025 C 
HETATM   22  C12 UNL     1      65.614  31.915  27.593  1.00  0.00     0.002 C 
HETATM   23  C13 UNL     1      64.735  32.181  26.407  1.00  0.00     0.000 C 
HETATM   24  C14 UNL     1      65.088  33.450  25.676  1.00  0.00     0.002 C 
HETATM   25  C15 UNL     1      66.483  33.462  25.135  1.00  0.00     0.025 C 
ENDBRANCH  18  20
BRANCH  15  26
HETATM   26  C16 UNL     1      71.642  30.152  24.920  1.00  0.00     0.113 A 
HETATM   27  C17 UNL     1      71.602  29.264  23.700  1.00  0.00     0.029 A 
HETATM   28  C18 UNL     1      72.840  30.056  24.072  1.00  0.00     0.029 A 
ENDBRANCH  15  26
ENDBRANCH   1  15
TORSDOF 7
ENDMDL
MODEL 5
REMARK VINA RESULT: -7.556383851      3.374      7.020
REMARK  7 active torsions:
REMARK  status: ('A' for Active; 'I' for Inactive)
REMARK    1  A    between atoms: C2_2  and  C5_5 
REMARK    2  A    between atoms: C7_8  and  C8_9 
REMARK    3  A    between atoms: C8_9  and  N1_10 
REMARK    4  A    between atoms: N1_10  and  N2_12 
REMARK       I    between atoms: N2_12  and  C9_13 
REMARK    5  A    between atoms: N2_12  and  C16_23 
REMARK       I    between atoms: C9_13  and  N3_15 
REMARK    6  A    between atoms: N3_15  and  C10_17 
REMARK    7  A    between atoms: C19_26  and  O2_27 
ROOT
HETATM    1  N1  UNL     1      67.246  32.214  25.832  1.00  0.00    -0.304 N 
ATOM      2  H1  UNL     1      67.325  31.405  25.215  1.00  0.00     0.186 HD
ENDROOT
BRANCH   1   3
HETATM    3  C8  UNL     1      68.225  32.533  26.569  1.00  0.00     0.122 C 
BRANCH   3   4
HETATM    4  C7  UNL     1      69.626  32.498  26.054  1.00  0.00     0.021 A 
HETATM    5  C6  UNL     1      70.437  33.593  26.189  1.00  0.00     0.066 A 
HETATM    6  S1  UNL     1      71.894  33.099  25.473  1.00  0.00    -0.102 SA
HETATM    7  C5  UNL     1      71.457  31.522  25.016  1.00  0.00     0.024 A 
HETATM    8  C19 UNL     1      70.161  31.415  25.439  1.00  0.00     0.091 A 
BRANCH   7   9
HETATM    9  C2  UNL     1      72.309  30.511  24.314  1.00  0.00    -0.015 C 
HETATM   10  C1  UNL     1      72.301  30.859  22.844  1.00  0.00     0.020 C 
HETATM   11  C3  UNL     1      71.749  29.148  24.516  1.00  0.00     0.020 C 
HETATM   12  C4  UNL     1      73.707  30.616  24.898  1.00  0.00     0.020 C 
ENDBRANCH   7   9
BRANCH   8  13
HETATM   13  O2  UNL     1      69.415  30.212  25.238  1.00  0.00    -0.359 OA
ATOM     14  H2  UNL     1      69.065  29.989  24.384  1.00  0.00     0.217 HD
ENDBRANCH   8  13
ENDBRANCH   3   4
ENDBRANCH   1   3
BRANCH   1  15
HETATM   15  N2  UNL     1      66.062  32.950  25.849  1.00  0.00    -0.238 N 
HETATM   16  C9  UNL     1      65.951  34.018  24.904  1.00  0.00     0.337 C 
HETATM   17  O1  UNL     1      64.925  34.743  24.838  1.00  0.00    -0.245 OA
HETATM   18  N3  UNL     1      66.997  34.312  23.993  1.00  0.00    -0.337 N 
ATOM     19  H3  UNL     1      67.847  33.749  24.012  1.00  0.00     0.164 HD
BRANCH  18  20
HETATM   20  C10 UNL     1      66.885  35.379  23.052  1.00  0.00     0.086 C 
HETATM   21  C11 UNL     1      68.219  35.850  22.525  1.00  0.00     0.025 C 
HETATM   22  C12 UNL     1      68.014  37.222  21.920  1.00  0.00     0.002 C 
HETATM   23  C13 UNL     1      66.631  37.276  21.340  1.00  0.00     0.000 C 
HETATM   24  C14 UNL     1      66.158  35.951  20.802  1.00  0.00     0.002 C 
HETATM   25  C15 UNL     1      66.103  34.869  21.835  1.00  0.00     0.025 C 
ENDBRANCH  18  20
BRANCH  15  26
HETATM   26  C16 UNL     1      65.026  32.627  26.775  1.00  0.00     0.113 A 
HETATM   27  C17 UNL     1      64.334  31.288  26.712  1.00  0.00     0.029 A 
HETATM   28  C18 UNL     1      65.175  31.698  27.905  1.00  0.00     0.029 A 
ENDBRANCH  15  26
ENDBRANCH   1  15
TORSDOF 7
ENDMDL
