MODEL 1
REMARK VINA RESULT: -8.547666131      0.000      0.000
REMARK  6 active torsions:
REMARK  status: ('A' for Active; 'I' for Inactive)
REMARK    1  A    between atoms: C4_4  and  C5_5 
REMARK    2  A    between atoms: C5_5  and  C6_6 
REMARK    3  A    between atoms: C12_14  and  C14_16 
REMARK    4  A    between atoms: C14_16  and  S1_17 
REMARK    5  A    between atoms: S1_17  and  C15_18 
REMARK    6  A    between atoms: C19_22  and  O3_23 
ROOT
HETATM    1  C6  UNL     1      73.471  30.872  24.529  1.00  0.00    -0.017 A 
HETATM    2  C7  UNL     1      73.038  32.184  24.532  1.00  0.00     0.021 A 
HETATM    3  C8  UNL     1      71.696  32.494  24.526  1.00  0.00    -0.015 A 
HETATM    4  C9  UNL     1      70.716  31.527  24.516  1.00  0.00     0.113 A 
HETATM    5  C10 UNL     1      71.138  30.199  24.513  1.00  0.00     0.144 A 
HETATM    6  C11 UNL     1      72.513  29.882  24.520  1.00  0.00     0.119 A 
HETATM    7  O1  UNL     1      71.520  28.865  24.511  1.00  0.00    -0.301 OA
HETATM    8  O2  UNL     1      69.399  31.910  24.507  1.00  0.00    -0.334 OA
HETATM    9  C12 UNL     1      69.002  33.029  25.311  1.00  0.00     0.099 C 
HETATM   10  C13 UNL     1      68.685  32.410  26.651  1.00  0.00     0.050 C 
HETATM   11  C19 UNL     1      70.045  34.069  25.480  1.00  0.00     0.161 C 
HETATM   12  C20 UNL     1      71.221  33.902  24.541  1.00  0.00     0.049 C 
HETATM   13  C21 UNL     1      72.363  34.772  25.006  1.00  0.00     0.018 C 
ENDROOT
BRANCH   9  14
HETATM   14  C14 UNL     1      67.774  33.564  24.604  1.00  0.00     0.115 C 
BRANCH  14  15
HETATM   15  S1  UNL     1      67.369  35.249  24.718  1.00  0.00    -0.157 SA
BRANCH  15  16
HETATM   16  C15 UNL     1      67.432  36.344  23.355  1.00  0.00    -0.003 C 
HETATM   17  C16 UNL     1      66.878  37.714  23.505  1.00  0.00     0.026 C 
HETATM   18  C17 UNL     1      66.807  35.752  22.081  1.00  0.00     0.026 C 
HETATM   19  C18 UNL     1      68.918  36.519  22.971  1.00  0.00     0.026 C 
ENDBRANCH  15  16
ENDBRANCH  14  15
ENDBRANCH   9  14
BRANCH  11  20
HETATM   20  O3  UNL     1      70.552  34.213  26.761  1.00  0.00    -0.392 OA
ATOM     21  H3  UNL     1      70.909  35.068  26.971  1.00  0.00     0.210 HD
ENDBRANCH  11  20
BRANCH   1  22
HETATM   22  C5  UNL     1      74.917  30.516  24.532  1.00  0.00     0.068 C 
BRANCH  22  23
HETATM   23  C4  UNL     1      75.595  31.191  23.416  1.00  0.00    -0.020 C 
HETATM   24  C2  UNL     1      76.666  30.673  22.849  1.00  0.00    -0.091 C 
HETATM   25  C1  UNL     1      77.327  31.387  21.720  1.00  0.00     0.042 C 
HETATM   26  C3  UNL     1      77.185  29.379  23.360  1.00  0.00     0.042 C 
ENDBRANCH  22  23
ENDBRANCH   1  22
TORSDOF 6
ENDMDL
MODEL 2
REMARK VINA RESULT: -8.491447789      3.043      4.473
REMARK  6 active torsions:
REMARK  status: ('A' for Active; 'I' for Inactive)
REMARK    1  A    between atoms: C4_4  and  C5_5 
REMARK    2  A    between atoms: C5_5  and  C6_6 
REMARK    3  A    between atoms: C12_14  and  C14_16 
REMARK    4  A    between atoms: C14_16  and  S1_17 
REMARK    5  A    between atoms: S1_17  and  C15_18 
REMARK    6  A    between atoms: C19_22  and  O3_23 
ROOT
HETATM    1  C6  UNL     1      72.110  31.792  25.273  1.00  0.00    -0.017 A 
HETATM    2  C7  UNL     1      72.982  32.863  25.246  1.00  0.00     0.021 A 
HETATM    3  C8  UNL     1      72.591  34.115  25.668  1.00  0.00    -0.015 A 
HETATM    4  C9  UNL     1      71.322  34.372  26.136  1.00  0.00     0.113 A 
HETATM    5  C10 UNL     1      70.431  33.300  26.169  1.00  0.00     0.144 A 
HETATM    6  C11 UNL     1      70.833  32.018  25.737  1.00  0.00     0.119 A 
HETATM    7  O1  UNL     1      69.517  32.258  26.217  1.00  0.00    -0.301 OA
HETATM    8  O2  UNL     1      71.002  35.644  26.536  1.00  0.00    -0.334 OA
HETATM    9  C12 UNL     1      71.977  36.402  27.265  1.00  0.00     0.099 C 
HETATM   10  C13 UNL     1      71.723  36.018  28.702  1.00  0.00     0.050 C 
HETATM   11  C19 UNL     1      73.385  36.099  26.912  1.00  0.00     0.161 C 
HETATM   12  C20 UNL     1      73.526  35.270  25.654  1.00  0.00     0.049 C 
HETATM   13  C21 UNL     1      74.932  34.727  25.564  1.00  0.00     0.018 C 
ENDROOT
BRANCH   9  14
HETATM   14  C14 UNL     1      71.612  37.841  26.966  1.00  0.00     0.115 C 
BRANCH  14  15
HETATM   15  S1  UNL     1      71.878  38.495  25.378  1.00  0.00    -0.157 SA
BRANCH  15  16
HETATM   16  C15 UNL     1      73.268  39.474  24.966  1.00  0.00    -0.003 C 
HETATM   17  C16 UNL     1      73.123  40.534  23.937  1.00  0.00     0.026 C 
HETATM   18  C17 UNL     1      74.495  38.637  24.569  1.00  0.00     0.026 C 
HETATM   19  C18 UNL     1      73.730  40.186  26.258  1.00  0.00     0.026 C 
ENDBRANCH  15  16
ENDBRANCH  14  15
ENDBRANCH   9  14
BRANCH  11  20
HETATM   20  O3  UNL     1      74.136  35.487  27.901  1.00  0.00    -0.392 OA
ATOM     21  H3  UNL     1      74.950  35.088  27.616  1.00  0.00     0.210 HD
ENDBRANCH  11  20
BRANCH   1  22
HETATM   22  C5  UNL     1      72.513  30.432  24.819  1.00  0.00     0.068 C 
BRANCH  22  23
HETATM   23  C4  UNL     1      73.975  30.368  24.685  1.00  0.00    -0.020 C 
HETATM   24  C2  UNL     1      74.562  30.456  23.509  1.00  0.00    -0.091 C 
HETATM   25  C1  UNL     1      76.048  30.386  23.412  1.00  0.00     0.042 C 
HETATM   26  C3  UNL     1      73.713  30.625  22.302  1.00  0.00     0.042 C 
ENDBRANCH  22  23
ENDBRANCH   1  22
TORSDOF 6
ENDMDL
MODEL 3
REMARK VINA RESULT: -8.367847565      2.989      7.938
REMARK  6 active torsions:
REMARK  status: ('A' for Active; 'I' for Inactive)
REMARK    1  A    between atoms: C4_4  and  C5_5 
REMARK    2  A    between atoms: C5_5  and  C6_6 
REMARK    3  A    between atoms: C12_14  and  C14_16 
REMARK    4  A    between atoms: C14_16  and  S1_17 
REMARK    5  A    between atoms: S1_17  and  C15_18 
REMARK    6  A    between atoms: C19_22  and  O3_23 
ROOT
HETATM    1  C6  UNL     1      69.293  31.897  25.791  1.00  0.00    -0.017 A 
HETATM    2  C7  UNL     1      70.232  31.100  25.163  1.00  0.00     0.021 A 
HETATM    3  C8  UNL     1      71.410  31.626  24.679  1.00  0.00    -0.015 A 
HETATM    4  C9  UNL     1      71.719  32.963  24.790  1.00  0.00     0.113 A 
HETATM    5  C10 UNL     1      70.781  33.780  25.421  1.00  0.00     0.144 A 
HETATM    6  C11 UNL     1      69.576  33.239  25.916  1.00  0.00     0.119 A 
HETATM    7  O1  UNL     1      69.873  34.623  26.042  1.00  0.00    -0.301 OA
HETATM    8  O2  UNL     1      72.910  33.418  24.282  1.00  0.00    -0.334 OA
HETATM    9  C12 UNL     1      74.081  32.609  24.446  1.00  0.00     0.099 C 
HETATM   10  C13 UNL     1      74.628  33.042  25.784  1.00  0.00     0.050 C 
HETATM   11  C19 UNL     1      73.826  31.148  24.464  1.00  0.00     0.161 C 
HETATM   12  C20 UNL     1      72.430  30.775  24.015  1.00  0.00     0.049 C 
HETATM   13  C21 UNL     1      72.149  29.339  24.387  1.00  0.00     0.018 C 
ENDROOT
BRANCH   9  14
HETATM   14  C14 UNL     1      74.967  33.017  23.287  1.00  0.00     0.115 C 
BRANCH  14  15
HETATM   15  S1  UNL     1      75.685  31.805  22.271  1.00  0.00    -0.157 SA
BRANCH  15  16
HETATM   16  C15 UNL     1      77.114  30.902  22.722  1.00  0.00    -0.003 C 
HETATM   17  C16 UNL     1      76.982  29.459  23.045  1.00  0.00     0.026 C 
HETATM   18  C17 UNL     1      77.889  31.546  23.884  1.00  0.00     0.026 C 
HETATM   19  C18 UNL     1      78.108  30.991  21.543  1.00  0.00     0.026 C 
ENDBRANCH  15  16
ENDBRANCH  14  15
ENDBRANCH   9  14
BRANCH  11  20
HETATM   20  O3  UNL     1      74.061  30.510  25.670  1.00  0.00    -0.392 OA
ATOM     21  H3  UNL     1      73.360  29.951  25.986  1.00  0.00     0.210 HD
ENDBRANCH  11  20
BRANCH   1  22
HETATM   22  C5  UNL     1      68.014  31.347  26.317  1.00  0.00     0.068 C 
BRANCH  22  23
HETATM   23  C4  UNL     1      66.882  32.073  25.723  1.00  0.00    -0.020 C 
HETATM   24  C2  UNL     1      65.858  32.467  26.454  1.00  0.00    -0.091 C 
HETATM   25  C1  UNL     1      64.728  33.200  25.817  1.00  0.00     0.042 C 
HETATM   26  C3  UNL     1      65.865  32.164  27.908  1.00  0.00     0.042 C 
ENDBRANCH  22  23
ENDBRANCH   1  22
TORSDOF 6
ENDMDL
MODEL 4
REMARK VINA RESULT: -8.317312152      2.334      3.635
REMARK  6 active torsions:
REMARK  status: ('A' for Active; 'I' for Inactive)
REMARK    1  A    between atoms: C4_4  and  C5_5 
REMARK    2  A    between atoms: C5_5  and  C6_6 
REMARK    3  A    between atoms: C12_14  and  C14_16 
REMARK    4  A    between atoms: C14_16  and  S1_17 
REMARK    5  A    between atoms: S1_17  and  C15_18 
REMARK    6  A    between atoms: C19_22  and  O3_23 
ROOT
HETATM    1  C6  UNL     1      72.113  31.801  25.264  1.00  0.00    -0.017 A 
HETATM    2  C7  UNL     1      73.021  32.841  25.222  1.00  0.00     0.021 A 
HETATM    3  C8  UNL     1      72.661  34.121  25.582  1.00  0.00    -0.015 A 
HETATM    4  C9  UNL     1      71.388  34.438  26.001  1.00  0.00     0.113 A 
HETATM    5  C10 UNL     1      70.461  33.399  26.048  1.00  0.00     0.144 A 
HETATM    6  C11 UNL     1      70.831  32.088  25.678  1.00  0.00     0.119 A 
HETATM    7  O1  UNL     1      69.510  32.391  26.108  1.00  0.00    -0.301 OA
HETATM    8  O2  UNL     1      71.100  35.736  26.342  1.00  0.00    -0.334 OA
HETATM    9  C12 UNL     1      72.078  36.489  27.070  1.00  0.00     0.099 C 
HETATM   10  C13 UNL     1      71.769  36.171  28.513  1.00  0.00     0.050 C 
HETATM   11  C19 UNL     1      73.485  36.126  26.773  1.00  0.00     0.161 C 
HETATM   12  C20 UNL     1      73.635  35.243  25.553  1.00  0.00     0.049 C 
HETATM   13  C21 UNL     1      75.023  34.651  25.528  1.00  0.00     0.018 C 
ENDROOT
BRANCH   9  14
HETATM   14  C14 UNL     1      71.772  37.927  26.704  1.00  0.00     0.115 C 
BRANCH  14  15
HETATM   15  S1  UNL     1      70.131  38.495  26.711  1.00  0.00    -0.157 SA
BRANCH  15  16
HETATM   16  C15 UNL     1      69.050  38.318  25.346  1.00  0.00    -0.003 C 
HETATM   17  C16 UNL     1      67.959  37.314  25.418  1.00  0.00     0.026 C 
HETATM   18  C17 UNL     1      69.792  38.071  24.022  1.00  0.00     0.026 C 
HETATM   19  C18 UNL     1      68.367  39.684  25.118  1.00  0.00     0.026 C 
ENDBRANCH  15  16
ENDBRANCH  14  15
ENDBRANCH   9  14
BRANCH  11  20
HETATM   20  O3  UNL     1      74.185  35.529  27.808  1.00  0.00    -0.392 OA
ATOM     21  H3  UNL     1      75.126  35.466  27.690  1.00  0.00     0.210 HD
ENDBRANCH  11  20
BRANCH   1  22
HETATM   22  C5  UNL     1      72.482  30.413  24.875  1.00  0.00     0.068 C 
BRANCH  22  23
HETATM   23  C4  UNL     1      73.946  30.283  24.830  1.00  0.00    -0.020 C 
HETATM   24  C2  UNL     1      74.607  30.353  23.692  1.00  0.00    -0.091 C 
HETATM   25  C1  UNL     1      76.091  30.217  23.686  1.00  0.00     0.042 C 
HETATM   26  C3  UNL     1      73.842  30.570  22.438  1.00  0.00     0.042 C 
ENDBRANCH  22  23
ENDBRANCH   1  22
TORSDOF 6
ENDMDL
MODEL 5
REMARK VINA RESULT: -8.229870788      3.154      4.622
REMARK  6 active torsions:
REMARK  status: ('A' for Active; 'I' for Inactive)
REMARK    1  A    between atoms: C4_4  and  C5_5 
REMARK    2  A    between atoms: C5_5  and  C6_6 
REMARK    3  A    between atoms: C12_14  and  C14_16 
REMARK    4  A    between atoms: C14_16  and  S1_17 
REMARK    5  A    between atoms: S1_17  and  C15_18 
REMARK    6  A    between atoms: C19_22  and  O3_23 
ROOT
HETATM    1  C6  UNL     1      73.787  32.118  25.317  1.00  0.00    -0.017 A 
HETATM    2  C7  UNL     1      72.513  32.498  25.695  1.00  0.00     0.021 A 
HETATM    3  C8  UNL     1      72.239  33.788  26.090  1.00  0.00    -0.015 A 
HETATM    4  C9  UNL     1      73.206  34.767  26.132  1.00  0.00     0.113 A 
HETATM    5  C10 UNL     1      74.496  34.399  25.753  1.00  0.00     0.144 A 
HETATM    6  C11 UNL     1      74.775  33.077  25.349  1.00  0.00     0.119 A 
HETATM    7  O1  UNL     1      75.791  34.070  25.383  1.00  0.00    -0.301 OA
HETATM    8  O2  UNL     1      72.860  36.031  26.539  1.00  0.00    -0.334 OA
HETATM    9  C12 UNL     1      71.605  36.573  26.109  1.00  0.00     0.099 C 
HETATM   10  C13 UNL     1      71.932  37.222  24.786  1.00  0.00     0.050 C 
HETATM   11  C19 UNL     1      70.532  35.569  25.916  1.00  0.00     0.161 C 
HETATM   12  C20 UNL     1      70.870  34.208  26.487  1.00  0.00     0.049 C 
HETATM   13  C21 UNL     1      69.898  33.184  25.953  1.00  0.00     0.018 C 
ENDROOT
BRANCH   9  14
HETATM   14  C14 UNL     1      71.257  37.578  27.188  1.00  0.00     0.115 C 
BRANCH  14  15
HETATM   15  S1  UNL     1      71.434  39.278  26.883  1.00  0.00    -0.157 SA
BRANCH  15  16
HETATM   16  C15 UNL     1      70.226  40.233  26.051  1.00  0.00    -0.003 C 
HETATM   17  C16 UNL     1      70.481  40.655  24.651  1.00  0.00     0.026 C 
HETATM   18  C17 UNL     1      69.820  41.497  26.827  1.00  0.00     0.026 C 
HETATM   19  C18 UNL     1      68.922  39.403  26.021  1.00  0.00     0.026 C 
ENDBRANCH  15  16
ENDBRANCH  14  15
ENDBRANCH   9  14
BRANCH  11  20
HETATM   20  O3  UNL     1      70.109  35.380  24.611  1.00  0.00    -0.392 OA
ATOM     21  H3  UNL     1      69.616  34.584  24.446  1.00  0.00     0.210 HD
ENDBRANCH  11  20
BRANCH   1  22
HETATM   22  C5  UNL     1      74.104  30.727  24.890  1.00  0.00     0.068 C 
BRANCH  22  23
HETATM   23  C4  UNL     1      72.859  30.003  24.597  1.00  0.00    -0.020 C 
HETATM   24  C2  UNL     1      72.417  29.867  23.363  1.00  0.00    -0.091 C 
HETATM   25  C1  UNL     1      71.150  29.126  23.105  1.00  0.00     0.042 C 
HETATM   26  C3  UNL     1      73.208  30.461  22.255  1.00  0.00     0.042 C 
ENDBRANCH  22  23
ENDBRANCH   1  22
TORSDOF 6
ENDMDL
