MODEL 1
REMARK VINA RESULT: -9.136148115      0.000      0.000
REMARK  11 active torsions:
REMARK  status: ('A' for Active; 'I' for Inactive)
REMARK    1  A    between atoms: C1_2  and  C2_4 
REMARK    2  A    between atoms: C4_8  and  C5_9 
REMARK    3  A    between atoms: N4_14  and  C7_16 
REMARK    4  A    between atoms: C7_16  and  O2_17 
REMARK    5  A    between atoms: C7_16  and  C8_19 
REMARK    6  A    between atoms: C8_19  and  O3_20 
REMARK    7  A    between atoms: C8_19  and  C9_22 
REMARK    8  A    between atoms: C9_22  and  O4_23 
REMARK    9  A    between atoms: C9_22  and  C10_25 
REMARK   10  A    between atoms: C10_25  and  O5_26 
REMARK   11  A    between atoms: C11_31  and  N6_32 
REMARK       I    between atoms: N6_32  and  C12_34 
REMARK       I    between atoms: C12_34  and  N7_35 
REMARK       I    between atoms: C12_34  and  N8_39 
ROOT
HETATM    1  C2  UNL     1     -17.715  -6.214 -36.480  1.00  0.00     0.112 A 
HETATM    2  N2  UNL     1     -17.647  -7.511 -36.106  1.00  0.00    -0.358 N 
ATOM      3  H2  UNL     1     -18.394  -8.150 -36.381  1.00  0.00     0.165 HD
HETATM    4  C3  UNL     1     -16.621  -7.976 -35.386  1.00  0.00     0.122 A 
HETATM    5  C4  UNL     1     -15.625  -7.094 -35.027  1.00  0.00     0.103 A 
HETATM    6  N5  UNL     1     -15.657  -5.799 -35.378  1.00  0.00    -0.336 N 
ATOM      7  H5  UNL     1     -14.908  -5.164 -35.101  1.00  0.00     0.168 HD
HETATM    8  C11 UNL     1     -16.694  -5.361 -36.099  1.00  0.00     0.134 A 
ENDROOT
BRANCH   5   9
HETATM    9  C5  UNL     1     -14.470  -7.542 -34.234  1.00  0.00     0.200 A 
HETATM   10  N3  UNL     1     -14.340  -8.755 -33.699  1.00  0.00    -0.233 N 
HETATM   11  O1  UNL     1     -13.215  -8.799 -33.076  1.00  0.00    -0.192 OA
ATOM     12  H3  UNL     1     -15.015  -9.517 -33.771  1.00  0.00     0.197 HD
HETATM   13  C6  UNL     1     -12.628  -7.646 -33.203  1.00  0.00     0.292 A 
HETATM   14  N4  UNL     1     -11.494  -7.272 -32.735  1.00  0.00    -0.320 N 
HETATM   15  O6  UNL     1     -13.407  -6.860 -33.923  1.00  0.00    -0.251 OA
ATOM     16  H4  UNL     1     -11.177  -6.322 -32.928  1.00  0.00     0.166 HD
BRANCH  14  17
HETATM   17  C7  UNL     1     -10.641  -8.138 -31.946  1.00  0.00     0.252 C 
BRANCH  17  18
HETATM   18  O2  UNL     1     -10.726  -9.461 -32.363  1.00  0.00    -0.374 OA
ATOM     19  H2  UNL     1     -11.528  -9.873 -32.063  1.00  0.00     0.212 HD
ENDBRANCH  17  18
BRANCH  17  20
HETATM   20  C8  UNL     1     -11.139  -8.004 -30.499  1.00  0.00     0.197 C 
BRANCH  20  21
HETATM   21  O3  UNL     1     -10.057  -7.559 -29.760  1.00  0.00    -0.389 OA
ATOM     22  H3  UNL     1      -9.324  -8.111 -30.007  1.00  0.00     0.210 HD
ENDBRANCH  20  21
BRANCH  20  23
HETATM   23  C9  UNL     1     -11.529  -9.402 -30.068  1.00  0.00     0.174 C 
BRANCH  23  24
HETATM   24  O4  UNL     1     -12.863  -9.645 -30.365  1.00  0.00    -0.391 OA
ATOM     25  H4  UNL     1     -13.028  -9.499 -31.289  1.00  0.00     0.210 HD
ENDBRANCH  23  24
BRANCH  23  26
HETATM   26  C10 UNL     1     -11.224  -9.623 -28.602  1.00  0.00     0.198 C 
BRANCH  26  27
HETATM   27  O5  UNL     1     -11.625 -10.928 -28.283  1.00  0.00    -0.398 OA
ATOM     28  H5  UNL     1     -10.837 -11.450 -28.178  1.00  0.00     0.209 HD
ENDBRANCH  26  27
ENDBRANCH  23  26
ENDBRANCH  20  23
ENDBRANCH  17  20
ENDBRANCH  14  17
ENDBRANCH   5   9
BRANCH   8  29
HETATM   29  N6  UNL     1     -16.776  -4.125 -36.465  1.00  0.00    -0.325 N 
HETATM   30  C12 UNL     1     -15.637  -3.356 -36.887  1.00  0.00     0.481 C 
HETATM   31  N7  UNL     1     -14.833  -2.898 -35.765  1.00  0.00    -0.033 N 
HETATM   32  N8  UNL     1     -16.088  -2.168 -37.630  1.00  0.00    -0.033 N 
ATOM     33  H73 UNL     1     -15.400  -2.379 -35.094  1.00  0.00     0.278 HD
ATOM     34  H72 UNL     1     -14.552  -3.678 -35.171  1.00  0.00     0.278 HD
ATOM     35  H71 UNL     1     -14.025  -2.352 -36.065  1.00  0.00     0.278 HD
ATOM     36  H83 UNL     1     -16.698  -2.411 -38.411  1.00  0.00     0.278 HD
ATOM     37  H82 UNL     1     -16.752  -1.608 -37.094  1.00  0.00     0.278 HD
ATOM     38  H81 UNL     1     -15.280  -1.622 -37.929  1.00  0.00     0.278 HD
ATOM     39  H6  UNL     1     -17.691  -3.673 -36.453  1.00  0.00     0.165 HD
ENDBRANCH   8  29
BRANCH   1  40
HETATM   40  C1  UNL     1     -18.852  -5.752 -37.266  1.00  0.00     0.143 C 
HETATM   41  N1  UNL     1     -19.693  -4.703 -36.836  1.00  0.00    -0.087 NA
HETATM   42  S1  UNL     1     -19.159  -6.474 -38.685  1.00  0.00    -0.061 SA
ENDBRANCH   1  40
TORSDOF 11
ENDMDL
MODEL 2
REMARK VINA RESULT: -9.131233600      1.075      1.523
REMARK  11 active torsions:
REMARK  status: ('A' for Active; 'I' for Inactive)
REMARK    1  A    between atoms: C1_2  and  C2_4 
REMARK    2  A    between atoms: C4_8  and  C5_9 
REMARK    3  A    between atoms: N4_14  and  C7_16 
REMARK    4  A    between atoms: C7_16  and  O2_17 
REMARK    5  A    between atoms: C7_16  and  C8_19 
REMARK    6  A    between atoms: C8_19  and  O3_20 
REMARK    7  A    between atoms: C8_19  and  C9_22 
REMARK    8  A    between atoms: C9_22  and  O4_23 
REMARK    9  A    between atoms: C9_22  and  C10_25 
REMARK   10  A    between atoms: C10_25  and  O5_26 
REMARK   11  A    between atoms: C11_31  and  N6_32 
REMARK       I    between atoms: N6_32  and  C12_34 
REMARK       I    between atoms: C12_34  and  N7_35 
REMARK       I    between atoms: C12_34  and  N8_39 
ROOT
HETATM    1  C2  UNL     1     -17.689  -5.864 -36.460  1.00  0.00     0.112 A 
HETATM    2  N2  UNL     1     -17.684  -7.001 -35.729  1.00  0.00    -0.358 N 
ATOM      3  H2  UNL     1     -18.510  -7.600 -35.734  1.00  0.00     0.165 HD
HETATM    4  C3  UNL     1     -16.621  -7.358 -35.001  1.00  0.00     0.122 A 
HETATM    5  C4  UNL     1     -15.518  -6.531 -35.012  1.00  0.00     0.103 A 
HETATM    6  N5  UNL     1     -15.484  -5.394 -35.724  1.00  0.00    -0.336 N 
ATOM      7  H5  UNL     1     -14.657  -4.797 -35.717  1.00  0.00     0.168 HD
HETATM    8  C11 UNL     1     -16.562  -5.062 -36.444  1.00  0.00     0.134 A 
ENDROOT
BRANCH   5   9
HETATM    9  C5  UNL     1     -14.316  -6.866 -34.232  1.00  0.00     0.200 A 
HETATM   10  N3  UNL     1     -13.787  -6.093 -33.285  1.00  0.00    -0.233 N 
HETATM   11  O1  UNL     1     -12.749  -6.692 -32.816  1.00  0.00    -0.192 OA
ATOM     12  H3  UNL     1     -14.142  -5.186 -32.984  1.00  0.00     0.197 HD
HETATM   13  C6  UNL     1     -12.607  -7.823 -33.440  1.00  0.00     0.292 A 
HETATM   14  N4  UNL     1     -11.703  -8.718 -33.276  1.00  0.00    -0.320 N 
HETATM   15  O6  UNL     1     -13.581  -7.935 -34.323  1.00  0.00    -0.251 OA
ATOM     16  H4  UNL     1     -11.737  -9.557 -33.856  1.00  0.00     0.166 HD
BRANCH  14  17
HETATM   17  C7  UNL     1     -10.635  -8.592 -32.304  1.00  0.00     0.252 C 
BRANCH  17  18
HETATM   18  O2  UNL     1      -9.503  -9.300 -32.691  1.00  0.00    -0.374 OA
ATOM     19  H2  UNL     1      -8.842  -9.303 -32.009  1.00  0.00     0.212 HD
ENDBRANCH  17  18
BRANCH  17  20
HETATM   20  C8  UNL     1     -11.197  -9.162 -30.994  1.00  0.00     0.197 C 
BRANCH  20  21
HETATM   21  O3  UNL     1     -12.565  -9.264 -31.174  1.00  0.00    -0.389 OA
ATOM     22  H3  UNL     1     -12.711 -10.085 -31.628  1.00  0.00     0.210 HD
ENDBRANCH  20  21
BRANCH  20  23
HETATM   23  C9  UNL     1     -10.884  -8.130 -29.930  1.00  0.00     0.174 C 
BRANCH  23  24
HETATM   24  O4  UNL     1      -9.915  -7.246 -30.385  1.00  0.00    -0.391 OA
ATOM     25  H4  UNL     1     -10.141  -6.923 -31.249  1.00  0.00     0.210 HD
ENDBRANCH  23  24
BRANCH  23  26
HETATM   26  C10 UNL     1     -10.482  -8.794 -28.632  1.00  0.00     0.198 C 
BRANCH  26  27
HETATM   27  O5  UNL     1     -11.184 -10.005 -28.544  1.00  0.00    -0.398 OA
ATOM     28  H5  UNL     1     -11.009 -10.374 -27.686  1.00  0.00     0.209 HD
ENDBRANCH  26  27
ENDBRANCH  23  26
ENDBRANCH  20  23
ENDBRANCH  17  20
ENDBRANCH  14  17
ENDBRANCH   5   9
BRANCH   8  29
HETATM   29  N6  UNL     1     -16.584  -3.979 -37.148  1.00  0.00    -0.325 N 
HETATM   30  C12 UNL     1     -16.425  -2.669 -36.575  1.00  0.00     0.481 C 
HETATM   31  N7  UNL     1     -17.642  -2.195 -35.936  1.00  0.00    -0.033 N 
HETATM   32  N8  UNL     1     -16.068  -1.706 -37.630  1.00  0.00    -0.033 N 
ATOM     33  H73 UNL     1     -18.432  -2.222 -36.582  1.00  0.00     0.278 HD
ATOM     34  H72 UNL     1     -17.977  -2.863 -35.241  1.00  0.00     0.278 HD
ATOM     35  H71 UNL     1     -17.530  -1.266 -35.530  1.00  0.00     0.278 HD
ATOM     36  H83 UNL     1     -15.243  -1.999 -38.154  1.00  0.00     0.278 HD
ATOM     37  H82 UNL     1     -16.740  -1.712 -38.398  1.00  0.00     0.278 HD
ATOM     38  H81 UNL     1     -15.956  -0.777 -37.224  1.00  0.00     0.278 HD
ATOM     39  H6  UNL     1     -16.720  -4.056 -38.155  1.00  0.00     0.165 HD
ENDBRANCH   8  29
BRANCH   1  40
HETATM   40  C1  UNL     1     -18.870  -5.515 -37.239  1.00  0.00     0.143 C 
HETATM   41  N1  UNL     1     -19.739  -4.466 -36.869  1.00  0.00    -0.087 NA
HETATM   42  S1  UNL     1     -19.195  -6.369 -38.580  1.00  0.00    -0.061 SA
ENDBRANCH   1  40
TORSDOF 11
ENDMDL
MODEL 3
REMARK VINA RESULT: -9.077870035      1.142      1.213
REMARK  11 active torsions:
REMARK  status: ('A' for Active; 'I' for Inactive)
REMARK    1  A    between atoms: C1_2  and  C2_4 
REMARK    2  A    between atoms: C4_8  and  C5_9 
REMARK    3  A    between atoms: N4_14  and  C7_16 
REMARK    4  A    between atoms: C7_16  and  O2_17 
REMARK    5  A    between atoms: C7_16  and  C8_19 
REMARK    6  A    between atoms: C8_19  and  O3_20 
REMARK    7  A    between atoms: C8_19  and  C9_22 
REMARK    8  A    between atoms: C9_22  and  O4_23 
REMARK    9  A    between atoms: C9_22  and  C10_25 
REMARK   10  A    between atoms: C10_25  and  O5_26 
REMARK   11  A    between atoms: C11_31  and  N6_32 
REMARK       I    between atoms: N6_32  and  C12_34 
REMARK       I    between atoms: C12_34  and  N7_35 
REMARK       I    between atoms: C12_34  and  N8_39 
ROOT
HETATM    1  C2  UNL     1     -18.321  -5.745 -36.776  1.00  0.00     0.112 A 
HETATM    2  N2  UNL     1     -18.286  -6.909 -36.090  1.00  0.00    -0.358 N 
ATOM      3  H2  UNL     1     -19.120  -7.495 -36.059  1.00  0.00     0.165 HD
HETATM    4  C3  UNL     1     -17.181  -7.309 -35.451  1.00  0.00     0.122 A 
HETATM    5  C4  UNL     1     -16.068  -6.499 -35.507  1.00  0.00     0.103 A 
HETATM    6  N5  UNL     1     -16.063  -5.337 -36.178  1.00  0.00    -0.336 N 
ATOM      7  H5  UNL     1     -15.226  -4.753 -36.206  1.00  0.00     0.168 HD
HETATM    8  C11 UNL     1     -17.181  -4.961 -36.809  1.00  0.00     0.134 A 
ENDROOT
BRANCH   5   9
HETATM    9  C5  UNL     1     -14.821  -6.882 -34.826  1.00  0.00     0.200 A 
HETATM   10  N3  UNL     1     -13.762  -7.421 -35.427  1.00  0.00    -0.233 N 
HETATM   11  O1  UNL     1     -12.858  -7.626 -34.535  1.00  0.00    -0.192 OA
ATOM     12  H3  UNL     1     -13.681  -7.633 -36.421  1.00  0.00     0.197 HD
HETATM   13  C6  UNL     1     -13.317  -7.231 -33.384  1.00  0.00     0.292 A 
HETATM   14  N4  UNL     1     -12.736  -7.260 -32.241  1.00  0.00    -0.320 N 
HETATM   15  O6  UNL     1     -14.539  -6.767 -33.561  1.00  0.00    -0.251 OA
ATOM     16  H4  UNL     1     -13.242  -6.908 -31.428  1.00  0.00     0.166 HD
BRANCH  14  17
HETATM   17  C7  UNL     1     -11.393  -7.770 -32.051  1.00  0.00     0.252 C 
BRANCH  17  18
HETATM   18  O2  UNL     1     -11.270  -9.077 -32.505  1.00  0.00    -0.374 OA
ATOM     19  H2  UNL     1     -10.366  -9.300 -32.693  1.00  0.00     0.212 HD
ENDBRANCH  17  18
BRANCH  17  20
HETATM   20  C8  UNL     1     -11.135  -7.706 -30.538  1.00  0.00     0.197 C 
BRANCH  20  21
HETATM   21  O3  UNL     1      -9.822  -7.296 -30.388  1.00  0.00    -0.389 OA
ATOM     22  H3  UNL     1      -9.725  -7.048 -29.477  1.00  0.00     0.210 HD
ENDBRANCH  20  21
BRANCH  20  23
HETATM   23  C9  UNL     1     -11.301  -9.124 -30.034  1.00  0.00     0.174 C 
BRANCH  23  24
HETATM   24  O4  UNL     1     -12.619  -9.536 -30.176  1.00  0.00    -0.391 OA
ATOM     25  H4  UNL     1     -12.729 -10.021 -30.986  1.00  0.00     0.210 HD
ENDBRANCH  23  24
BRANCH  23  26
HETATM   26  C10 UNL     1     -10.817  -9.252 -28.606  1.00  0.00     0.198 C 
BRANCH  26  27
HETATM   27  O5  UNL     1     -11.557 -10.281 -28.003  1.00  0.00    -0.398 OA
ATOM     28  H5  UNL     1     -11.027 -11.069 -28.035  1.00  0.00     0.209 HD
ENDBRANCH  26  27
ENDBRANCH  23  26
ENDBRANCH  20  23
ENDBRANCH  17  20
ENDBRANCH  14  17
ENDBRANCH   5   9
BRANCH   8  29
HETATM   29  N6  UNL     1     -17.232  -3.852 -37.469  1.00  0.00    -0.325 N 
HETATM   30  C12 UNL     1     -16.998  -2.569 -36.864  1.00  0.00     0.481 C 
HETATM   31  N7  UNL     1     -18.150  -2.094 -36.114  1.00  0.00    -0.033 N 
HETATM   32  N8  UNL     1     -16.702  -1.574 -37.908  1.00  0.00    -0.033 N 
ATOM     33  H73 UNL     1     -18.988  -2.080 -36.695  1.00  0.00     0.278 HD
ATOM     34  H72 UNL     1     -18.445  -2.780 -35.419  1.00  0.00     0.278 HD
ATOM     35  H71 UNL     1     -17.984  -1.183 -35.685  1.00  0.00     0.278 HD
ATOM     36  H83 UNL     1     -15.927  -1.864 -38.506  1.00  0.00     0.278 HD
ATOM     37  H82 UNL     1     -17.431  -1.536 -38.620  1.00  0.00     0.278 HD
ATOM     38  H81 UNL     1     -16.536  -0.664 -37.478  1.00  0.00     0.278 HD
ATOM     39  H6  UNL     1     -17.448  -3.888 -38.465  1.00  0.00     0.165 HD
ENDBRANCH   8  29
BRANCH   1  40
HETATM   40  C1  UNL     1     -19.547  -5.349 -37.458  1.00  0.00     0.143 C 
HETATM   41  N1  UNL     1     -20.385  -4.322 -36.973  1.00  0.00    -0.087 NA
HETATM   42  S1  UNL     1     -19.958  -6.121 -38.824  1.00  0.00    -0.061 SA
ENDBRANCH   1  40
TORSDOF 11
ENDMDL
MODEL 4
REMARK VINA RESULT: -8.954841232      2.183      3.569
REMARK  11 active torsions:
REMARK  status: ('A' for Active; 'I' for Inactive)
REMARK    1  A    between atoms: C1_2  and  C2_4 
REMARK    2  A    between atoms: C4_8  and  C5_9 
REMARK    3  A    between atoms: N4_14  and  C7_16 
REMARK    4  A    between atoms: C7_16  and  O2_17 
REMARK    5  A    between atoms: C7_16  and  C8_19 
REMARK    6  A    between atoms: C8_19  and  O3_20 
REMARK    7  A    between atoms: C8_19  and  C9_22 
REMARK    8  A    between atoms: C9_22  and  O4_23 
REMARK    9  A    between atoms: C9_22  and  C10_25 
REMARK   10  A    between atoms: C10_25  and  O5_26 
REMARK   11  A    between atoms: C11_31  and  N6_32 
REMARK       I    between atoms: N6_32  and  C12_34 
REMARK       I    between atoms: C12_34  and  N7_35 
REMARK       I    between atoms: C12_34  and  N8_39 
ROOT
HETATM    1  C2  UNL     1     -17.306  -2.848 -36.142  1.00  0.00     0.112 A 
HETATM    2  N2  UNL     1     -16.862  -2.219 -35.031  1.00  0.00    -0.358 N 
ATOM      3  H2  UNL     1     -17.189  -1.274 -34.829  1.00  0.00     0.165 HD
HETATM    4  C3  UNL     1     -16.004  -2.807 -34.192  1.00  0.00     0.122 A 
HETATM    5  C4  UNL     1     -15.577  -4.084 -34.487  1.00  0.00     0.103 A 
HETATM    6  N5  UNL     1     -15.994  -4.742 -35.580  1.00  0.00    -0.336 N 
ATOM      7  H5  UNL     1     -15.665  -5.687 -35.778  1.00  0.00     0.168 HD
HETATM    8  C11 UNL     1     -16.853  -4.130 -36.402  1.00  0.00     0.134 A 
ENDROOT
BRANCH   5   9
HETATM    9  C5  UNL     1     -14.633  -4.787 -33.605  1.00  0.00     0.200 A 
HETATM   10  N3  UNL     1     -13.747  -4.188 -32.809  1.00  0.00    -0.233 N 
HETATM   11  O1  UNL     1     -13.090  -5.101 -32.186  1.00  0.00    -0.192 OA
ATOM     12  H3  UNL     1     -13.614  -3.182 -32.712  1.00  0.00     0.197 HD
HETATM   13  C6  UNL     1     -13.536  -6.263 -32.564  1.00  0.00     0.292 A 
HETATM   14  N4  UNL     1     -13.153  -7.426 -32.185  1.00  0.00    -0.320 N 
HETATM   15  O6  UNL     1     -14.496  -6.070 -33.448  1.00  0.00    -0.251 OA
ATOM     16  H4  UNL     1     -13.613  -8.245 -32.586  1.00  0.00     0.166 HD
BRANCH  14  17
HETATM   17  C7  UNL     1     -12.098  -7.633 -31.213  1.00  0.00     0.252 C 
BRANCH  17  18
HETATM   18  O2  UNL     1     -11.012  -6.800 -31.449  1.00  0.00    -0.374 OA
ATOM     19  H2  UNL     1     -10.301  -7.263 -31.878  1.00  0.00     0.212 HD
ENDBRANCH  17  18
BRANCH  17  20
HETATM   20  C8  UNL     1     -11.682  -9.104 -31.358  1.00  0.00     0.197 C 
BRANCH  20  21
HETATM   21  O3  UNL     1     -10.465  -9.225 -30.711  1.00  0.00    -0.389 OA
ATOM     22  H3  UNL     1     -10.217 -10.139 -30.783  1.00  0.00     0.210 HD
ENDBRANCH  20  21
BRANCH  20  23
HETATM   23  C9  UNL     1     -11.510  -9.337 -32.844  1.00  0.00     0.174 C 
BRANCH  23  24
HETATM   24  O4  UNL     1     -12.444 -10.258 -33.300  1.00  0.00    -0.391 OA
ATOM     25  H4  UNL     1     -12.990  -9.870 -33.974  1.00  0.00     0.210 HD
ENDBRANCH  23  24
BRANCH  23  26
HETATM   26  C10 UNL     1     -10.094  -9.758 -33.168  1.00  0.00     0.198 C 
BRANCH  26  27
HETATM   27  O5  UNL     1      -9.306  -8.598 -33.187  1.00  0.00    -0.398 OA
ATOM     28  H5  UNL     1      -9.014  -8.436 -32.297  1.00  0.00     0.209 HD
ENDBRANCH  26  27
ENDBRANCH  23  26
ENDBRANCH  20  23
ENDBRANCH  17  20
ENDBRANCH  14  17
ENDBRANCH   5   9
BRANCH   8  29
HETATM   29  N6  UNL     1     -17.288  -4.716 -37.467  1.00  0.00    -0.325 N 
HETATM   30  C12 UNL     1     -18.364  -5.671 -37.453  1.00  0.00     0.481 C 
HETATM   31  N7  UNL     1     -17.933  -6.981 -36.992  1.00  0.00    -0.033 N 
HETATM   32  N8  UNL     1     -18.905  -5.830 -38.812  1.00  0.00    -0.033 N 
ATOM     33  H73 UNL     1     -17.144  -7.323 -37.540  1.00  0.00     0.278 HD
ATOM     34  H72 UNL     1     -17.482  -6.920 -36.079  1.00  0.00     0.278 HD
ATOM     35  H71 UNL     1     -18.696  -7.658 -36.981  1.00  0.00     0.278 HD
ATOM     36  H83 UNL     1     -19.188  -4.938 -39.220  1.00  0.00     0.278 HD
ATOM     37  H82 UNL     1     -18.181  -6.076 -39.487  1.00  0.00     0.278 HD
ATOM     38  H81 UNL     1     -19.668  -6.507 -38.802  1.00  0.00     0.278 HD
ATOM     39  H6  UNL     1     -16.848  -4.493 -38.360  1.00  0.00     0.165 HD
ENDBRANCH   8  29
BRANCH   1  40
HETATM   40  C1  UNL     1     -18.242  -2.168 -37.028  1.00  0.00     0.143 C 
HETATM   41  N1  UNL     1     -17.852  -1.633 -38.274  1.00  0.00    -0.087 NA
HETATM   42  S1  UNL     1     -19.788  -2.023 -36.560  1.00  0.00    -0.061 SA
ENDBRANCH   1  40
TORSDOF 11
ENDMDL
MODEL 5
REMARK VINA RESULT: -8.910911577      2.201      3.395
REMARK  11 active torsions:
REMARK  status: ('A' for Active; 'I' for Inactive)
REMARK    1  A    between atoms: C1_2  and  C2_4 
REMARK    2  A    between atoms: C4_8  and  C5_9 
REMARK    3  A    between atoms: N4_14  and  C7_16 
REMARK    4  A    between atoms: C7_16  and  O2_17 
REMARK    5  A    between atoms: C7_16  and  C8_19 
REMARK    6  A    between atoms: C8_19  and  O3_20 
REMARK    7  A    between atoms: C8_19  and  C9_22 
REMARK    8  A    between atoms: C9_22  and  O4_23 
REMARK    9  A    between atoms: C9_22  and  C10_25 
REMARK   10  A    between atoms: C10_25  and  O5_26 
REMARK   11  A    between atoms: C11_31  and  N6_32 
REMARK       I    between atoms: N6_32  and  C12_34 
REMARK       I    between atoms: C12_34  and  N7_35 
REMARK       I    between atoms: C12_34  and  N8_39 
ROOT
HETATM    1  C2  UNL     1     -17.652  -2.681 -36.322  1.00  0.00     0.112 A 
HETATM    2  N2  UNL     1     -17.204  -2.048 -35.215  1.00  0.00    -0.358 N 
ATOM      3  H2  UNL     1     -17.542  -1.108 -35.007  1.00  0.00     0.165 HD
HETATM    4  C3  UNL     1     -16.329  -2.627 -34.386  1.00  0.00     0.122 A 
HETATM    5  C4  UNL     1     -15.887  -3.897 -34.690  1.00  0.00     0.103 A 
HETATM    6  N5  UNL     1     -16.308  -4.558 -35.780  1.00  0.00    -0.336 N 
ATOM      7  H5  UNL     1     -15.968  -5.498 -35.985  1.00  0.00     0.168 HD
HETATM    8  C11 UNL     1     -17.184  -3.956 -36.591  1.00  0.00     0.134 A 
ENDROOT
BRANCH   5   9
HETATM    9  C5  UNL     1     -14.924  -4.589 -33.820  1.00  0.00     0.200 A 
HETATM   10  N3  UNL     1     -14.056  -3.981 -33.013  1.00  0.00    -0.233 N 
HETATM   11  O1  UNL     1     -13.374  -4.887 -32.405  1.00  0.00    -0.192 OA
ATOM     12  H3  UNL     1     -13.951  -2.973 -32.897  1.00  0.00     0.197 HD
HETATM   13  C6  UNL     1     -13.787  -6.053 -32.805  1.00  0.00     0.292 A 
HETATM   14  N4  UNL     1     -13.372  -7.212 -32.448  1.00  0.00    -0.320 N 
HETATM   15  O6  UNL     1     -14.752  -5.872 -33.687  1.00  0.00    -0.251 OA
ATOM     16  H4  UNL     1     -13.808  -8.036 -32.864  1.00  0.00     0.166 HD
BRANCH  14  17
HETATM   17  C7  UNL     1     -12.312  -7.407 -31.479  1.00  0.00     0.252 C 
BRANCH  17  18
HETATM   18  O2  UNL     1     -11.100  -6.904 -31.935  1.00  0.00    -0.374 OA
ATOM     19  H2  UNL     1     -10.689  -6.339 -31.291  1.00  0.00     0.212 HD
ENDBRANCH  17  18
BRANCH  17  20
HETATM   20  C8  UNL     1     -12.213  -8.926 -31.271  1.00  0.00     0.197 C 
BRANCH  20  21
HETATM   21  O3  UNL     1     -13.490  -9.424 -31.460  1.00  0.00    -0.389 OA
ATOM     22  H3  UNL     1     -13.393 -10.362 -31.570  1.00  0.00     0.210 HD
ENDBRANCH  20  21
BRANCH  20  23
HETATM   23  C9  UNL     1     -11.783  -9.116 -29.832  1.00  0.00     0.174 C 
BRANCH  23  24
HETATM   24  O4  UNL     1     -10.398  -9.164 -29.743  1.00  0.00    -0.391 OA
ATOM     25  H4  UNL     1     -10.058  -9.879 -30.268  1.00  0.00     0.210 HD
ENDBRANCH  23  24
BRANCH  23  26
HETATM   26  C10 UNL     1     -12.433 -10.342 -29.229  1.00  0.00     0.198 C 
BRANCH  26  27
HETATM   27  O5  UNL     1     -11.528 -10.887 -28.307  1.00  0.00    -0.398 OA
ATOM     28  H5  UNL     1     -11.990 -11.556 -27.815  1.00  0.00     0.209 HD
ENDBRANCH  26  27
ENDBRANCH  23  26
ENDBRANCH  20  23
ENDBRANCH  17  20
ENDBRANCH  14  17
ENDBRANCH   5   9
BRANCH   8  29
HETATM   29  N6  UNL     1     -17.622  -4.545 -37.653  1.00  0.00    -0.325 N 
HETATM   30  C12 UNL     1     -18.588  -5.610 -37.616  1.00  0.00     0.481 C 
HETATM   31  N7  UNL     1     -17.992  -6.882 -37.240  1.00  0.00    -0.033 N 
HETATM   32  N8  UNL     1     -19.197  -5.776 -38.946  1.00  0.00    -0.033 N 
ATOM     33  H73 UNL     1     -17.209  -7.117 -37.850  1.00  0.00     0.278 HD
ATOM     34  H72 UNL     1     -17.492  -6.807 -36.354  1.00  0.00     0.278 HD
ATOM     35  H71 UNL     1     -18.677  -7.638 -37.214  1.00  0.00     0.278 HD
ATOM     36  H83 UNL     1     -19.598  -4.905 -39.295  1.00  0.00     0.278 HD
ATOM     37  H82 UNL     1     -18.496  -5.917 -39.674  1.00  0.00     0.278 HD
ATOM     38  H81 UNL     1     -19.882  -6.531 -38.919  1.00  0.00     0.278 HD
ATOM     39  H6  UNL     1     -17.268  -4.242 -38.560  1.00  0.00     0.165 HD
ENDBRANCH   8  29
BRANCH   1  40
HETATM   40  C1  UNL     1     -18.606  -2.011 -37.197  1.00  0.00     0.143 C 
HETATM   41  N1  UNL     1     -18.232  -1.448 -38.435  1.00  0.00    -0.087 NA
HETATM   42  S1  UNL     1     -20.154  -1.912 -36.723  1.00  0.00    -0.061 SA
ENDBRANCH   1  40
TORSDOF 11
ENDMDL
