MODEL 1
REMARK VINA RESULT: -6.743826975      0.000      0.000
REMARK  3 active torsions:
REMARK  status: ('A' for Active; 'I' for Inactive)
REMARK    1  A    between atoms: O1_1  and  C1_3 
REMARK    2  A    between atoms: N1_8  and  C6_9 
REMARK    3  A    between atoms: C6_9  and  C7_10 
ROOT
HETATM    1  C1  UNL     1      -3.354 -10.013 -16.355  1.00  0.00     0.146 C 
HETATM    2  C2  UNL     1      -3.930  -8.640 -16.276  1.00  0.00     0.033 C 
HETATM    3  C3  UNL     1      -3.438  -7.993 -15.003  1.00  0.00     0.004 C 
HETATM    4  C4  UNL     1      -1.958  -8.323 -14.888  1.00  0.00     0.030 C 
HETATM    5  C5  UNL     1      -1.330  -8.082 -16.202  1.00  0.00     0.273 C 
HETATM    6  N1  UNL     1      -1.130  -9.187 -17.048  1.00  0.00     0.096 N 
HETATM    7  C11 UNL     1      -2.141 -10.131 -17.205  1.00  0.00     0.304 C 
ENDROOT
BRANCH   6   8
HETATM    8  C6  UNL     1      -0.604  -8.656 -18.316  1.00  0.00     0.324 C 
BRANCH   8   9
HETATM    9  C7  UNL     1       0.781  -8.189 -18.173  1.00  0.00     0.014 C 
HETATM   10  N2  UNL     1       1.684  -8.837 -17.548  1.00  0.00    -0.375 N 
HETATM   11  C8  UNL     1       2.918  -8.167 -17.562  1.00  0.00     0.061 C 
ATOM     12  H2  UNL     1       1.529  -9.736 -17.093  1.00  0.00     0.164 HD
HETATM   13  C9  UNL     1       2.834  -7.178 -18.702  1.00  0.00     0.050 C 
HETATM   14  C10 UNL     1       1.322  -6.920 -18.724  1.00  0.00     0.059 C 
ENDBRANCH   8   9
ENDBRANCH   6   8
BRANCH   1  15
HETATM   15  O1  UNL     1      -4.335 -10.852 -16.937  1.00  0.00    -0.394 OA
ATOM     16  H1  UNL     1      -4.956 -11.080 -16.254  1.00  0.00     0.210 HD
ENDBRANCH   1  15
TORSDOF 3
ENDMDL
MODEL 2
REMARK VINA RESULT: -6.641511039      1.479      2.051
REMARK  3 active torsions:
REMARK  status: ('A' for Active; 'I' for Inactive)
REMARK    1  A    between atoms: O1_1  and  C1_3 
REMARK    2  A    between atoms: N1_8  and  C6_9 
REMARK    3  A    between atoms: C6_9  and  C7_10 
ROOT
HETATM    1  C1  UNL     1      -2.928  -7.956 -15.368  1.00  0.00     0.146 C 
HETATM    2  C2  UNL     1      -3.714  -9.185 -15.678  1.00  0.00     0.033 C 
HETATM    3  C3  UNL     1      -4.598  -8.893 -16.868  1.00  0.00     0.004 C 
HETATM    4  C4  UNL     1      -3.745  -8.130 -17.870  1.00  0.00     0.030 C 
HETATM    5  C5  UNL     1      -2.447  -8.822 -17.989  1.00  0.00     0.273 C 
HETATM    6  N1  UNL     1      -1.363  -8.320 -17.246  1.00  0.00     0.096 N 
HETATM    7  C11 UNL     1      -1.548  -7.945 -15.918  1.00  0.00     0.304 C 
ENDROOT
BRANCH   6   8
HETATM    8  C6  UNL     1      -0.243  -9.251 -17.456  1.00  0.00     0.324 C 
BRANCH   8   9
HETATM    9  C7  UNL     1       1.022  -8.534 -17.668  1.00  0.00     0.014 C 
HETATM   10  N2  UNL     1       2.140  -8.916 -17.188  1.00  0.00    -0.375 N 
HETATM   11  C8  UNL     1       3.188  -8.050 -17.540  1.00  0.00     0.061 C 
ATOM     12  H2  UNL     1       2.259  -9.751 -16.615  1.00  0.00     0.164 HD
HETATM   13  C9  UNL     1       2.690  -7.270 -18.735  1.00  0.00     0.050 C 
HETATM   14  C10 UNL     1       1.180  -7.286 -18.456  1.00  0.00     0.059 C 
ENDBRANCH   8   9
ENDBRANCH   6   8
BRANCH   1  15
HETATM   15  O1  UNL     1      -2.800  -7.878 -13.960  1.00  0.00    -0.394 OA
ATOM     16  H1  UNL     1      -2.847  -6.960 -13.720  1.00  0.00     0.210 HD
ENDBRANCH   1  15
TORSDOF 3
ENDMDL
MODEL 3
REMARK VINA RESULT: -6.449542170      1.457      2.316
REMARK  3 active torsions:
REMARK  status: ('A' for Active; 'I' for Inactive)
REMARK    1  A    between atoms: O1_1  and  C1_3 
REMARK    2  A    between atoms: N1_8  and  C6_9 
REMARK    3  A    between atoms: C6_9  and  C7_10 
ROOT
HETATM    1  C1  UNL     1      -3.590  -8.681 -15.636  1.00  0.00     0.146 C 
HETATM    2  C2  UNL     1      -3.215 -10.069 -15.239  1.00  0.00     0.033 C 
HETATM    3  C3  UNL     1      -3.227 -10.934 -16.477  1.00  0.00     0.004 C 
HETATM    4  C4  UNL     1      -2.551 -10.132 -17.578  1.00  0.00     0.030 C 
HETATM    5  C5  UNL     1      -1.315  -9.543 -17.025  1.00  0.00     0.273 C 
HETATM    6  N1  UNL     1      -1.361  -8.206 -16.591  1.00  0.00     0.096 N 
HETATM    7  C11 UNL     1      -2.442  -7.759 -15.837  1.00  0.00     0.304 C 
ENDROOT
BRANCH   6   8
HETATM    8  C6  UNL     1      -0.049  -7.916 -15.989  1.00  0.00     0.324 C 
BRANCH   8   9
HETATM    9  C7  UNL     1       1.006  -7.833 -17.008  1.00  0.00     0.014 C 
HETATM   10  N2  UNL     1       0.981  -7.017 -17.987  1.00  0.00    -0.375 N 
HETATM   11  C8  UNL     1       2.110  -7.148 -18.811  1.00  0.00     0.061 C 
ATOM     12  H2  UNL     1       0.229  -6.347 -18.152  1.00  0.00     0.164 HD
HETATM   13  C9  UNL     1       3.146  -7.862 -17.974  1.00  0.00     0.050 C 
HETATM   14  C10 UNL     1       2.231  -8.672 -17.046  1.00  0.00     0.059 C 
ENDBRANCH   8   9
ENDBRANCH   6   8
BRANCH   1  15
HETATM   15  O1  UNL     1      -4.365  -8.133 -14.585  1.00  0.00    -0.394 OA
ATOM     16  H1  UNL     1      -4.246  -8.689 -13.823  1.00  0.00     0.210 HD
ENDBRANCH   1  15
TORSDOF 3
ENDMDL
MODEL 4
REMARK VINA RESULT: -6.255047274      2.607      5.552
REMARK  3 active torsions:
REMARK  status: ('A' for Active; 'I' for Inactive)
REMARK    1  A    between atoms: O1_1  and  C1_3 
REMARK    2  A    between atoms: N1_8  and  C6_9 
REMARK    3  A    between atoms: C6_9  and  C7_10 
ROOT
HETATM    1  C1  UNL     1       2.387  -8.637 -17.393  1.00  0.00     0.146 C 
HETATM    2  C2  UNL     1       2.044  -7.264 -17.864  1.00  0.00     0.033 C 
HETATM    3  C3  UNL     1       1.157  -7.390 -19.081  1.00  0.00     0.004 C 
HETATM    4  C4  UNL     1       0.146  -8.482 -18.774  1.00  0.00     0.030 C 
HETATM    5  C5  UNL     1      -0.387  -8.248 -17.417  1.00  0.00     0.273 C 
HETATM    6  N1  UNL     1       0.171  -8.983 -16.356  1.00  0.00     0.096 N 
HETATM    7  C11 UNL     1       1.552  -9.138 -16.271  1.00  0.00     0.304 C 
ENDROOT
BRANCH   6   8
HETATM    8  C6  UNL     1      -0.452  -8.477 -15.122  1.00  0.00     0.324 C 
BRANCH   8   9
HETATM    9  C7  UNL     1      -1.906  -8.682 -15.129  1.00  0.00     0.014 C 
HETATM   10  N2  UNL     1      -2.755  -7.738 -14.999  1.00  0.00    -0.375 N 
HETATM   11  C8  UNL     1      -4.076  -8.209 -15.040  1.00  0.00     0.061 C 
ATOM     12  H2  UNL     1      -2.502  -6.757 -14.880  1.00  0.00     0.164 HD
HETATM   13  C9  UNL     1      -4.006  -9.570 -15.693  1.00  0.00     0.050 C 
HETATM   14  C10 UNL     1      -2.588  -9.992 -15.285  1.00  0.00     0.059 C 
ENDBRANCH   8   9
ENDBRANCH   6   8
BRANCH   1  15
HETATM   15  O1  UNL     1       3.720  -8.602 -16.917  1.00  0.00    -0.394 OA
ATOM     16  H1  UNL     1       3.778  -9.206 -16.185  1.00  0.00     0.210 HD
ENDBRANCH   1  15
TORSDOF 3
ENDMDL
MODEL 5
REMARK VINA RESULT: -6.185025572      1.187      1.364
REMARK  3 active torsions:
REMARK  status: ('A' for Active; 'I' for Inactive)
REMARK    1  A    between atoms: O1_1  and  C1_3 
REMARK    2  A    between atoms: N1_8  and  C6_9 
REMARK    3  A    between atoms: C6_9  and  C7_10 
ROOT
HETATM    1  C1  UNL     1      -3.523 -10.266 -18.295  1.00  0.00     0.146 C 
HETATM    2  C2  UNL     1      -4.285  -9.018 -18.004  1.00  0.00     0.033 C 
HETATM    3  C3  UNL     1      -4.322  -8.824 -16.507  1.00  0.00     0.004 C 
HETATM    4  C4  UNL     1      -2.924  -9.130 -15.992  1.00  0.00     0.030 C 
HETATM    5  C5  UNL     1      -1.952  -8.440 -16.863  1.00  0.00     0.273 C 
HETATM    6  N1  UNL     1      -1.337  -9.189 -17.883  1.00  0.00     0.096 N 
HETATM    7  C11 UNL     1      -2.099 -10.054 -18.663  1.00  0.00     0.304 C 
ENDROOT
BRANCH   6   8
HETATM    8  C6  UNL     1      -0.518  -8.245 -18.661  1.00  0.00     0.324 C 
BRANCH   8   9
HETATM    9  C7  UNL     1       0.855  -8.168 -18.143  1.00  0.00     0.014 C 
HETATM   10  N2  UNL     1       1.345  -9.001 -17.311  1.00  0.00    -0.375 N 
HETATM   11  C8  UNL     1       2.675  -8.697 -16.981  1.00  0.00     0.061 C 
ATOM     12  H2  UNL     1       0.830  -9.795 -16.930  1.00  0.00     0.164 HD
HETATM   13  C9  UNL     1       3.173  -7.791 -18.085  1.00  0.00     0.050 C 
HETATM   14  C10 UNL     1       1.853  -7.131 -18.507  1.00  0.00     0.059 C 
ENDBRANCH   8   9
ENDBRANCH   6   8
BRANCH   1  15
HETATM   15  O1  UNL     1      -4.136 -10.889 -19.409  1.00  0.00    -0.394 OA
ATOM     16  H1  UNL     1      -3.906 -10.384 -20.181  1.00  0.00     0.210 HD
ENDBRANCH   1  15
TORSDOF 3
ENDMDL
