MODEL 1
REMARK VINA RESULT: -6.733392384      0.000      0.000
REMARK  8 active torsions:
REMARK  status: ('A' for Active; 'I' for Inactive)
REMARK    1  A    between atoms: C6_7  and  O1_8 
REMARK    2  A    between atoms: C6_7  and  C7_10 
REMARK    3  A    between atoms: C7_10  and  C8_11 
REMARK    4  A    between atoms: C8_11  and  C9_12 
REMARK    5  A    between atoms: C16_19  and  C17_20 
REMARK    6  A    between atoms: C17_20  and  O2_21 
REMARK    7  A    between atoms: C18_23  and  O3_24 
REMARK    8  A    between atoms: C19_26  and  O4_27 
ROOT
HETATM    1  C9  UNL     1      12.919  35.199  16.185  1.00  0.00    -0.052 C 
HETATM    2  C10 UNL     1      13.117  36.180  17.051  1.00  0.00    -0.016 C 
HETATM    3  C11 UNL     1      13.727  35.890  18.336  1.00  0.00     0.022 C 
HETATM    4  C12 UNL     1      13.361  36.756  19.487  1.00  0.00     0.013 C 
HETATM    5  C13 UNL     1      13.866  35.928  20.668  1.00  0.00    -0.017 C 
HETATM    6  C14 UNL     1      13.017  36.075  21.882  1.00  0.00     0.010 C 
HETATM    7  C15 UNL     1      13.928  34.480  20.165  1.00  0.00     0.019 C 
HETATM    8  C16 UNL     1      13.253  34.520  18.833  1.00  0.00     0.017 C 
HETATM    9  C18 UNL     1      13.728  33.518  17.844  1.00  0.00     0.162 C 
HETATM   10  C19 UNL     1      13.293  33.784  16.456  1.00  0.00     0.176 C 
ENDROOT
BRANCH   1  11
HETATM   11  C8  UNL     1      12.294  35.475  14.860  1.00  0.00     0.042 C 
BRANCH  11  12
HETATM   12  C7  UNL     1      10.941  36.136  14.999  1.00  0.00     0.081 C 
BRANCH  12  13
HETATM   13  C6  UNL     1       9.899  35.193  14.434  1.00  0.00     0.282 C 
HETATM   14  C2  UNL     1       8.837  35.071  15.498  1.00  0.00    -0.023 C 
HETATM   15  C1  UNL     1       8.855  34.257  16.546  1.00  0.00     0.019 C 
HETATM   16  C3  UNL     1       7.796  36.050  15.105  1.00  0.00     0.069 C 
HETATM   17  C4  UNL     1       7.896  36.036  13.600  1.00  0.00     0.281 C 
HETATM   18  N1  UNL     1       9.255  35.691  13.263  1.00  0.00     0.124 N 
HETATM   19  C5  UNL     1       9.191  34.605  12.292  1.00  0.00     0.314 C 
BRANCH  13  20
HETATM   20  O1  UNL     1      10.418  33.912  14.257  1.00  0.00    -0.359 OA
ATOM     21  H1  UNL     1      10.627  33.837  13.333  1.00  0.00     0.213 HD
ENDBRANCH  13  20
ENDBRANCH  12  13
ENDBRANCH  11  12
ENDBRANCH   1  11
BRANCH  10  22
HETATM   22  O4  UNL     1      14.340  33.475  15.568  1.00  0.00    -0.389 OA
ATOM     23  H4  UNL     1      14.787  32.722  15.935  1.00  0.00     0.210 HD
ENDBRANCH  10  22
BRANCH   9  24
HETATM   24  O3  UNL     1      13.328  32.217  18.210  1.00  0.00    -0.392 OA
ATOM     25  H3  UNL     1      14.080  31.649  18.327  1.00  0.00     0.210 HD
ENDBRANCH   9  24
BRANCH   8  26
HETATM   26  C17 UNL     1      11.754  34.495  19.029  1.00  0.00     0.177 C 
BRANCH  26  27
HETATM   27  O2  UNL     1      11.376  33.526  19.955  1.00  0.00    -0.400 OA
ATOM     28  H2  UNL     1      10.629  33.809  20.470  1.00  0.00     0.209 HD
ENDBRANCH  26  27
ENDBRANCH   8  26
TORSDOF 8
ENDMDL
MODEL 2
REMARK VINA RESULT: -6.668259150      2.539      3.328
REMARK  8 active torsions:
REMARK  status: ('A' for Active; 'I' for Inactive)
REMARK    1  A    between atoms: C6_7  and  O1_8 
REMARK    2  A    between atoms: C6_7  and  C7_10 
REMARK    3  A    between atoms: C7_10  and  C8_11 
REMARK    4  A    between atoms: C8_11  and  C9_12 
REMARK    5  A    between atoms: C16_19  and  C17_20 
REMARK    6  A    between atoms: C17_20  and  O2_21 
REMARK    7  A    between atoms: C18_23  and  O3_24 
REMARK    8  A    between atoms: C19_26  and  O4_27 
ROOT
HETATM    1  C9  UNL     1      13.294  35.277  16.237  1.00  0.00    -0.052 C 
HETATM    2  C10 UNL     1      13.265  34.437  17.259  1.00  0.00    -0.016 C 
HETATM    3  C11 UNL     1      13.025  34.943  18.598  1.00  0.00     0.022 C 
HETATM    4  C12 UNL     1      13.620  34.196  19.738  1.00  0.00     0.013 C 
HETATM    5  C13 UNL     1      13.489  35.211  20.873  1.00  0.00    -0.017 C 
HETATM    6  C14 UNL     1      14.610  35.136  21.848  1.00  0.00     0.010 C 
HETATM    7  C15 UNL     1      13.389  36.584  20.195  1.00  0.00     0.019 C 
HETATM    8  C16 UNL     1      13.696  36.312  18.759  1.00  0.00     0.017 C 
HETATM    9  C18 UNL     1      13.045  37.223  17.782  1.00  0.00     0.162 C 
HETATM   10  C19 UNL     1      13.092  36.744  16.383  1.00  0.00     0.176 C 
ENDROOT
BRANCH   1  11
HETATM   11  C8  UNL     1      13.539  34.778  14.854  1.00  0.00     0.042 C 
BRANCH  11  12
HETATM   12  C7  UNL     1      13.195  33.313  14.712  1.00  0.00     0.081 C 
BRANCH  12  13
HETATM   13  C6  UNL     1      12.036  33.197  13.744  1.00  0.00     0.282 C 
HETATM   14  C2  UNL     1      11.241  31.998  14.198  1.00  0.00    -0.023 C 
HETATM   15  C1  UNL     1      11.482  30.728  13.899  1.00  0.00     0.019 C 
HETATM   16  C3  UNL     1      10.154  32.561  15.035  1.00  0.00     0.069 C 
HETATM   17  C4  UNL     1       9.910  33.899  14.383  1.00  0.00     0.281 C 
HETATM   18  N1  UNL     1      11.151  34.315  13.778  1.00  0.00     0.124 N 
HETATM   19  C5  UNL     1      10.849  34.688  12.400  1.00  0.00     0.314 C 
BRANCH  13  20
HETATM   20  O1  UNL     1      12.479  32.902  12.456  1.00  0.00    -0.359 OA
ATOM     21  H1  UNL     1      12.996  33.649  12.178  1.00  0.00     0.213 HD
ENDBRANCH  13  20
ENDBRANCH  12  13
ENDBRANCH  11  12
ENDBRANCH   1  11
BRANCH  10  22
HETATM   22  O4  UNL     1      11.872  37.040  15.745  1.00  0.00    -0.389 OA
ATOM     23  H4  UNL     1      11.191  36.641  16.274  1.00  0.00     0.210 HD
ENDBRANCH  10  22
BRANCH   9  24
HETATM   24  O3  UNL     1      13.607  38.515  17.844  1.00  0.00    -0.392 OA
ATOM     25  H3  UNL     1      12.934  39.173  17.974  1.00  0.00     0.210 HD
ENDBRANCH   9  24
BRANCH   8  26
HETATM   26  C17 UNL     1      15.192  36.215  18.573  1.00  0.00     0.177 C 
BRANCH  26  27
HETATM   27  O2  UNL     1      15.863  37.189  19.311  1.00  0.00    -0.400 OA
ATOM     28  H2  UNL     1      16.776  37.250  19.058  1.00  0.00     0.209 HD
ENDBRANCH  26  27
ENDBRANCH   8  26
TORSDOF 8
ENDMDL
MODEL 3
REMARK VINA RESULT: -6.514829896      2.270      3.276
REMARK  8 active torsions:
REMARK  status: ('A' for Active; 'I' for Inactive)
REMARK    1  A    between atoms: C6_7  and  O1_8 
REMARK    2  A    between atoms: C6_7  and  C7_10 
REMARK    3  A    between atoms: C7_10  and  C8_11 
REMARK    4  A    between atoms: C8_11  and  C9_12 
REMARK    5  A    between atoms: C16_19  and  C17_20 
REMARK    6  A    between atoms: C17_20  and  O2_21 
REMARK    7  A    between atoms: C18_23  and  O3_24 
REMARK    8  A    between atoms: C19_26  and  O4_27 
ROOT
HETATM    1  C9  UNL     1      12.996  35.479  16.310  1.00  0.00    -0.052 C 
HETATM    2  C10 UNL     1      12.946  34.633  17.327  1.00  0.00    -0.016 C 
HETATM    3  C11 UNL     1      12.856  35.145  18.682  1.00  0.00     0.022 C 
HETATM    4  C12 UNL     1      13.443  34.322  19.773  1.00  0.00     0.013 C 
HETATM    5  C13 UNL     1      13.503  35.329  20.920  1.00  0.00    -0.017 C 
HETATM    6  C14 UNL     1      14.674  35.119  21.814  1.00  0.00     0.010 C 
HETATM    7  C15 UNL     1      13.508  36.714  20.259  1.00  0.00     0.019 C 
HETATM    8  C16 UNL     1      13.682  36.430  18.803  1.00  0.00     0.017 C 
HETATM    9  C18 UNL     1      13.069  37.420  17.880  1.00  0.00     0.162 C 
HETATM   10  C19 UNL     1      12.966  36.957  16.478  1.00  0.00     0.176 C 
ENDROOT
BRANCH   1  11
HETATM   11  C8  UNL     1      13.089  34.975  14.911  1.00  0.00     0.042 C 
BRANCH  11  12
HETATM   12  C7  UNL     1      12.141  33.825  14.660  1.00  0.00     0.081 C 
BRANCH  12  13
HETATM   13  C6  UNL     1      10.875  34.386  14.045  1.00  0.00     0.282 C 
HETATM   14  C2  UNL     1      10.594  33.531  12.834  1.00  0.00    -0.023 C 
HETATM   15  C1  UNL     1      11.120  33.673  11.624  1.00  0.00     0.019 C 
HETATM   16  C3  UNL     1       9.614  32.524  13.304  1.00  0.00     0.069 C 
HETATM   17  C4  UNL     1       8.845  33.289  14.351  1.00  0.00     0.281 C 
HETATM   18  N1  UNL     1       9.735  34.285  14.895  1.00  0.00     0.124 N 
HETATM   19  C5  UNL     1       9.028  35.560  14.848  1.00  0.00     0.314 C 
BRANCH  13  20
HETATM   20  O1  UNL     1      11.076  35.680  13.567  1.00  0.00    -0.359 OA
ATOM     21  H1  UNL     1      11.110  36.241  14.332  1.00  0.00     0.213 HD
ENDBRANCH  13  20
ENDBRANCH  12  13
ENDBRANCH  11  12
ENDBRANCH   1  11
BRANCH  10  22
HETATM   22  O4  UNL     1      11.745  37.393  15.929  1.00  0.00    -0.389 OA
ATOM     23  H4  UNL     1      11.489  38.162  16.425  1.00  0.00     0.210 HD
ENDBRANCH  10  22
BRANCH   9  24
HETATM   24  O3  UNL     1      13.772  38.641  17.910  1.00  0.00    -0.392 OA
ATOM     25  H3  UNL     1      13.950  38.910  18.804  1.00  0.00     0.210 HD
ENDBRANCH   9  24
BRANCH   8  26
HETATM   26  C17 UNL     1      15.143  36.173  18.512  1.00  0.00     0.177 C 
BRANCH  26  27
HETATM   27  O2  UNL     1      15.966  37.049  19.217  1.00  0.00    -0.400 OA
ATOM     28  H2  UNL     1      16.806  36.654  19.416  1.00  0.00     0.209 HD
ENDBRANCH  26  27
ENDBRANCH   8  26
TORSDOF 8
ENDMDL
MODEL 4
REMARK VINA RESULT: -6.421241554      0.962      1.473
REMARK  8 active torsions:
REMARK  status: ('A' for Active; 'I' for Inactive)
REMARK    1  A    between atoms: C6_7  and  O1_8 
REMARK    2  A    between atoms: C6_7  and  C7_10 
REMARK    3  A    between atoms: C7_10  and  C8_11 
REMARK    4  A    between atoms: C8_11  and  C9_12 
REMARK    5  A    between atoms: C16_19  and  C17_20 
REMARK    6  A    between atoms: C17_20  and  O2_21 
REMARK    7  A    between atoms: C18_23  and  O3_24 
REMARK    8  A    between atoms: C19_26  and  O4_27 
ROOT
HETATM    1  C9  UNL     1      12.918  35.202  16.200  1.00  0.00    -0.052 C 
HETATM    2  C10 UNL     1      13.110  36.188  17.060  1.00  0.00    -0.016 C 
HETATM    3  C11 UNL     1      13.729  35.909  18.344  1.00  0.00     0.022 C 
HETATM    4  C12 UNL     1      13.360  36.777  19.493  1.00  0.00     0.013 C 
HETATM    5  C13 UNL     1      13.878  35.959  20.676  1.00  0.00    -0.017 C 
HETATM    6  C14 UNL     1      13.033  36.103  21.892  1.00  0.00     0.010 C 
HETATM    7  C15 UNL     1      13.952  34.509  20.178  1.00  0.00     0.019 C 
HETATM    8  C16 UNL     1      13.270  34.537  18.849  1.00  0.00     0.017 C 
HETATM    9  C18 UNL     1      13.751  33.536  17.862  1.00  0.00     0.162 C 
HETATM   10  C19 UNL     1      13.306  33.792  16.475  1.00  0.00     0.176 C 
ENDROOT
BRANCH   1  11
HETATM   11  C8  UNL     1      12.284  35.466  14.877  1.00  0.00     0.042 C 
BRANCH  11  12
HETATM   12  C7  UNL     1      10.919  36.100  15.019  1.00  0.00     0.081 C 
BRANCH  12  13
HETATM   13  C6  UNL     1       9.890  34.989  15.070  1.00  0.00     0.282 C 
HETATM   14  C2  UNL     1       8.698  35.498  14.298  1.00  0.00    -0.023 C 
HETATM   15  C1  UNL     1       7.728  36.276  14.762  1.00  0.00     0.019 C 
HETATM   16  C3  UNL     1       8.864  34.938  12.936  1.00  0.00     0.069 C 
HETATM   17  C4  UNL     1       9.556  33.627  13.211  1.00  0.00     0.281 C 
HETATM   18  N1  UNL     1      10.316  33.789  14.426  1.00  0.00     0.124 N 
HETATM   19  C5  UNL     1       9.973  32.670  15.296  1.00  0.00     0.314 C 
BRANCH  13  20
HETATM   20  O1  UNL     1       9.444  34.770  16.371  1.00  0.00    -0.359 OA
ATOM     21  H1  UNL     1       9.492  33.832  16.513  1.00  0.00     0.213 HD
ENDBRANCH  13  20
ENDBRANCH  12  13
ENDBRANCH  11  12
ENDBRANCH   1  11
BRANCH  10  22
HETATM   22  O4  UNL     1      14.353  33.489  15.583  1.00  0.00    -0.389 OA
ATOM     23  H4  UNL     1      14.074  33.800  14.730  1.00  0.00     0.210 HD
ENDBRANCH  10  22
BRANCH   9  24
HETATM   24  O3  UNL     1      13.364  32.233  18.236  1.00  0.00    -0.392 OA
ATOM     25  H3  UNL     1      12.958  32.231  19.095  1.00  0.00     0.210 HD
ENDBRANCH   9  24
BRANCH   8  26
HETATM   26  C17 UNL     1      11.773  34.499  19.052  1.00  0.00     0.177 C 
BRANCH  26  27
HETATM   27  O2  UNL     1      11.408  33.532  19.986  1.00  0.00    -0.400 OA
ATOM     28  H2  UNL     1      11.438  32.658  19.613  1.00  0.00     0.209 HD
ENDBRANCH  26  27
ENDBRANCH   8  26
TORSDOF 8
ENDMDL
MODEL 5
REMARK VINA RESULT: -6.165342571      3.012      4.086
REMARK  8 active torsions:
REMARK  status: ('A' for Active; 'I' for Inactive)
REMARK    1  A    between atoms: C6_7  and  O1_8 
REMARK    2  A    between atoms: C6_7  and  C7_10 
REMARK    3  A    between atoms: C7_10  and  C8_11 
REMARK    4  A    between atoms: C8_11  and  C9_12 
REMARK    5  A    between atoms: C16_19  and  C17_20 
REMARK    6  A    between atoms: C17_20  and  O2_21 
REMARK    7  A    between atoms: C18_23  and  O3_24 
REMARK    8  A    between atoms: C19_26  and  O4_27 
ROOT
HETATM    1  C9  UNL     1      12.623  34.526  16.156  1.00  0.00    -0.052 C 
HETATM    2  C10 UNL     1      12.673  33.846  17.290  1.00  0.00    -0.016 C 
HETATM    3  C11 UNL     1      12.633  34.557  18.555  1.00  0.00     0.022 C 
HETATM    4  C12 UNL     1      13.322  33.938  19.718  1.00  0.00     0.013 C 
HETATM    5  C13 UNL     1      13.394  35.113  20.693  1.00  0.00    -0.017 C 
HETATM    6  C14 UNL     1      14.623  35.094  21.532  1.00  0.00     0.010 C 
HETATM    7  C15 UNL     1      13.290  36.378  19.830  1.00  0.00     0.019 C 
HETATM    8  C16 UNL     1      13.397  35.879  18.426  1.00  0.00     0.017 C 
HETATM    9  C18 UNL     1      12.683  36.687  17.404  1.00  0.00     0.162 C 
HETATM   10  C19 UNL     1      12.526  36.010  16.099  1.00  0.00     0.176 C 
ENDROOT
BRANCH   1  11
HETATM   11  C8  UNL     1      12.662  33.816  14.846  1.00  0.00     0.042 C 
BRANCH  11  12
HETATM   12  C7  UNL     1      13.697  34.405  13.914  1.00  0.00     0.081 C 
BRANCH  12  13
HETATM   13  C6  UNL     1      13.081  34.505  12.534  1.00  0.00     0.282 C 
HETATM   14  C2  UNL     1      13.317  35.924  12.081  1.00  0.00    -0.023 C 
HETATM   15  C1  UNL     1      12.573  36.983  12.376  1.00  0.00     0.019 C 
HETATM   16  C3  UNL     1      14.543  35.856  11.251  1.00  0.00     0.069 C 
HETATM   17  C4  UNL     1      14.443  34.479  10.646  1.00  0.00     0.281 C 
HETATM   18  N1  UNL     1      13.702  33.656  11.570  1.00  0.00     0.124 N 
HETATM   19  C5  UNL     1      12.647  33.001  10.805  1.00  0.00     0.314 C 
BRANCH  13  20
HETATM   20  O1  UNL     1      11.698  34.339  12.583  1.00  0.00    -0.359 OA
ATOM     21  H1  UNL     1      11.496  33.629  11.986  1.00  0.00     0.213 HD
ENDBRANCH  13  20
ENDBRANCH  12  13
ENDBRANCH  11  12
ENDBRANCH   1  11
BRANCH  10  22
HETATM   22  O4  UNL     1      11.255  36.303  15.568  1.00  0.00    -0.389 OA
ATOM     23  H4  UNL     1      11.181  35.802  14.764  1.00  0.00     0.210 HD
ENDBRANCH  10  22
BRANCH   9  24
HETATM   24  O3  UNL     1      13.322  37.928  17.204  1.00  0.00    -0.392 OA
ATOM     25  H3  UNL     1      13.331  38.162  16.284  1.00  0.00     0.210 HD
ENDBRANCH   9  24
BRANCH   8  26
HETATM   26  C17 UNL     1      14.851  35.643  18.086  1.00  0.00     0.177 C 
BRANCH  26  27
HETATM   27  O2  UNL     1      15.659  36.680  18.547  1.00  0.00    -0.400 OA
ATOM     28  H2  UNL     1      16.571  36.418  18.591  1.00  0.00     0.209 HD
ENDBRANCH  26  27
ENDBRANCH   8  26
TORSDOF 8
ENDMDL
