MODEL 1
REMARK VINA RESULT: -6.695448856      0.000      0.000
REMARK  6 active torsions:
REMARK  status: ('A' for Active; 'I' for Inactive)
REMARK    1  A    between atoms: C2_2  and  C3_3 
REMARK    2  A    between atoms: C3_3  and  N1_4 
REMARK    3  A    between atoms: C4_5  and  N2_6 
REMARK    4  A    between atoms: C6_12  and  N4_13 
REMARK    5  A    between atoms: N4_13  and  C7_15 
REMARK    6  A    between atoms: N6_24  and  C14_26 
ROOT
HETATM    1  N1  UNL     1       9.878  34.079  15.059  1.00  0.00    -0.166 N 
HETATM    2  C4  UNL     1       9.608  33.820  16.358  1.00  0.00     0.680 A 
HETATM    3  N3  UNL     1      10.719  33.922  17.094  1.00  0.00    -0.184 N 
ATOM      4  H3  UNL     1      10.776  33.774  18.102  1.00  0.00     0.184 HD
HETATM    5  C5  UNL     1      11.739  34.247  16.304  1.00  0.00     0.138 A 
HETATM    6  C6  UNL     1      13.079  34.467  16.540  1.00  0.00     0.148 A 
HETATM    7  N5  UNL     1      13.831  34.775  15.489  1.00  0.00    -0.175 N 
ATOM      8  H5  UNL     1      14.826  34.942  15.638  1.00  0.00     0.186 HD
HETATM    9  C13 UNL     1      13.330  34.881  14.195  1.00  0.00     0.681 A 
HETATM   10  N6  UNL     1      14.038  35.157  13.258  1.00  0.00    -0.222 N 
ATOM     11  H6  UNL     1      14.946  35.258  13.712  1.00  0.00     0.178 HD
HETATM   12  N7  UNL     1      11.995  34.659  13.983  1.00  0.00    -0.173 N 
ATOM     13  H7  UNL     1      11.605  34.733  13.043  1.00  0.00     0.186 HD
HETATM   14  C17 UNL     1      11.204  34.345  15.020  1.00  0.00     0.170 A 
ENDROOT
BRANCH   6  15
HETATM   15  N4  UNL     1      13.527  34.367  17.714  1.00  0.00    -0.369 N 
ATOM     16  H4  UNL     1      14.125  33.554  17.861  1.00  0.00     0.161 HD
BRANCH  15  17
HETATM   17  C7  UNL     1      13.355  35.165  18.862  1.00  0.00     0.083 C 
HETATM   18  C8  UNL     1      13.241  34.274  20.078  1.00  0.00     0.025 C 
HETATM   19  C9  UNL     1      14.252  34.633  21.148  1.00  0.00     0.002 C 
HETATM   20  C10 UNL     1      14.098  36.087  21.548  1.00  0.00     0.000 C 
HETATM   21  C11 UNL     1      14.043  36.986  20.327  1.00  0.00     0.002 C 
HETATM   22  C12 UNL     1      14.440  36.197  19.069  1.00  0.00     0.025 C 
ENDBRANCH  15  17
ENDBRANCH   6  15
BRANCH   2  23
HETATM   23  N2  UNL     1       8.454  33.501  16.850  1.00  0.00    -0.234 N 
ATOM     24  H22 UNL     1       7.762  34.188  17.150  1.00  0.00     0.174 HD
ATOM     25  H21 UNL     1       8.105  32.555  17.006  1.00  0.00     0.174 HD
ENDBRANCH   2  23
BRANCH   1  26
HETATM   26  C3  UNL     1       8.919  34.055  14.003  1.00  0.00     0.149 C 
BRANCH  26  27
HETATM   27  C2  UNL     1       8.474  35.386  13.495  1.00  0.00     0.016 C 
HETATM   28  C1  UNL     1       7.616  36.167  14.443  1.00  0.00     0.006 C 
ENDBRANCH  26  27
ENDBRANCH   1  26
BRANCH  10  29
HETATM   29  C14 UNL     1      14.344  35.408  11.989  1.00  0.00     0.091 C 
HETATM   30  C15 UNL     1      14.017  34.250  11.031  1.00  0.00     0.032 C 
HETATM   31  C16 UNL     1      13.609  36.669  11.471  1.00  0.00     0.032 C 
ENDBRANCH  10  29
TORSDOF 6
ENDMDL
MODEL 2
REMARK VINA RESULT: -6.423955616      1.470      1.689
REMARK  6 active torsions:
REMARK  status: ('A' for Active; 'I' for Inactive)
REMARK    1  A    between atoms: C2_2  and  C3_3 
REMARK    2  A    between atoms: C3_3  and  N1_4 
REMARK    3  A    between atoms: C4_5  and  N2_6 
REMARK    4  A    between atoms: C6_12  and  N4_13 
REMARK    5  A    between atoms: N4_13  and  C7_15 
REMARK    6  A    between atoms: N6_24  and  C14_26 
ROOT
HETATM    1  N1  UNL     1       9.273  33.505  15.615  1.00  0.00    -0.166 N 
HETATM    2  C4  UNL     1       9.120  33.858  16.911  1.00  0.00     0.680 A 
HETATM    3  N3  UNL     1      10.305  33.888  17.529  1.00  0.00    -0.184 N 
ATOM      4  H3  UNL     1      10.454  34.127  18.510  1.00  0.00     0.184 HD
HETATM    5  C5  UNL     1      11.259  33.558  16.662  1.00  0.00     0.138 A 
HETATM    6  C6  UNL     1      12.627  33.430  16.772  1.00  0.00     0.148 A 
HETATM    7  N5  UNL     1      13.286  33.068  15.677  1.00  0.00    -0.175 N 
ATOM      8  H5  UNL     1      14.299  32.966  15.733  1.00  0.00     0.186 HD
HETATM    9  C13 UNL     1      12.663  32.819  14.457  1.00  0.00     0.681 A 
HETATM   10  N6  UNL     1      13.287  32.486  13.480  1.00  0.00    -0.222 N 
ATOM     11  H6  UNL     1      14.240  32.469  13.842  1.00  0.00     0.178 HD
HETATM   12  N7  UNL     1      11.303  32.953  14.370  1.00  0.00    -0.173 N 
ATOM     13  H7  UNL     1      10.825  32.778  13.486  1.00  0.00     0.186 HD
HETATM   14  C17 UNL     1      10.604  33.317  15.455  1.00  0.00     0.170 A 
ENDROOT
BRANCH   6  15
HETATM   15  N4  UNL     1      13.184  33.655  17.880  1.00  0.00    -0.369 N 
ATOM     16  H4  UNL     1      13.836  32.927  18.171  1.00  0.00     0.161 HD
BRANCH  15  17
HETATM   17  C7  UNL     1      13.073  34.721  18.794  1.00  0.00     0.083 C 
HETATM   18  C8  UNL     1      13.073  34.173  20.203  1.00  0.00     0.025 C 
HETATM   19  C9  UNL     1      14.148  34.804  21.064  1.00  0.00     0.002 C 
HETATM   20  C10 UNL     1      13.983  36.312  21.088  1.00  0.00     0.000 C 
HETATM   21  C11 UNL     1      13.815  36.864  19.684  1.00  0.00     0.002 C 
HETATM   22  C12 UNL     1      14.141  35.780  18.645  1.00  0.00     0.025 C 
ENDBRANCH  15  17
ENDBRANCH   6  15
BRANCH   2  23
HETATM   23  N2  UNL     1       8.000  34.120  17.505  1.00  0.00    -0.234 N 
ATOM     24  H22 UNL     1       7.410  34.916  17.263  1.00  0.00     0.174 HD
ATOM     25  H21 UNL     1       7.585  33.590  18.270  1.00  0.00     0.174 HD
ENDBRANCH   2  23
BRANCH   1  26
HETATM   26  C3  UNL     1       8.211  33.374  14.671  1.00  0.00     0.149 C 
BRANCH  26  27
HETATM   27  C2  UNL     1       8.087  34.476  13.672  1.00  0.00     0.016 C 
HETATM   28  C1  UNL     1       7.627  35.786  14.234  1.00  0.00     0.006 C 
ENDBRANCH  26  27
ENDBRANCH   1  26
BRANCH  10  29
HETATM   29  C14 UNL     1      13.476  32.127  12.214  1.00  0.00     0.091 C 
HETATM   30  C15 UNL     1      12.738  30.836  11.818  1.00  0.00     0.032 C 
HETATM   31  C16 UNL     1      13.029  33.244  11.239  1.00  0.00     0.032 C 
ENDBRANCH  10  29
TORSDOF 6
ENDMDL
MODEL 3
REMARK VINA RESULT: -6.411124240      0.974      1.465
REMARK  6 active torsions:
REMARK  status: ('A' for Active; 'I' for Inactive)
REMARK    1  A    between atoms: C2_2  and  C3_3 
REMARK    2  A    between atoms: C3_3  and  N1_4 
REMARK    3  A    between atoms: C4_5  and  N2_6 
REMARK    4  A    between atoms: C6_12  and  N4_13 
REMARK    5  A    between atoms: N4_13  and  C7_15 
REMARK    6  A    between atoms: N6_24  and  C14_26 
ROOT
HETATM    1  N1  UNL     1       9.754  33.611  15.235  1.00  0.00    -0.166 N 
HETATM    2  C4  UNL     1       9.385  33.780  16.525  1.00  0.00     0.680 A 
HETATM    3  N3  UNL     1      10.316  34.472  17.189  1.00  0.00    -0.184 N 
ATOM      4  H3  UNL     1      10.270  34.730  18.175  1.00  0.00     0.184 HD
HETATM    5  C5  UNL     1      11.312  34.773  16.359  1.00  0.00     0.138 A 
HETATM    6  C6  UNL     1      12.500  35.453  16.522  1.00  0.00     0.148 A 
HETATM    7  N5  UNL     1      13.281  35.562  15.454  1.00  0.00    -0.175 N 
ATOM      8  H5  UNL     1      14.165  36.061  15.549  1.00  0.00     0.186 HD
HETATM    9  C13 UNL     1      12.954  35.029  14.210  1.00  0.00     0.681 A 
HETATM   10  N6  UNL     1      13.686  35.139  13.258  1.00  0.00    -0.222 N 
ATOM     11  H6  UNL     1      14.462  35.666  13.657  1.00  0.00     0.178 HD
HETATM   12  N7  UNL     1      11.768  34.358  14.069  1.00  0.00    -0.173 N 
ATOM     13  H7  UNL     1      11.507  33.960  13.167  1.00  0.00     0.186 HD
HETATM   14  C17 UNL     1      10.954  34.226  15.127  1.00  0.00     0.170 A 
ENDROOT
BRANCH   6  15
HETATM   15  N4  UNL     1      12.790  35.931  17.652  1.00  0.00    -0.369 N 
ATOM     16  H4  UNL     1      12.365  36.838  17.840  1.00  0.00     0.161 HD
BRANCH  15  17
HETATM   17  C7  UNL     1      13.593  35.447  18.704  1.00  0.00     0.083 C 
HETATM   18  C8  UNL     1      14.267  36.611  19.394  1.00  0.00     0.025 C 
HETATM   19  C9  UNL     1      13.995  36.628  20.885  1.00  0.00     0.002 C 
HETATM   20  C10 UNL     1      14.434  35.320  21.514  1.00  0.00     0.000 C 
HETATM   21  C11 UNL     1      13.901  34.134  20.733  1.00  0.00     0.002 C 
HETATM   22  C12 UNL     1      12.851  34.599  19.712  1.00  0.00     0.025 C 
ENDBRANCH  15  17
ENDBRANCH   6  15
BRANCH   2  23
HETATM   23  N2  UNL     1       8.300  33.335  17.074  1.00  0.00    -0.234 N 
ATOM     24  H22 UNL     1       7.778  33.851  17.782  1.00  0.00     0.174 HD
ATOM     25  H21 UNL     1       7.852  32.439  16.885  1.00  0.00     0.174 HD
ENDBRANCH   2  23
BRANCH   1  26
HETATM   26  C3  UNL     1       8.991  32.914  14.251  1.00  0.00     0.149 C 
BRANCH  26  27
HETATM   27  C2  UNL     1       7.843  33.665  13.663  1.00  0.00     0.016 C 
HETATM   28  C1  UNL     1       6.553  32.905  13.615  1.00  0.00     0.006 C 
ENDBRANCH  26  27
ENDBRANCH   1  26
BRANCH  10  29
HETATM   29  C14 UNL     1      14.086  34.985  11.999  1.00  0.00     0.091 C 
HETATM   30  C15 UNL     1      13.732  33.613  11.399  1.00  0.00     0.032 C 
HETATM   31  C16 UNL     1      13.481  36.073  11.078  1.00  0.00     0.032 C 
ENDBRANCH  10  29
TORSDOF 6
ENDMDL
MODEL 4
REMARK VINA RESULT: -6.217441652      0.730      1.396
REMARK  6 active torsions:
REMARK  status: ('A' for Active; 'I' for Inactive)
REMARK    1  A    between atoms: C2_2  and  C3_3 
REMARK    2  A    between atoms: C3_3  and  N1_4 
REMARK    3  A    between atoms: C4_5  and  N2_6 
REMARK    4  A    between atoms: C6_12  and  N4_13 
REMARK    5  A    between atoms: N4_13  and  C7_15 
REMARK    6  A    between atoms: N6_24  and  C14_26 
ROOT
HETATM    1  N1  UNL     1       9.555  34.290  15.467  1.00  0.00    -0.166 N 
HETATM    2  C4  UNL     1       9.434  33.904  16.757  1.00  0.00     0.680 A 
HETATM    3  N3  UNL     1      10.641  33.736  17.307  1.00  0.00    -0.184 N 
ATOM      4  H3  UNL     1      10.817  33.448  18.270  1.00  0.00     0.184 HD
HETATM    5  C5  UNL     1      11.577  34.005  16.399  1.00  0.00     0.138 A 
HETATM    6  C6  UNL     1      12.955  33.984  16.434  1.00  0.00     0.148 A 
HETATM    7  N5  UNL     1      13.589  34.310  15.313  1.00  0.00    -0.175 N 
ATOM      8  H5  UNL     1      14.608  34.302  15.313  1.00  0.00     0.186 HD
HETATM    9  C13 UNL     1      12.931  34.663  14.138  1.00  0.00     0.681 A 
HETATM   10  N6  UNL     1      13.533  34.950  13.133  1.00  0.00    -0.222 N 
ATOM     11  H6  UNL     1      14.500  34.850  13.439  1.00  0.00     0.178 HD
HETATM   12  N7  UNL     1      11.561  34.678  14.126  1.00  0.00    -0.173 N 
ATOM     13  H7  UNL     1      11.058  34.935  13.277  1.00  0.00     0.186 HD
HETATM   14  C17 UNL     1      10.887  34.353  15.239  1.00  0.00     0.170 A 
ENDROOT
BRANCH   6  15
HETATM   15  N4  UNL     1      13.543  33.660  17.501  1.00  0.00    -0.369 N 
ATOM     16  H4  UNL     1      13.688  32.656  17.606  1.00  0.00     0.161 HD
BRANCH  15  17
HETATM   17  C7  UNL     1      14.039  34.425  18.575  1.00  0.00     0.083 C 
HETATM   18  C8  UNL     1      14.258  35.848  18.116  1.00  0.00     0.025 C 
HETATM   19  C9  UNL     1      13.528  36.850  18.988  1.00  0.00     0.002 C 
HETATM   20  C10 UNL     1      13.954  36.694  20.435  1.00  0.00     0.000 C 
HETATM   21  C11 UNL     1      13.899  35.241  20.866  1.00  0.00     0.002 C 
HETATM   22  C12 UNL     1      13.165  34.401  19.809  1.00  0.00     0.025 C 
ENDBRANCH  15  17
ENDBRANCH   6  15
BRANCH   2  23
HETATM   23  N2  UNL     1       8.326  33.703  17.395  1.00  0.00    -0.234 N 
ATOM     24  H22 UNL     1       7.794  34.448  17.845  1.00  0.00     0.174 HD
ATOM     25  H21 UNL     1       7.866  32.804  17.534  1.00  0.00     0.174 HD
ENDBRANCH   2  23
BRANCH   1  26
HETATM   26  C3  UNL     1       8.463  34.554  14.587  1.00  0.00     0.149 C 
BRANCH  26  27
HETATM   27  C2  UNL     1       8.005  35.973  14.522  1.00  0.00     0.016 C 
HETATM   28  C1  UNL     1       7.316  36.354  13.247  1.00  0.00     0.006 C 
ENDBRANCH  26  27
ENDBRANCH   1  26
BRANCH  10  29
HETATM   29  C14 UNL     1      13.690  35.319  11.865  1.00  0.00     0.091 C 
HETATM   30  C15 UNL     1      15.126  35.750  11.518  1.00  0.00     0.032 C 
HETATM   31  C16 UNL     1      13.292  34.181  10.893  1.00  0.00     0.032 C 
ENDBRANCH  10  29
TORSDOF 6
ENDMDL
MODEL 5
REMARK VINA RESULT: -6.170153563      2.285      3.094
REMARK  6 active torsions:
REMARK  status: ('A' for Active; 'I' for Inactive)
REMARK    1  A    between atoms: C2_2  and  C3_3 
REMARK    2  A    between atoms: C3_3  and  N1_4 
REMARK    3  A    between atoms: C4_5  and  N2_6 
REMARK    4  A    between atoms: C6_12  and  N4_13 
REMARK    5  A    between atoms: N4_13  and  C7_15 
REMARK    6  A    between atoms: N6_24  and  C14_26 
ROOT
HETATM    1  N1  UNL     1      11.481  36.057  14.479  1.00  0.00    -0.166 N 
HETATM    2  C4  UNL     1      11.885  36.878  15.474  1.00  0.00     0.680 A 
HETATM    3  N3  UNL     1      12.473  36.176  16.448  1.00  0.00    -0.184 N 
ATOM      4  H3  UNL     1      12.863  36.567  17.306  1.00  0.00     0.184 HD
HETATM    5  C5  UNL     1      12.469  34.886  16.120  1.00  0.00     0.138 A 
HETATM    6  C6  UNL     1      12.930  33.752  16.755  1.00  0.00     0.148 A 
HETATM    7  N5  UNL     1      12.748  32.596  16.127  1.00  0.00    -0.175 N 
ATOM      8  H5  UNL     1      13.081  31.744  16.576  1.00  0.00     0.186 HD
HETATM    9  C13 UNL     1      12.126  32.490  14.886  1.00  0.00     0.681 A 
HETATM   10  N6  UNL     1      11.969  31.426  14.342  1.00  0.00    -0.222 N 
ATOM     11  H6  UNL     1      12.389  30.787  15.017  1.00  0.00     0.178 HD
HETATM   12  N7  UNL     1      11.675  33.629  14.273  1.00  0.00    -0.173 N 
ATOM     13  H7  UNL     1      11.218  33.576  13.363  1.00  0.00     0.186 HD
HETATM   14  C17 UNL     1      11.841  34.815  14.877  1.00  0.00     0.170 A 
ENDROOT
BRANCH   6  15
HETATM   15  N4  UNL     1      13.490  33.856  17.880  1.00  0.00    -0.369 N 
ATOM     16  H4  UNL     1      14.235  33.177  18.036  1.00  0.00     0.161 HD
BRANCH  15  17
HETATM   17  C7  UNL     1      13.281  34.734  18.962  1.00  0.00     0.083 C 
HETATM   18  C8  UNL     1      13.252  33.941  20.249  1.00  0.00     0.025 C 
HETATM   19  C9  UNL     1      14.253  34.458  21.262  1.00  0.00     0.002 C 
HETATM   20  C10 UNL     1      14.001  35.927  21.545  1.00  0.00     0.000 C 
HETATM   21  C11 UNL     1      13.862  36.714  20.256  1.00  0.00     0.002 C 
HETATM   22  C12 UNL     1      14.293  35.853  19.059  1.00  0.00     0.025 C 
ENDBRANCH  15  17
ENDBRANCH   6  15
BRANCH   2  23
HETATM   23  N2  UNL     1      11.729  38.163  15.516  1.00  0.00    -0.234 N 
ATOM     24  H22 UNL     1      11.858  38.771  14.708  1.00  0.00     0.174 HD
ATOM     25  H21 UNL     1      11.477  38.712  16.338  1.00  0.00     0.174 HD
ENDBRANCH   2  23
BRANCH   1  26
HETATM   26  C3  UNL     1      10.815  36.479  13.290  1.00  0.00     0.149 C 
BRANCH  26  27
HETATM   27  C2  UNL     1       9.432  35.954  13.094  1.00  0.00     0.016 C 
HETATM   28  C1  UNL     1       8.508  36.169  14.253  1.00  0.00     0.006 C 
ENDBRANCH  26  27
ENDBRANCH   1  26
BRANCH  10  29
HETATM   29  C14 UNL     1      11.577  30.586  13.388  1.00  0.00     0.091 C 
HETATM   30  C15 UNL     1      12.314  30.777  12.051  1.00  0.00     0.032 C 
HETATM   31  C16 UNL     1      11.765  29.112  13.823  1.00  0.00     0.032 C 
ENDBRANCH  10  29
TORSDOF 6
ENDMDL
