MODEL 1
REMARK VINA RESULT: -7.055091185      0.000      0.000
REMARK  10 active torsions:
REMARK  status: ('A' for Active; 'I' for Inactive)
REMARK    1  A    between atoms: C2_2  and  C3_3 
REMARK    2  A    between atoms: C3_3  and  C15_16 
REMARK    3  A    between atoms: C4_4  and  C5_5 
REMARK    4  A    between atoms: C5_5  and  C6_7 
REMARK    5  A    between atoms: C7_8  and  C9_10 
REMARK    6  A    between atoms: C9_10  and  C10_11 
REMARK    7  A    between atoms: C10_11  and  C11_12 
REMARK    8  A    between atoms: C19_21  and  C20_22 
REMARK    9  A    between atoms: C20_22  and  N2_23 
REMARK   10  A    between atoms: N2_23  and  C22_25 
ROOT
HETATM    1  C3  UNL     1     -46.769  12.186  -5.335  1.00  0.00    -0.070 C 
HETATM    2  C4  UNL     1     -46.298  13.394  -5.482  1.00  0.00     0.058 C 
ENDROOT
BRANCH   1   3
HETATM    3  C2  UNL     1     -47.735  11.618  -6.261  1.00  0.00     0.030 C 
HETATM    4  C1  UNL     1     -47.563  10.167  -6.636  1.00  0.00     0.010 C 
ENDBRANCH   1   3
BRANCH   1   5
HETATM    5  C15 UNL     1     -46.302  11.475  -4.100  1.00  0.00     0.050 C 
HETATM    6  C16 UNL     1     -44.933  11.949  -3.678  1.00  0.00     0.281 C 
HETATM    7  N1  UNL     1     -45.169  12.775  -2.558  1.00  0.00     0.085 N 
HETATM    8  C17 UNL     1     -44.022  12.973  -1.707  1.00  0.00     0.309 C 
HETATM    9  C18 UNL     1     -46.328  12.301  -1.836  1.00  0.00     0.279 C 
HETATM   10  C19 UNL     1     -47.118  11.613  -2.877  1.00  0.00     0.052 C 
BRANCH  10  11
HETATM   11  C20 UNL     1     -47.780  10.315  -2.518  1.00  0.00     0.279 C 
BRANCH  11  12
HETATM   12  N2  UNL     1     -49.163  10.184  -2.638  1.00  0.00     0.084 N 
HETATM   13  C21 UNL     1     -49.928  11.376  -2.768  1.00  0.00     0.309 C 
BRANCH  12  14
HETATM   14  C22 UNL     1     -49.567   9.253  -3.680  1.00  0.00     0.267 C 
HETATM   15  C23 UNL     1     -50.858   9.694  -4.343  1.00  0.00     0.037 C 
ENDBRANCH  12  14
ENDBRANCH  11  12
ENDBRANCH  10  11
ENDBRANCH   1   5
BRANCH   2  16
HETATM   16  C5  UNL     1     -46.525  14.432  -6.462  1.00  0.00     0.172 C 
HETATM   17  O1  UNL     1     -47.665  14.919  -6.576  1.00  0.00    -0.289 OA
BRANCH  16  18
HETATM   18  C6  UNL     1     -45.401  14.898  -7.306  1.00  0.00     0.057 C 
HETATM   19  C7  UNL     1     -44.759  14.283  -8.230  1.00  0.00    -0.080 C 
HETATM   20  C8  UNL     1     -43.648  15.110  -8.884  1.00  0.00     0.043 C 
BRANCH  19  21
HETATM   21  C9  UNL     1     -44.976  12.916  -8.675  1.00  0.00     0.037 C 
BRANCH  21  22
HETATM   22  C10 UNL     1     -45.751  12.873  -9.990  1.00  0.00     0.031 C 
BRANCH  22  23
HETATM   23  C11 UNL     1     -46.999  12.094  -9.747  1.00  0.00    -0.024 C 
HETATM   24  C12 UNL     1     -47.772  11.708 -10.757  1.00  0.00    -0.091 C 
HETATM   25  C13 UNL     1     -47.359  12.075 -12.148  1.00  0.00     0.042 C 
HETATM   26  C14 UNL     1     -49.000  10.941 -10.471  1.00  0.00     0.042 C 
ENDBRANCH  22  23
ENDBRANCH  21  22
ENDBRANCH  19  21
ENDBRANCH  16  18
ENDBRANCH   2  16
TORSDOF 10
ENDMDL
MODEL 2
REMARK VINA RESULT: -6.627357972      2.535      6.581
REMARK  10 active torsions:
REMARK  status: ('A' for Active; 'I' for Inactive)
REMARK    1  A    between atoms: C2_2  and  C3_3 
REMARK    2  A    between atoms: C3_3  and  C15_16 
REMARK    3  A    between atoms: C4_4  and  C5_5 
REMARK    4  A    between atoms: C5_5  and  C6_7 
REMARK    5  A    between atoms: C7_8  and  C9_10 
REMARK    6  A    between atoms: C9_10  and  C10_11 
REMARK    7  A    between atoms: C10_11  and  C11_12 
REMARK    8  A    between atoms: C19_21  and  C20_22 
REMARK    9  A    between atoms: C20_22  and  N2_23 
REMARK   10  A    between atoms: N2_23  and  C22_25 
ROOT
HETATM    1  C3  UNL     1     -46.244  12.862  -6.443  1.00  0.00    -0.070 C 
HETATM    2  C4  UNL     1     -45.023  12.961  -5.994  1.00  0.00     0.058 C 
ENDROOT
BRANCH   1   3
HETATM    3  C2  UNL     1     -47.302  12.235  -5.668  1.00  0.00     0.030 C 
HETATM    4  C1  UNL     1     -47.949  11.003  -6.250  1.00  0.00     0.010 C 
ENDBRANCH   1   3
BRANCH   1   5
HETATM    5  C15 UNL     1     -46.442  13.366  -7.841  1.00  0.00     0.050 C 
HETATM    6  C16 UNL     1     -46.522  14.873  -7.876  1.00  0.00     0.281 C 
HETATM    7  N1  UNL     1     -45.276  15.286  -8.394  1.00  0.00     0.085 N 
HETATM    8  C17 UNL     1     -45.269  16.617  -8.949  1.00  0.00     0.309 C 
HETATM    9  C18 UNL     1     -44.773  14.292  -9.314  1.00  0.00     0.279 C 
HETATM   10  C19 UNL     1     -45.404  13.043  -8.842  1.00  0.00     0.052 C 
BRANCH  10  11
HETATM   11  C20 UNL     1     -45.925  12.081  -9.870  1.00  0.00     0.279 C 
BRANCH  11  12
HETATM   12  N2  UNL     1     -47.147  12.327 -10.495  1.00  0.00     0.084 N 
HETATM   13  C21 UNL     1     -47.172  12.320 -11.917  1.00  0.00     0.309 C 
BRANCH  12  14
HETATM   14  C22 UNL     1     -48.226  11.484 -10.003  1.00  0.00     0.267 C 
HETATM   15  C23 UNL     1     -48.997  10.853 -11.148  1.00  0.00     0.037 C 
ENDBRANCH  12  14
ENDBRANCH  11  12
ENDBRANCH  10  11
ENDBRANCH   1   5
BRANCH   2  16
HETATM   16  C5  UNL     1     -44.386  12.555  -4.761  1.00  0.00     0.172 C 
HETATM   17  O1  UNL     1     -43.492  11.690  -4.798  1.00  0.00    -0.289 OA
BRANCH  16  18
HETATM   18  C6  UNL     1     -44.805  13.174  -3.484  1.00  0.00     0.057 C 
HETATM   19  C7  UNL     1     -45.500  12.685  -2.523  1.00  0.00    -0.080 C 
HETATM   20  C8  UNL     1     -45.725  13.646  -1.352  1.00  0.00     0.043 C 
BRANCH  19  21
HETATM   21  C9  UNL     1     -46.085  11.355  -2.465  1.00  0.00     0.037 C 
BRANCH  21  22
HETATM   22  C10 UNL     1     -47.539  11.403  -2.002  1.00  0.00     0.031 C 
BRANCH  22  23
HETATM   23  C11 UNL     1     -48.249  10.257  -2.640  1.00  0.00    -0.024 C 
HETATM   24  C12 UNL     1     -49.537  10.340  -2.954  1.00  0.00    -0.091 C 
HETATM   25  C13 UNL     1     -50.262  11.616  -2.652  1.00  0.00     0.042 C 
HETATM   26  C14 UNL     1     -50.201   9.182  -3.583  1.00  0.00     0.042 C 
ENDBRANCH  22  23
ENDBRANCH  21  22
ENDBRANCH  19  21
ENDBRANCH  16  18
ENDBRANCH   2  16
TORSDOF 10
ENDMDL
MODEL 3
REMARK VINA RESULT: -6.613031967      5.452      9.004
REMARK  10 active torsions:
REMARK  status: ('A' for Active; 'I' for Inactive)
REMARK    1  A    between atoms: C2_2  and  C3_3 
REMARK    2  A    between atoms: C3_3  and  C15_16 
REMARK    3  A    between atoms: C4_4  and  C5_5 
REMARK    4  A    between atoms: C5_5  and  C6_7 
REMARK    5  A    between atoms: C7_8  and  C9_10 
REMARK    6  A    between atoms: C9_10  and  C10_11 
REMARK    7  A    between atoms: C10_11  and  C11_12 
REMARK    8  A    between atoms: C19_21  and  C20_22 
REMARK    9  A    between atoms: C20_22  and  N2_23 
REMARK   10  A    between atoms: N2_23  and  C22_25 
ROOT
HETATM    1  C3  UNL     1     -43.785  18.185  -8.894  1.00  0.00    -0.070 C 
HETATM    2  C4  UNL     1     -42.796  17.584  -8.292  1.00  0.00     0.058 C 
ENDROOT
BRANCH   1   3
HETATM    3  C2  UNL     1     -44.743  17.461  -9.714  1.00  0.00     0.030 C 
HETATM    4  C1  UNL     1     -46.140  17.304  -9.169  1.00  0.00     0.010 C 
ENDBRANCH   1   3
BRANCH   1   5
HETATM    5  C15 UNL     1     -43.800  19.677  -8.742  1.00  0.00     0.050 C 
HETATM    6  C16 UNL     1     -42.498  20.184  -8.173  1.00  0.00     0.281 C 
HETATM    7  N1  UNL     1     -41.828  20.763  -9.273  1.00  0.00     0.085 N 
HETATM    8  C17 UNL     1     -40.798  21.706  -8.917  1.00  0.00     0.309 C 
HETATM    9  C18 UNL     1     -42.792  21.308 -10.202  1.00  0.00     0.279 C 
HETATM   10  C19 UNL     1     -43.997  20.490  -9.960  1.00  0.00     0.052 C 
BRANCH  10  11
HETATM   11  C20 UNL     1     -45.328  21.182  -9.939  1.00  0.00     0.279 C 
BRANCH  11  12
HETATM   12  N2  UNL     1     -45.410  22.519  -9.552  1.00  0.00     0.084 N 
HETATM   13  C21 UNL     1     -45.904  23.452 -10.505  1.00  0.00     0.309 C 
BRANCH  12  14
HETATM   14  C22 UNL     1     -46.118  22.714  -8.296  1.00  0.00     0.267 C 
HETATM   15  C23 UNL     1     -45.151  22.904  -7.143  1.00  0.00     0.037 C 
ENDBRANCH  12  14
ENDBRANCH  11  12
ENDBRANCH  10  11
ENDBRANCH   1   5
BRANCH   2  16
HETATM   16  C5  UNL     1     -42.369  16.205  -8.227  1.00  0.00     0.172 C 
HETATM   17  O1  UNL     1     -41.389  15.841  -8.903  1.00  0.00    -0.289 OA
BRANCH  16  18
HETATM   18  C6  UNL     1     -43.099  15.253  -7.359  1.00  0.00     0.057 C 
HETATM   19  C7  UNL     1     -43.954  14.349  -7.668  1.00  0.00    -0.080 C 
HETATM   20  C8  UNL     1     -44.494  13.555  -6.475  1.00  0.00     0.043 C 
BRANCH  19  21
HETATM   21  C9  UNL     1     -44.448  14.043  -9.000  1.00  0.00     0.037 C 
BRANCH  21  22
HETATM   22  C10 UNL     1     -45.247  12.742  -9.015  1.00  0.00     0.031 C 
BRANCH  22  23
HETATM   23  C11 UNL     1     -45.870  12.616 -10.364  1.00  0.00    -0.024 C 
HETATM   24  C12 UNL     1     -47.112  12.165 -10.505  1.00  0.00    -0.091 C 
HETATM   25  C13 UNL     1     -47.875  11.786  -9.272  1.00  0.00     0.042 C 
HETATM   26  C14 UNL     1     -47.689  12.054 -11.858  1.00  0.00     0.042 C 
ENDBRANCH  22  23
ENDBRANCH  21  22
ENDBRANCH  19  21
ENDBRANCH  16  18
ENDBRANCH   2  16
TORSDOF 10
ENDMDL
MODEL 4
REMARK VINA RESULT: -6.502053383      4.903      8.418
REMARK  10 active torsions:
REMARK  status: ('A' for Active; 'I' for Inactive)
REMARK    1  A    between atoms: C2_2  and  C3_3 
REMARK    2  A    between atoms: C3_3  and  C15_16 
REMARK    3  A    between atoms: C4_4  and  C5_5 
REMARK    4  A    between atoms: C5_5  and  C6_7 
REMARK    5  A    between atoms: C7_8  and  C9_10 
REMARK    6  A    between atoms: C9_10  and  C10_11 
REMARK    7  A    between atoms: C10_11  and  C11_12 
REMARK    8  A    between atoms: C19_21  and  C20_22 
REMARK    9  A    between atoms: C20_22  and  N2_23 
REMARK   10  A    between atoms: N2_23  and  C22_25 
ROOT
HETATM    1  C3  UNL     1     -42.565  17.364  -8.252  1.00  0.00    -0.070 C 
HETATM    2  C4  UNL     1     -43.713  17.149  -8.834  1.00  0.00     0.058 C 
ENDROOT
BRANCH   1   3
HETATM    3  C2  UNL     1     -41.703  16.276  -7.819  1.00  0.00     0.030 C 
HETATM    4  C1  UNL     1     -40.589  15.865  -8.749  1.00  0.00     0.010 C 
ENDBRANCH   1   3
BRANCH   1   5
HETATM    5  C15 UNL     1     -42.253  18.808  -7.992  1.00  0.00     0.050 C 
HETATM    6  C16 UNL     1     -41.110  18.957  -7.018  1.00  0.00     0.281 C 
HETATM    7  N1  UNL     1     -40.008  19.337  -7.815  1.00  0.00     0.085 N 
HETATM    8  C17 UNL     1     -38.938  19.977  -7.091  1.00  0.00     0.309 C 
HETATM    9  C18 UNL     1     -40.465  20.114  -8.945  1.00  0.00     0.279 C 
HETATM   10  C19 UNL     1     -41.850  19.642  -9.143  1.00  0.00     0.052 C 
BRANCH  10  11
HETATM   11  C20 UNL     1     -42.904  20.660  -9.470  1.00  0.00     0.279 C 
BRANCH  11  12
HETATM   12  N2  UNL     1     -43.874  20.983  -8.523  1.00  0.00     0.084 N 
HETATM   13  C21 UNL     1     -43.614  22.085  -7.663  1.00  0.00     0.309 C 
BRANCH  12  14
HETATM   14  C22 UNL     1     -45.206  21.135  -9.090  1.00  0.00     0.267 C 
HETATM   15  C23 UNL     1     -45.594  19.924  -9.915  1.00  0.00     0.037 C 
ENDBRANCH  12  14
ENDBRANCH  11  12
ENDBRANCH  10  11
ENDBRANCH   1   5
BRANCH   2  16
HETATM   16  C5  UNL     1     -44.424  15.946  -9.205  1.00  0.00     0.172 C 
HETATM   17  O1  UNL     1     -44.023  15.281 -10.178  1.00  0.00    -0.289 OA
BRANCH  16  18
HETATM   18  C6  UNL     1     -45.609  15.527  -8.422  1.00  0.00     0.057 C 
HETATM   19  C7  UNL     1     -45.828  14.436  -7.785  1.00  0.00    -0.080 C 
HETATM   20  C8  UNL     1     -47.190  14.375  -7.087  1.00  0.00     0.043 C 
BRANCH  19  21
HETATM   21  C9  UNL     1     -44.936  13.292  -7.692  1.00  0.00     0.037 C 
BRANCH  21  22
HETATM   22  C10 UNL     1     -45.583  12.030  -8.258  1.00  0.00     0.031 C 
BRANCH  22  23
HETATM   23  C11 UNL     1     -45.781  12.246  -9.720  1.00  0.00    -0.024 C 
HETATM   24  C12 UNL     1     -46.974  12.083 -10.280  1.00  0.00    -0.091 C 
HETATM   25  C13 UNL     1     -48.120  11.676  -9.407  1.00  0.00     0.042 C 
HETATM   26  C14 UNL     1     -47.124  12.305 -11.731  1.00  0.00     0.042 C 
ENDBRANCH  22  23
ENDBRANCH  21  22
ENDBRANCH  19  21
ENDBRANCH  16  18
ENDBRANCH   2  16
TORSDOF 10
ENDMDL
MODEL 5
REMARK VINA RESULT: -6.472574426      0.738      1.179
REMARK  10 active torsions:
REMARK  status: ('A' for Active; 'I' for Inactive)
REMARK    1  A    between atoms: C2_2  and  C3_3 
REMARK    2  A    between atoms: C3_3  and  C15_16 
REMARK    3  A    between atoms: C4_4  and  C5_5 
REMARK    4  A    between atoms: C5_5  and  C6_7 
REMARK    5  A    between atoms: C7_8  and  C9_10 
REMARK    6  A    between atoms: C9_10  and  C10_11 
REMARK    7  A    between atoms: C10_11  and  C11_12 
REMARK    8  A    between atoms: C19_21  and  C20_22 
REMARK    9  A    between atoms: C20_22  and  N2_23 
REMARK   10  A    between atoms: N2_23  and  C22_25 
ROOT
HETATM    1  C3  UNL     1     -46.514  12.357  -5.359  1.00  0.00    -0.070 C 
HETATM    2  C4  UNL     1     -45.974  13.541  -5.450  1.00  0.00     0.058 C 
ENDROOT
BRANCH   1   3
HETATM    3  C2  UNL     1     -47.502  11.886  -6.316  1.00  0.00     0.030 C 
HETATM    4  C1  UNL     1     -47.276  10.528  -6.931  1.00  0.00     0.010 C 
ENDBRANCH   1   3
BRANCH   1   5
HETATM    5  C15 UNL     1     -46.099  11.568  -4.154  1.00  0.00     0.050 C 
HETATM    6  C16 UNL     1     -44.808  12.090  -3.573  1.00  0.00     0.281 C 
HETATM    7  N1  UNL     1     -45.196  12.791  -2.411  1.00  0.00     0.085 N 
HETATM    8  C17 UNL     1     -44.140  12.985  -1.448  1.00  0.00     0.309 C 
HETATM    9  C18 UNL     1     -46.373  12.178  -1.838  1.00  0.00     0.279 C 
HETATM   10  C19 UNL     1     -47.022  11.539  -3.000  1.00  0.00     0.052 C 
BRANCH  10  11
HETATM   11  C20 UNL     1     -47.614  10.172  -2.815  1.00  0.00     0.279 C 
BRANCH  11  12
HETATM   12  N2  UNL     1     -48.566   9.700  -3.718  1.00  0.00     0.084 N 
HETATM   13  C21 UNL     1     -48.301   8.462  -4.365  1.00  0.00     0.309 C 
BRANCH  12  14
HETATM   14  C22 UNL     1     -49.913   9.663  -3.170  1.00  0.00     0.267 C 
HETATM   15  C23 UNL     1     -50.956   9.790  -4.264  1.00  0.00     0.037 C 
ENDBRANCH  12  14
ENDBRANCH  11  12
ENDBRANCH  10  11
ENDBRANCH   1   5
BRANCH   2  16
HETATM   16  C5  UNL     1     -46.132  14.633  -6.385  1.00  0.00     0.172 C 
HETATM   17  O1  UNL     1     -47.127  15.374  -6.288  1.00  0.00    -0.289 OA
BRANCH  16  18
HETATM   18  C6  UNL     1     -45.111  14.849  -7.434  1.00  0.00     0.057 C 
HETATM   19  C7  UNL     1     -45.151  14.582  -8.688  1.00  0.00    -0.080 C 
HETATM   20  C8  UNL     1     -43.883  14.960  -9.457  1.00  0.00     0.043 C 
BRANCH  19  21
HETATM   21  C9  UNL     1     -46.250  13.956  -9.405  1.00  0.00     0.037 C 
BRANCH  21  22
HETATM   22  C10 UNL     1     -45.938  12.501  -9.748  1.00  0.00     0.031 C 
BRANCH  22  23
HETATM   23  C11 UNL     1     -46.544  12.216 -11.080  1.00  0.00    -0.024 C 
HETATM   24  C12 UNL     1     -47.752  11.671 -11.180  1.00  0.00    -0.091 C 
HETATM   25  C13 UNL     1     -48.493  11.349  -9.919  1.00  0.00     0.042 C 
HETATM   26  C14 UNL     1     -48.312  11.404 -12.519  1.00  0.00     0.042 C 
ENDBRANCH  22  23
ENDBRANCH  21  22
ENDBRANCH  19  21
ENDBRANCH  16  18
ENDBRANCH   2  16
TORSDOF 10
ENDMDL
