MODEL 1
REMARK VINA RESULT: -6.964024779      0.000      0.000
REMARK  3 active torsions:
REMARK  status: ('A' for Active; 'I' for Inactive)
REMARK    1  A    between atoms: C3_5  and  N2_6 
REMARK    2  A    between atoms: N2_6  and  N3_8 
REMARK       I    between atoms: N3_8  and  C4_10 
REMARK    3  A    between atoms: C5_17  and  O1_18 
ROOT
HETATM    1  N1  UNL     1      21.705 120.781  -8.306  1.00  0.00    -0.191 NA
HETATM    2  C1  UNL     1      21.819 121.904  -8.552  1.00  0.00     0.111 C 
HETATM    3  C2  UNL     1      21.944 123.328  -8.848  1.00  0.00     0.139 A 
HETATM    4  S1  UNL     1      20.986 124.637  -8.324  1.00  0.00    -0.037 SA
HETATM    5  C3  UNL     1      21.819 125.896  -9.124  1.00  0.00     0.166 A 
HETATM    6  N6  UNL     1      22.799 125.248  -9.758  1.00  0.00    -0.315 N 
ATOM      7  H6  UNL     1      23.474 125.754 -10.332  1.00  0.00     0.170 HD
HETATM    8  C5  UNL     1      22.874 123.951  -9.627  1.00  0.00     0.170 A 
ENDROOT
BRANCH   8   9
HETATM    9  O1  UNL     1      23.884 123.174 -10.265  1.00  0.00    -0.344 OA
ATOM     10  H1  UNL     1      24.570 123.614 -10.754  1.00  0.00     0.219 HD
ENDBRANCH   8   9
BRANCH   5  11
HETATM   11  N2  UNL     1      21.577 127.191  -9.130  1.00  0.00    -0.277 N 
ATOM     12  H2  UNL     1      21.225 127.677  -9.955  1.00  0.00     0.189 HD
BRANCH  11  13
HETATM   13  N3  UNL     1      21.839 127.859  -7.919  1.00  0.00    -0.272 N 
HETATM   14  C4  UNL     1      21.174 129.036  -7.529  1.00  0.00     0.200 C 
HETATM   15  N4  UNL     1      20.506 129.058  -6.443  1.00  0.00    -0.372 N 
HETATM   16  N5  UNL     1      21.250 130.182  -8.341  1.00  0.00    -0.062 NA
ATOM     17  H42 UNL     1      20.451 128.227  -5.854  1.00  0.00     0.158 HD
ATOM     18  H41 UNL     1      20.024 129.912  -6.161  1.00  0.00     0.158 HD
ATOM     19  H3  UNL     1      22.546 127.471  -7.294  1.00  0.00     0.189 HD
ENDBRANCH  11  13
ENDBRANCH   5  11
TORSDOF 3
ENDMDL
MODEL 2
REMARK VINA RESULT: -6.636770459      1.358      1.532
REMARK  3 active torsions:
REMARK  status: ('A' for Active; 'I' for Inactive)
REMARK    1  A    between atoms: C3_5  and  N2_6 
REMARK    2  A    between atoms: N2_6  and  N3_8 
REMARK       I    between atoms: N3_8  and  C4_10 
REMARK    3  A    between atoms: C5_17  and  O1_18 
ROOT
HETATM    1  N1  UNL     1      21.391 121.261  -8.878  1.00  0.00    -0.191 NA
HETATM    2  C1  UNL     1      21.561 122.394  -8.731  1.00  0.00     0.111 C 
HETATM    3  C2  UNL     1      21.750 123.829  -8.538  1.00  0.00     0.139 A 
HETATM    4  S1  UNL     1      20.626 125.023  -8.073  1.00  0.00    -0.037 SA
HETATM    5  C3  UNL     1      21.669 126.375  -8.098  1.00  0.00     0.166 A 
HETATM    6  N6  UNL     1      22.838 125.843  -8.464  1.00  0.00    -0.315 N 
ATOM      7  H6  UNL     1      23.669 126.426  -8.565  1.00  0.00     0.170 HD
HETATM    8  C5  UNL     1      22.893 124.558  -8.689  1.00  0.00     0.170 A 
ENDROOT
BRANCH   8   9
HETATM    9  O1  UNL     1      24.095 123.901  -9.083  1.00  0.00    -0.344 OA
ATOM     10  H1  UNL     1      24.928 124.336  -8.950  1.00  0.00     0.219 HD
ENDBRANCH   8   9
BRANCH   5  11
HETATM   11  N2  UNL     1      21.412 127.639  -7.828  1.00  0.00    -0.277 N 
ATOM     12  H2  UNL     1      20.533 128.086  -8.090  1.00  0.00     0.189 HD
BRANCH  11  13
HETATM   13  N3  UNL     1      22.435 128.330  -7.152  1.00  0.00    -0.272 N 
HETATM   14  C4  UNL     1      22.249 128.951  -5.902  1.00  0.00     0.200 C 
HETATM   15  N4  UNL     1      22.960 128.594  -4.905  1.00  0.00    -0.372 N 
HETATM   16  N5  UNL     1      21.279 129.960  -5.760  1.00  0.00    -0.062 NA
ATOM     17  H42 UNL     1      23.664 127.863  -5.007  1.00  0.00     0.158 HD
ATOM     18  H41 UNL     1      22.825 129.044  -3.999  1.00  0.00     0.158 HD
ATOM     19  H3  UNL     1      23.355 128.385  -7.589  1.00  0.00     0.189 HD
ENDBRANCH  11  13
ENDBRANCH   5  11
TORSDOF 3
ENDMDL
MODEL 3
REMARK VINA RESULT: -6.505137326      1.060      1.216
REMARK  3 active torsions:
REMARK  status: ('A' for Active; 'I' for Inactive)
REMARK    1  A    between atoms: C3_5  and  N2_6 
REMARK    2  A    between atoms: N2_6  and  N3_8 
REMARK       I    between atoms: N3_8  and  C4_10 
REMARK    3  A    between atoms: C5_17  and  O1_18 
ROOT
HETATM    1  N1  UNL     1      22.020 120.480  -7.567  1.00  0.00    -0.191 NA
HETATM    2  C1  UNL     1      21.917 121.533  -8.030  1.00  0.00     0.111 C 
HETATM    3  C2  UNL     1      21.767 122.868  -8.601  1.00  0.00     0.139 A 
HETATM    4  S1  UNL     1      20.569 124.047  -8.314  1.00  0.00    -0.037 SA
HETATM    5  C3  UNL     1      21.150 125.260  -9.366  1.00  0.00     0.166 A 
HETATM    6  N6  UNL     1      22.243 124.700  -9.891  1.00  0.00    -0.315 N 
ATOM      7  H6  UNL     1      22.812 125.203 -10.571  1.00  0.00     0.170 HD
HETATM    8  C5  UNL     1      22.566 123.492  -9.513  1.00  0.00     0.170 A 
ENDROOT
BRANCH   8   9
HETATM    9  O1  UNL     1      23.713 122.814 -10.017  1.00  0.00    -0.344 OA
ATOM     10  H1  UNL     1      23.813 122.702 -10.955  1.00  0.00     0.219 HD
ENDBRANCH   8   9
BRANCH   5  11
HETATM   11  N2  UNL     1      20.663 126.458  -9.617  1.00  0.00    -0.277 N 
ATOM     12  H2  UNL     1      19.834 126.601 -10.195  1.00  0.00     0.189 HD
BRANCH  11  13
HETATM   13  N3  UNL     1      21.365 127.528  -9.031  1.00  0.00    -0.272 N 
HETATM   14  C4  UNL     1      21.188 127.925  -7.692  1.00  0.00     0.200 C 
HETATM   15  N4  UNL     1      22.180 127.914  -6.891  1.00  0.00    -0.372 N 
HETATM   16  N5  UNL     1      19.916 128.328  -7.246  1.00  0.00    -0.062 NA
ATOM     17  H42 UNL     1      23.102 127.622  -7.214  1.00  0.00     0.158 HD
ATOM     18  H41 UNL     1      22.052 128.201  -5.921  1.00  0.00     0.158 HD
ATOM     19  H3  UNL     1      22.034 128.042  -9.605  1.00  0.00     0.189 HD
ENDBRANCH  11  13
ENDBRANCH   5  11
TORSDOF 3
ENDMDL
MODEL 4
REMARK VINA RESULT: -6.423235852      2.620      5.792
REMARK  3 active torsions:
REMARK  status: ('A' for Active; 'I' for Inactive)
REMARK    1  A    between atoms: C3_5  and  N2_6 
REMARK    2  A    between atoms: N2_6  and  N3_8 
REMARK       I    between atoms: N3_8  and  C4_10 
REMARK    3  A    between atoms: C5_17  and  O1_18 
ROOT
HETATM    1  N1  UNL     1      18.206 128.362  -9.713  1.00  0.00    -0.191 NA
HETATM    2  C1  UNL     1      19.100 127.697  -9.406  1.00  0.00     0.111 C 
HETATM    3  C2  UNL     1      20.217 126.838  -9.028  1.00  0.00     0.139 A 
HETATM    4  S1  UNL     1      20.387 125.147  -9.168  1.00  0.00    -0.037 SA
HETATM    5  C3  UNL     1      21.952 124.994  -8.503  1.00  0.00     0.166 A 
HETATM    6  N6  UNL     1      22.273 126.255  -8.203  1.00  0.00    -0.315 N 
ATOM      7  H6  UNL     1      23.175 126.478  -7.781  1.00  0.00     0.170 HD
HETATM    8  C5  UNL     1      21.406 127.196  -8.463  1.00  0.00     0.170 A 
ENDROOT
BRANCH   8   9
HETATM    9  O1  UNL     1      21.659 128.569  -8.179  1.00  0.00    -0.344 OA
ATOM     10  H1  UNL     1      21.258 128.968  -7.416  1.00  0.00     0.219 HD
ENDBRANCH   8   9
BRANCH   5  11
HETATM   11  N2  UNL     1      22.685 123.914  -8.320  1.00  0.00    -0.277 N 
ATOM     12  H2  UNL     1      23.680 123.885  -8.543  1.00  0.00     0.189 HD
BRANCH  11  13
HETATM   13  N3  UNL     1      21.999 122.803  -7.794  1.00  0.00    -0.272 N 
HETATM   14  C4  UNL     1      21.808 121.606  -8.510  1.00  0.00     0.200 C 
HETATM   15  N4  UNL     1      22.259 120.509  -8.044  1.00  0.00    -0.372 N 
HETATM   16  N5  UNL     1      21.120 121.630  -9.737  1.00  0.00    -0.062 NA
ATOM     17  H42 UNL     1      22.758 120.491  -7.154  1.00  0.00     0.158 HD
ATOM     18  H41 UNL     1      22.120 119.642  -8.563  1.00  0.00     0.158 HD
ATOM     19  H3  UNL     1      21.622 122.868  -6.848  1.00  0.00     0.189 HD
ENDBRANCH  11  13
ENDBRANCH   5  11
TORSDOF 3
ENDMDL
MODEL 5
REMARK VINA RESULT: -6.348565859      2.466      5.780
REMARK  3 active torsions:
REMARK  status: ('A' for Active; 'I' for Inactive)
REMARK    1  A    between atoms: C3_5  and  N2_6 
REMARK    2  A    between atoms: N2_6  and  N3_8 
REMARK       I    between atoms: N3_8  and  C4_10 
REMARK    3  A    between atoms: C5_17  and  O1_18 
ROOT
HETATM    1  N1  UNL     1      18.205 128.629  -6.696  1.00  0.00    -0.191 NA
HETATM    2  C1  UNL     1      18.992 127.959  -7.212  1.00  0.00     0.111 C 
HETATM    3  C2  UNL     1      19.973 127.093  -7.858  1.00  0.00     0.139 A 
HETATM    4  S1  UNL     1      20.041 125.391  -7.934  1.00  0.00    -0.037 SA
HETATM    5  C3  UNL     1      21.472 125.236  -8.852  1.00  0.00     0.166 A 
HETATM    6  N6  UNL     1      21.833 126.505  -9.059  1.00  0.00    -0.315 N 
ATOM      7  H6  UNL     1      22.673 126.729  -9.592  1.00  0.00     0.170 HD
HETATM    8  C5  UNL     1      21.085 127.453  -8.562  1.00  0.00     0.170 A 
ENDROOT
BRANCH   8   9
HETATM    9  O1  UNL     1      21.389 128.835  -8.730  1.00  0.00    -0.344 OA
ATOM     10  H1  UNL     1      22.278 129.094  -8.938  1.00  0.00     0.219 HD
ENDBRANCH   8   9
BRANCH   5  11
HETATM   11  N2  UNL     1      22.090 124.148  -9.268  1.00  0.00    -0.277 N 
ATOM     12  H2  UNL     1      22.433 124.047 -10.224  1.00  0.00     0.189 HD
BRANCH  11  13
HETATM   13  N3  UNL     1      22.243 123.136  -8.302  1.00  0.00    -0.272 N 
HETATM   14  C4  UNL     1      21.595 121.889  -8.384  1.00  0.00     0.200 C 
HETATM   15  N4  UNL     1      22.285 120.817  -8.421  1.00  0.00    -0.372 N 
HETATM   16  N5  UNL     1      20.190 121.833  -8.426  1.00  0.00    -0.062 NA
ATOM     17  H42 UNL     1      23.304 120.857  -8.391  1.00  0.00     0.158 HD
ATOM     18  H41 UNL     1      21.815 119.914  -8.480  1.00  0.00     0.158 HD
ATOM     19  H3  UNL     1      22.852 123.315  -7.504  1.00  0.00     0.189 HD
ENDBRANCH  11  13
ENDBRANCH   5  11
TORSDOF 3
ENDMDL
