MODEL 1
REMARK VINA RESULT: -4.029962493      0.000      0.000
REMARK  2 active torsions:
REMARK  status: ('A' for Active; 'I' for Inactive)
REMARK    1  A    between atoms: C2_2  and  N1_3 
REMARK    2  A    between atoms: N1_3  and  N2_5 
ROOT
HETATM    1  N2  UNL     1      60.617  67.729  37.818  1.00  0.00    -0.288 N 
ATOM      2  H2  UNL     1      61.518  67.343  38.099  1.00  0.00     0.188 HD
HETATM    3  C3  UNL     1      59.581  67.232  38.348  1.00  0.00     0.110 A 
HETATM    4  C4  UNL     1      58.146  67.079  38.596  1.00  0.00     0.198 A 
HETATM    5  N3  UNL     1      59.092  66.210  39.311  1.00  0.00    -0.370 N 
ATOM      6  H3  UNL     1      59.278  65.459  39.976  1.00  0.00     0.161 HD
ENDROOT
BRANCH   1   7
HETATM    7  N1  UNL     1      60.625  68.748  36.895  1.00  0.00    -0.311 N 
ATOM      8  H1  UNL     1      60.651  68.603  35.886  1.00  0.00     0.186 HD
BRANCH   7   9
HETATM    9  C2  UNL     1      60.592  70.030  37.516  1.00  0.00     0.097 C 
HETATM   10  C1  UNL     1      59.624  70.879  37.200  1.00  0.00     0.031 C 
ENDBRANCH   7   9
ENDBRANCH   1   7
TORSDOF 2
ENDMDL
MODEL 2
REMARK VINA RESULT: -3.918305152      9.323     10.293
REMARK  2 active torsions:
REMARK  status: ('A' for Active; 'I' for Inactive)
REMARK    1  A    between atoms: C2_2  and  N1_3 
REMARK    2  A    between atoms: N1_3  and  N2_5 
ROOT
HETATM    1  N2  UNL     1      52.463  74.085  39.432  1.00  0.00    -0.288 N 
ATOM      2  H2  UNL     1      52.761  74.083  40.407  1.00  0.00     0.188 HD
HETATM    3  C3  UNL     1      52.280  75.210  38.883  1.00  0.00     0.110 A 
HETATM    4  C4  UNL     1      51.935  76.129  37.796  1.00  0.00     0.198 A 
HETATM    5  N3  UNL     1      52.326  76.680  39.102  1.00  0.00    -0.370 N 
ATOM      6  H3  UNL     1      52.500  77.480  39.710  1.00  0.00     0.161 HD
ENDROOT
BRANCH   1   7
HETATM    7  N1  UNL     1      52.293  72.866  38.820  1.00  0.00    -0.311 N 
ATOM      8  H1  UNL     1      52.550  72.671  37.853  1.00  0.00     0.186 HD
BRANCH   7   9
HETATM    9  C2  UNL     1      51.716  71.905  39.700  1.00  0.00     0.097 C 
HETATM   10  C1  UNL     1      52.511  71.146  40.442  1.00  0.00     0.031 C 
ENDBRANCH   7   9
ENDBRANCH   1   7
TORSDOF 2
ENDMDL
MODEL 3
REMARK VINA RESULT: -3.909690296      1.671      3.882
REMARK  2 active torsions:
REMARK  status: ('A' for Active; 'I' for Inactive)
REMARK    1  A    between atoms: C2_2  and  N1_3 
REMARK    2  A    between atoms: N1_3  and  N2_5 
ROOT
HETATM    1  N2  UNL     1      60.278  69.687  37.510  1.00  0.00    -0.288 N 
ATOM      2  H2  UNL     1      61.263  69.861  37.708  1.00  0.00     0.188 HD
HETATM    3  C3  UNL     1      59.542  70.693  37.296  1.00  0.00     0.110 A 
HETATM    4  C4  UNL     1      58.296  71.401  36.992  1.00  0.00     0.198 A 
HETATM    5  N3  UNL     1      59.526  72.177  37.209  1.00  0.00    -0.370 N 
ATOM      6  H3  UNL     1      60.010  73.074  37.261  1.00  0.00     0.161 HD
ENDROOT
BRANCH   1   7
HETATM    7  N1  UNL     1      59.857  68.378  37.495  1.00  0.00    -0.311 N 
ATOM      8  H1  UNL     1      60.428  67.598  37.171  1.00  0.00     0.186 HD
BRANCH   7   9
HETATM    9  C2  UNL     1      58.527  68.242  37.987  1.00  0.00     0.097 C 
HETATM   10  C1  UNL     1      58.189  67.140  38.643  1.00  0.00     0.031 C 
ENDBRANCH   7   9
ENDBRANCH   1   7
TORSDOF 2
ENDMDL
MODEL 4
REMARK VINA RESULT: -3.871510393      4.980      6.072
REMARK  2 active torsions:
REMARK  status: ('A' for Active; 'I' for Inactive)
REMARK    1  A    between atoms: C2_2  and  N1_3 
REMARK    2  A    between atoms: N1_3  and  N2_5 
ROOT
HETATM    1  N2  UNL     1      56.806  72.491  36.102  1.00  0.00    -0.288 N 
ATOM      2  H2  UNL     1      56.437  71.921  36.862  1.00  0.00     0.188 HD
HETATM    3  C3  UNL     1      56.314  72.314  34.950  1.00  0.00     0.110 A 
HETATM    4  C4  UNL     1      56.155  72.543  33.512  1.00  0.00     0.198 A 
HETATM    5  N3  UNL     1      55.316  71.532  34.173  1.00  0.00    -0.370 N 
ATOM      6  H3  UNL     1      54.586  70.820  34.131  1.00  0.00     0.161 HD
ENDROOT
BRANCH   1   7
HETATM    7  N1  UNL     1      57.798  73.392  36.411  1.00  0.00    -0.311 N 
ATOM      8  H1  UNL     1      57.643  74.392  36.537  1.00  0.00     0.186 HD
BRANCH   7   9
HETATM    9  C2  UNL     1      59.070  72.760  36.535  1.00  0.00     0.097 C 
HETATM   10  C1  UNL     1      59.147  71.568  37.111  1.00  0.00     0.031 C 
ENDBRANCH   7   9
ENDBRANCH   1   7
TORSDOF 2
ENDMDL
MODEL 5
REMARK VINA RESULT: -3.829022126      1.841      2.147
REMARK  2 active torsions:
REMARK  status: ('A' for Active; 'I' for Inactive)
REMARK    1  A    between atoms: C2_2  and  N1_3 
REMARK    2  A    between atoms: N1_3  and  N2_5 
ROOT
HETATM    1  N2  UNL     1      58.737  69.444  37.400  1.00  0.00    -0.288 N 
ATOM      2  H2  UNL     1      59.629  69.730  36.996  1.00  0.00     0.188 HD
HETATM    3  C3  UNL     1      58.685  68.305  37.947  1.00  0.00     0.110 A 
HETATM    4  C4  UNL     1      58.058  67.188  38.658  1.00  0.00     0.198 A 
HETATM    5  N3  UNL     1      59.474  67.088  38.275  1.00  0.00    -0.370 N 
ATOM      6  H3  UNL     1      60.352  66.568  38.251  1.00  0.00     0.161 HD
ENDROOT
BRANCH   1   7
HETATM    7  N1  UNL     1      57.688  70.328  37.305  1.00  0.00    -0.311 N 
ATOM      8  H1  UNL     1      56.715  70.080  37.478  1.00  0.00     0.186 HD
BRANCH   7   9
HETATM    9  C2  UNL     1      58.125  71.634  36.936  1.00  0.00     0.097 C 
HETATM   10  C1  UNL     1      59.413  71.936  37.028  1.00  0.00     0.031 C 
ENDBRANCH   7   9
ENDBRANCH   1   7
TORSDOF 2
ENDMDL
