MODEL 1
REMARK VINA RESULT: -8.678501657      0.000      0.000
REMARK  19 active torsions:
REMARK  status: ('A' for Active; 'I' for Inactive)
REMARK    1  A    between atoms: N1_1  and  C1_4 
REMARK    2  A    between atoms: N3_8  and  C3_10 
REMARK    3  A    between atoms: C3_10  and  C4_11 
REMARK    4  A    between atoms: C4_11  and  O1_12 
REMARK    5  A    between atoms: C6_17  and  C7_18 
REMARK       I    between atoms: C7_18  and  N5_20 
REMARK    6  A    between atoms: N5_20  and  C8_22 
REMARK    7  A    between atoms: C8_22  and  C9_23 
REMARK    8  A    between atoms: C8_22  and  C20_36 
REMARK    9  A    between atoms: C9_23  and  C10_24 
REMARK   10  A    between atoms: C10_24  and  C11_25 
REMARK   11  A    between atoms: C11_25  and  C12_26 
REMARK   12  A    between atoms: C12_26  and  N6_27 
REMARK   13  A    between atoms: N6_27  and  C13_29 
REMARK   14  A    between atoms: C13_29  and  C14_30 
REMARK   15  A    between atoms: C20_36  and  O3_37 
REMARK   16  A    between atoms: C20_36  and  N7_39 
REMARK   17  A    between atoms: C25_44  and  C26_45 
REMARK   18  A    between atoms: C26_45  and  N8_46 
REMARK   19  A    between atoms: C26_45  and  C27_50 
ROOT
HETATM    1  C8  UNL     1     -14.222   0.645  13.129  1.00  0.00     0.159 C 
ENDROOT
BRANCH   1   2
HETATM    2  N5  UNL     1     -13.780  -0.430  14.016  1.00  0.00    -0.345 N 
HETATM    3  C7  UNL     1     -14.581  -0.938  15.051  1.00  0.00     0.257 C 
HETATM    4  O2  UNL     1     -15.711  -0.481  15.263  1.00  0.00    -0.267 OA
ATOM      5  H5  UNL     1     -12.851  -0.829  13.877  1.00  0.00     0.163 HD
BRANCH   3   6
HETATM    6  C6  UNL     1     -14.099  -2.035  15.918  1.00  0.00     0.091 A 
HETATM    7  C1  UNL     1     -14.554  -3.331  15.791  1.00  0.00     0.132 A 
HETATM    8  N2  UNL     1     -14.043  -4.309  16.598  1.00  0.00    -0.176 N 
HETATM    9  C2  UNL     1     -13.105  -4.080  17.527  1.00  0.00     0.679 A 
ATOM     10  H2  UNL     1     -14.394  -5.261  16.489  1.00  0.00     0.186 HD
HETATM   11  N3  UNL     1     -12.577  -4.981  18.276  1.00  0.00    -0.224 N 
HETATM   12  N4  UNL     1     -12.658  -2.791  17.648  1.00  0.00    -0.201 N 
ATOM     13  H3  UNL     1     -11.868  -4.716  18.959  1.00  0.00     0.177 HD
HETATM   14  C5  UNL     1     -13.130  -1.803  16.879  1.00  0.00     0.127 A 
ATOM     15  H4  UNL     1     -11.944  -2.578  18.344  1.00  0.00     0.183 HD
BRANCH   7  16
HETATM   16  N1  UNL     1     -15.459  -3.626  14.917  1.00  0.00    -0.384 N 
ATOM     17  H12 UNL     1     -15.691  -4.599  14.719  1.00  0.00     0.157 HD
ATOM     18  H11 UNL     1     -15.946  -2.880  14.420  1.00  0.00     0.157 HD
ENDBRANCH   7  16
BRANCH  11  19
HETATM   19  C3  UNL     1     -12.972  -6.353  18.164  1.00  0.00     0.164 C 
BRANCH  19  20
HETATM   20  C4  UNL     1     -14.011  -6.710  19.219  1.00  0.00     0.184 C 
BRANCH  20  21
HETATM   21  O1  UNL     1     -15.265  -6.186  18.944  1.00  0.00    -0.399 OA
ATOM     22  H1  UNL     1     -15.950  -6.559  19.487  1.00  0.00     0.209 HD
ENDBRANCH  20  21
ENDBRANCH  19  20
ENDBRANCH  11  19
ENDBRANCH   3   6
ENDBRANCH   1   2
BRANCH   1  23
HETATM   23  C9  UNL     1     -13.969   0.191  11.723  1.00  0.00     0.034 C 
BRANCH  23  24
HETATM   24  C10 UNL     1     -12.559  -0.328  11.489  1.00  0.00     0.004 C 
BRANCH  24  25
HETATM   25  C11 UNL     1     -12.742  -1.748  10.938  1.00  0.00     0.019 C 
BRANCH  25  26
HETATM   26  C12 UNL     1     -13.975  -1.812  10.104  1.00  0.00     0.113 C 
BRANCH  26  27
HETATM   27  N6  UNL     1     -13.813  -2.227   8.757  1.00  0.00    -0.421 N 
ATOM     28  H6  UNL     1     -14.321  -1.788   7.989  1.00  0.00     0.153 HD
BRANCH  27  29
HETATM   29  C13 UNL     1     -12.887  -3.301   8.542  1.00  0.00     0.118 C 
BRANCH  29  30
HETATM   30  C14 UNL     1     -12.128  -2.974   7.266  1.00  0.00     0.003 C 
HETATM   31  C15 UNL     1     -10.876  -3.773   7.141  1.00  0.00     0.006 C 
HETATM   32  C16 UNL     1      -9.727  -3.123   7.894  1.00  0.00     0.000 C 
HETATM   33  C17 UNL     1      -9.580  -1.717   7.364  1.00  0.00     0.000 C 
HETATM   34  C18 UNL     1     -10.794  -0.928   7.818  1.00  0.00     0.000 C 
HETATM   35  C19 UNL     1     -11.973  -1.506   7.057  1.00  0.00     0.006 C 
ENDBRANCH  29  30
ENDBRANCH  27  29
ENDBRANCH  26  27
ENDBRANCH  25  26
ENDBRANCH  24  25
ENDBRANCH  23  24
ENDBRANCH   1  23
BRANCH   1  36
HETATM   36  C20 UNL     1     -13.691   1.932  13.549  1.00  0.00     0.137 C 
BRANCH  36  37
HETATM   37  O3  UNL     1     -14.603   2.871  13.549  1.00  0.00    -0.348 OA
ATOM     38  H3  UNL     1     -14.292   3.677  13.942  1.00  0.00     0.219 HD
ENDBRANCH  36  37
BRANCH  36  39
HETATM   39  N7  UNL     1     -12.435   2.367  13.942  1.00  0.00    -0.357 N 
HETATM   40  C21 UNL     1     -11.433   2.949  13.026  1.00  0.00     0.125 C 
HETATM   41  C22 UNL     1     -10.108   2.366  13.514  1.00  0.00     0.020 C 
HETATM   42  C23 UNL     1     -10.269   1.008  14.145  1.00  0.00     0.004 C 
HETATM   43  C24 UNL     1     -11.137   1.033  15.398  1.00  0.00     0.028 C 
HETATM   44  C25 UNL     1     -11.916   2.334  15.310  1.00  0.00     0.123 C 
BRANCH  44  45
HETATM   45  C26 UNL     1     -12.864   2.575  16.413  1.00  0.00     0.267 C 
BRANCH  45  46
HETATM   46  N8  UNL     1     -12.324   1.773  17.557  1.00  0.00    -0.067 N 
ATOM     47  H83 UNL     1     -11.383   2.042  17.846  1.00  0.00     0.275 HD
ATOM     48  H82 UNL     1     -12.777   1.966  18.450  1.00  0.00     0.275 HD
ATOM     49  H81 UNL     1     -12.404   0.803  17.252  1.00  0.00     0.275 HD
ENDBRANCH  45  46
BRANCH  45  50
HETATM   50  C27 UNL     1     -12.815   3.967  16.894  1.00  0.00     0.266 C 
HETATM   51  O4  UNL     1     -13.697   4.572  17.464  1.00  0.00    -0.305 OA
ENDBRANCH  45  50
ENDBRANCH  44  45
ENDBRANCH  36  39
ENDBRANCH   1  36
TORSDOF 19
ENDMDL
MODEL 2
REMARK VINA RESULT: -8.639482222      7.216     15.755
REMARK  19 active torsions:
REMARK  status: ('A' for Active; 'I' for Inactive)
REMARK    1  A    between atoms: N1_1  and  C1_4 
REMARK    2  A    between atoms: N3_8  and  C3_10 
REMARK    3  A    between atoms: C3_10  and  C4_11 
REMARK    4  A    between atoms: C4_11  and  O1_12 
REMARK    5  A    between atoms: C6_17  and  C7_18 
REMARK       I    between atoms: C7_18  and  N5_20 
REMARK    6  A    between atoms: N5_20  and  C8_22 
REMARK    7  A    between atoms: C8_22  and  C9_23 
REMARK    8  A    between atoms: C8_22  and  C20_36 
REMARK    9  A    between atoms: C9_23  and  C10_24 
REMARK   10  A    between atoms: C10_24  and  C11_25 
REMARK   11  A    between atoms: C11_25  and  C12_26 
REMARK   12  A    between atoms: C12_26  and  N6_27 
REMARK   13  A    between atoms: N6_27  and  C13_29 
REMARK   14  A    between atoms: C13_29  and  C14_30 
REMARK   15  A    between atoms: C20_36  and  O3_37 
REMARK   16  A    between atoms: C20_36  and  N7_39 
REMARK   17  A    between atoms: C25_44  and  C26_45 
REMARK   18  A    between atoms: C26_45  and  N8_46 
REMARK   19  A    between atoms: C26_45  and  C27_50 
ROOT
HETATM    1  C8  UNL     1     -13.360  -9.912  24.570  1.00  0.00     0.159 C 
ENDROOT
BRANCH   1   2
HETATM    2  N5  UNL     1     -13.272  -9.135  23.335  1.00  0.00    -0.345 N 
HETATM    3  C7  UNL     1     -14.323  -9.062  22.406  1.00  0.00     0.257 C 
HETATM    4  O2  UNL     1     -15.383  -9.671  22.597  1.00  0.00    -0.267 OA
ATOM      5  H5  UNL     1     -12.411  -8.624  23.138  1.00  0.00     0.163 HD
BRANCH   3   6
HETATM    6  C6  UNL     1     -14.195  -8.254  21.175  1.00  0.00     0.091 A 
HETATM    7  C1  UNL     1     -14.154  -8.823  19.918  1.00  0.00     0.132 A 
HETATM    8  N2  UNL     1     -14.070  -8.021  18.815  1.00  0.00    -0.176 N 
HETATM    9  C2  UNL     1     -14.025  -6.683  18.881  1.00  0.00     0.679 A 
ATOM     10  H2  UNL     1     -14.041  -8.462  17.896  1.00  0.00     0.186 HD
HETATM   11  N3  UNL     1     -13.983  -5.899  17.863  1.00  0.00    -0.224 N 
HETATM   12  N4  UNL     1     -14.064  -6.125  20.130  1.00  0.00    -0.201 N 
ATOM     13  H3  UNL     1     -13.948  -4.890  18.007  1.00  0.00     0.177 HD
HETATM   14  C5  UNL     1     -14.146  -6.871  21.237  1.00  0.00     0.127 A 
ATOM     15  H4  UNL     1     -14.030  -5.110  20.219  1.00  0.00     0.183 HD
BRANCH   7  16
HETATM   16  N1  UNL     1     -14.194 -10.108  19.779  1.00  0.00    -0.384 N 
ATOM     17  H12 UNL     1     -14.230 -10.526  18.849  1.00  0.00     0.157 HD
ATOM     18  H11 UNL     1     -14.189 -10.708  20.603  1.00  0.00     0.157 HD
ENDBRANCH   7  16
BRANCH  11  19
HETATM   19  C3  UNL     1     -13.985  -6.423  16.531  1.00  0.00     0.164 C 
BRANCH  19  20
HETATM   20  C4  UNL     1     -13.860  -5.305  15.504  1.00  0.00     0.184 C 
BRANCH  20  21
HETATM   21  O1  UNL     1     -15.086  -4.874  15.021  1.00  0.00    -0.399 OA
ATOM     22  H1  UNL     1     -15.032  -4.504  14.147  1.00  0.00     0.209 HD
ENDBRANCH  20  21
ENDBRANCH  19  20
ENDBRANCH  11  19
ENDBRANCH   3   6
ENDBRANCH   1   2
BRANCH   1  23
HETATM   23  C9  UNL     1     -13.032  -8.985  25.701  1.00  0.00     0.034 C 
BRANCH  23  24
HETATM   24  C10 UNL     1     -12.910  -7.527  25.285  1.00  0.00     0.004 C 
BRANCH  24  25
HETATM   25  C11 UNL     1     -14.066  -6.811  25.993  1.00  0.00     0.019 C 
BRANCH  25  26
HETATM   26  C12 UNL     1     -15.132  -6.474  25.008  1.00  0.00     0.113 C 
BRANCH  26  27
HETATM   27  N6  UNL     1     -16.204  -7.395  24.889  1.00  0.00    -0.421 N 
ATOM     28  H6  UNL     1     -16.202  -8.143  24.196  1.00  0.00     0.153 HD
BRANCH  27  29
HETATM   29  C13 UNL     1     -17.292  -7.209  25.806  1.00  0.00     0.118 C 
BRANCH  29  30
HETATM   30  C14 UNL     1     -17.756  -8.596  26.219  1.00  0.00     0.003 C 
HETATM   31  C15 UNL     1     -18.820  -8.541  27.262  1.00  0.00     0.006 C 
HETATM   32  C16 UNL     1     -18.223  -8.415  28.654  1.00  0.00     0.000 C 
HETATM   33  C17 UNL     1     -17.275  -9.575  28.845  1.00  0.00     0.000 C 
HETATM   34  C18 UNL     1     -16.088  -9.350  27.928  1.00  0.00     0.000 C 
HETATM   35  C19 UNL     1     -16.617  -9.512  26.515  1.00  0.00     0.006 C 
ENDBRANCH  29  30
ENDBRANCH  27  29
ENDBRANCH  26  27
ENDBRANCH  25  26
ENDBRANCH  24  25
ENDBRANCH  23  24
ENDBRANCH   1  23
BRANCH   1  36
HETATM   36  C20 UNL     1     -12.628 -11.164  24.464  1.00  0.00     0.137 C 
BRANCH  36  37
HETATM   37  O3  UNL     1     -11.339 -11.002  24.627  1.00  0.00    -0.348 OA
ATOM     38  H3  UNL     1     -10.998 -11.520  25.346  1.00  0.00     0.219 HD
ENDBRANCH  36  37
BRANCH  36  39
HETATM   39  N7  UNL     1     -13.005 -12.476  24.227  1.00  0.00    -0.357 N 
HETATM   40  C21 UNL     1     -12.200 -13.445  23.455  1.00  0.00     0.125 C 
HETATM   41  C22 UNL     1     -13.238 -14.221  22.646  1.00  0.00     0.020 C 
HETATM   42  C23 UNL     1     -14.456 -13.397  22.322  1.00  0.00     0.004 C 
HETATM   43  C24 UNL     1     -15.223 -12.955  23.565  1.00  0.00     0.028 C 
HETATM   44  C25 UNL     1     -14.235 -13.106  24.710  1.00  0.00     0.123 C 
BRANCH  44  45
HETATM   45  C26 UNL     1     -14.742 -12.702  26.034  1.00  0.00     0.267 C 
BRANCH  45  46
HETATM   46  N8  UNL     1     -16.150 -13.214  26.071  1.00  0.00    -0.067 N 
ATOM     47  H83 UNL     1     -16.857 -12.480  26.117  1.00  0.00     0.275 HD
ATOM     48  H82 UNL     1     -16.467 -13.624  25.193  1.00  0.00     0.275 HD
ATOM     49  H81 UNL     1     -16.168 -13.858  26.861  1.00  0.00     0.275 HD
ENDBRANCH  45  46
BRANCH  45  50
HETATM   50  C27 UNL     1     -14.068 -13.423  27.129  1.00  0.00     0.266 C 
HETATM   51  O4  UNL     1     -13.325 -12.951  27.962  1.00  0.00    -0.305 OA
ENDBRANCH  45  50
ENDBRANCH  44  45
ENDBRANCH  36  39
ENDBRANCH   1  36
TORSDOF 19
ENDMDL
MODEL 3
REMARK VINA RESULT: -8.629829654      8.128     15.308
REMARK  19 active torsions:
REMARK  status: ('A' for Active; 'I' for Inactive)
REMARK    1  A    between atoms: N1_1  and  C1_4 
REMARK    2  A    between atoms: N3_8  and  C3_10 
REMARK    3  A    between atoms: C3_10  and  C4_11 
REMARK    4  A    between atoms: C4_11  and  O1_12 
REMARK    5  A    between atoms: C6_17  and  C7_18 
REMARK       I    between atoms: C7_18  and  N5_20 
REMARK    6  A    between atoms: N5_20  and  C8_22 
REMARK    7  A    between atoms: C8_22  and  C9_23 
REMARK    8  A    between atoms: C8_22  and  C20_36 
REMARK    9  A    between atoms: C9_23  and  C10_24 
REMARK   10  A    between atoms: C10_24  and  C11_25 
REMARK   11  A    between atoms: C11_25  and  C12_26 
REMARK   12  A    between atoms: C12_26  and  N6_27 
REMARK   13  A    between atoms: N6_27  and  C13_29 
REMARK   14  A    between atoms: C13_29  and  C14_30 
REMARK   15  A    between atoms: C20_36  and  O3_37 
REMARK   16  A    between atoms: C20_36  and  N7_39 
REMARK   17  A    between atoms: C25_44  and  C26_45 
REMARK   18  A    between atoms: C26_45  and  N8_46 
REMARK   19  A    between atoms: C26_45  and  C27_50 
ROOT
HETATM    1  C8  UNL     1     -14.731 -10.619  25.386  1.00  0.00     0.159 C 
ENDROOT
BRANCH   1   2
HETATM    2  N5  UNL     1     -14.652  -9.903  24.114  1.00  0.00    -0.345 N 
HETATM    3  C7  UNL     1     -13.719 -10.229  23.116  1.00  0.00     0.257 C 
HETATM    4  O2  UNL     1     -12.907 -11.148  23.280  1.00  0.00    -0.267 OA
ATOM      5  H5  UNL     1     -15.301  -9.135  23.943  1.00  0.00     0.163 HD
BRANCH   3   6
HETATM    6  C6  UNL     1     -13.682  -9.486  21.838  1.00  0.00     0.091 A 
HETATM    7  C1  UNL     1     -12.948  -8.328  21.678  1.00  0.00     0.132 A 
HETATM    8  N2  UNL     1     -12.925  -7.705  20.461  1.00  0.00    -0.176 N 
HETATM    9  C2  UNL     1     -13.587  -8.162  19.389  1.00  0.00     0.679 A 
ATOM     10  H2  UNL     1     -12.377  -6.850  20.364  1.00  0.00     0.186 HD
HETATM   11  N3  UNL     1     -13.558  -7.622  18.223  1.00  0.00    -0.224 N 
HETATM   12  N4  UNL     1     -14.314  -9.310  19.555  1.00  0.00    -0.201 N 
ATOM     13  H3  UNL     1     -14.095  -8.037  17.463  1.00  0.00     0.177 HD
HETATM   14  C5  UNL     1     -14.365  -9.953  20.728  1.00  0.00     0.127 A 
ATOM     15  H4  UNL     1     -14.832  -9.687  18.761  1.00  0.00     0.183 HD
BRANCH   7  16
HETATM   16  N1  UNL     1     -12.285  -7.829  22.669  1.00  0.00    -0.384 N 
ATOM     17  H12 UNL     1     -11.815  -6.929  22.576  1.00  0.00     0.157 HD
ATOM     18  H11 UNL     1     -12.231  -8.339  23.551  1.00  0.00     0.157 HD
ENDBRANCH   7  16
BRANCH  11  19
HETATM   19  C3  UNL     1     -12.779  -6.445  17.978  1.00  0.00     0.164 C 
BRANCH  19  20
HETATM   20  C4  UNL     1     -13.642  -5.192  18.067  1.00  0.00     0.184 C 
BRANCH  20  21
HETATM   21  O1  UNL     1     -13.724  -4.682  19.354  1.00  0.00    -0.399 OA
ATOM     22  H1  UNL     1     -14.375  -3.995  19.440  1.00  0.00     0.209 HD
ENDBRANCH  20  21
ENDBRANCH  19  20
ENDBRANCH  11  19
ENDBRANCH   3   6
ENDBRANCH   1   2
BRANCH   1  23
HETATM   23  C9  UNL     1     -15.856 -11.603  25.271  1.00  0.00     0.034 C 
BRANCH  23  24
HETATM   24  C10 UNL     1     -15.734 -12.789  26.215  1.00  0.00     0.004 C 
BRANCH  24  25
HETATM   25  C11 UNL     1     -14.233 -13.100  26.275  1.00  0.00     0.019 C 
BRANCH  25  26
HETATM   26  C12 UNL     1     -13.931 -14.300  25.445  1.00  0.00     0.113 C 
BRANCH  26  27
HETATM   27  N6  UNL     1     -13.443 -14.062  24.134  1.00  0.00    -0.421 N 
ATOM     28  H6  UNL     1     -12.722 -13.367  23.942  1.00  0.00     0.153 HD
BRANCH  27  29
HETATM   29  C13 UNL     1     -14.026 -14.862  23.096  1.00  0.00     0.118 C 
BRANCH  29  30
HETATM   30  C14 UNL     1     -15.460 -14.386  22.932  1.00  0.00     0.003 C 
HETATM   31  C15 UNL     1     -16.416 -15.523  22.806  1.00  0.00     0.006 C 
HETATM   32  C16 UNL     1     -16.502 -16.017  21.372  1.00  0.00     0.000 C 
HETATM   33  C17 UNL     1     -16.880 -14.836  20.510  1.00  0.00     0.000 C 
HETATM   34  C18 UNL     1     -15.696 -13.888  20.488  1.00  0.00     0.000 C 
HETATM   35  C19 UNL     1     -15.590 -13.323  21.893  1.00  0.00     0.006 C 
ENDBRANCH  29  30
ENDBRANCH  27  29
ENDBRANCH  26  27
ENDBRANCH  25  26
ENDBRANCH  24  25
ENDBRANCH  23  24
ENDBRANCH   1  23
BRANCH   1  36
HETATM   36  C20 UNL     1     -14.725  -9.701  26.514  1.00  0.00     0.137 C 
BRANCH  36  37
HETATM   37  O3  UNL     1     -13.515  -9.466  26.956  1.00  0.00    -0.348 OA
ATOM     38  H3  UNL     1     -13.336  -9.916  27.773  1.00  0.00     0.219 HD
ENDBRANCH  36  37
BRANCH  36  39
HETATM   39  N7  UNL     1     -15.719  -9.033  27.210  1.00  0.00    -0.357 N 
HETATM   40  C21 UNL     1     -16.007  -9.236  28.645  1.00  0.00     0.125 C 
HETATM   41  C22 UNL     1     -17.532  -9.189  28.722  1.00  0.00     0.020 C 
HETATM   42  C23 UNL     1     -18.193  -9.668  27.456  1.00  0.00     0.004 C 
HETATM   43  C24 UNL     1     -17.865  -8.797  26.248  1.00  0.00     0.028 C 
HETATM   44  C25 UNL     1     -16.619  -8.025  26.647  1.00  0.00     0.123 C 
BRANCH  44  45
HETATM   45  C26 UNL     1     -16.080  -7.122  25.614  1.00  0.00     0.267 C 
BRANCH  45  46
HETATM   46  N8  UNL     1     -16.891  -5.869  25.747  1.00  0.00    -0.067 N 
ATOM     47  H83 UNL     1     -17.191  -5.471  24.857  1.00  0.00     0.275 HD
ATOM     48  H82 UNL     1     -17.826  -6.018  26.127  1.00  0.00     0.275 HD
ATOM     49  H81 UNL     1     -16.310  -5.246  26.307  1.00  0.00     0.275 HD
ENDBRANCH  45  46
BRANCH  45  50
HETATM   50  C27 UNL     1     -14.703  -6.693  25.915  1.00  0.00     0.266 C 
HETATM   51  O4  UNL     1     -13.706  -6.939  25.270  1.00  0.00    -0.305 OA
ENDBRANCH  45  50
ENDBRANCH  44  45
ENDBRANCH  36  39
ENDBRANCH   1  36
TORSDOF 19
ENDMDL
MODEL 4
REMARK VINA RESULT: -8.583392335      1.964      2.764
REMARK  19 active torsions:
REMARK  status: ('A' for Active; 'I' for Inactive)
REMARK    1  A    between atoms: N1_1  and  C1_4 
REMARK    2  A    between atoms: N3_8  and  C3_10 
REMARK    3  A    between atoms: C3_10  and  C4_11 
REMARK    4  A    between atoms: C4_11  and  O1_12 
REMARK    5  A    between atoms: C6_17  and  C7_18 
REMARK       I    between atoms: C7_18  and  N5_20 
REMARK    6  A    between atoms: N5_20  and  C8_22 
REMARK    7  A    between atoms: C8_22  and  C9_23 
REMARK    8  A    between atoms: C8_22  and  C20_36 
REMARK    9  A    between atoms: C9_23  and  C10_24 
REMARK   10  A    between atoms: C10_24  and  C11_25 
REMARK   11  A    between atoms: C11_25  and  C12_26 
REMARK   12  A    between atoms: C12_26  and  N6_27 
REMARK   13  A    between atoms: N6_27  and  C13_29 
REMARK   14  A    between atoms: C13_29  and  C14_30 
REMARK   15  A    between atoms: C20_36  and  O3_37 
REMARK   16  A    between atoms: C20_36  and  N7_39 
REMARK   17  A    between atoms: C25_44  and  C26_45 
REMARK   18  A    between atoms: C26_45  and  N8_46 
REMARK   19  A    between atoms: C26_45  and  C27_50 
ROOT
HETATM    1  C8  UNL     1     -14.243   0.612  13.129  1.00  0.00     0.159 C 
ENDROOT
BRANCH   1   2
HETATM    2  N5  UNL     1     -13.799  -0.463  14.015  1.00  0.00    -0.345 N 
HETATM    3  C7  UNL     1     -14.595  -0.967  15.056  1.00  0.00     0.257 C 
HETATM    4  O2  UNL     1     -15.722  -0.506  15.274  1.00  0.00    -0.267 OA
ATOM      5  H5  UNL     1     -12.872  -0.864  13.871  1.00  0.00     0.163 HD
BRANCH   3   6
HETATM    6  C6  UNL     1     -14.110  -2.064  15.921  1.00  0.00     0.091 A 
HETATM    7  C1  UNL     1     -14.553  -3.364  15.785  1.00  0.00     0.132 A 
HETATM    8  N2  UNL     1     -14.041  -4.341  16.591  1.00  0.00    -0.176 N 
HETATM    9  C2  UNL     1     -13.111  -4.108  17.528  1.00  0.00     0.679 A 
ATOM     10  H2  UNL     1     -14.383  -5.295  16.474  1.00  0.00     0.186 HD
HETATM   11  N3  UNL     1     -12.582  -5.009  18.277  1.00  0.00    -0.224 N 
HETATM   12  N4  UNL     1     -12.676  -2.817  17.659  1.00  0.00    -0.201 N 
ATOM     13  H3  UNL     1     -11.881  -4.741  18.967  1.00  0.00     0.177 HD
HETATM   14  C5  UNL     1     -13.150  -1.829  16.891  1.00  0.00     0.127 A 
ATOM     15  H4  UNL     1     -11.970  -2.602  18.362  1.00  0.00     0.183 HD
BRANCH   7  16
HETATM   16  N1  UNL     1     -15.449  -3.662  14.902  1.00  0.00    -0.384 N 
ATOM     17  H12 UNL     1     -15.208  -4.230  14.091  1.00  0.00     0.157 HD
ATOM     18  H11 UNL     1     -16.406  -3.326  15.017  1.00  0.00     0.157 HD
ENDBRANCH   7  16
BRANCH  11  19
HETATM   19  C3  UNL     1     -12.964  -6.384  18.155  1.00  0.00     0.164 C 
BRANCH  19  20
HETATM   20  C4  UNL     1     -14.010  -6.754  19.200  1.00  0.00     0.184 C 
BRANCH  20  21
HETATM   21  O1  UNL     1     -15.252  -6.194  18.945  1.00  0.00    -0.399 OA
ATOM     22  H1  UNL     1     -15.307  -5.280  19.199  1.00  0.00     0.209 HD
ENDBRANCH  20  21
ENDBRANCH  19  20
ENDBRANCH  11  19
ENDBRANCH   3   6
ENDBRANCH   1   2
BRANCH   1  23
HETATM   23  C9  UNL     1     -14.003   0.155  11.722  1.00  0.00     0.034 C 
BRANCH  23  24
HETATM   24  C10 UNL     1     -13.297  -1.188  11.625  1.00  0.00     0.004 C 
BRANCH  24  25
HETATM   25  C11 UNL     1     -14.245  -2.081  10.816  1.00  0.00     0.019 C 
BRANCH  25  26
HETATM   26  C12 UNL     1     -13.458  -3.064  10.019  1.00  0.00     0.113 C 
BRANCH  26  27
HETATM   27  N6  UNL     1     -13.514  -4.418  10.441  1.00  0.00    -0.421 N 
ATOM     28  H6  UNL     1     -14.398  -4.897  10.608  1.00  0.00     0.153 HD
BRANCH  27  29
HETATM   29  C13 UNL     1     -12.248  -5.069  10.616  1.00  0.00     0.118 C 
BRANCH  29  30
HETATM   30  C14 UNL     1     -12.380  -5.956  11.843  1.00  0.00     0.003 C 
HETATM   31  C15 UNL     1     -12.636  -5.165  13.080  1.00  0.00     0.006 C 
HETATM   32  C16 UNL     1     -11.341  -4.655  13.689  1.00  0.00     0.000 C 
HETATM   33  C17 UNL     1     -10.455  -5.853  13.933  1.00  0.00     0.000 C 
HETATM   34  C18 UNL     1     -10.026  -6.388  12.580  1.00  0.00     0.000 C 
HETATM   35  C19 UNL     1     -11.279  -6.957  11.941  1.00  0.00     0.006 C 
ENDBRANCH  29  30
ENDBRANCH  27  29
ENDBRANCH  26  27
ENDBRANCH  25  26
ENDBRANCH  24  25
ENDBRANCH  23  24
ENDBRANCH   1  23
BRANCH   1  36
HETATM   36  C20 UNL     1     -13.704   1.898  13.543  1.00  0.00     0.137 C 
BRANCH  36  37
HETATM   37  O3  UNL     1     -14.612   2.841  13.546  1.00  0.00    -0.348 OA
ATOM     38  H3  UNL     1     -14.428   3.522  12.910  1.00  0.00     0.219 HD
ENDBRANCH  36  37
BRANCH  36  39
HETATM   39  N7  UNL     1     -12.444   2.329  13.927  1.00  0.00    -0.357 N 
HETATM   40  C21 UNL     1     -11.444   2.902  13.003  1.00  0.00     0.125 C 
HETATM   41  C22 UNL     1     -10.120   2.314  13.486  1.00  0.00     0.020 C 
HETATM   42  C23 UNL     1     -10.283   0.959  14.123  1.00  0.00     0.004 C 
HETATM   43  C24 UNL     1     -11.144   0.994  15.381  1.00  0.00     0.028 C 
HETATM   44  C25 UNL     1     -11.917   2.299  15.293  1.00  0.00     0.123 C 
BRANCH  44  45
HETATM   45  C26 UNL     1     -12.858   2.548  16.399  1.00  0.00     0.267 C 
BRANCH  45  46
HETATM   46  N8  UNL     1     -12.292   1.782  17.556  1.00  0.00    -0.067 N 
ATOM     47  H83 UNL     1     -12.956   1.146  17.997  1.00  0.00     0.275 HD
ATOM     48  H82 UNL     1     -11.611   1.071  17.290  1.00  0.00     0.275 HD
ATOM     49  H81 UNL     1     -11.922   2.498  18.182  1.00  0.00     0.275 HD
ENDBRANCH  45  46
BRANCH  45  50
HETATM   50  C27 UNL     1     -12.827   3.952  16.849  1.00  0.00     0.266 C 
HETATM   51  O4  UNL     1     -13.672   4.526  17.501  1.00  0.00    -0.305 OA
ENDBRANCH  45  50
ENDBRANCH  44  45
ENDBRANCH  36  39
ENDBRANCH   1  36
TORSDOF 19
ENDMDL
MODEL 5
REMARK VINA RESULT: -8.501342778      0.993      1.699
REMARK  19 active torsions:
REMARK  status: ('A' for Active; 'I' for Inactive)
REMARK    1  A    between atoms: N1_1  and  C1_4 
REMARK    2  A    between atoms: N3_8  and  C3_10 
REMARK    3  A    between atoms: C3_10  and  C4_11 
REMARK    4  A    between atoms: C4_11  and  O1_12 
REMARK    5  A    between atoms: C6_17  and  C7_18 
REMARK       I    between atoms: C7_18  and  N5_20 
REMARK    6  A    between atoms: N5_20  and  C8_22 
REMARK    7  A    between atoms: C8_22  and  C9_23 
REMARK    8  A    between atoms: C8_22  and  C20_36 
REMARK    9  A    between atoms: C9_23  and  C10_24 
REMARK   10  A    between atoms: C10_24  and  C11_25 
REMARK   11  A    between atoms: C11_25  and  C12_26 
REMARK   12  A    between atoms: C12_26  and  N6_27 
REMARK   13  A    between atoms: N6_27  and  C13_29 
REMARK   14  A    between atoms: C13_29  and  C14_30 
REMARK   15  A    between atoms: C20_36  and  O3_37 
REMARK   16  A    between atoms: C20_36  and  N7_39 
REMARK   17  A    between atoms: C25_44  and  C26_45 
REMARK   18  A    between atoms: C26_45  and  N8_46 
REMARK   19  A    between atoms: C26_45  and  C27_50 
ROOT
HETATM    1  C8  UNL     1     -14.240   0.587  13.072  1.00  0.00     0.159 C 
ENDROOT
BRANCH   1   2
HETATM    2  N5  UNL     1     -13.802  -0.477  13.974  1.00  0.00    -0.345 N 
HETATM    3  C7  UNL     1     -14.600  -0.958  15.024  1.00  0.00     0.257 C 
HETATM    4  O2  UNL     1     -15.723  -0.486  15.237  1.00  0.00    -0.267 OA
ATOM      5  H5  UNL     1     -12.879  -0.888  13.834  1.00  0.00     0.163 HD
BRANCH   3   6
HETATM    6  C6  UNL     1     -14.122  -2.045  15.906  1.00  0.00     0.091 A 
HETATM    7  C1  UNL     1     -14.561  -3.347  15.780  1.00  0.00     0.132 A 
HETATM    8  N2  UNL     1     -14.055  -4.314  16.602  1.00  0.00    -0.176 N 
HETATM    9  C2  UNL     1     -13.135  -4.069  17.545  1.00  0.00     0.679 A 
ATOM     10  H2  UNL     1     -14.393  -5.270  16.492  1.00  0.00     0.186 HD
HETATM   11  N3  UNL     1     -12.612  -4.960  18.309  1.00  0.00    -0.224 N 
HETATM   12  N4  UNL     1     -12.704  -2.775  17.666  1.00  0.00    -0.201 N 
ATOM     13  H3  UNL     1     -11.918  -4.684  19.003  1.00  0.00     0.177 HD
HETATM   14  C5  UNL     1     -13.172  -1.797  16.883  1.00  0.00     0.127 A 
ATOM     15  H4  UNL     1     -12.005  -2.551  18.374  1.00  0.00     0.183 HD
BRANCH   7  16
HETATM   16  N1  UNL     1     -15.448  -3.656  14.892  1.00  0.00    -0.384 N 
ATOM     17  H12 UNL     1     -16.130  -2.966  14.579  1.00  0.00     0.157 HD
ATOM     18  H11 UNL     1     -15.467  -4.598  14.500  1.00  0.00     0.157 HD
ENDBRANCH   7  16
BRANCH  11  19
HETATM   19  C3  UNL     1     -12.990  -6.337  18.199  1.00  0.00     0.164 C 
BRANCH  19  20
HETATM   20  C4  UNL     1     -14.039  -6.700  19.242  1.00  0.00     0.184 C 
BRANCH  20  21
HETATM   21  O1  UNL     1     -15.289  -6.169  18.961  1.00  0.00    -0.399 OA
ATOM     22  H1  UNL     1     -15.717  -6.595  18.227  1.00  0.00     0.209 HD
ENDBRANCH  20  21
ENDBRANCH  19  20
ENDBRANCH  11  19
ENDBRANCH   3   6
ENDBRANCH   1   2
BRANCH   1  23
HETATM   23  C9  UNL     1     -13.932   0.138  11.675  1.00  0.00     0.034 C 
BRANCH  23  24
HETATM   24  C10 UNL     1     -12.673  -0.708  11.565  1.00  0.00     0.004 C 
BRANCH  24  25
HETATM   25  C11 UNL     1     -11.932  -0.165  10.338  1.00  0.00     0.019 C 
BRANCH  25  26
HETATM   26  C12 UNL     1     -10.542  -0.699  10.309  1.00  0.00     0.113 C 
BRANCH  26  27
HETATM   27  N6  UNL     1     -10.302  -1.807   9.456  1.00  0.00    -0.421 N 
ATOM     28  H6  UNL     1     -10.210  -1.704   8.445  1.00  0.00     0.153 HD
BRANCH  27  29
HETATM   29  C13 UNL     1     -10.195  -3.082  10.105  1.00  0.00     0.118 C 
BRANCH  29  30
HETATM   30  C14 UNL     1     -10.925  -4.083   9.223  1.00  0.00     0.003 C 
HETATM   31  C15 UNL     1     -11.197  -3.535   7.864  1.00  0.00     0.006 C 
HETATM   32  C16 UNL     1     -12.474  -2.712   7.845  1.00  0.00     0.000 C 
HETATM   33  C17 UNL     1     -13.587  -3.595   8.354  1.00  0.00     0.000 C 
HETATM   34  C18 UNL     1     -13.341  -3.835   9.832  1.00  0.00     0.000 C 
HETATM   35  C19 UNL     1     -12.096  -4.698   9.911  1.00  0.00     0.006 C 
ENDBRANCH  29  30
ENDBRANCH  27  29
ENDBRANCH  26  27
ENDBRANCH  25  26
ENDBRANCH  24  25
ENDBRANCH  23  24
ENDBRANCH   1  23
BRANCH   1  36
HETATM   36  C20 UNL     1     -13.754   1.886  13.507  1.00  0.00     0.137 C 
BRANCH  36  37
HETATM   37  O3  UNL     1     -14.711   2.775  13.586  1.00  0.00    -0.348 OA
ATOM     38  H3  UNL     1     -15.565   2.377  13.706  1.00  0.00     0.219 HD
ENDBRANCH  36  37
BRANCH  36  39
HETATM   39  N7  UNL     1     -12.502   2.374  13.849  1.00  0.00    -0.357 N 
HETATM   40  C21 UNL     1     -11.569   3.008  12.895  1.00  0.00     0.125 C 
HETATM   41  C22 UNL     1     -10.199   2.481  13.319  1.00  0.00     0.020 C 
HETATM   42  C23 UNL     1     -10.271   1.112  13.943  1.00  0.00     0.004 C 
HETATM   43  C24 UNL     1     -11.083   1.088  15.233  1.00  0.00     0.028 C 
HETATM   44  C25 UNL     1     -11.922   2.354  15.193  1.00  0.00     0.123 C 
BRANCH  44  45
HETATM   45  C26 UNL     1     -12.831   2.543  16.338  1.00  0.00     0.267 C 
BRANCH  45  46
HETATM   46  N8  UNL     1     -12.245   1.698  17.428  1.00  0.00    -0.067 N 
ATOM     47  H83 UNL     1     -12.793   1.691  18.288  1.00  0.00     0.275 HD
ATOM     48  H82 UNL     1     -12.299   0.695  17.251  1.00  0.00     0.275 HD
ATOM     49  H81 UNL     1     -11.294   2.049  17.543  1.00  0.00     0.275 HD
ENDBRANCH  45  46
BRANCH  45  50
HETATM   50  C27 UNL     1     -12.770   3.914  16.875  1.00  0.00     0.266 C 
HETATM   51  O4  UNL     1     -13.672   4.531  17.400  1.00  0.00    -0.305 OA
ENDBRANCH  45  50
ENDBRANCH  44  45
ENDBRANCH  36  39
ENDBRANCH   1  36
TORSDOF 19
ENDMDL
