MODEL 1
REMARK VINA RESULT: -9.849793181      0.000      0.000
REMARK  19 active torsions:
REMARK  status: ('A' for Active; 'I' for Inactive)
REMARK       I    between atoms: C1_2  and  N6_41 
REMARK    1  A    between atoms: N2_3  and  C2_5 
REMARK    2  A    between atoms: C2_5  and  C3_6 
REMARK    3  A    between atoms: C3_6  and  C4_7 
REMARK    4  A    between atoms: C4_7  and  C5_8 
REMARK    5  A    between atoms: C5_8  and  C6_9 
REMARK    6  A    between atoms: C6_9  and  C7_10 
REMARK    7  A    between atoms: C7_10  and  C8_11 
REMARK    8  A    between atoms: C8_11  and  C9_12 
REMARK    9  A    between atoms: C9_12  and  C10_13 
REMARK   10  A    between atoms: C10_13  and  C11_14 
REMARK   11  A    between atoms: C11_14  and  C12_15 
REMARK   12  A    between atoms: C12_15  and  C13_16 
REMARK   13  A    between atoms: C13_16  and  C14_17 
REMARK   14  A    between atoms: C15_20  and  O1_21 
REMARK   15  A    between atoms: C16_23  and  C17_24 
REMARK   16  A    between atoms: C17_24  and  C18_25 
REMARK   17  A    between atoms: C18_25  and  C19_26 
REMARK   18  A    between atoms: C23_38  and  O6_39 
REMARK       I    between atoms: N6_41  and  C24_42 
REMARK   19  A    between atoms: C24_42  and  C25_44 
ROOT
HETATM    1  C12 UNL     1       0.777 -16.294 -21.861  1.00  0.00    -0.025 C 
ENDROOT
BRANCH   1   2
HETATM    2  C11 UNL     1       1.797 -15.339 -22.265  1.00  0.00    -0.030 C 
BRANCH   2   3
HETATM    3  C10 UNL     1       1.645 -13.886 -22.100  1.00  0.00     0.027 C 
BRANCH   3   4
HETATM    4  C9  UNL     1       2.808 -13.188 -21.397  1.00  0.00     0.004 C 
BRANCH   4   5
HETATM    5  C8  UNL     1       2.552 -13.126 -19.911  1.00  0.00     0.000 C 
BRANCH   5   6
HETATM    6  C7  UNL     1       3.601 -13.766 -19.087  1.00  0.00     0.000 C 
BRANCH   6   7
HETATM    7  C6  UNL     1       4.350 -14.926 -19.563  1.00  0.00     0.000 C 
BRANCH   7   8
HETATM    8  C5  UNL     1       5.818 -15.081 -19.374  1.00  0.00     0.000 C 
BRANCH   8   9
HETATM    9  C4  UNL     1       6.621 -13.929 -19.770  1.00  0.00     0.002 C 
BRANCH   9  10
HETATM   10  C3  UNL     1       8.071 -13.917 -19.392  1.00  0.00     0.020 C 
BRANCH  10  11
HETATM   11  C2  UNL     1       8.845 -15.140 -19.932  1.00  0.00     0.123 C 
BRANCH  11  12
HETATM   12  N2  UNL     1       9.998 -14.550 -20.620  1.00  0.00    -0.353 N 
HETATM   13  C1  UNL     1      10.221 -15.103 -21.843  1.00  0.00     0.266 C 
HETATM   14  N1  UNL     1      11.402 -14.480 -22.430  1.00  0.00    -0.049 NA
HETATM   15  N6  UNL     1       9.349 -15.878 -22.462  1.00  0.00    -0.336 NA
HETATM   16  C24 UNL     1       8.432 -16.701 -23.124  1.00  0.00     0.325 C 
HETATM   17  O7  UNL     1       8.634 -17.518 -24.049  1.00  0.00    -0.255 OA
ATOM     18  H2  UNL     1      10.572 -13.806 -20.224  1.00  0.00     0.163 HD
BRANCH  16  19
HETATM   19  C25 UNL     1       6.970 -16.597 -22.718  1.00  0.00     0.292 C 
HETATM   20  C26 UNL     1       6.658 -15.122 -23.174  1.00  0.00     0.045 C 
HETATM   21  C27 UNL     1       5.432 -15.234 -24.040  1.00  0.00     0.030 C 
HETATM   22  C28 UNL     1       4.882 -16.617 -23.692  1.00  0.00     0.233 C 
HETATM   23  N7  UNL     1       6.119 -17.405 -23.533  1.00  0.00    -0.061 N 
ATOM     24  H72 UNL     1       6.542 -17.692 -24.415  1.00  0.00     0.278 HD
ATOM     25  H71 UNL     1       5.966 -18.344 -23.167  1.00  0.00     0.278 HD
ENDBRANCH  16  19
ENDBRANCH  11  12
ENDBRANCH  10  11
ENDBRANCH   9  10
ENDBRANCH   8   9
ENDBRANCH   7   8
ENDBRANCH   6   7
ENDBRANCH   5   6
ENDBRANCH   4   5
ENDBRANCH   3   4
ENDBRANCH   2   3
ENDBRANCH   1   2
BRANCH   1  26
HETATM   26  C13 UNL     1      -0.083 -17.037 -22.768  1.00  0.00     0.087 C 
BRANCH  26  27
HETATM   27  C14 UNL     1      -1.589 -16.782 -22.678  1.00  0.00     0.053 C 
HETATM   28  N3  UNL     1      -2.165 -17.290 -21.494  1.00  0.00    -0.340 N 
HETATM   29  C15 UNL     1      -3.433 -17.427 -20.972  1.00  0.00     0.139 C 
ATOM     30  H3  UNL     1      -1.455 -17.652 -20.857  1.00  0.00     0.167 HD
HETATM   31  C16 UNL     1      -4.623 -18.160 -21.294  1.00  0.00     0.159 C 
HETATM   32  N4  UNL     1      -5.798 -17.322 -21.384  1.00  0.00    -0.348 N 
HETATM   33  C20 UNL     1      -5.793 -15.981 -21.814  1.00  0.00     0.236 C 
ATOM     34  H4  UNL     1      -6.694 -17.732 -21.118  1.00  0.00     0.163 HD
HETATM   35  O4  UNL     1      -6.515 -15.158 -21.176  1.00  0.00    -0.272 OA
HETATM   36  C21 UNL     1      -5.013 -15.448 -22.952  1.00  0.00     0.225 C 
HETATM   37  N5  UNL     1      -4.107 -14.400 -22.540  1.00  0.00    -0.346 N 
HETATM   38  C22 UNL     1      -2.716 -14.390 -22.888  1.00  0.00     0.277 C 
ATOM     39  H5  UNL     1      -4.473 -13.634 -21.976  1.00  0.00     0.163 HD
HETATM   40  O5  UNL     1      -2.221 -13.199 -22.854  1.00  0.00    -0.265 OA
HETATM   41  C23 UNL     1      -1.889 -15.501 -23.242  1.00  0.00     0.157 C 
BRANCH  29  42
HETATM   42  O1  UNL     1      -3.648 -16.697 -19.891  1.00  0.00    -0.348 OA
ATOM     43  H1  UNL     1      -4.117 -17.156 -19.204  1.00  0.00     0.219 HD
ENDBRANCH  29  42
BRANCH  31  44
HETATM   44  C17 UNL     1      -4.572 -19.185 -22.391  1.00  0.00     0.044 C 
BRANCH  44  45
HETATM   45  C18 UNL     1      -5.964 -19.874 -22.436  1.00  0.00     0.116 C 
BRANCH  45  46
HETATM   46  C19 UNL     1      -6.036 -21.017 -21.509  1.00  0.00     0.172 C 
HETATM   47  O2  UNL     1      -5.141 -21.856 -21.408  1.00  0.00    -0.648 OA
HETATM   48  O3  UNL     1      -7.179 -21.170 -20.695  1.00  0.00    -0.648 OA
ENDBRANCH  45  46
ENDBRANCH  44  45
ENDBRANCH  31  44
BRANCH  41  49
HETATM   49  O6  UNL     1      -1.231 -15.317 -24.362  1.00  0.00    -0.354 OA
ATOM     50  H6  UNL     1      -1.784 -14.905 -25.016  1.00  0.00     0.218 HD
ENDBRANCH  41  49
ENDBRANCH  26  27
ENDBRANCH   1  26
TORSDOF 19
ENDMDL
MODEL 2
REMARK VINA RESULT: -9.840775787      5.200     10.135
REMARK  19 active torsions:
REMARK  status: ('A' for Active; 'I' for Inactive)
REMARK       I    between atoms: C1_2  and  N6_41 
REMARK    1  A    between atoms: N2_3  and  C2_5 
REMARK    2  A    between atoms: C2_5  and  C3_6 
REMARK    3  A    between atoms: C3_6  and  C4_7 
REMARK    4  A    between atoms: C4_7  and  C5_8 
REMARK    5  A    between atoms: C5_8  and  C6_9 
REMARK    6  A    between atoms: C6_9  and  C7_10 
REMARK    7  A    between atoms: C7_10  and  C8_11 
REMARK    8  A    between atoms: C8_11  and  C9_12 
REMARK    9  A    between atoms: C9_12  and  C10_13 
REMARK   10  A    between atoms: C10_13  and  C11_14 
REMARK   11  A    between atoms: C11_14  and  C12_15 
REMARK   12  A    between atoms: C12_15  and  C13_16 
REMARK   13  A    between atoms: C13_16  and  C14_17 
REMARK   14  A    between atoms: C15_20  and  O1_21 
REMARK   15  A    between atoms: C16_23  and  C17_24 
REMARK   16  A    between atoms: C17_24  and  C18_25 
REMARK   17  A    between atoms: C18_25  and  C19_26 
REMARK   18  A    between atoms: C23_38  and  O6_39 
REMARK       I    between atoms: N6_41  and  C24_42 
REMARK   19  A    between atoms: C24_42  and  C25_44 
ROOT
HETATM    1  C12 UNL     1       7.662 -11.029 -23.130  1.00  0.00    -0.025 C 
ENDROOT
BRANCH   1   2
HETATM    2  C11 UNL     1       8.046 -12.346 -22.645  1.00  0.00    -0.030 C 
BRANCH   2   3
HETATM    3  C10 UNL     1       8.301 -12.635 -21.227  1.00  0.00     0.027 C 
BRANCH   3   4
HETATM    4  C9  UNL     1       8.813 -14.044 -20.934  1.00  0.00     0.004 C 
BRANCH   4   5
HETATM    5  C8  UNL     1       8.015 -14.661 -19.811  1.00  0.00     0.000 C 
BRANCH   5   6
HETATM    6  C7  UNL     1       6.621 -14.176 -19.719  1.00  0.00     0.000 C 
BRANCH   6   7
HETATM    7  C6  UNL     1       5.634 -14.834 -18.867  1.00  0.00     0.000 C 
BRANCH   7   8
HETATM    8  C5  UNL     1       4.166 -14.672 -19.047  1.00  0.00     0.000 C 
BRANCH   8   9
HETATM    9  C4  UNL     1       3.737 -13.353 -19.502  1.00  0.00     0.002 C 
BRANCH   9  10
HETATM   10  C3  UNL     1       2.441 -13.251 -20.246  1.00  0.00     0.020 C 
BRANCH  10  11
HETATM   11  C2  UNL     1       2.460 -14.001 -21.596  1.00  0.00     0.123 C 
BRANCH  11  12
HETATM   12  N2  UNL     1       1.308 -14.905 -21.513  1.00  0.00    -0.353 N 
HETATM   13  C1  UNL     1       1.429 -15.989 -22.326  1.00  0.00     0.266 C 
HETATM   14  N1  UNL     1       0.226 -16.804 -22.201  1.00  0.00    -0.049 NA
HETATM   15  N6  UNL     1       2.561 -16.338 -22.910  1.00  0.00    -0.336 NA
HETATM   16  C24 UNL     1       3.754 -16.714 -23.535  1.00  0.00     0.325 C 
HETATM   17  O7  UNL     1       3.923 -17.448 -24.534  1.00  0.00    -0.255 OA
ATOM     18  H2  UNL     1       0.501 -14.738 -20.911  1.00  0.00     0.163 HD
BRANCH  16  19
HETATM   19  C25 UNL     1       5.056 -16.211 -22.930  1.00  0.00     0.292 C 
HETATM   20  C26 UNL     1       5.116 -17.091 -21.624  1.00  0.00     0.045 C 
HETATM   21  C27 UNL     1       6.475 -17.734 -21.652  1.00  0.00     0.030 C 
HETATM   22  C28 UNL     1       7.242 -16.894 -22.673  1.00  0.00     0.233 C 
HETATM   23  N7  UNL     1       6.201 -16.618 -23.682  1.00  0.00    -0.061 N 
ATOM     24  H72 UNL     1       6.023 -17.396 -24.315  1.00  0.00     0.278 HD
ATOM     25  H71 UNL     1       6.485 -15.948 -24.396  1.00  0.00     0.278 HD
ENDBRANCH  16  19
ENDBRANCH  11  12
ENDBRANCH  10  11
ENDBRANCH   9  10
ENDBRANCH   8   9
ENDBRANCH   7   8
ENDBRANCH   6   7
ENDBRANCH   5   6
ENDBRANCH   4   5
ENDBRANCH   3   4
ENDBRANCH   2   3
ENDBRANCH   1   2
BRANCH   1  26
HETATM   26  C13 UNL     1       6.316 -10.636 -23.514  1.00  0.00     0.087 C 
BRANCH  26  27
HETATM   27  C14 UNL     1       5.898 -10.880 -24.966  1.00  0.00     0.053 C 
HETATM   28  N3  UNL     1       6.745 -10.244 -25.898  1.00  0.00    -0.340 N 
HETATM   29  C15 UNL     1       6.773 -10.051 -27.262  1.00  0.00     0.139 C 
ATOM     30  H3  UNL     1       7.550  -9.814 -25.440  1.00  0.00     0.167 HD
HETATM   31  C16 UNL     1       5.980  -9.358 -28.236  1.00  0.00     0.159 C 
HETATM   32  N4  UNL     1       5.572 -10.200 -29.338  1.00  0.00    -0.348 N 
HETATM   33  C20 UNL     1       5.312 -11.581 -29.236  1.00  0.00     0.236 C 
ATOM     34  H4  UNL     1       5.464  -9.764 -30.254  1.00  0.00     0.163 HD
HETATM   35  O4  UNL     1       5.738 -12.329 -30.166  1.00  0.00    -0.272 OA
HETATM   36  C21 UNL     1       4.581 -12.237 -28.129  1.00  0.00     0.225 C 
HETATM   37  N5  UNL     1       5.391 -13.232 -27.464  1.00  0.00    -0.346 N 
HETATM   38  C22 UNL     1       5.555 -13.280 -26.041  1.00  0.00     0.277 C 
ATOM     39  H5  UNL     1       5.867 -13.932 -28.033  1.00  0.00     0.163 HD
HETATM   40  O5  UNL     1       5.884 -14.461 -25.635  1.00  0.00    -0.265 OA
HETATM   41  C23 UNL     1       5.401 -12.216 -25.100  1.00  0.00     0.157 C 
BRANCH  29  42
HETATM   42  O1  UNL     1       7.780 -10.657 -27.869  1.00  0.00    -0.348 OA
ATOM     43  H1  UNL     1       7.876 -10.421 -28.783  1.00  0.00     0.219 HD
ENDBRANCH  29  42
BRANCH  31  44
HETATM   44  C17 UNL     1       4.871  -8.460 -27.766  1.00  0.00     0.044 C 
BRANCH  44  45
HETATM   45  C18 UNL     1       4.010  -8.111 -29.012  1.00  0.00     0.116 C 
BRANCH  45  46
HETATM   46  C19 UNL     1       2.601  -8.501 -28.828  1.00  0.00     0.172 C 
HETATM   47  O2  UNL     1       1.883  -8.878 -29.755  1.00  0.00    -0.648 OA
HETATM   48  O3  UNL     1       2.035  -8.443 -27.536  1.00  0.00    -0.648 OA
ENDBRANCH  45  46
ENDBRANCH  44  45
ENDBRANCH  31  44
BRANCH  41  49
HETATM   49  O6  UNL     1       4.607 -12.522 -24.101  1.00  0.00    -0.354 OA
ATOM     50  H6  UNL     1       4.720 -13.430 -23.844  1.00  0.00     0.218 HD
ENDBRANCH  41  49
ENDBRANCH  26  27
ENDBRANCH   1  26
TORSDOF 19
ENDMDL
MODEL 3
REMARK VINA RESULT: -9.820798114      6.743      9.749
REMARK  19 active torsions:
REMARK  status: ('A' for Active; 'I' for Inactive)
REMARK       I    between atoms: C1_2  and  N6_41 
REMARK    1  A    between atoms: N2_3  and  C2_5 
REMARK    2  A    between atoms: C2_5  and  C3_6 
REMARK    3  A    between atoms: C3_6  and  C4_7 
REMARK    4  A    between atoms: C4_7  and  C5_8 
REMARK    5  A    between atoms: C5_8  and  C6_9 
REMARK    6  A    between atoms: C6_9  and  C7_10 
REMARK    7  A    between atoms: C7_10  and  C8_11 
REMARK    8  A    between atoms: C8_11  and  C9_12 
REMARK    9  A    between atoms: C9_12  and  C10_13 
REMARK   10  A    between atoms: C10_13  and  C11_14 
REMARK   11  A    between atoms: C11_14  and  C12_15 
REMARK   12  A    between atoms: C12_15  and  C13_16 
REMARK   13  A    between atoms: C13_16  and  C14_17 
REMARK   14  A    between atoms: C15_20  and  O1_21 
REMARK   15  A    between atoms: C16_23  and  C17_24 
REMARK   16  A    between atoms: C17_24  and  C18_25 
REMARK   17  A    between atoms: C18_25  and  C19_26 
REMARK   18  A    between atoms: C23_38  and  O6_39 
REMARK       I    between atoms: N6_41  and  C24_42 
REMARK   19  A    between atoms: C24_42  and  C25_44 
ROOT
HETATM    1  C12 UNL     1       3.507 -12.581 -24.642  1.00  0.00    -0.025 C 
ENDROOT
BRANCH   1   2
HETATM    2  C11 UNL     1       3.472 -12.945 -23.234  1.00  0.00    -0.030 C 
BRANCH   2   3
HETATM    3  C10 UNL     1       2.347 -13.664 -22.619  1.00  0.00     0.027 C 
BRANCH   3   4
HETATM    4  C9  UNL     1       2.671 -14.373 -21.306  1.00  0.00     0.004 C 
BRANCH   4   5
HETATM    5  C8  UNL     1       2.685 -13.379 -20.170  1.00  0.00     0.000 C 
BRANCH   5   6
HETATM    6  C7  UNL     1       3.831 -13.531 -19.246  1.00  0.00     0.000 C 
BRANCH   6   7
HETATM    7  C6  UNL     1       4.450 -14.830 -18.998  1.00  0.00     0.000 C 
BRANCH   7   8
HETATM    8  C5  UNL     1       5.846 -15.155 -19.397  1.00  0.00     0.000 C 
BRANCH   8   9
HETATM    9  C4  UNL     1       6.670 -14.009 -19.767  1.00  0.00     0.002 C 
BRANCH   9  10
HETATM   10  C3  UNL     1       8.095 -13.986 -19.304  1.00  0.00     0.020 C 
BRANCH  10  11
HETATM   11  C2  UNL     1       8.940 -15.134 -19.897  1.00  0.00     0.123 C 
BRANCH  11  12
HETATM   12  N2  UNL     1       9.979 -14.444 -20.669  1.00  0.00    -0.353 N 
HETATM   13  C1  UNL     1      10.178 -14.995 -21.896  1.00  0.00     0.266 C 
HETATM   14  N1  UNL     1      11.248 -14.266 -22.569  1.00  0.00    -0.049 NA
HETATM   15  N6  UNL     1       9.353 -15.869 -22.445  1.00  0.00    -0.336 NA
HETATM   16  C24 UNL     1       8.486 -16.795 -23.033  1.00  0.00     0.325 C 
HETATM   17  O7  UNL     1       8.711 -17.607 -23.957  1.00  0.00    -0.255 OA
ATOM     18  H2  UNL     1      10.497 -13.636 -20.322  1.00  0.00     0.163 HD
BRANCH  16  19
HETATM   19  C25 UNL     1       7.051 -16.834 -22.532  1.00  0.00     0.292 C 
HETATM   20  C26 UNL     1       6.509 -15.482 -23.131  1.00  0.00     0.045 C 
HETATM   21  C27 UNL     1       5.262 -15.862 -23.883  1.00  0.00     0.030 C 
HETATM   22  C28 UNL     1       4.931 -17.250 -23.335  1.00  0.00     0.233 C 
HETATM   23  N7  UNL     1       6.274 -17.843 -23.180  1.00  0.00    -0.061 N 
ATOM     24  H72 UNL     1       6.680 -18.180 -24.052  1.00  0.00     0.278 HD
ATOM     25  H71 UNL     1       6.275 -18.740 -22.696  1.00  0.00     0.278 HD
ENDBRANCH  16  19
ENDBRANCH  11  12
ENDBRANCH  10  11
ENDBRANCH   9  10
ENDBRANCH   8   9
ENDBRANCH   7   8
ENDBRANCH   6   7
ENDBRANCH   5   6
ENDBRANCH   4   5
ENDBRANCH   3   4
ENDBRANCH   2   3
ENDBRANCH   1   2
BRANCH   1  26
HETATM   26  C13 UNL     1       4.423 -13.131 -25.628  1.00  0.00     0.087 C 
BRANCH  26  27
HETATM   27  C14 UNL     1       5.630 -12.277 -26.021  1.00  0.00     0.053 C 
HETATM   28  N3  UNL     1       5.653 -11.023 -25.375  1.00  0.00    -0.340 N 
HETATM   29  C15 UNL     1       6.413  -9.875 -25.435  1.00  0.00     0.139 C 
ATOM     30  H3  UNL     1       4.910 -10.946 -24.680  1.00  0.00     0.167 HD
HETATM   31  C16 UNL     1       6.677  -8.845 -26.398  1.00  0.00     0.159 C 
HETATM   32  N4  UNL     1       8.088  -8.634 -26.631  1.00  0.00    -0.348 N 
HETATM   33  C20 UNL     1       9.070  -9.642 -26.557  1.00  0.00     0.236 C 
ATOM     34  H4  UNL     1       8.395  -7.690 -26.867  1.00  0.00     0.163 HD
HETATM   35  O4  UNL     1      10.169  -9.351 -25.997  1.00  0.00    -0.272 OA
HETATM   36  C21 UNL     1       8.928 -11.018 -27.080  1.00  0.00     0.225 C 
HETATM   37  N5  UNL     1       9.088 -12.009 -26.040  1.00  0.00    -0.346 N 
HETATM   38  C22 UNL     1       8.153 -13.073 -25.826  1.00  0.00     0.277 C 
ATOM     39  H5  UNL     1       9.904 -11.948 -25.431  1.00  0.00     0.163 HD
HETATM   40  O5  UNL     1       8.695 -14.075 -25.217  1.00  0.00    -0.265 OA
HETATM   41  C23 UNL     1       6.773 -13.122 -26.196  1.00  0.00     0.157 C 
BRANCH  29  42
HETATM   42  O1  UNL     1       7.103  -9.632 -24.334  1.00  0.00    -0.348 OA
ATOM     43  H1  UNL     1       6.842  -8.837 -23.884  1.00  0.00     0.219 HD
ENDBRANCH  29  42
BRANCH  31  44
HETATM   44  C17 UNL     1       5.881  -8.818 -27.672  1.00  0.00     0.044 C 
BRANCH  44  45
HETATM   45  C18 UNL     1       4.679  -7.861 -27.437  1.00  0.00     0.116 C 
BRANCH  45  46
HETATM   46  C19 UNL     1       3.450  -8.601 -27.103  1.00  0.00     0.172 C 
HETATM   47  O2  UNL     1       2.444  -8.059 -26.644  1.00  0.00    -0.648 OA
HETATM   48  O3  UNL     1       3.410  -9.997 -27.312  1.00  0.00    -0.648 OA
ENDBRANCH  45  46
ENDBRANCH  44  45
ENDBRANCH  31  44
BRANCH  41  49
HETATM   49  O6  UNL     1       6.457 -14.205 -26.865  1.00  0.00    -0.354 OA
ATOM     50  H6  UNL     1       6.798 -14.981 -26.435  1.00  0.00     0.218 HD
ENDBRANCH  41  49
ENDBRANCH  26  27
ENDBRANCH   1  26
TORSDOF 19
ENDMDL
MODEL 4
REMARK VINA RESULT: -9.805439747      6.408      9.191
REMARK  19 active torsions:
REMARK  status: ('A' for Active; 'I' for Inactive)
REMARK       I    between atoms: C1_2  and  N6_41 
REMARK    1  A    between atoms: N2_3  and  C2_5 
REMARK    2  A    between atoms: C2_5  and  C3_6 
REMARK    3  A    between atoms: C3_6  and  C4_7 
REMARK    4  A    between atoms: C4_7  and  C5_8 
REMARK    5  A    between atoms: C5_8  and  C6_9 
REMARK    6  A    between atoms: C6_9  and  C7_10 
REMARK    7  A    between atoms: C7_10  and  C8_11 
REMARK    8  A    between atoms: C8_11  and  C9_12 
REMARK    9  A    between atoms: C9_12  and  C10_13 
REMARK   10  A    between atoms: C10_13  and  C11_14 
REMARK   11  A    between atoms: C11_14  and  C12_15 
REMARK   12  A    between atoms: C12_15  and  C13_16 
REMARK   13  A    between atoms: C13_16  and  C14_17 
REMARK   14  A    between atoms: C15_20  and  O1_21 
REMARK   15  A    between atoms: C16_23  and  C17_24 
REMARK   16  A    between atoms: C17_24  and  C18_25 
REMARK   17  A    between atoms: C18_25  and  C19_26 
REMARK   18  A    between atoms: C23_38  and  O6_39 
REMARK       I    between atoms: N6_41  and  C24_42 
REMARK   19  A    between atoms: C24_42  and  C25_44 
ROOT
HETATM    1  C12 UNL     1       4.279 -14.285 -24.011  1.00  0.00    -0.025 C 
ENDROOT
BRANCH   1   2
HETATM    2  C11 UNL     1       3.348 -13.674 -23.075  1.00  0.00    -0.030 C 
BRANCH   2   3
HETATM    3  C10 UNL     1       2.580 -14.447 -22.089  1.00  0.00     0.027 C 
BRANCH   3   4
HETATM    4  C9  UNL     1       2.251 -13.705 -20.796  1.00  0.00     0.004 C 
BRANCH   4   5
HETATM    5  C8  UNL     1       3.525 -13.290 -20.100  1.00  0.00     0.000 C 
BRANCH   5   6
HETATM    6  C7  UNL     1       3.825 -14.061 -18.873  1.00  0.00     0.000 C 
BRANCH   6   7
HETATM    7  C6  UNL     1       4.776 -15.169 -18.877  1.00  0.00     0.000 C 
BRANCH   7   8
HETATM    8  C5  UNL     1       4.471 -16.502 -19.464  1.00  0.00     0.000 C 
BRANCH   8   9
HETATM    9  C4  UNL     1       5.515 -17.059 -20.318  1.00  0.00     0.002 C 
BRANCH   9  10
HETATM   10  C3  UNL     1       5.260 -17.125 -21.792  1.00  0.00     0.020 C 
BRANCH  10  11
HETATM   11  C2  UNL     1       6.397 -17.822 -22.571  1.00  0.00     0.123 C 
BRANCH  11  12
HETATM   12  N2  UNL     1       7.120 -18.574 -21.540  1.00  0.00    -0.353 N 
HETATM   13  C1  UNL     1       8.471 -18.481 -21.670  1.00  0.00     0.266 C 
HETATM   14  N1  UNL     1       9.098 -19.286 -20.628  1.00  0.00    -0.049 NA
HETATM   15  N6  UNL     1       9.069 -17.602 -22.453  1.00  0.00    -0.336 NA
HETATM   16  C24 UNL     1       9.710 -16.675 -23.282  1.00  0.00     0.325 C 
HETATM   17  O7  UNL     1      10.872 -16.704 -23.743  1.00  0.00    -0.255 OA
ATOM     18  H2  UNL     1       6.659 -19.109 -20.804  1.00  0.00     0.163 HD
BRANCH  16  19
HETATM   19  C25 UNL     1       8.935 -15.427 -23.676  1.00  0.00     0.292 C 
HETATM   20  C26 UNL     1       9.444 -14.423 -22.572  1.00  0.00     0.045 C 
HETATM   21  C27 UNL     1       9.927 -13.220 -23.335  1.00  0.00     0.030 C 
HETATM   22  C28 UNL     1       9.297 -13.403 -24.716  1.00  0.00     0.233 C 
HETATM   23  N7  UNL     1       9.398 -14.863 -24.904  1.00  0.00    -0.061 N 
ATOM     24  H72 UNL     1      10.326 -15.181 -25.181  1.00  0.00     0.278 HD
ATOM     25  H71 UNL     1       8.905 -15.208 -25.728  1.00  0.00     0.278 HD
ENDBRANCH  16  19
ENDBRANCH  11  12
ENDBRANCH  10  11
ENDBRANCH   9  10
ENDBRANCH   8   9
ENDBRANCH   7   8
ENDBRANCH   6   7
ENDBRANCH   5   6
ENDBRANCH   4   5
ENDBRANCH   3   4
ENDBRANCH   2   3
ENDBRANCH   1   2
BRANCH   1  26
HETATM   26  C13 UNL     1       4.120 -14.312 -25.456  1.00  0.00     0.087 C 
BRANCH  26  27
HETATM   27  C14 UNL     1       4.483 -13.042 -26.228  1.00  0.00     0.053 C 
HETATM   28  N3  UNL     1       5.876 -12.840 -26.333  1.00  0.00    -0.340 N 
HETATM   29  C15 UNL     1       6.715 -11.855 -26.806  1.00  0.00     0.139 C 
ATOM     30  H3  UNL     1       6.399 -13.633 -25.960  1.00  0.00     0.167 HD
HETATM   31  C16 UNL     1       7.030 -10.497 -26.467  1.00  0.00     0.159 C 
HETATM   32  N4  UNL     1       6.918  -9.591 -27.588  1.00  0.00    -0.348 N 
HETATM   33  C20 UNL     1       6.003  -9.740 -28.648  1.00  0.00     0.236 C 
ATOM     34  H4  UNL     1       7.546  -8.788 -27.614  1.00  0.00     0.163 HD
HETATM   35  O4  UNL     1       6.420  -9.507 -29.822  1.00  0.00    -0.272 OA
HETATM   36  C21 UNL     1       4.588 -10.149 -28.509  1.00  0.00     0.225 C 
HETATM   37  N5  UNL     1       4.299 -11.354 -29.253  1.00  0.00    -0.346 N 
HETATM   38  C22 UNL     1       3.632 -12.485 -28.678  1.00  0.00     0.277 C 
ATOM     39  H5  UNL     1       4.583 -11.402 -30.231  1.00  0.00     0.163 HD
HETATM   40  O5  UNL     1       3.059 -13.213 -29.577  1.00  0.00    -0.265 OA
HETATM   41  C23 UNL     1       3.552 -12.853 -27.299  1.00  0.00     0.157 C 
BRANCH  29  42
HETATM   42  O1  UNL     1       7.431 -12.220 -27.857  1.00  0.00    -0.348 OA
ATOM     43  H1  UNL     1       7.521 -11.541 -28.515  1.00  0.00     0.219 HD
ENDBRANCH  29  42
BRANCH  31  44
HETATM   44  C17 UNL     1       6.461  -9.912 -25.206  1.00  0.00     0.044 C 
BRANCH  44  45
HETATM   45  C18 UNL     1       7.208 -10.579 -24.017  1.00  0.00     0.116 C 
BRANCH  45  46
HETATM   46  C19 UNL     1       6.271 -11.186 -23.056  1.00  0.00     0.172 C 
HETATM   47  O2  UNL     1       6.540 -12.195 -22.404  1.00  0.00    -0.648 OA
HETATM   48  O3  UNL     1       5.003 -10.594 -22.865  1.00  0.00    -0.648 OA
ENDBRANCH  45  46
ENDBRANCH  44  45
ENDBRANCH  31  44
BRANCH  41  49
HETATM   49  O6  UNL     1       2.324 -13.079 -26.897  1.00  0.00    -0.354 OA
ATOM     50  H6  UNL     1       2.114 -12.548 -26.137  1.00  0.00     0.218 HD
ENDBRANCH  41  49
ENDBRANCH  26  27
ENDBRANCH   1  26
TORSDOF 19
ENDMDL
MODEL 5
REMARK VINA RESULT: -9.711547314      6.524      9.981
REMARK  19 active torsions:
REMARK  status: ('A' for Active; 'I' for Inactive)
REMARK       I    between atoms: C1_2  and  N6_41 
REMARK    1  A    between atoms: N2_3  and  C2_5 
REMARK    2  A    between atoms: C2_5  and  C3_6 
REMARK    3  A    between atoms: C3_6  and  C4_7 
REMARK    4  A    between atoms: C4_7  and  C5_8 
REMARK    5  A    between atoms: C5_8  and  C6_9 
REMARK    6  A    between atoms: C6_9  and  C7_10 
REMARK    7  A    between atoms: C7_10  and  C8_11 
REMARK    8  A    between atoms: C8_11  and  C9_12 
REMARK    9  A    between atoms: C9_12  and  C10_13 
REMARK   10  A    between atoms: C10_13  and  C11_14 
REMARK   11  A    between atoms: C11_14  and  C12_15 
REMARK   12  A    between atoms: C12_15  and  C13_16 
REMARK   13  A    between atoms: C13_16  and  C14_17 
REMARK   14  A    between atoms: C15_20  and  O1_21 
REMARK   15  A    between atoms: C16_23  and  C17_24 
REMARK   16  A    between atoms: C17_24  and  C18_25 
REMARK   17  A    between atoms: C18_25  and  C19_26 
REMARK   18  A    between atoms: C23_38  and  O6_39 
REMARK       I    between atoms: N6_41  and  C24_42 
REMARK   19  A    between atoms: C24_42  and  C25_44 
ROOT
HETATM    1  C12 UNL     1       4.286 -13.805 -24.404  1.00  0.00    -0.025 C 
ENDROOT
BRANCH   1   2
HETATM    2  C11 UNL     1       4.759 -15.116 -23.987  1.00  0.00    -0.030 C 
BRANCH   2   3
HETATM    3  C10 UNL     1       3.934 -16.058 -23.217  1.00  0.00     0.027 C 
BRANCH   3   4
HETATM    4  C9  UNL     1       2.429 -15.943 -23.450  1.00  0.00     0.004 C 
BRANCH   4   5
HETATM    5  C8  UNL     1       1.734 -15.564 -22.165  1.00  0.00     0.000 C 
BRANCH   5   6
HETATM    6  C7  UNL     1       1.500 -14.112 -22.006  1.00  0.00     0.000 C 
BRANCH   6   7
HETATM    7  C6  UNL     1       2.412 -13.266 -21.241  1.00  0.00     0.000 C 
BRANCH   7   8
HETATM    8  C5  UNL     1       2.535 -13.335 -19.760  1.00  0.00     0.000 C 
BRANCH   8   9
HETATM    9  C4  UNL     1       3.893 -13.518 -19.256  1.00  0.00     0.002 C 
BRANCH   9  10
HETATM   10  C3  UNL     1       4.545 -14.852 -19.455  1.00  0.00     0.020 C 
BRANCH  10  11
HETATM   11  C2  UNL     1       6.023 -14.742 -19.890  1.00  0.00     0.123 C 
BRANCH  11  12
HETATM   12  N2  UNL     1       6.020 -13.656 -20.875  1.00  0.00    -0.353 N 
HETATM   13  C1  UNL     1       7.156 -13.620 -21.623  1.00  0.00     0.266 C 
HETATM   14  N1  UNL     1       7.074 -12.492 -22.544  1.00  0.00    -0.049 NA
HETATM   15  N6  UNL     1       8.037 -14.604 -21.658  1.00  0.00    -0.336 NA
HETATM   16  C24 UNL     1       8.975 -15.639 -21.698  1.00  0.00     0.325 C 
HETATM   17  O7  UNL     1      10.175 -15.601 -22.051  1.00  0.00    -0.255 OA
ATOM     18  H2  UNL     1       5.249 -12.998 -20.988  1.00  0.00     0.163 HD
BRANCH  16  19
HETATM   19  C25 UNL     1       8.509 -17.030 -21.297  1.00  0.00     0.292 C 
HETATM   20  C26 UNL     1       7.290 -17.210 -22.279  1.00  0.00     0.045 C 
HETATM   21  C27 UNL     1       7.539 -18.521 -22.974  1.00  0.00     0.030 C 
HETATM   22  C28 UNL     1       8.587 -19.194 -22.087  1.00  0.00     0.233 C 
HETATM   23  N7  UNL     1       9.430 -18.049 -21.691  1.00  0.00    -0.061 N 
ATOM     24  H72 UNL     1      10.090 -17.754 -22.409  1.00  0.00     0.278 HD
ATOM     25  H71 UNL     1      10.125 -18.275 -20.979  1.00  0.00     0.278 HD
ENDBRANCH  16  19
ENDBRANCH  11  12
ENDBRANCH  10  11
ENDBRANCH   9  10
ENDBRANCH   8   9
ENDBRANCH   7   8
ENDBRANCH   6   7
ENDBRANCH   5   6
ENDBRANCH   4   5
ENDBRANCH   3   4
ENDBRANCH   2   3
ENDBRANCH   1   2
BRANCH   1  26
HETATM   26  C13 UNL     1       4.391 -13.264 -25.750  1.00  0.00     0.087 C 
BRANCH  26  27
HETATM   27  C14 UNL     1       5.617 -12.406 -26.070  1.00  0.00     0.053 C 
HETATM   28  N3  UNL     1       5.640 -11.189 -25.357  1.00  0.00    -0.340 N 
HETATM   29  C15 UNL     1       6.415 -10.049 -25.339  1.00  0.00     0.139 C 
ATOM     30  H3  UNL     1       4.882 -11.139 -24.675  1.00  0.00     0.167 HD
HETATM   31  C16 UNL     1       6.712  -8.972 -26.238  1.00  0.00     0.159 C 
HETATM   32  N4  UNL     1       8.131  -8.768 -26.429  1.00  0.00    -0.348 N 
HETATM   33  C20 UNL     1       9.099  -9.790 -26.388  1.00  0.00     0.236 C 
ATOM     34  H4  UNL     1       8.454  -7.816 -26.607  1.00  0.00     0.163 HD
HETATM   35  O4  UNL     1      10.188  -9.544 -25.788  1.00  0.00    -0.272 OA
HETATM   36  C21 UNL     1       8.953 -11.135 -26.987  1.00  0.00     0.225 C 
HETATM   37  N5  UNL     1       9.078 -12.182 -25.998  1.00  0.00    -0.346 N 
HETATM   38  C22 UNL     1       8.125 -13.244 -25.862  1.00  0.00     0.277 C 
ATOM     39  H5  UNL     1       9.880 -12.164 -25.369  1.00  0.00     0.163 HD
HETATM   40  O5  UNL     1       8.642 -14.283 -25.297  1.00  0.00    -0.265 OA
HETATM   41  C23 UNL     1       6.754 -13.255 -26.264  1.00  0.00     0.157 C 
BRANCH  29  42
HETATM   42  O1  UNL     1       7.083  -9.874 -24.211  1.00  0.00    -0.348 OA
ATOM     43  H1  UNL     1       7.705 -10.565 -24.021  1.00  0.00     0.219 HD
ENDBRANCH  29  42
BRANCH  31  44
HETATM   44  C17 UNL     1       5.946  -8.867 -27.526  1.00  0.00     0.044 C 
BRANCH  44  45
HETATM   45  C18 UNL     1       4.760  -7.895 -27.271  1.00  0.00     0.116 C 
BRANCH  45  46
HETATM   46  C19 UNL     1       3.509  -8.621 -26.994  1.00  0.00     0.172 C 
HETATM   47  O2  UNL     1       3.396  -9.839 -27.136  1.00  0.00    -0.648 OA
HETATM   48  O3  UNL     1       2.381  -7.901 -26.546  1.00  0.00    -0.648 OA
ENDBRANCH  45  46
ENDBRANCH  44  45
ENDBRANCH  31  44
BRANCH  41  49
HETATM   49  O6  UNL     1       6.440 -14.297 -26.998  1.00  0.00    -0.354 OA
ATOM     50  H6  UNL     1       7.092 -14.982 -26.909  1.00  0.00     0.218 HD
ENDBRANCH  41  49
ENDBRANCH  26  27
ENDBRANCH   1  26
TORSDOF 19
ENDMDL
