MODEL 1
REMARK VINA RESULT: -6.815116658      0.000      0.000
REMARK  9 active torsions:
REMARK  status: ('A' for Active; 'I' for Inactive)
REMARK    1  A    between atoms: O1_2  and  C2_3 
REMARK    2  A    between atoms: C3_5  and  C4_6 
REMARK    3  A    between atoms: C5_7  and  C6_8 
REMARK    4  A    between atoms: C8_10  and  C9_11 
REMARK    5  A    between atoms: C9_11  and  C10_12 
REMARK    6  A    between atoms: C10_12  and  C11_13 
REMARK    7  A    between atoms: C16_18  and  O3_19 
REMARK    8  A    between atoms: C20_25  and  O5_26 
REMARK    9  A    between atoms: C21_28  and  O6_29 
ROOT
HETATM    1  C6  UNL     1      28.475  96.990  26.324  1.00  0.00     0.146 C 
HETATM    2  C7  UNL     1      28.984  97.665  27.593  1.00  0.00     0.055 C 
HETATM    3  C8  UNL     1      29.971  98.642  26.930  1.00  0.00     0.088 C 
HETATM    4  C18 UNL     1      29.082  99.095  25.767  1.00  0.00     0.133 C 
HETATM    5  C19 UNL     1      28.281 100.313  26.141  1.00  0.00     0.041 C 
HETATM    6  O4  UNL     1      28.266  98.027  25.426  1.00  0.00    -0.376 OA
ENDROOT
BRANCH   1   7
HETATM    7  C5  UNL     1      27.260  96.180  26.560  1.00  0.00     0.003 C 
HETATM    8  C4  UNL     1      27.095  95.533  27.673  1.00  0.00     0.006 C 
BRANCH   8   9
HETATM    9  C3  UNL     1      25.928  94.687  28.037  1.00  0.00     0.178 C 
HETATM   10  O2  UNL     1      25.255  95.283  29.070  1.00  0.00    -0.347 OA
HETATM   11  C2  UNL     1      25.232  94.454  30.169  1.00  0.00     0.291 C 
HETATM   12  C21 UNL     1      26.358  93.454  29.967  1.00  0.00     0.207 C 
HETATM   13  C20 UNL     1      26.312  93.297  28.467  1.00  0.00     0.184 C 
BRANCH  11  14
HETATM   14  O1  UNL     1      25.468  95.104  31.376  1.00  0.00    -0.363 OA
HETATM   15  C1  UNL     1      26.607  95.879  31.333  1.00  0.00     0.204 C 
ENDBRANCH  11  14
BRANCH  12  16
HETATM   16  O6  UNL     1      26.195  92.295  30.656  1.00  0.00    -0.383 OA
HETATM   17  C22 UNL     1      25.077  91.551  30.324  1.00  0.00     0.202 C 
ENDBRANCH  12  16
BRANCH  13  18
HETATM   18  O5  UNL     1      27.511  92.846  27.986  1.00  0.00    -0.390 OA
ATOM     19  H5  UNL     1      28.268  93.060  28.518  1.00  0.00     0.210 HD
ENDBRANCH  13  18
ENDBRANCH   8   9
ENDBRANCH   1   7
BRANCH   3  20
HETATM   20  C9  UNL     1      31.197  98.177  26.524  1.00  0.00    -0.148 C 
BRANCH  20  21
HETATM   21  C10 UNL     1      32.360  97.737  26.140  1.00  0.00     0.058 C 
BRANCH  21  22
HETATM   22  C11 UNL     1      33.286  97.237  27.199  1.00  0.00    -0.048 A 
HETATM   23  C12 UNL     1      32.708  96.732  28.269  1.00  0.00     0.008 A 
HETATM   24  C13 UNL     1      33.522  96.224  29.350  1.00  0.00     0.006 A 
HETATM   25  C14 UNL     1      34.827  96.259  29.286  1.00  0.00    -0.055 A 
HETATM   26  C15 UNL     1      35.636  95.706  30.460  1.00  0.00     0.046 C 
HETATM   27  C16 UNL     1      35.562  96.806  28.154  1.00  0.00     0.151 A 
HETATM   28  C17 UNL     1      34.744  97.317  27.037  1.00  0.00     0.075 A 
BRANCH  27  29
HETATM   29  O3  UNL     1      36.385  97.863  28.647  1.00  0.00    -0.391 OA
ATOM     30  H3  UNL     1      35.842  98.639  28.717  1.00  0.00     0.210 HD
ENDBRANCH  27  29
ENDBRANCH  21  22
ENDBRANCH  20  21
ENDBRANCH   3  20
TORSDOF 9
ENDMDL
MODEL 2
REMARK VINA RESULT: -6.812531734      1.725      2.406
REMARK  9 active torsions:
REMARK  status: ('A' for Active; 'I' for Inactive)
REMARK    1  A    between atoms: O1_2  and  C2_3 
REMARK    2  A    between atoms: C3_5  and  C4_6 
REMARK    3  A    between atoms: C5_7  and  C6_8 
REMARK    4  A    between atoms: C8_10  and  C9_11 
REMARK    5  A    between atoms: C9_11  and  C10_12 
REMARK    6  A    between atoms: C10_12  and  C11_13 
REMARK    7  A    between atoms: C16_18  and  O3_19 
REMARK    8  A    between atoms: C20_25  and  O5_26 
REMARK    9  A    between atoms: C21_28  and  O6_29 
ROOT
HETATM    1  C6  UNL     1      28.911  97.070  26.654  1.00  0.00     0.146 C 
HETATM    2  C7  UNL     1      29.447  97.941  27.786  1.00  0.00     0.055 C 
HETATM    3  C8  UNL     1      30.371  98.837  26.944  1.00  0.00     0.088 C 
HETATM    4  C18 UNL     1      29.422  99.087  25.768  1.00  0.00     0.133 C 
HETATM    5  C19 UNL     1      28.594 100.323  25.994  1.00  0.00     0.041 C 
HETATM    6  O4  UNL     1      28.630  97.957  25.624  1.00  0.00    -0.376 OA
ENDROOT
BRANCH   1   7
HETATM    7  C5  UNL     1      27.736  96.270  27.060  1.00  0.00     0.003 C 
HETATM    8  C4  UNL     1      27.183  95.432  26.237  1.00  0.00     0.006 C 
BRANCH   8   9
HETATM    9  C3  UNL     1      26.003  94.571  26.516  1.00  0.00     0.178 C 
HETATM   10  O2  UNL     1      26.125  94.050  27.777  1.00  0.00    -0.347 OA
HETATM   11  C2  UNL     1      26.160  92.674  27.726  1.00  0.00     0.291 C 
HETATM   12  C21 UNL     1      26.545  92.315  26.301  1.00  0.00     0.207 C 
HETATM   13  C20 UNL     1      25.858  93.428  25.548  1.00  0.00     0.184 C 
BRANCH  11  14
HETATM   14  O1  UNL     1      27.107  92.100  28.567  1.00  0.00    -0.363 OA
HETATM   15  C1  UNL     1      28.382  92.546  28.294  1.00  0.00     0.204 C 
ENDBRANCH  11  14
BRANCH  12  16
HETATM   16  O6  UNL     1      26.161  91.067  25.926  1.00  0.00    -0.383 OA
HETATM   17  C22 UNL     1      27.185  90.195  25.603  1.00  0.00     0.202 C 
ENDBRANCH  12  16
BRANCH  13  18
HETATM   18  O5  UNL     1      26.439  93.621  24.324  1.00  0.00    -0.390 OA
ATOM     19  H5  UNL     1      26.300  94.479  23.941  1.00  0.00     0.210 HD
ENDBRANCH  13  18
ENDBRANCH   8   9
ENDBRANCH   1   7
BRANCH   3  20
HETATM   20  C9  UNL     1      31.596  98.353  26.556  1.00  0.00    -0.148 C 
BRANCH  20  21
HETATM   21  C10 UNL     1      32.757  97.895  26.188  1.00  0.00     0.058 C 
BRANCH  21  22
HETATM   22  C11 UNL     1      33.506  97.061  27.175  1.00  0.00    -0.048 A 
HETATM   23  C12 UNL     1      32.845  96.040  27.677  1.00  0.00     0.008 A 
HETATM   24  C13 UNL     1      33.486  95.176  28.641  1.00  0.00     0.006 A 
HETATM   25  C14 UNL     1      34.716  95.391  29.028  1.00  0.00    -0.055 A 
HETATM   26  C15 UNL     1      35.342  94.442  30.050  1.00  0.00     0.046 C 
HETATM   27  C16 UNL     1      35.529  96.498  28.542  1.00  0.00     0.151 A 
HETATM   28  C17 UNL     1      34.892  97.382  27.547  1.00  0.00     0.075 A 
BRANCH  27  29
HETATM   29  O3  UNL     1      35.914  97.276  29.674  1.00  0.00    -0.391 OA
ATOM     30  H3  UNL     1      35.300  97.998  29.747  1.00  0.00     0.210 HD
ENDBRANCH  27  29
ENDBRANCH  21  22
ENDBRANCH  20  21
ENDBRANCH   3  20
TORSDOF 9
ENDMDL
MODEL 3
REMARK VINA RESULT: -6.724448242      4.625     10.983
REMARK  9 active torsions:
REMARK  status: ('A' for Active; 'I' for Inactive)
REMARK    1  A    between atoms: O1_2  and  C2_3 
REMARK    2  A    between atoms: C3_5  and  C4_6 
REMARK    3  A    between atoms: C5_7  and  C6_8 
REMARK    4  A    between atoms: C8_10  and  C9_11 
REMARK    5  A    between atoms: C9_11  and  C10_12 
REMARK    6  A    between atoms: C10_12  and  C11_13 
REMARK    7  A    between atoms: C16_18  and  O3_19 
REMARK    8  A    between atoms: C20_25  and  O5_26 
REMARK    9  A    between atoms: C21_28  and  O6_29 
ROOT
HETATM    1  C6  UNL     1      36.210  95.772  28.118  1.00  0.00     0.146 C 
HETATM    2  C7  UNL     1      35.909  97.212  28.523  1.00  0.00     0.055 C 
HETATM    3  C8  UNL     1      34.373  97.117  28.511  1.00  0.00     0.088 C 
HETATM    4  C18 UNL     1      34.232  95.762  29.214  1.00  0.00     0.133 C 
HETATM    5  C19 UNL     1      34.111  95.936  30.704  1.00  0.00     0.041 C 
HETATM    6  O4  UNL     1      35.338  94.999  28.873  1.00  0.00    -0.376 OA
ENDROOT
BRANCH   1   7
HETATM    7  C5  UNL     1      37.628  95.408  28.326  1.00  0.00     0.003 C 
HETATM    8  C4  UNL     1      38.455  95.352  27.327  1.00  0.00     0.006 C 
BRANCH   8   9
HETATM    9  C3  UNL     1      39.898  95.001  27.396  1.00  0.00     0.178 C 
HETATM   10  O2  UNL     1      40.638  96.107  27.069  1.00  0.00    -0.347 OA
HETATM   11  C2  UNL     1      41.412  95.854  25.958  1.00  0.00     0.291 C 
HETATM   12  C21 UNL     1      40.779  94.659  25.267  1.00  0.00     0.207 C 
HETATM   13  C20 UNL     1      40.285  93.885  26.464  1.00  0.00     0.184 C 
BRANCH  11  14
HETATM   14  O1  UNL     1      41.442  96.896  25.038  1.00  0.00    -0.363 OA
HETATM   15  C1  UNL     1      42.728  97.305  24.759  1.00  0.00     0.204 C 
ENDBRANCH  11  14
BRANCH  12  16
HETATM   16  O6  UNL     1      41.635  93.968  24.470  1.00  0.00    -0.383 OA
HETATM   17  C22 UNL     1      41.231  93.798  23.158  1.00  0.00     0.202 C 
ENDBRANCH  12  16
BRANCH  13  18
HETATM   18  O5  UNL     1      39.270  93.038  26.114  1.00  0.00    -0.390 OA
ATOM     19  H5  UNL     1      38.410  93.436  26.058  1.00  0.00     0.210 HD
ENDBRANCH  13  18
ENDBRANCH   8   9
ENDBRANCH   1   7
BRANCH   3  20
HETATM   20  C9  UNL     1      33.711  97.174  27.311  1.00  0.00    -0.148 C 
BRANCH  20  21
HETATM   21  C10 UNL     1      33.083  97.229  26.172  1.00  0.00     0.058 C 
BRANCH  21  22
HETATM   22  C11 UNL     1      31.691  97.770  26.185  1.00  0.00    -0.048 A 
HETATM   23  C12 UNL     1      30.730  96.871  26.136  1.00  0.00     0.008 A 
HETATM   24  C13 UNL     1      29.350  97.299  26.143  1.00  0.00     0.006 A 
HETATM   25  C14 UNL     1      29.035  98.567  26.193  1.00  0.00    -0.055 A 
HETATM   26  C15 UNL     1      27.557  98.959  26.198  1.00  0.00     0.046 C 
HETATM   27  C16 UNL     1      30.022  99.638  26.239  1.00  0.00     0.151 A 
HETATM   28  C17 UNL     1      31.436  99.216  26.246  1.00  0.00     0.075 A 
BRANCH  27  29
HETATM   29  O3  UNL     1      29.795 100.478  25.108  1.00  0.00    -0.391 OA
ATOM     30  H3  UNL     1      30.074 101.356  25.344  1.00  0.00     0.210 HD
ENDBRANCH  27  29
ENDBRANCH  21  22
ENDBRANCH  20  21
ENDBRANCH   3  20
TORSDOF 9
ENDMDL
MODEL 4
REMARK VINA RESULT: -6.715984233      1.876      2.726
REMARK  9 active torsions:
REMARK  status: ('A' for Active; 'I' for Inactive)
REMARK    1  A    between atoms: O1_2  and  C2_3 
REMARK    2  A    between atoms: C3_5  and  C4_6 
REMARK    3  A    between atoms: C5_7  and  C6_8 
REMARK    4  A    between atoms: C8_10  and  C9_11 
REMARK    5  A    between atoms: C9_11  and  C10_12 
REMARK    6  A    between atoms: C10_12  and  C11_13 
REMARK    7  A    between atoms: C16_18  and  O3_19 
REMARK    8  A    between atoms: C20_25  and  O5_26 
REMARK    9  A    between atoms: C21_28  and  O6_29 
ROOT
HETATM    1  C6  UNL     1      28.781  96.247  26.896  1.00  0.00     0.146 C 
HETATM    2  C7  UNL     1      28.991  97.423  27.844  1.00  0.00     0.055 C 
HETATM    3  C8  UNL     1      29.628  98.395  26.836  1.00  0.00     0.088 C 
HETATM    4  C18 UNL     1      28.686  98.135  25.656  1.00  0.00     0.133 C 
HETATM    5  C19 UNL     1      27.516  99.081  25.678  1.00  0.00     0.041 C 
HETATM    6  O4  UNL     1      28.278  96.812  25.732  1.00  0.00    -0.376 OA
ENDROOT
BRANCH   1   7
HETATM    7  C5  UNL     1      27.890  95.212  27.464  1.00  0.00     0.003 C 
HETATM    8  C4  UNL     1      27.140  94.483  26.695  1.00  0.00     0.006 C 
BRANCH   8   9
HETATM    9  C3  UNL     1      26.204  93.414  27.134  1.00  0.00     0.178 C 
HETATM   10  O2  UNL     1      26.730  92.791  28.235  1.00  0.00    -0.347 OA
HETATM   11  C2  UNL     1      26.931  91.453  27.978  1.00  0.00     0.291 C 
HETATM   12  C21 UNL     1      26.960  91.314  26.466  1.00  0.00     0.207 C 
HETATM   13  C20 UNL     1      25.955  92.371  26.079  1.00  0.00     0.184 C 
BRANCH  11  14
HETATM   14  O1  UNL     1      28.137  90.958  28.463  1.00  0.00    -0.363 OA
HETATM   15  C1  UNL     1      29.221  91.619  27.928  1.00  0.00     0.204 C 
ENDBRANCH  11  14
BRANCH  12  16
HETATM   16  O6  UNL     1      26.658  90.066  26.023  1.00  0.00    -0.383 OA
HETATM   17  C22 UNL     1      27.650  89.427  25.301  1.00  0.00     0.202 C 
ENDBRANCH  12  16
BRANCH  13  18
HETATM   18  O5  UNL     1      26.153  92.784  24.790  1.00  0.00    -0.390 OA
ATOM     19  H5  UNL     1      26.652  92.188  24.245  1.00  0.00     0.210 HD
ENDBRANCH  13  18
ENDBRANCH   8   9
ENDBRANCH   1   7
BRANCH   3  20
HETATM   20  C9  UNL     1      30.953  98.246  26.512  1.00  0.00    -0.148 C 
BRANCH  20  21
HETATM   21  C10 UNL     1      32.210  98.104  26.206  1.00  0.00     0.058 C 
BRANCH  21  22
HETATM   22  C11 UNL     1      33.108  97.534  27.253  1.00  0.00    -0.048 A 
HETATM   23  C12 UNL     1      32.514  97.130  28.357  1.00  0.00     0.008 A 
HETATM   24  C13 UNL     1      33.302  96.566  29.428  1.00  0.00     0.006 A 
HETATM   25  C14 UNL     1      34.600  96.449  29.324  1.00  0.00    -0.055 A 
HETATM   26  C15 UNL     1      35.380  95.844  30.491  1.00  0.00     0.046 C 
HETATM   27  C16 UNL     1      35.353  96.875  28.152  1.00  0.00     0.151 A 
HETATM   28  C17 UNL     1      34.560  97.441  27.043  1.00  0.00     0.075 A 
BRANCH  27  29
HETATM   29  O3  UNL     1      36.306  97.845  28.583  1.00  0.00    -0.391 OA
ATOM     30  H3  UNL     1      36.950  97.394  29.118  1.00  0.00     0.210 HD
ENDBRANCH  27  29
ENDBRANCH  21  22
ENDBRANCH  20  21
ENDBRANCH   3  20
TORSDOF 9
ENDMDL
MODEL 5
REMARK VINA RESULT: -6.689445268      1.951      2.650
REMARK  9 active torsions:
REMARK  status: ('A' for Active; 'I' for Inactive)
REMARK    1  A    between atoms: O1_2  and  C2_3 
REMARK    2  A    between atoms: C3_5  and  C4_6 
REMARK    3  A    between atoms: C5_7  and  C6_8 
REMARK    4  A    between atoms: C8_10  and  C9_11 
REMARK    5  A    between atoms: C9_11  and  C10_12 
REMARK    6  A    between atoms: C10_12  and  C11_13 
REMARK    7  A    between atoms: C16_18  and  O3_19 
REMARK    8  A    between atoms: C20_25  and  O5_26 
REMARK    9  A    between atoms: C21_28  and  O6_29 
ROOT
HETATM    1  C6  UNL     1      29.003  97.086  26.738  1.00  0.00     0.146 C 
HETATM    2  C7  UNL     1      29.507  98.003  27.848  1.00  0.00     0.055 C 
HETATM    3  C8  UNL     1      30.435  98.880  26.990  1.00  0.00     0.088 C 
HETATM    4  C18 UNL     1      29.504  99.075  25.789  1.00  0.00     0.133 C 
HETATM    5  C19 UNL     1      28.656 100.308  25.956  1.00  0.00     0.041 C 
HETATM    6  O4  UNL     1      28.729  97.931  25.672  1.00  0.00    -0.376 OA
ENDROOT
BRANCH   1   7
HETATM    7  C5  UNL     1      27.831  96.285  27.152  1.00  0.00     0.003 C 
HETATM    8  C4  UNL     1      27.167  95.578  26.289  1.00  0.00     0.006 C 
BRANCH   8   9
HETATM    9  C3  UNL     1      25.976  94.733  26.571  1.00  0.00     0.178 C 
HETATM   10  O2  UNL     1      26.061  94.266  27.856  1.00  0.00    -0.347 OA
HETATM   11  C2  UNL     1      26.091  92.889  27.864  1.00  0.00     0.291 C 
HETATM   12  C21 UNL     1      26.514  92.469  26.467  1.00  0.00     0.207 C 
HETATM   13  C20 UNL     1      25.853  93.551  25.649  1.00  0.00     0.184 C 
BRANCH  11  14
HETATM   14  O1  UNL     1      27.011  92.347  28.755  1.00  0.00    -0.363 OA
HETATM   15  C1  UNL     1      28.295  92.778  28.500  1.00  0.00     0.204 C 
ENDBRANCH  11  14
BRANCH  12  16
HETATM   16  O6  UNL     1      26.135  91.207  26.134  1.00  0.00    -0.383 OA
HETATM   17  C22 UNL     1      27.164  90.312  25.903  1.00  0.00     0.202 C 
ENDBRANCH  12  16
BRANCH  13  18
HETATM   18  O5  UNL     1      26.469  93.690  24.435  1.00  0.00    -0.390 OA
ATOM     19  H5  UNL     1      25.949  93.427  23.684  1.00  0.00     0.210 HD
ENDBRANCH  13  18
ENDBRANCH   8   9
ENDBRANCH   1   7
BRANCH   3  20
HETATM   20  C9  UNL     1      31.672  98.400  26.641  1.00  0.00    -0.148 C 
BRANCH  20  21
HETATM   21  C10 UNL     1      32.846  97.944  26.311  1.00  0.00     0.058 C 
BRANCH  21  22
HETATM   22  C11 UNL     1      33.467  96.934  27.218  1.00  0.00    -0.048 A 
HETATM   23  C12 UNL     1      34.745  97.111  27.480  1.00  0.00     0.008 A 
HETATM   24  C13 UNL     1      35.434  96.183  28.347  1.00  0.00     0.006 A 
HETATM   25  C14 UNL     1      34.811  95.164  28.877  1.00  0.00    -0.055 A 
HETATM   26  C15 UNL     1      35.592  94.216  29.787  1.00  0.00     0.046 C 
HETATM   27  C16 UNL     1      33.402  94.873  28.642  1.00  0.00     0.151 A 
HETATM   28  C17 UNL     1      32.682  95.820  27.769  1.00  0.00     0.075 A 
BRANCH  27  29
HETATM   29  O3  UNL     1      33.324  93.566  28.074  1.00  0.00    -0.391 OA
ATOM     30  H3  UNL     1      32.663  93.591  27.391  1.00  0.00     0.210 HD
ENDBRANCH  27  29
ENDBRANCH  21  22
ENDBRANCH  20  21
ENDBRANCH   3  20
TORSDOF 9
ENDMDL
