MODEL 1
REMARK VINA RESULT: -6.171279704      0.000      0.000
REMARK  6 active torsions:
REMARK  status: ('A' for Active; 'I' for Inactive)
REMARK    1  A    between atoms: C2_2  and  C3_3 
REMARK    2  A    between atoms: C12_14  and  O3_15 
REMARK    3  A    between atoms: C15_19  and  C17_21 
REMARK    4  A    between atoms: C17_21  and  O4_22 
REMARK    5  A    between atoms: C18_24  and  C19_25 
REMARK    6  A    between atoms: C19_25  and  O5_26 
ROOT
HETATM    1  C1  UNL     1      13.865  36.136  17.897  1.00  0.00     0.027 C 
HETATM    2  C2  UNL     1      13.278  34.847  17.295  1.00  0.00     0.049 C 
HETATM    3  C4  UNL     1      14.289  34.389  16.271  1.00  0.00     0.021 C 
HETATM    4  C5  UNL     1      13.796  34.911  14.963  1.00  0.00     0.007 C 
HETATM    5  C6  UNL     1      12.299  35.174  15.087  1.00  0.00     0.003 C 
HETATM    6  C7  UNL     1      12.004  35.124  16.540  1.00  0.00     0.009 C 
HETATM    7  C8  UNL     1      10.808  34.385  16.991  1.00  0.00     0.006 C 
HETATM    8  C9  UNL     1      10.354  33.263  16.151  1.00  0.00     0.001 C 
HETATM    9  C10 UNL     1      11.247  33.027  14.957  1.00  0.00     0.013 C 
HETATM   10  C11 UNL     1      11.519  34.295  14.159  1.00  0.00     0.001 A 
HETATM   11  C12 UNL     1      10.189  34.823  13.746  1.00  0.00     0.128 A 
HETATM   12  C13 UNL     1      10.162  34.957  12.261  1.00  0.00     0.039 A 
HETATM   13  C14 UNL     1      11.408  34.371  11.715  1.00  0.00     0.011 A 
HETATM   14  C15 UNL     1      12.761  34.986  11.978  1.00  0.00    -0.007 A 
HETATM   15  C16 UNL     1      12.616  36.484  12.171  1.00  0.00     0.019 C 
HETATM   16  C18 UNL     1      12.308  33.957  12.891  1.00  0.00     0.005 A 
ENDROOT
BRANCH  11  17
HETATM   17  O3  UNL     1       9.774  35.969  14.433  1.00  0.00    -0.395 OA
ATOM     18  H3  UNL     1       9.223  35.804  15.189  1.00  0.00     0.210 HD
ENDBRANCH  11  17
BRANCH  16  19
HETATM   19  C19 UNL     1      12.603  32.499  12.786  1.00  0.00     0.175 C 
BRANCH  19  20
HETATM   20  O5  UNL     1      13.865  32.030  12.908  1.00  0.00    -0.400 OA
ATOM     21  H5  UNL     1      14.460  32.385  13.557  1.00  0.00     0.209 HD
ENDBRANCH  19  20
ENDBRANCH  16  19
BRANCH  14  22
HETATM   22  C17 UNL     1      13.818  34.764  10.919  1.00  0.00     0.174 C 
BRANCH  22  23
HETATM   23  O4  UNL     1      14.993  35.513  11.272  1.00  0.00    -0.400 OA
ATOM     24  H4  UNL     1      15.290  35.995  10.509  1.00  0.00     0.209 HD
ENDBRANCH  22  23
ENDBRANCH  14  22
BRANCH   2  25
HETATM   25  C3  UNL     1      13.235  33.883  18.374  1.00  0.00     0.181 C 
HETATM   26  O1  UNL     1      13.490  32.636  18.227  1.00  0.00    -0.647 OA
HETATM   27  O2  UNL     1      12.910  34.224  19.679  1.00  0.00    -0.647 OA
ENDBRANCH   2  25
TORSDOF 6
ENDMDL
MODEL 2
REMARK VINA RESULT: -5.675455036      1.516      1.749
REMARK  6 active torsions:
REMARK  status: ('A' for Active; 'I' for Inactive)
REMARK    1  A    between atoms: C2_2  and  C3_3 
REMARK    2  A    between atoms: C12_14  and  O3_15 
REMARK    3  A    between atoms: C15_19  and  C17_21 
REMARK    4  A    between atoms: C17_21  and  O4_22 
REMARK    5  A    between atoms: C18_24  and  C19_25 
REMARK    6  A    between atoms: C19_25  and  O5_26 
ROOT
HETATM    1  C1  UNL     1      13.151  36.435  16.982  1.00  0.00     0.027 C 
HETATM    2  C2  UNL     1      12.533  35.114  16.491  1.00  0.00     0.049 C 
HETATM    3  C4  UNL     1      13.229  34.810  15.185  1.00  0.00     0.021 C 
HETATM    4  C5  UNL     1      12.319  35.326  14.121  1.00  0.00     0.007 C 
HETATM    5  C6  UNL     1      10.911  35.417  14.697  1.00  0.00     0.003 C 
HETATM    6  C7  UNL     1      11.071  35.278  16.166  1.00  0.00     0.009 C 
HETATM    7  C8  UNL     1      10.140  34.396  16.895  1.00  0.00     0.006 C 
HETATM    8  C9  UNL     1       9.562  33.264  16.151  1.00  0.00     0.001 C 
HETATM    9  C10 UNL     1      10.074  33.174  14.733  1.00  0.00     0.013 C 
HETATM   10  C11 UNL     1       9.973  34.495  13.981  1.00  0.00     0.001 A 
HETATM   11  C12 UNL     1       8.538  34.889  14.016  1.00  0.00     0.128 A 
HETATM   12  C13 UNL     1       8.055  35.077  12.618  1.00  0.00     0.039 A 
HETATM   13  C14 UNL     1       9.128  34.654  11.689  1.00  0.00     0.011 A 
HETATM   14  C15 UNL     1      10.434  35.403  11.585  1.00  0.00    -0.007 A 
HETATM   15  C16 UNL     1      10.215  36.867  11.917  1.00  0.00     0.019 C 
HETATM   16  C18 UNL     1      10.375  34.295  12.516  1.00  0.00     0.005 A 
ENDROOT
BRANCH  11  17
HETATM   17  O3  UNL     1       8.243  35.955  14.873  1.00  0.00    -0.395 OA
ATOM     18  H3  UNL     1       7.317  36.144  14.969  1.00  0.00     0.210 HD
ENDBRANCH  11  17
BRANCH  16  19
HETATM   19  C19 UNL     1      10.759  32.884  12.228  1.00  0.00     0.175 C 
BRANCH  19  20
HETATM   20  O5  UNL     1      12.036  32.554  11.929  1.00  0.00    -0.400 OA
ATOM     21  H5  UNL     1      12.242  32.038  11.159  1.00  0.00     0.209 HD
ENDBRANCH  19  20
ENDBRANCH  16  19
BRANCH  14  22
HETATM   22  C17 UNL     1      11.141  35.340  10.249  1.00  0.00     0.174 C 
BRANCH  22  23
HETATM   23  O4  UNL     1      12.557  35.244  10.478  1.00  0.00    -0.400 OA
ATOM     24  H4  UNL     1      12.712  35.156  11.411  1.00  0.00     0.209 HD
ENDBRANCH  22  23
ENDBRANCH  14  22
BRANCH   2  25
HETATM   25  C3  UNL     1      12.906  34.110  17.465  1.00  0.00     0.181 C 
HETATM   26  O1  UNL     1      13.118  32.880  17.175  1.00  0.00    -0.647 OA
HETATM   27  O2  UNL     1      13.069  34.389  18.813  1.00  0.00    -0.647 OA
ENDBRANCH   2  25
TORSDOF 6
ENDMDL
MODEL 3
REMARK VINA RESULT: -5.650586723      2.117      5.649
REMARK  6 active torsions:
REMARK  status: ('A' for Active; 'I' for Inactive)
REMARK    1  A    between atoms: C2_2  and  C3_3 
REMARK    2  A    between atoms: C12_14  and  O3_15 
REMARK    3  A    between atoms: C15_19  and  C17_21 
REMARK    4  A    between atoms: C17_21  and  O4_22 
REMARK    5  A    between atoms: C18_24  and  C19_25 
REMARK    6  A    between atoms: C19_25  and  O5_26 
ROOT
HETATM    1  C1  UNL     1      11.258  29.389  11.479  1.00  0.00     0.027 C 
HETATM    2  C2  UNL     1      12.318  30.403  11.945  1.00  0.00     0.049 C 
HETATM    3  C4  UNL     1      12.314  30.319  13.453  1.00  0.00     0.021 C 
HETATM    4  C5  UNL     1      11.430  31.430  13.911  1.00  0.00     0.007 C 
HETATM    5  C6  UNL     1      11.359  32.473  12.802  1.00  0.00     0.003 C 
HETATM    6  C7  UNL     1      11.919  31.814  11.597  1.00  0.00     0.009 C 
HETATM    7  C8  UNL     1      12.869  32.569  10.758  1.00  0.00     0.006 C 
HETATM    8  C9  UNL     1      13.681  33.603  11.424  1.00  0.00     0.001 C 
HETATM    9  C10 UNL     1      13.423  33.682  12.910  1.00  0.00     0.013 C 
HETATM   10  C11 UNL     1      11.941  33.778  13.250  1.00  0.00     0.001 A 
HETATM   11  C12 UNL     1      11.427  34.984  12.544  1.00  0.00     0.128 A 
HETATM   12  C13 UNL     1      10.806  35.900  13.544  1.00  0.00     0.039 A 
HETATM   13  C14 UNL     1      11.060  35.358  14.899  1.00  0.00     0.011 A 
HETATM   14  C15 UNL     1      10.451  34.059  15.367  1.00  0.00    -0.007 A 
HETATM   15  C16 UNL     1       9.124  33.833  14.667  1.00  0.00     0.019 C 
HETATM   16  C18 UNL     1      11.763  33.998  14.756  1.00  0.00     0.005 A 
ENDROOT
BRANCH  11  17
HETATM   17  O3  UNL     1      10.619  34.714  11.435  1.00  0.00    -0.395 OA
ATOM     18  H3  UNL     1       9.688  34.675  11.619  1.00  0.00     0.210 HD
ENDBRANCH  11  17
BRANCH  16  19
HETATM   19  C19 UNL     1      13.069  34.048  15.474  1.00  0.00     0.175 C 
BRANCH  19  20
HETATM   20  O5  UNL     1      13.473  33.026  16.262  1.00  0.00    -0.400 OA
ATOM     21  H5  UNL     1      12.947  32.242  16.357  1.00  0.00     0.209 HD
ENDBRANCH  19  20
ENDBRANCH  16  19
BRANCH  14  22
HETATM   22  C17 UNL     1      10.210  33.926  16.854  1.00  0.00     0.174 C 
BRANCH  22  23
HETATM   23  O4  UNL     1       8.842  33.538  17.069  1.00  0.00    -0.400 OA
ATOM     24  H4  UNL     1       8.828  32.673  17.462  1.00  0.00     0.209 HD
ENDBRANCH  22  23
ENDBRANCH  14  22
BRANCH   2  25
HETATM   25  C3  UNL     1      13.587  29.913  11.452  1.00  0.00     0.181 C 
HETATM   26  O1  UNL     1      13.706  29.138  10.437  1.00  0.00    -0.647 OA
HETATM   27  O2  UNL     1      14.802  30.238  12.035  1.00  0.00    -0.647 OA
ENDBRANCH   2  25
TORSDOF 6
ENDMDL
MODEL 4
REMARK VINA RESULT: -5.495840506      1.551      5.428
REMARK  6 active torsions:
REMARK  status: ('A' for Active; 'I' for Inactive)
REMARK    1  A    between atoms: C2_2  and  C3_3 
REMARK    2  A    between atoms: C12_14  and  O3_15 
REMARK    3  A    between atoms: C15_19  and  C17_21 
REMARK    4  A    between atoms: C17_21  and  O4_22 
REMARK    5  A    between atoms: C18_24  and  C19_25 
REMARK    6  A    between atoms: C19_25  and  O5_26 
ROOT
HETATM    1  C1  UNL     1      11.260  30.994  11.784  1.00  0.00     0.027 C 
HETATM    2  C2  UNL     1      12.375  32.042  11.955  1.00  0.00     0.049 C 
HETATM    3  C4  UNL     1      13.103  31.647  13.217  1.00  0.00     0.021 C 
HETATM    4  C5  UNL     1      12.510  32.488  14.298  1.00  0.00     0.007 C 
HETATM    5  C6  UNL     1      11.874  33.715  13.654  1.00  0.00     0.003 C 
HETATM    6  C7  UNL     1      11.806  33.415  12.203  1.00  0.00     0.009 C 
HETATM    7  C8  UNL     1      12.204  34.466  11.247  1.00  0.00     0.006 C 
HETATM    8  C9  UNL     1      13.198  35.452  11.706  1.00  0.00     0.001 C 
HETATM    9  C10 UNL     1      13.687  35.180  13.109  1.00  0.00     0.013 C 
HETATM   10  C11 UNL     1      12.551  34.973  14.103  1.00  0.00     0.001 A 
HETATM   11  C12 UNL     1      11.717  36.204  14.047  1.00  0.00     0.128 A 
HETATM   12  C13 UNL     1      11.622  36.785  15.417  1.00  0.00     0.039 A 
HETATM   13  C14 UNL     1      12.520  36.021  16.314  1.00  0.00     0.011 A 
HETATM   14  C15 UNL     1      12.261  34.575  16.659  1.00  0.00    -0.007 A 
HETATM   15  C16 UNL     1      10.770  34.295  16.615  1.00  0.00     0.019 C 
HETATM   16  C18 UNL     1      13.115  34.845  15.521  1.00  0.00     0.005 A 
ENDROOT
BRANCH  11  17
HETATM   17  O3  UNL     1      10.483  36.049  13.405  1.00  0.00    -0.395 OA
ATOM     18  H3  UNL     1      10.386  36.548  12.603  1.00  0.00     0.210 HD
ENDBRANCH  11  17
BRANCH  16  19
HETATM   19  C19 UNL     1      14.603  34.947  15.545  1.00  0.00     0.175 C 
BRANCH  19  20
HETATM   20  O5  UNL     1      15.357  34.014  16.166  1.00  0.00    -0.400 OA
ATOM     21  H5  UNL     1      15.942  34.248  16.877  1.00  0.00     0.209 HD
ENDBRANCH  19  20
ENDBRANCH  16  19
BRANCH  14  22
HETATM   22  C17 UNL     1      12.773  34.101  18.000  1.00  0.00     0.174 C 
BRANCH  22  23
HETATM   23  O4  UNL     1      13.490  32.868  17.814  1.00  0.00    -0.400 OA
ATOM     24  H4  UNL     1      14.401  33.068  17.630  1.00  0.00     0.209 HD
ENDBRANCH  22  23
ENDBRANCH  14  22
BRANCH   2  25
HETATM   25  C3  UNL     1      13.265  31.867  10.826  1.00  0.00     0.181 C 
HETATM   26  O1  UNL     1      12.873  31.513   9.658  1.00  0.00    -0.647 OA
HETATM   27  O2  UNL     1      14.634  32.069  10.906  1.00  0.00    -0.647 OA
ENDBRANCH   2  25
TORSDOF 6
ENDMDL
MODEL 5
REMARK VINA RESULT: -5.461620074      2.200      4.980
REMARK  6 active torsions:
REMARK  status: ('A' for Active; 'I' for Inactive)
REMARK    1  A    between atoms: C2_2  and  C3_3 
REMARK    2  A    between atoms: C12_14  and  O3_15 
REMARK    3  A    between atoms: C15_19  and  C17_21 
REMARK    4  A    between atoms: C17_21  and  O4_22 
REMARK    5  A    between atoms: C18_24  and  C19_25 
REMARK    6  A    between atoms: C19_25  and  O5_26 
ROOT
HETATM    1  C1  UNL     1      13.524  37.527  11.668  1.00  0.00     0.027 C 
HETATM    2  C2  UNL     1      13.288  36.025  11.910  1.00  0.00     0.049 C 
HETATM    3  C4  UNL     1      12.078  35.672  11.080  1.00  0.00     0.021 C 
HETATM    4  C5  UNL     1      10.919  35.736  12.018  1.00  0.00     0.007 C 
HETATM    5  C6  UNL     1      11.445  35.573  13.439  1.00  0.00     0.003 C 
HETATM    6  C7  UNL     1      12.915  35.752  13.344  1.00  0.00     0.009 C 
HETATM    7  C8  UNL     1      13.788  34.813  14.075  1.00  0.00     0.006 C 
HETATM    8  C9  UNL     1      13.268  33.455  14.310  1.00  0.00     0.001 C 
HETATM    9  C10 UNL     1      11.903  33.238  13.702  1.00  0.00     0.013 C 
HETATM   10  C11 UNL     1      10.907  34.329  14.075  1.00  0.00     0.001 A 
HETATM   11  C12 UNL     1      10.843  34.347  15.562  1.00  0.00     0.128 A 
HETATM   12  C13 UNL     1       9.428  34.146  15.987  1.00  0.00     0.039 A 
HETATM   13  C14 UNL     1       8.616  33.844  14.785  1.00  0.00     0.011 A 
HETATM   14  C15 UNL     1       8.388  34.866  13.699  1.00  0.00    -0.007 A 
HETATM   15  C16 UNL     1       8.426  36.263  14.291  1.00  0.00     0.019 C 
HETATM   16  C18 UNL     1       9.516  33.971  13.544  1.00  0.00     0.005 A 
ENDROOT
BRANCH  11  17
HETATM   17  O3  UNL     1      11.472  35.442  16.164  1.00  0.00    -0.395 OA
ATOM     18  H3  UNL     1      12.403  35.335  16.312  1.00  0.00     0.210 HD
ENDBRANCH  11  17
BRANCH  16  19
HETATM   19  C19 UNL     1       9.513  32.674  12.808  1.00  0.00     0.175 C 
BRANCH  19  20
HETATM   20  O5  UNL     1       9.281  32.626  11.477  1.00  0.00    -0.400 OA
ATOM     21  H5  UNL     1       8.408  32.471  11.136  1.00  0.00     0.209 HD
ENDBRANCH  19  20
ENDBRANCH  16  19
BRANCH  14  22
HETATM   22  C17 UNL     1       7.101  34.739  12.915  1.00  0.00     0.174 C 
BRANCH  22  23
HETATM   23  O4  UNL     1       7.365  35.052  11.536  1.00  0.00    -0.400 OA
ATOM     24  H4  UNL     1       6.728  34.604  10.992  1.00  0.00     0.209 HD
ENDBRANCH  22  23
ENDBRANCH  14  22
BRANCH   2  25
HETATM   25  C3  UNL     1      14.445  35.345  11.366  1.00  0.00     0.181 C 
HETATM   26  O1  UNL     1      14.402  34.179  10.837  1.00  0.00    -0.647 OA
HETATM   27  O2  UNL     1      15.716  35.899  11.366  1.00  0.00    -0.647 OA
ENDBRANCH   2  25
TORSDOF 6
ENDMDL
