MODEL 1
REMARK VINA RESULT: -5.862758357      0.000      0.000
REMARK  7 active torsions:
REMARK  status: ('A' for Active; 'I' for Inactive)
REMARK    1  A    between atoms: O1_1  and  C1_3 
REMARK    2  A    between atoms: C1_3  and  C2_4 
REMARK    3  A    between atoms: C2_4  and  C3_5 
REMARK    4  A    between atoms: C3_5  and  O2_6 
REMARK    5  A    between atoms: C18_22  and  O3_23 
REMARK    6  A    between atoms: C19_25  and  C20_26 
REMARK    7  A    between atoms: C20_26  and  O4_27 
ROOT
HETATM    1  C2  UNL     1      12.551  34.443  16.765  1.00  0.00     0.006 C 
HETATM    2  C4  UNL     1      13.368  33.330  16.232  1.00  0.00     0.014 C 
HETATM    3  C5  UNL     1      13.558  33.359  14.767  1.00  0.00     0.001 C 
HETATM    4  C6  UNL     1      12.869  34.432  14.017  1.00  0.00     0.006 C 
HETATM    5  C7  UNL     1      11.535  34.880  14.507  1.00  0.00     0.004 C 
HETATM    6  C8  UNL     1      11.288  34.707  15.970  1.00  0.00     0.003 C 
HETATM    7  C9  UNL     1      10.308  33.650  16.363  1.00  0.00     0.006 C 
HETATM    8  C10 UNL     1       9.058  33.639  15.563  1.00  0.00     0.006 C 
HETATM    9  C11 UNL     1       9.104  34.593  14.403  1.00  0.00    -0.001 C 
HETATM   10  C12 UNL     1       7.868  34.315  13.604  1.00  0.00     0.006 C 
HETATM   11  C13 UNL     1       7.721  35.192  12.384  1.00  0.00     0.008 C 
HETATM   12  C14 UNL     1       8.823  36.177  12.424  1.00  0.00     0.021 C 
HETATM   13  C15 UNL     1       8.987  36.986  11.144  1.00  0.00     0.008 C 
HETATM   14  C16 UNL     1      10.425  37.456  11.220  1.00  0.00     0.004 C 
HETATM   15  C17 UNL     1      11.022  36.769  12.466  1.00  0.00     0.039 C 
HETATM   16  C18 UNL     1      10.192  35.531  12.475  1.00  0.00     0.072 C 
HETATM   17  C19 UNL     1      10.378  34.555  13.607  1.00  0.00     0.020 C 
ENDROOT
BRANCH   1  18
HETATM   18  C1  UNL     1      12.141  34.020  18.186  1.00  0.00     0.176 C 
BRANCH  18  19
HETATM   19  O1  UNL     1      13.241  33.355  18.779  1.00  0.00    -0.400 OA
ATOM     20  H1  UNL     1      13.044  32.426  18.803  1.00  0.00     0.209 HD
ENDBRANCH  18  19
ENDBRANCH   1  18
BRANCH   1  21
HETATM   21  C3  UNL     1      13.290  35.750  16.948  1.00  0.00     0.176 C 
BRANCH  21  22
HETATM   22  O2  UNL     1      14.602  35.551  17.308  1.00  0.00    -0.400 OA
ATOM     23  H2  UNL     1      14.858  36.105  18.035  1.00  0.00     0.209 HD
ENDBRANCH  21  22
ENDBRANCH   1  21
BRANCH  17  24
HETATM   24  C20 UNL     1      10.454  33.222  12.908  1.00  0.00     0.177 C 
BRANCH  24  25
HETATM   25  O4  UNL     1      10.809  32.135  13.601  1.00  0.00    -0.400 OA
ATOM     26  H4  UNL     1      10.143  31.510  13.864  1.00  0.00     0.209 HD
ENDBRANCH  24  25
ENDBRANCH  17  24
BRANCH  16  27
HETATM   27  O3  UNL     1      10.391  34.963  11.196  1.00  0.00    -0.389 OA
ATOM     28  H3  UNL     1      10.328  34.023  11.323  1.00  0.00     0.210 HD
ENDBRANCH  16  27
TORSDOF 7
ENDMDL
MODEL 2
REMARK VINA RESULT: -5.816455526      1.220      1.266
REMARK  7 active torsions:
REMARK  status: ('A' for Active; 'I' for Inactive)
REMARK    1  A    between atoms: O1_1  and  C1_3 
REMARK    2  A    between atoms: C1_3  and  C2_4 
REMARK    3  A    between atoms: C2_4  and  C3_5 
REMARK    4  A    between atoms: C3_5  and  O2_6 
REMARK    5  A    between atoms: C18_22  and  O3_23 
REMARK    6  A    between atoms: C19_25  and  C20_26 
REMARK    7  A    between atoms: C20_26  and  O4_27 
ROOT
HETATM    1  C2  UNL     1      12.872  34.047  15.899  1.00  0.00     0.006 C 
HETATM    2  C4  UNL     1      12.802  32.588  15.662  1.00  0.00     0.014 C 
HETATM    3  C5  UNL     1      12.381  32.211  14.297  1.00  0.00     0.001 C 
HETATM    4  C6  UNL     1      12.022  33.308  13.373  1.00  0.00     0.006 C 
HETATM    5  C7  UNL     1      11.360  34.514  13.945  1.00  0.00     0.004 C 
HETATM    6  C8  UNL     1      11.669  34.807  15.377  1.00  0.00     0.003 C 
HETATM    7  C9  UNL     1      10.566  34.586  16.359  1.00  0.00     0.006 C 
HETATM    8  C10 UNL     1       9.246  35.116  15.935  1.00  0.00     0.006 C 
HETATM    9  C11 UNL     1       9.253  35.624  14.521  1.00  0.00    -0.001 C 
HETATM   10  C12 UNL     1       7.824  35.933  14.197  1.00  0.00     0.006 C 
HETATM   11  C13 UNL     1       7.618  36.475  12.803  1.00  0.00     0.008 C 
HETATM   12  C14 UNL     1       8.959  36.656  12.208  1.00  0.00     0.021 C 
HETATM   13  C15 UNL     1       8.946  36.957  10.715  1.00  0.00     0.008 C 
HETATM   14  C16 UNL     1      10.335  36.545  10.272  1.00  0.00     0.004 C 
HETATM   15  C17 UNL     1      10.995  35.909  11.513  1.00  0.00     0.039 C 
HETATM   16  C18 UNL     1       9.775  35.381  12.187  1.00  0.00     0.072 C 
HETATM   17  C19 UNL     1       9.931  34.721  13.530  1.00  0.00     0.020 C 
ENDROOT
BRANCH   1  18
HETATM   18  C1  UNL     1      12.921  34.222  17.426  1.00  0.00     0.176 C 
BRANCH  18  19
HETATM   19  O1  UNL     1      13.520  33.066  17.981  1.00  0.00    -0.400 OA
ATOM     20  H1  UNL     1      13.010  32.311  17.709  1.00  0.00     0.209 HD
ENDBRANCH  18  19
ENDBRANCH   1  18
BRANCH   1  21
HETATM   21  C3  UNL     1      14.128  34.720  15.392  1.00  0.00     0.176 C 
BRANCH  21  22
HETATM   22  O2  UNL     1      15.249  34.280  16.054  1.00  0.00    -0.400 OA
ATOM     23  H2  UNL     1      15.289  33.332  16.094  1.00  0.00     0.209 HD
ENDBRANCH  21  22
ENDBRANCH   1  21
BRANCH  17  24
HETATM   24  C20 UNL     1       9.106  33.465  13.400  1.00  0.00     0.177 C 
BRANCH  24  25
HETATM   25  O4  UNL     1       9.527  32.481  12.598  1.00  0.00    -0.400 OA
ATOM     26  H4  UNL     1       8.983  31.712  12.478  1.00  0.00     0.209 HD
ENDBRANCH  24  25
ENDBRANCH  17  24
BRANCH  16  27
HETATM   27  O3  UNL     1       9.163  34.556  11.215  1.00  0.00    -0.389 OA
ATOM     28  H3  UNL     1       9.878  34.123  10.763  1.00  0.00     0.210 HD
ENDBRANCH  16  27
TORSDOF 7
ENDMDL
MODEL 3
REMARK VINA RESULT: -5.809422987      2.269      6.469
REMARK  7 active torsions:
REMARK  status: ('A' for Active; 'I' for Inactive)
REMARK    1  A    between atoms: O1_1  and  C1_3 
REMARK    2  A    between atoms: C1_3  and  C2_4 
REMARK    3  A    between atoms: C2_4  and  C3_5 
REMARK    4  A    between atoms: C3_5  and  O2_6 
REMARK    5  A    between atoms: C18_22  and  O3_23 
REMARK    6  A    between atoms: C19_25  and  C20_26 
REMARK    7  A    between atoms: C20_26  and  O4_27 
ROOT
HETATM    1  C2  UNL     1       6.271  35.503  11.943  1.00  0.00     0.006 C 
HETATM    2  C4  UNL     1       6.327  34.316  11.061  1.00  0.00     0.014 C 
HETATM    3  C5  UNL     1       6.928  33.120  11.685  1.00  0.00     0.001 C 
HETATM    4  C6  UNL     1       7.454  33.266  13.060  1.00  0.00     0.006 C 
HETATM    5  C7  UNL     1       8.064  34.571  13.439  1.00  0.00     0.004 C 
HETATM    6  C8  UNL     1       7.560  35.765  12.695  1.00  0.00     0.003 C 
HETATM    7  C9  UNL     1       8.502  36.392  11.720  1.00  0.00     0.006 C 
HETATM    8  C10 UNL     1       9.886  36.572  12.226  1.00  0.00     0.006 C 
HETATM    9  C11 UNL     1      10.101  35.928  13.567  1.00  0.00    -0.001 C 
HETATM   10  C12 UNL     1      11.570  36.031  13.833  1.00  0.00     0.006 C 
HETATM   11  C13 UNL     1      11.994  35.443  15.157  1.00  0.00     0.008 C 
HETATM   12  C14 UNL     1      10.760  35.041  15.865  1.00  0.00     0.021 C 
HETATM   13  C15 UNL     1      10.999  34.198  17.111  1.00  0.00     0.008 C 
HETATM   14  C16 UNL     1       9.676  33.483  17.297  1.00  0.00     0.004 C 
HETATM   15  C17 UNL     1       8.822  33.861  16.068  1.00  0.00     0.039 C 
HETATM   16  C18 UNL     1       9.914  34.065  15.075  1.00  0.00     0.072 C 
HETATM   17  C19 UNL     1       9.544  34.538  13.695  1.00  0.00     0.020 C 
ENDROOT
BRANCH   1  18
HETATM   18  C1  UNL     1       6.007  36.702  11.017  1.00  0.00     0.176 C 
BRANCH  18  19
HETATM   19  O1  UNL     1       4.675  37.133  11.227  1.00  0.00    -0.400 OA
ATOM     20  H1  UNL     1       4.705  37.991  11.635  1.00  0.00     0.209 HD
ENDBRANCH  18  19
ENDBRANCH   1  18
BRANCH   1  21
HETATM   21  C3  UNL     1       5.124  35.515  12.929  1.00  0.00     0.176 C 
BRANCH  21  22
HETATM   22  O2  UNL     1       4.046  34.796  12.471  1.00  0.00    -0.400 OA
ATOM     23  H2  UNL     1       4.224  34.385  11.634  1.00  0.00     0.209 HD
ENDBRANCH  21  22
ENDBRANCH   1  21
BRANCH  17  24
HETATM   24  C20 UNL     1      10.338  33.630  12.790  1.00  0.00     0.177 C 
BRANCH  24  25
HETATM   25  O4  UNL     1      10.246  33.779  11.464  1.00  0.00    -0.400 OA
ATOM     26  H4  UNL     1      10.720  34.484  11.038  1.00  0.00     0.209 HD
ENDBRANCH  24  25
ENDBRANCH  17  24
BRANCH  16  27
HETATM   27  O3  UNL     1      10.633  32.848  15.084  1.00  0.00    -0.389 OA
ATOM     28  H3  UNL     1      10.090  32.228  14.610  1.00  0.00     0.210 HD
ENDBRANCH  16  27
TORSDOF 7
ENDMDL
MODEL 4
REMARK VINA RESULT: -5.673356545      2.174      5.311
REMARK  7 active torsions:
REMARK  status: ('A' for Active; 'I' for Inactive)
REMARK    1  A    between atoms: O1_1  and  C1_3 
REMARK    2  A    between atoms: C1_3  and  C2_4 
REMARK    3  A    between atoms: C2_4  and  C3_5 
REMARK    4  A    between atoms: C3_5  and  O2_6 
REMARK    5  A    between atoms: C18_22  and  O3_23 
REMARK    6  A    between atoms: C19_25  and  C20_26 
REMARK    7  A    between atoms: C20_26  and  O4_27 
ROOT
HETATM    1  C2  UNL     1      12.506  31.632  11.605  1.00  0.00     0.006 C 
HETATM    2  C4  UNL     1      12.944  32.807  10.820  1.00  0.00     0.014 C 
HETATM    3  C5  UNL     1      13.472  33.922  11.634  1.00  0.00     0.001 C 
HETATM    4  C6  UNL     1      13.438  33.761  13.104  1.00  0.00     0.006 C 
HETATM    5  C7  UNL     1      12.297  33.010  13.698  1.00  0.00     0.004 C 
HETATM    6  C8  UNL     1      11.663  31.985  12.814  1.00  0.00     0.003 C 
HETATM    7  C9  UNL     1      10.294  32.297  12.304  1.00  0.00     0.006 C 
HETATM    8  C10 UNL     1       9.361  32.832  13.325  1.00  0.00     0.006 C 
HETATM    9  C11 UNL     1      10.036  33.111  14.638  1.00  0.00    -0.001 C 
HETATM   10  C12 UNL     1       9.015  33.816  15.475  1.00  0.00     0.006 C 
HETATM   11  C13 UNL     1       9.503  34.178  16.857  1.00  0.00     0.008 C 
HETATM   12  C14 UNL     1      10.852  33.590  17.006  1.00  0.00     0.021 C 
HETATM   13  C15 UNL     1      11.607  34.062  18.242  1.00  0.00     0.008 C 
HETATM   14  C16 UNL     1      13.054  33.799  17.877  1.00  0.00     0.004 C 
HETATM   15  C17 UNL     1      13.034  33.326  16.409  1.00  0.00     0.039 C 
HETATM   16  C18 UNL     1      11.821  34.057  15.941  1.00  0.00     0.072 C 
HETATM   17  C19 UNL     1      11.352  33.829  14.529  1.00  0.00     0.020 C 
ENDROOT
BRANCH   1  18
HETATM   18  C1  UNL     1      11.643  30.789  10.651  1.00  0.00     0.176 C 
BRANCH  18  19
HETATM   19  O1  UNL     1      12.495  29.889   9.969  1.00  0.00    -0.400 OA
ATOM     20  H1  UNL     1      13.294  29.798  10.476  1.00  0.00     0.209 HD
ENDBRANCH  18  19
ENDBRANCH   1  18
BRANCH   1  21
HETATM   21  C3  UNL     1      13.617  30.704  12.044  1.00  0.00     0.176 C 
BRANCH  21  22
HETATM   22  O2  UNL     1      13.148  29.677  12.827  1.00  0.00    -0.400 OA
ATOM     23  H2  UNL     1      12.703  29.997  13.602  1.00  0.00     0.209 HD
ENDBRANCH  21  22
ENDBRANCH   1  21
BRANCH  17  24
HETATM   24  C20 UNL     1      11.083  35.224  14.022  1.00  0.00     0.177 C 
BRANCH  24  25
HETATM   25  O4  UNL     1      10.630  35.394  12.776  1.00  0.00    -0.400 OA
ATOM     26  H4  UNL     1       9.743  35.129  12.561  1.00  0.00     0.209 HD
ENDBRANCH  24  25
ENDBRANCH  17  24
BRANCH  16  27
HETATM   27  O3  UNL     1      12.089  35.413  16.240  1.00  0.00    -0.389 OA
ATOM     28  H3  UNL     1      12.522  35.762  15.469  1.00  0.00     0.210 HD
ENDBRANCH  16  27
TORSDOF 7
ENDMDL
MODEL 5
REMARK VINA RESULT: -5.652052076      2.160      5.302
REMARK  7 active torsions:
REMARK  status: ('A' for Active; 'I' for Inactive)
REMARK    1  A    between atoms: O1_1  and  C1_3 
REMARK    2  A    between atoms: C1_3  and  C2_4 
REMARK    3  A    between atoms: C2_4  and  C3_5 
REMARK    4  A    between atoms: C3_5  and  O2_6 
REMARK    5  A    between atoms: C18_22  and  O3_23 
REMARK    6  A    between atoms: C19_25  and  C20_26 
REMARK    7  A    between atoms: C20_26  and  O4_27 
ROOT
HETATM    1  C2  UNL     1      12.575  33.014  11.236  1.00  0.00     0.006 C 
HETATM    2  C4  UNL     1      12.567  34.361  10.624  1.00  0.00     0.014 C 
HETATM    3  C5  UNL     1      12.985  35.447  11.534  1.00  0.00     0.001 C 
HETATM    4  C6  UNL     1      13.288  35.078  12.934  1.00  0.00     0.006 C 
HETATM    5  C7  UNL     1      12.491  33.984  13.555  1.00  0.00     0.004 C 
HETATM    6  C8  UNL     1      11.938  32.965  12.611  1.00  0.00     0.003 C 
HETATM    7  C9  UNL     1      10.460  32.984  12.397  1.00  0.00     0.006 C 
HETATM    8  C10 UNL     1       9.658  33.112  13.638  1.00  0.00     0.006 C 
HETATM    9  C11 UNL     1      10.506  33.367  14.853  1.00  0.00    -0.001 C 
HETATM   10  C12 UNL     1       9.544  33.662  15.961  1.00  0.00     0.006 C 
HETATM   11  C13 UNL     1      10.208  33.938  17.288  1.00  0.00     0.008 C 
HETATM   12  C14 UNL     1      11.656  33.702  17.104  1.00  0.00     0.021 C 
HETATM   13  C15 UNL     1      12.521  34.173  18.266  1.00  0.00     0.008 C 
HETATM   14  C16 UNL     1      13.884  34.343  17.628  1.00  0.00     0.004 C 
HETATM   15  C17 UNL     1      13.673  34.093  16.121  1.00  0.00     0.039 C 
HETATM   16  C18 UNL     1      12.258  34.546  16.001  1.00  0.00     0.072 C 
HETATM   17  C19 UNL     1      11.575  34.407  14.667  1.00  0.00     0.020 C 
ENDROOT
BRANCH   1  18
HETATM   18  C1  UNL     1      11.749  32.121  10.296  1.00  0.00     0.176 C 
BRANCH  18  19
HETATM   19  O1  UNL     1      12.545  31.008   9.936  1.00  0.00    -0.400 OA
ATOM     20  H1  UNL     1      12.896  31.166   9.067  1.00  0.00     0.209 HD
ENDBRANCH  18  19
ENDBRANCH   1  18
BRANCH   1  21
HETATM   21  C3  UNL     1      13.932  32.350  11.308  1.00  0.00     0.176 C 
BRANCH  21  22
HETATM   22  O2  UNL     1      14.018  31.470  12.360  1.00  0.00    -0.400 OA
ATOM     23  H2  UNL     1      14.896  31.125  12.463  1.00  0.00     0.209 HD
ENDBRANCH  21  22
ENDBRANCH   1  21
BRANCH  17  24
HETATM   24  C20 UNL     1      10.901  35.743  14.479  1.00  0.00     0.177 C 
BRANCH  24  25
HETATM   25  O4  UNL     1      10.175  35.964  13.378  1.00  0.00    -0.400 OA
ATOM     26  H4  UNL     1      10.519  35.705  12.532  1.00  0.00     0.209 HD
ENDBRANCH  24  25
ENDBRANCH  17  24
BRANCH  16  27
HETATM   27  O3  UNL     1      12.268  35.869  16.499  1.00  0.00    -0.389 OA
ATOM     28  H3  UNL     1      13.167  36.038  16.755  1.00  0.00     0.210 HD
ENDBRANCH  16  27
TORSDOF 7
ENDMDL
