MODEL 1
REMARK VINA RESULT: -6.259426697      0.000      0.000
REMARK  8 active torsions:
REMARK  status: ('A' for Active; 'I' for Inactive)
REMARK    1  A    between atoms: C1_2  and  C2_3 
REMARK       I    between atoms: C1_2  and  N3_29 
REMARK    2  A    between atoms: C2_3  and  C3_4 
REMARK    3  A    between atoms: C3_4  and  C4_5 
REMARK    4  A    between atoms: C4_5  and  C5_6 
REMARK    5  A    between atoms: C5_6  and  N1_7 
REMARK    6  A    between atoms: C5_6  and  N2_15 
REMARK    7  A    between atoms: C8_10  and  O2_11 
REMARK    8  A    between atoms: C17_24  and  O5_25 
ROOT
HETATM    1  C3  UNL     1      11.167  54.555  95.848  1.00  0.00    -0.019 C 
HETATM    2  C11 UNL     1       9.737  54.197  95.845  1.00  0.00    -0.004 C 
HETATM    3  C12 UNL     1       8.895  55.209  95.036  1.00  0.00     0.010 C 
HETATM    4  C13 UNL     1       9.057  56.569  95.613  1.00  0.00    -0.013 C 
HETATM    5  C14 UNL     1       8.432  56.568  97.009  1.00  0.00     0.012 C 
HETATM    6  C15 UNL     1       9.231  55.568  97.859  1.00  0.00     0.015 C 
HETATM    7  C16 UNL     1       9.050  54.229  97.199  1.00  0.00     0.012 C 
HETATM    8  C17 UNL     1      10.636  56.052  97.840  1.00  0.00     0.127 C 
HETATM    9  C18 UNL     1      11.273  55.958  96.472  1.00  0.00     0.024 C 
HETATM   10  C19 UNL     1      10.495  56.957  95.638  1.00  0.00     0.012 C 
ENDROOT
BRANCH   1  11
HETATM   11  C2  UNL     1      11.677  54.663  94.430  1.00  0.00     0.113 C 
BRANCH  11  12
HETATM   12  C1  UNL     1      11.389  53.598  93.510  1.00  0.00     0.223 C 
HETATM   13  O1  UNL     1      11.210  52.386  93.730  1.00  0.00    -0.273 OA
HETATM   14  N3  UNL     1      11.270  53.909  92.112  1.00  0.00    -0.317 N 
HETATM   15  C20 UNL     1      12.208  54.113  91.303  1.00  0.00     0.079 C 
ATOM     16  H3  UNL     1      10.323  53.969  91.737  1.00  0.00     0.170 HD
HETATM   17  C21 UNL     1      13.657  54.081  91.591  1.00  0.00     0.078 C 
HETATM   18  N4  UNL     1      12.062  54.423  89.927  1.00  0.00    -0.380 N 
HETATM   19  C22 UNL     1      14.284  54.898  90.490  1.00  0.00     0.027 C 
HETATM   20  C23 UNL     1      13.314  54.826  89.363  1.00  0.00     0.121 C 
ATOM     21  H4  UNL     1      11.185  54.366  89.410  1.00  0.00     0.160 HD
ENDBRANCH  11  12
ENDBRANCH   1  11
BRANCH   1  22
HETATM   22  C4  UNL     1      12.037  53.670  96.662  1.00  0.00     0.074 C 
BRANCH  22  23
HETATM   23  C5  UNL     1      11.546  52.355  97.109  1.00  0.00     0.391 C 
BRANCH  23  24
HETATM   24  N1  UNL     1      12.611  51.383  96.749  1.00  0.00     0.117 N 
HETATM   25  C6  UNL     1      13.707  52.137  96.251  1.00  0.00     0.278 C 
HETATM   26  C7  UNL     1      14.882  51.160  96.100  1.00  0.00     0.062 C 
HETATM   27  C8  UNL     1      14.453  50.282  94.916  1.00  0.00     0.121 C 
HETATM   28  C9  UNL     1      13.277  49.500  95.389  1.00  0.00     0.062 C 
HETATM   29  C10 UNL     1      12.167  50.277  96.006  1.00  0.00     0.278 C 
BRANCH  27  30
HETATM   30  O2  UNL     1      15.468  49.382  94.597  1.00  0.00    -0.395 OA
ATOM     31  H2  UNL     1      15.122  48.498  94.567  1.00  0.00     0.210 HD
ENDBRANCH  27  30
ENDBRANCH  23  24
BRANCH  23  32
HETATM   32  N2  UNL     1      11.152  52.159  98.468  1.00  0.00    -0.120 N 
HETATM   33  O3  UNL     1      11.668  52.842  99.417  1.00  0.00    -0.535 OA
HETATM   34  O4  UNL     1      10.206  51.278  98.929  1.00  0.00    -0.535 OA
ENDBRANCH  23  32
ENDBRANCH  22  23
ENDBRANCH   1  22
BRANCH   8  35
HETATM   35  O5  UNL     1      11.441  55.642  98.881  1.00  0.00    -0.395 OA
ATOM     36  H5  UNL     1      12.375  55.626  98.713  1.00  0.00     0.210 HD
ENDBRANCH   8  35
TORSDOF 8
ENDMDL
MODEL 2
REMARK VINA RESULT: -6.112034644      0.984      1.289
REMARK  8 active torsions:
REMARK  status: ('A' for Active; 'I' for Inactive)
REMARK    1  A    between atoms: C1_2  and  C2_3 
REMARK       I    between atoms: C1_2  and  N3_29 
REMARK    2  A    between atoms: C2_3  and  C3_4 
REMARK    3  A    between atoms: C3_4  and  C4_5 
REMARK    4  A    between atoms: C4_5  and  C5_6 
REMARK    5  A    between atoms: C5_6  and  N1_7 
REMARK    6  A    between atoms: C5_6  and  N2_15 
REMARK    7  A    between atoms: C8_10  and  O2_11 
REMARK    8  A    between atoms: C17_24  and  O5_25 
ROOT
HETATM    1  C3  UNL     1      11.293  54.312  96.147  1.00  0.00    -0.019 C 
HETATM    2  C11 UNL     1       9.850  54.064  95.975  1.00  0.00    -0.004 C 
HETATM    3  C12 UNL     1       9.210  55.067  94.989  1.00  0.00     0.010 C 
HETATM    4  C13 UNL     1       9.414  56.455  95.484  1.00  0.00    -0.013 C 
HETATM    5  C14 UNL     1       8.615  56.616  96.778  1.00  0.00     0.012 C 
HETATM    6  C15 UNL     1       9.207  55.632  97.797  1.00  0.00     0.015 C 
HETATM    7  C16 UNL     1       8.998  54.260  97.218  1.00  0.00     0.012 C 
HETATM    8  C17 UNL     1      10.639  56.005  97.936  1.00  0.00     0.127 C 
HETATM    9  C18 UNL     1      11.437  55.749  96.677  1.00  0.00     0.024 C 
HETATM   10  C19 UNL     1      10.864  56.732  95.675  1.00  0.00     0.012 C 
ENDROOT
BRANCH   1  11
HETATM   11  C2  UNL     1      11.991  54.263  94.808  1.00  0.00     0.113 C 
BRANCH  11  12
HETATM   12  C1  UNL     1      11.508  53.348  93.811  1.00  0.00     0.223 C 
HETATM   13  O1  UNL     1      11.222  52.140  93.915  1.00  0.00    -0.273 OA
HETATM   14  N3  UNL     1      11.296  53.832  92.475  1.00  0.00    -0.317 N 
HETATM   15  C20 UNL     1      12.172  54.041  91.602  1.00  0.00     0.079 C 
ATOM     16  H3  UNL     1      10.330  54.027  92.209  1.00  0.00     0.170 HD
HETATM   17  C21 UNL     1      13.630  53.837  91.734  1.00  0.00     0.078 C 
HETATM   18  N4  UNL     1      11.935  54.525  90.290  1.00  0.00    -0.380 N 
HETATM   19  C22 UNL     1      14.237  54.717  90.670  1.00  0.00     0.027 C 
HETATM   20  C23 UNL     1      13.166  54.872  89.648  1.00  0.00     0.121 C 
ATOM     21  H4  UNL     1      11.014  54.614  89.862  1.00  0.00     0.160 HD
ENDBRANCH  11  12
ENDBRANCH   1  11
BRANCH   1  22
HETATM   22  C4  UNL     1      11.970  53.433  97.133  1.00  0.00     0.074 C 
BRANCH  22  23
HETATM   23  C5  UNL     1      11.720  51.982  97.127  1.00  0.00     0.391 C 
BRANCH  23  24
HETATM   24  N1  UNL     1      13.061  51.342  97.175  1.00  0.00     0.117 N 
HETATM   25  C6  UNL     1      13.794  51.995  98.202  1.00  0.00     0.278 C 
HETATM   26  C7  UNL     1      15.083  51.185  98.406  1.00  0.00     0.062 C 
HETATM   27  C8  UNL     1      15.879  51.473  97.126  1.00  0.00     0.121 C 
HETATM   28  C9  UNL     1      15.119  50.833  96.016  1.00  0.00     0.062 C 
HETATM   29  C10 UNL     1      13.672  51.169  95.923  1.00  0.00     0.278 C 
BRANCH  27  30
HETATM   30  O2  UNL     1      17.131  50.865  97.196  1.00  0.00    -0.395 OA
ATOM     31  H2  UNL     1      17.794  51.510  97.411  1.00  0.00     0.210 HD
ENDBRANCH  27  30
ENDBRANCH  23  24
BRANCH  23  32
HETATM   32  N2  UNL     1      10.869  51.395  98.113  1.00  0.00    -0.120 N 
HETATM   33  O3  UNL     1      10.345  50.242  97.942  1.00  0.00    -0.535 OA
HETATM   34  O4  UNL     1      10.523  51.937  99.326  1.00  0.00    -0.535 OA
ENDBRANCH  23  32
ENDBRANCH  22  23
ENDBRANCH   1  22
BRANCH   8  35
HETATM   35  O5  UNL     1      11.263  55.622  99.103  1.00  0.00    -0.395 OA
ATOM     36  H5  UNL     1      12.138  55.963  99.248  1.00  0.00     0.210 HD
ENDBRANCH   8  35
TORSDOF 8
ENDMDL
MODEL 3
REMARK VINA RESULT: -6.042221956      1.302      1.567
REMARK  8 active torsions:
REMARK  status: ('A' for Active; 'I' for Inactive)
REMARK    1  A    between atoms: C1_2  and  C2_3 
REMARK       I    between atoms: C1_2  and  N3_29 
REMARK    2  A    between atoms: C2_3  and  C3_4 
REMARK    3  A    between atoms: C3_4  and  C4_5 
REMARK    4  A    between atoms: C4_5  and  C5_6 
REMARK    5  A    between atoms: C5_6  and  N1_7 
REMARK    6  A    between atoms: C5_6  and  N2_15 
REMARK    7  A    between atoms: C8_10  and  O2_11 
REMARK    8  A    between atoms: C17_24  and  O5_25 
ROOT
HETATM    1  C3  UNL     1      10.694  54.378  95.543  1.00  0.00    -0.019 C 
HETATM    2  C11 UNL     1       9.301  54.049  95.898  1.00  0.00    -0.004 C 
HETATM    3  C12 UNL     1       8.300  55.049  95.275  1.00  0.00     0.010 C 
HETATM    4  C13 UNL     1       8.612  56.426  95.742  1.00  0.00    -0.013 C 
HETATM    5  C14 UNL     1       8.342  56.487  97.246  1.00  0.00     0.012 C 
HETATM    6  C15 UNL     1       9.311  55.503  97.917  1.00  0.00     0.015 C 
HETATM    7  C16 UNL     1       8.961  54.145  97.376  1.00  0.00     0.012 C 
HETATM    8  C17 UNL     1      10.675  55.957  97.542  1.00  0.00     0.127 C 
HETATM    9  C18 UNL     1      10.962  55.800  96.066  1.00  0.00     0.024 C 
HETATM   10  C19 UNL     1      10.017  56.784  95.404  1.00  0.00     0.012 C 
ENDROOT
BRANCH   1  11
HETATM   11  C2  UNL     1      10.848  54.424  94.040  1.00  0.00     0.113 C 
BRANCH  11  12
HETATM   12  C1  UNL     1      12.161  54.272  93.477  1.00  0.00     0.223 C 
HETATM   13  O1  UNL     1      13.184  54.961  93.651  1.00  0.00    -0.273 OA
HETATM   14  N3  UNL     1      12.402  53.180  92.574  1.00  0.00    -0.317 N 
HETATM   15  C20 UNL     1      12.070  53.116  91.366  1.00  0.00     0.079 C 
ATOM     16  H3  UNL     1      12.893  52.373  92.957  1.00  0.00     0.170 HD
HETATM   17  C21 UNL     1      11.358  54.144  90.579  1.00  0.00     0.078 C 
HETATM   18  N4  UNL     1      12.316  52.022  90.497  1.00  0.00    -0.380 N 
HETATM   19  C22 UNL     1      10.747  53.389  89.426  1.00  0.00     0.027 C 
HETATM   20  C23 UNL     1      11.601  52.180  89.269  1.00  0.00     0.121 C 
ATOM     21  H4  UNL     1      12.921  51.230  90.718  1.00  0.00     0.160 HD
ENDBRANCH  11  12
ENDBRANCH   1  11
BRANCH   1  22
HETATM   22  C4  UNL     1      11.724  53.505  96.158  1.00  0.00     0.074 C 
BRANCH  22  23
HETATM   23  C5  UNL     1      11.352  52.186  96.698  1.00  0.00     0.391 C 
BRANCH  23  24
HETATM   24  N1  UNL     1      12.191  51.201  95.967  1.00  0.00     0.117 N 
HETATM   25  C6  UNL     1      13.473  51.792  95.801  1.00  0.00     0.278 C 
HETATM   26  C7  UNL     1      14.397  50.692  95.258  1.00  0.00     0.062 C 
HETATM   27  C8  UNL     1      13.885  50.483  93.827  1.00  0.00     0.121 C 
HETATM   28  C9  UNL     1      12.522  49.898  93.960  1.00  0.00     0.062 C 
HETATM   29  C10 UNL     1      11.572  50.621  94.848  1.00  0.00     0.278 C 
BRANCH  27  30
HETATM   30  O2  UNL     1      14.688  49.558  93.162  1.00  0.00    -0.395 OA
ATOM     31  H2  UNL     1      15.576  49.600  93.496  1.00  0.00     0.210 HD
ENDBRANCH  27  30
ENDBRANCH  23  24
BRANCH  23  32
HETATM   32  N2  UNL     1      11.427  51.937  98.102  1.00  0.00    -0.120 N 
HETATM   33  O3  UNL     1      11.112  50.802  98.596  1.00  0.00    -0.535 OA
HETATM   34  O4  UNL     1      11.841  52.817  99.071  1.00  0.00    -0.535 OA
ENDBRANCH  23  32
ENDBRANCH  22  23
ENDBRANCH   1  22
BRANCH   8  35
HETATM   35  O5  UNL     1      11.702  55.569  98.375  1.00  0.00    -0.395 OA
ATOM     36  H5  UNL     1      11.463  55.033  99.122  1.00  0.00     0.210 HD
ENDBRANCH   8  35
TORSDOF 8
ENDMDL
MODEL 4
REMARK VINA RESULT: -5.980140209      3.254      6.793
REMARK  8 active torsions:
REMARK  status: ('A' for Active; 'I' for Inactive)
REMARK    1  A    between atoms: C1_2  and  C2_3 
REMARK       I    between atoms: C1_2  and  N3_29 
REMARK    2  A    between atoms: C2_3  and  C3_4 
REMARK    3  A    between atoms: C3_4  and  C4_5 
REMARK    4  A    between atoms: C4_5  and  C5_6 
REMARK    5  A    between atoms: C5_6  and  N1_7 
REMARK    6  A    between atoms: C5_6  and  N2_15 
REMARK    7  A    between atoms: C8_10  and  O2_11 
REMARK    8  A    between atoms: C17_24  and  O5_25 
ROOT
HETATM    1  C3  UNL     1      12.273  53.289  92.886  1.00  0.00    -0.019 C 
HETATM    2  C11 UNL     1      12.852  54.268  93.823  1.00  0.00    -0.004 C 
HETATM    3  C12 UNL     1      13.262  53.607  95.159  1.00  0.00     0.010 C 
HETATM    4  C13 UNL     1      12.074  52.971  95.788  1.00  0.00    -0.013 C 
HETATM    5  C14 UNL     1      11.098  54.080  96.183  1.00  0.00     0.012 C 
HETATM    6  C15 UNL     1      10.661  54.778  94.887  1.00  0.00     0.015 C 
HETATM    7  C16 UNL     1      11.911  55.365  94.292  1.00  0.00     0.012 C 
HETATM    8  C17 UNL     1      10.045  53.720  94.045  1.00  0.00     0.127 C 
HETATM    9  C18 UNL     1      11.042  52.682  93.581  1.00  0.00     0.024 C 
HETATM   10  C19 UNL     1      11.460  51.982  94.860  1.00  0.00     0.012 C 
ENDROOT
BRANCH   1  11
HETATM   11  C2  UNL     1      13.247  52.160  92.647  1.00  0.00     0.113 C 
BRANCH  11  12
HETATM   12  C1  UNL     1      12.747  50.914  92.136  1.00  0.00     0.223 C 
HETATM   13  O1  UNL     1      11.645  50.653  91.617  1.00  0.00    -0.273 OA
HETATM   14  N3  UNL     1      13.595  49.755  92.195  1.00  0.00    -0.317 N 
HETATM   15  C20 UNL     1      13.827  49.043  93.202  1.00  0.00     0.079 C 
ATOM     16  H3  UNL     1      14.056  49.482  91.327  1.00  0.00     0.170 HD
HETATM   17  C21 UNL     1      13.286  49.221  94.565  1.00  0.00     0.078 C 
HETATM   18  N4  UNL     1      14.673  47.905  93.234  1.00  0.00    -0.380 N 
HETATM   19  C22 UNL     1      14.257  48.495  95.461  1.00  0.00     0.027 C 
HETATM   20  C23 UNL     1      14.899  47.480  94.582  1.00  0.00     0.121 C 
ATOM     21  H4  UNL     1      15.067  47.452  92.410  1.00  0.00     0.160 HD
ENDBRANCH  11  12
ENDBRANCH   1  11
BRANCH   1  22
HETATM   22  C4  UNL     1      11.789  53.857  91.602  1.00  0.00     0.074 C 
BRANCH  22  23
HETATM   23  C5  UNL     1      12.622  53.767  90.391  1.00  0.00     0.391 C 
BRANCH  23  24
HETATM   24  N1  UNL     1      11.674  53.775  89.247  1.00  0.00     0.117 N 
HETATM   25  C6  UNL     1      10.364  53.757  89.797  1.00  0.00     0.278 C 
HETATM   26  C7  UNL     1       9.394  54.000  88.631  1.00  0.00     0.062 C 
HETATM   27  C8  UNL     1       9.488  52.698  87.824  1.00  0.00     0.121 C 
HETATM   28  C9  UNL     1      10.866  52.663  87.261  1.00  0.00     0.062 C 
HETATM   29  C10 UNL     1      11.983  52.866  88.224  1.00  0.00     0.278 C 
BRANCH  27  30
HETATM   30  O2  UNL     1       8.589  52.730  86.760  1.00  0.00    -0.395 OA
ATOM     31  H2  UNL     1       8.924  52.216  86.035  1.00  0.00     0.210 HD
ENDBRANCH  27  30
ENDBRANCH  23  24
BRANCH  23  32
HETATM   32  N2  UNL     1      13.663  54.718  90.163  1.00  0.00    -0.120 N 
HETATM   33  O3  UNL     1      13.503  55.958  90.425  1.00  0.00    -0.535 OA
HETATM   34  O4  UNL     1      14.921  54.458  89.678  1.00  0.00    -0.535 OA
ENDBRANCH  23  32
ENDBRANCH  22  23
ENDBRANCH   1  22
BRANCH   8  35
HETATM   35  O5  UNL     1       9.159  54.143  93.077  1.00  0.00    -0.395 OA
ATOM     36  H5  UNL     1       9.275  53.778  92.208  1.00  0.00     0.210 HD
ENDBRANCH   8  35
TORSDOF 8
ENDMDL
MODEL 5
REMARK VINA RESULT: -5.955674840     10.057     13.352
REMARK  8 active torsions:
REMARK  status: ('A' for Active; 'I' for Inactive)
REMARK    1  A    between atoms: C1_2  and  C2_3 
REMARK       I    between atoms: C1_2  and  N3_29 
REMARK    2  A    between atoms: C2_3  and  C3_4 
REMARK    3  A    between atoms: C3_4  and  C4_5 
REMARK    4  A    between atoms: C4_5  and  C5_6 
REMARK    5  A    between atoms: C5_6  and  N1_7 
REMARK    6  A    between atoms: C5_6  and  N2_15 
REMARK    7  A    between atoms: C8_10  and  O2_11 
REMARK    8  A    between atoms: C17_24  and  O5_25 
ROOT
HETATM    1  C3  UNL     1      10.444  51.308  84.291  1.00  0.00    -0.019 C 
HETATM    2  C11 UNL     1      10.051  52.681  84.658  1.00  0.00    -0.004 C 
HETATM    3  C12 UNL     1      10.984  53.274  85.738  1.00  0.00     0.010 C 
HETATM    4  C13 UNL     1      10.954  52.416  86.951  1.00  0.00    -0.013 C 
HETATM    5  C14 UNL     1       9.551  52.502  87.556  1.00  0.00     0.012 C 
HETATM    6  C15 UNL     1       8.578  51.928  86.516  1.00  0.00     0.015 C 
HETATM    7  C16 UNL     1       8.687  52.821  85.311  1.00  0.00     0.012 C 
HETATM    8  C17 UNL     1       9.029  50.535  86.264  1.00  0.00     0.127 C 
HETATM    9  C18 UNL     1      10.375  50.468  85.578  1.00  0.00     0.024 C 
HETATM   10  C19 UNL     1      11.339  51.019  86.611  1.00  0.00     0.012 C 
ENDROOT
BRANCH   1  11
HETATM   11  C2  UNL     1      11.881  51.287  83.827  1.00  0.00     0.113 C 
BRANCH  11  12
HETATM   12  C1  UNL     1      12.417  50.064  83.297  1.00  0.00     0.223 C 
HETATM   13  O1  UNL     1      12.608  48.970  83.863  1.00  0.00    -0.273 OA
HETATM   14  N3  UNL     1      12.807  50.023  81.915  1.00  0.00    -0.317 N 
HETATM   15  C20 UNL     1      13.859  50.490  81.415  1.00  0.00     0.079 C 
ATOM     16  H3  UNL     1      12.160  49.565  81.272  1.00  0.00     0.170 HD
HETATM   17  C21 UNL     1      14.949  51.191  82.125  1.00  0.00     0.078 C 
HETATM   18  N4  UNL     1      14.217  50.440  80.044  1.00  0.00    -0.380 N 
HETATM   19  C22 UNL     1      15.650  51.991  81.056  1.00  0.00     0.027 C 
HETATM   20  C23 UNL     1      15.353  51.271  79.787  1.00  0.00     0.121 C 
ATOM     21  H4  UNL     1      13.732  49.888  79.337  1.00  0.00     0.160 HD
ENDBRANCH  11  12
ENDBRANCH   1  11
BRANCH   1  22
HETATM   22  C4  UNL     1       9.555  50.640  83.308  1.00  0.00     0.074 C 
BRANCH  22  23
HETATM   23  C5  UNL     1       8.746  51.442  82.375  1.00  0.00     0.391 C 
BRANCH  23  24
HETATM   24  N1  UNL     1       9.091  50.951  81.016  1.00  0.00     0.117 N 
HETATM   25  C6  UNL     1       9.234  49.540  81.111  1.00  0.00     0.278 C 
HETATM   26  C7  UNL     1       9.359  49.012  79.674  1.00  0.00     0.062 C 
HETATM   27  C8  UNL     1      10.745  49.509  79.241  1.00  0.00     0.121 C 
HETATM   28  C9  UNL     1      10.645  50.993  79.167  1.00  0.00     0.062 C 
HETATM   29  C10 UNL     1      10.097  51.683  80.367  1.00  0.00     0.278 C 
BRANCH  27  30
HETATM   30  O2  UNL     1      11.046  49.033  77.967  1.00  0.00    -0.395 OA
ATOM     31  H2  UNL     1      11.953  49.219  77.756  1.00  0.00     0.210 HD
ENDBRANCH  27  30
ENDBRANCH  23  24
BRANCH  23  32
HETATM   32  N2  UNL     1       7.326  51.500  82.522  1.00  0.00    -0.120 N 
HETATM   33  O3  UNL     1       6.707  50.723  83.326  1.00  0.00    -0.535 OA
HETATM   34  O4  UNL     1       6.468  52.357  81.879  1.00  0.00    -0.535 OA
ENDBRANCH  23  32
ENDBRANCH  22  23
ENDBRANCH   1  22
BRANCH   8  35
HETATM   35  O5  UNL     1       8.083  49.664  85.768  1.00  0.00    -0.395 OA
ATOM     36  H5  UNL     1       8.365  48.768  85.628  1.00  0.00     0.210 HD
ENDBRANCH   8  35
TORSDOF 8
ENDMDL
