MODEL 1
REMARK VINA RESULT: -8.934772169      0.000      0.000
REMARK  7 active torsions:
REMARK  status: ('A' for Active; 'I' for Inactive)
REMARK    1  A    between atoms: N1_1  and  C1_5 
REMARK    2  A    between atoms: C1_5  and  C2_6 
REMARK    3  A    between atoms: C2_6  and  N2_7 
REMARK    4  A    between atoms: C5_10  and  C6_11 
REMARK    5  A    between atoms: C9_15  and  O1_16 
REMARK    6  A    between atoms: C10_18  and  C11_19 
REMARK    7  A    between atoms: N3_20  and  N4_22 
ROOT
HETATM    1  C6  UNL     1    -100.549 -18.917  50.530  1.00  0.00    -0.050 A 
HETATM    2  C7  UNL     1     -99.646 -18.800  51.562  1.00  0.00     0.052 A 
HETATM    3  C8  UNL     1     -98.416 -18.241  51.354  1.00  0.00     0.150 A 
HETATM    4  F1  UNL     1     -97.516 -18.119  52.355  1.00  0.00    -0.203 F 
HETATM    5  C9  UNL     1     -98.016 -17.763  50.090  1.00  0.00     0.116 A 
HETATM    6  C10 UNL     1     -98.906 -17.874  49.054  1.00  0.00     0.018 A 
HETATM    7  C19 UNL     1    -100.160 -18.454  49.313  1.00  0.00     0.023 A 
ENDROOT
BRANCH   6   8
HETATM    8  C11 UNL     1     -98.617 -17.417  47.698  1.00  0.00     0.122 C 
HETATM    9  N3  UNL     1     -98.537 -16.250  47.285  1.00  0.00    -0.302 N 
ATOM     10  H3  UNL     1     -98.686 -15.488  47.946  1.00  0.00     0.186 HD
BRANCH   9  11
HETATM   11  N4  UNL     1     -98.243 -15.922  45.915  1.00  0.00    -0.238 N 
HETATM   12  C12 UNL     1     -99.244 -15.915  45.040  1.00  0.00     0.165 A 
HETATM   13  S1  UNL     1    -100.838 -16.216  45.193  1.00  0.00    -0.050 SA
HETATM   14  S2  UNL     1     -98.498 -15.492  43.580  1.00  0.00    -0.057 SA
HETATM   15  C13 UNL     1     -96.891 -15.335  44.153  1.00  0.00     0.038 A 
HETATM   16  C14 UNL     1     -95.662 -15.004  43.553  1.00  0.00     0.047 A 
HETATM   17  C18 UNL     1     -97.032 -15.628  45.480  1.00  0.00     0.077 A 
HETATM   18  C15 UNL     1     -94.507 -14.961  44.308  1.00  0.00     0.057 A 
HETATM   19 CL1  UNL     1     -93.001 -14.546  43.529  1.00  0.00    -0.083 Cl
HETATM   20  C16 UNL     1     -94.650 -15.254  45.637  1.00  0.00     0.058 A 
HETATM   21 CL2  UNL     1     -93.182 -15.202  46.608  1.00  0.00    -0.082 Cl
HETATM   22  C17 UNL     1     -95.829 -15.575  46.230  1.00  0.00     0.058 A 
ENDBRANCH   9  11
ENDBRANCH   6   8
BRANCH   5  23
HETATM   23  O1  UNL     1     -96.781 -17.220  49.952  1.00  0.00    -0.357 OA
ATOM     24  H1  UNL     1     -96.469 -16.609  50.609  1.00  0.00     0.218 HD
ENDBRANCH   5  23
BRANCH   1  25
HETATM   25  C5  UNL     1    -101.897 -19.519  50.718  1.00  0.00     0.022 C 
HETATM   26  C4  UNL     1    -102.652 -18.941  51.870  1.00  0.00     0.039 C 
HETATM   27  C3  UNL     1    -103.857 -18.189  51.405  1.00  0.00     0.273 C 
HETATM   28  N2  UNL     1    -104.804 -19.006  50.672  1.00  0.00     0.090 N 
HETATM   29  C21 UNL     1    -104.115 -19.938  49.834  1.00  0.00     0.273 C 
HETATM   30  C20 UNL     1    -102.724 -19.417  49.449  1.00  0.00     0.039 C 
BRANCH  28  31
HETATM   31  C2  UNL     1    -105.658 -18.099  49.939  1.00  0.00     0.299 C 
BRANCH  31  32
HETATM   32  C1  UNL     1    -105.497 -16.668  50.340  1.00  0.00     0.259 C 
BRANCH  32  33
HETATM   33  N1  UNL     1    -106.446 -16.331  51.395  1.00  0.00    -0.078 N 
ATOM     34  H13 UNL     1    -106.945 -15.464  51.195  1.00  0.00     0.274 HD
ATOM     35  H12 UNL     1    -107.245 -16.965  51.405  1.00  0.00     0.274 HD
ATOM     36  H11 UNL     1    -105.972 -16.300  52.297  1.00  0.00     0.274 HD
ENDBRANCH  32  33
ENDBRANCH  31  32
ENDBRANCH  28  31
ENDBRANCH   1  25
TORSDOF 7
ENDMDL
MODEL 2
REMARK VINA RESULT: -8.914672108      4.484      5.717
REMARK  7 active torsions:
REMARK  status: ('A' for Active; 'I' for Inactive)
REMARK    1  A    between atoms: N1_1  and  C1_5 
REMARK    2  A    between atoms: C1_5  and  C2_6 
REMARK    3  A    between atoms: C2_6  and  N2_7 
REMARK    4  A    between atoms: C5_10  and  C6_11 
REMARK    5  A    between atoms: C9_15  and  O1_16 
REMARK    6  A    between atoms: C10_18  and  C11_19 
REMARK    7  A    between atoms: N3_20  and  N4_22 
ROOT
HETATM    1  C6  UNL     1     -99.481 -17.634  47.865  1.00  0.00    -0.050 A 
HETATM    2  C7  UNL     1     -99.946 -17.215  46.639  1.00  0.00     0.052 A 
HETATM    3  C8  UNL     1     -99.284 -16.248  45.935  1.00  0.00     0.150 A 
HETATM    4  F1  UNL     1     -99.726 -15.824  44.730  1.00  0.00    -0.203 F 
HETATM    5  C9  UNL     1     -98.110 -15.641  46.421  1.00  0.00     0.116 A 
HETATM    6  C10 UNL     1     -97.637 -16.049  47.640  1.00  0.00     0.018 A 
HETATM    7  C19 UNL     1     -98.348 -17.047  48.330  1.00  0.00     0.023 A 
ENDROOT
BRANCH   6   8
HETATM    8  C11 UNL     1     -96.431 -15.503  48.256  1.00  0.00     0.122 C 
HETATM    9  N3  UNL     1     -96.079 -14.315  48.325  1.00  0.00    -0.302 N 
ATOM     10  H3  UNL     1     -96.681 -13.604  47.910  1.00  0.00     0.186 HD
BRANCH   9  11
HETATM   11  N4  UNL     1     -94.859 -13.895  48.963  1.00  0.00    -0.238 N 
HETATM   12  C12 UNL     1     -93.744 -13.876  48.240  1.00  0.00     0.165 A 
HETATM   13  S1  UNL     1     -93.437 -14.248  46.684  1.00  0.00    -0.050 SA
HETATM   14  S2  UNL     1     -92.567 -13.338  49.332  1.00  0.00    -0.057 SA
HETATM   15  C13 UNL     1     -93.567 -13.152  50.711  1.00  0.00     0.038 A 
HETATM   16  C14 UNL     1     -93.345 -12.739  52.037  1.00  0.00     0.047 A 
HETATM   17  C18 UNL     1     -94.789 -13.529  50.229  1.00  0.00     0.077 A 
HETATM   18  C15 UNL     1     -94.391 -12.695  52.938  1.00  0.00     0.057 A 
HETATM   19 CL1  UNL     1     -94.076 -12.176  54.575  1.00  0.00    -0.083 Cl
HETATM   20  C16 UNL     1     -95.613 -13.071  52.454  1.00  0.00     0.058 A 
HETATM   21 CL2  UNL     1     -96.953 -13.019  53.596  1.00  0.00    -0.082 Cl
HETATM   22  C17 UNL     1     -95.843 -13.473  51.177  1.00  0.00     0.058 A 
ENDBRANCH   9  11
ENDBRANCH   6   8
BRANCH   5  23
HETATM   23  O1  UNL     1     -97.502 -14.687  45.671  1.00  0.00    -0.357 OA
ATOM     24  H1  UNL     1     -97.311 -14.870  44.759  1.00  0.00     0.218 HD
ENDBRANCH   5  23
BRANCH   1  25
HETATM   25  C5  UNL     1    -100.175 -18.685  48.660  1.00  0.00     0.022 C 
HETATM   26  C4  UNL     1     -99.679 -18.792  50.064  1.00  0.00     0.039 C 
HETATM   27  C3  UNL     1    -100.734 -18.387  51.043  1.00  0.00     0.273 C 
HETATM   28  N2  UNL     1    -101.933 -19.200  50.975  1.00  0.00     0.090 N 
HETATM   29  C21 UNL     1    -102.237 -19.528  49.616  1.00  0.00     0.273 C 
HETATM   30  C20 UNL     1    -101.678 -18.473  48.651  1.00  0.00     0.039 C 
BRANCH  28  31
HETATM   31  C2  UNL     1    -102.981 -18.454  51.632  1.00  0.00     0.299 C 
BRANCH  31  32
HETATM   32  C1  UNL     1    -104.343 -18.714  51.073  1.00  0.00     0.259 C 
BRANCH  32  33
HETATM   33  N1  UNL     1    -105.255 -17.640  51.449  1.00  0.00    -0.078 N 
ATOM     34  H13 UNL     1    -105.352 -17.560  52.461  1.00  0.00     0.274 HD
ATOM     35  H12 UNL     1    -104.856 -16.719  51.263  1.00  0.00     0.274 HD
ATOM     36  H11 UNL     1    -106.156 -17.766  50.988  1.00  0.00     0.274 HD
ENDBRANCH  32  33
ENDBRANCH  31  32
ENDBRANCH  28  31
ENDBRANCH   1  25
TORSDOF 7
ENDMDL
MODEL 3
REMARK VINA RESULT: -8.725477685      0.976      1.063
REMARK  7 active torsions:
REMARK  status: ('A' for Active; 'I' for Inactive)
REMARK    1  A    between atoms: N1_1  and  C1_5 
REMARK    2  A    between atoms: C1_5  and  C2_6 
REMARK    3  A    between atoms: C2_6  and  N2_7 
REMARK    4  A    between atoms: C5_10  and  C6_11 
REMARK    5  A    between atoms: C9_15  and  O1_16 
REMARK    6  A    between atoms: C10_18  and  C11_19 
REMARK    7  A    between atoms: N3_20  and  N4_22 
ROOT
HETATM    1  C6  UNL     1    -100.425 -18.874  50.420  1.00  0.00    -0.050 A 
HETATM    2  C7  UNL     1     -99.747 -18.814  51.616  1.00  0.00     0.052 A 
HETATM    3  C8  UNL     1     -98.498 -18.262  51.684  1.00  0.00     0.150 A 
HETATM    4  F1  UNL     1     -97.817 -18.196  52.849  1.00  0.00    -0.203 F 
HETATM    5  C9  UNL     1     -97.851 -17.735  50.549  1.00  0.00     0.116 A 
HETATM    6  C10 UNL     1     -98.516 -17.788  49.352  1.00  0.00     0.018 A 
HETATM    7  C19 UNL     1     -99.799 -18.363  49.328  1.00  0.00     0.023 A 
ENDROOT
BRANCH   6   8
HETATM    8  C11 UNL     1     -97.959 -17.276  48.103  1.00  0.00     0.122 C 
HETATM    9  N3  UNL     1     -98.110 -16.151  47.603  1.00  0.00    -0.302 N 
ATOM     10  H3  UNL     1     -98.689 -15.472  48.098  1.00  0.00     0.186 HD
BRANCH   9  11
HETATM   11  N4  UNL     1     -97.505 -15.759  46.357  1.00  0.00    -0.238 N 
HETATM   12  C12 UNL     1     -98.223 -15.876  45.244  1.00  0.00     0.165 A 
HETATM   13  S1  UNL     1     -99.740 -16.400  44.966  1.00  0.00    -0.050 SA
HETATM   14  S2  UNL     1     -97.177 -15.324  44.033  1.00  0.00    -0.057 SA
HETATM   15  C13 UNL     1     -95.823 -14.954  45.016  1.00  0.00     0.038 A 
HETATM   16  C14 UNL     1     -94.537 -14.443  44.765  1.00  0.00     0.047 A 
HETATM   17  C18 UNL     1     -96.275 -15.289  46.261  1.00  0.00     0.077 A 
HETATM   18  C15 UNL     1     -93.647 -14.252  45.803  1.00  0.00     0.057 A 
HETATM   19 CL1  UNL     1     -92.060 -13.616  45.452  1.00  0.00    -0.083 Cl
HETATM   20  C16 UNL     1     -94.102 -14.588  47.049  1.00  0.00     0.058 A 
HETATM   21 CL2  UNL     1     -92.974 -14.348  48.380  1.00  0.00    -0.082 Cl
HETATM   22  C17 UNL     1     -95.340 -15.083  47.307  1.00  0.00     0.058 A 
ENDBRANCH   9  11
ENDBRANCH   6   8
BRANCH   5  23
HETATM   23  O1  UNL     1     -96.611 -17.201  50.685  1.00  0.00    -0.357 OA
ATOM     24  H1  UNL     1     -95.853 -17.761  50.569  1.00  0.00     0.218 HD
ENDBRANCH   5  23
BRANCH   1  25
HETATM   25  C5  UNL     1    -101.786 -19.466  50.307  1.00  0.00     0.022 C 
HETATM   26  C4  UNL     1    -102.663 -19.171  51.479  1.00  0.00     0.039 C 
HETATM   27  C3  UNL     1    -103.810 -18.294  51.091  1.00  0.00     0.273 C 
HETATM   28  N2  UNL     1    -104.670 -18.877  50.080  1.00  0.00     0.090 N 
HETATM   29  C21 UNL     1    -103.893 -19.591  49.115  1.00  0.00     0.273 C 
HETATM   30  C20 UNL     1    -102.468 -19.030  49.023  1.00  0.00     0.039 C 
BRANCH  28  31
HETATM   31  C2  UNL     1    -105.437 -17.793  49.510  1.00  0.00     0.299 C 
BRANCH  31  32
HETATM   32  C1  UNL     1    -104.980 -16.439  49.948  1.00  0.00     0.259 C 
BRANCH  32  33
HETATM   33  N1  UNL     1    -106.034 -15.771  50.702  1.00  0.00    -0.078 N 
ATOM     34  H13 UNL     1    -106.779 -15.430  50.094  1.00  0.00     0.274 HD
ATOM     35  H12 UNL     1    -106.582 -16.430  51.256  1.00  0.00     0.274 HD
ATOM     36  H11 UNL     1    -105.638 -15.027  51.276  1.00  0.00     0.274 HD
ENDBRANCH  32  33
ENDBRANCH  31  32
ENDBRANCH  28  31
ENDBRANCH   1  25
TORSDOF 7
ENDMDL
MODEL 4
REMARK VINA RESULT: -8.719942769      4.374      5.537
REMARK  7 active torsions:
REMARK  status: ('A' for Active; 'I' for Inactive)
REMARK    1  A    between atoms: N1_1  and  C1_5 
REMARK    2  A    between atoms: C1_5  and  C2_6 
REMARK    3  A    between atoms: C2_6  and  N2_7 
REMARK    4  A    between atoms: C5_10  and  C6_11 
REMARK    5  A    between atoms: C9_15  and  O1_16 
REMARK    6  A    between atoms: C10_18  and  C11_19 
REMARK    7  A    between atoms: N3_20  and  N4_22 
ROOT
HETATM    1  C6  UNL     1    -100.207 -18.054  48.190  1.00  0.00    -0.050 A 
HETATM    2  C7  UNL     1    -100.582 -17.472  47.000  1.00  0.00     0.052 A 
HETATM    3  C8  UNL     1     -99.778 -16.549  46.391  1.00  0.00     0.150 A 
HETATM    4  F1  UNL     1    -100.130 -15.966  45.223  1.00  0.00    -0.203 F 
HETATM    5  C9  UNL     1     -98.543 -16.154  46.942  1.00  0.00     0.116 A 
HETATM    6  C10 UNL     1     -98.158 -16.727  48.125  1.00  0.00     0.018 A 
HETATM    7  C19 UNL     1     -99.016 -17.671  48.718  1.00  0.00     0.023 A 
ENDROOT
BRANCH   6   8
HETATM    8  C11 UNL     1     -96.904 -16.407  48.800  1.00  0.00     0.122 C 
HETATM    9  N3  UNL     1     -96.339 -15.305  48.883  1.00  0.00    -0.302 N 
ATOM     10  H3  UNL     1     -96.777 -14.499  48.436  1.00  0.00     0.186 HD
BRANCH   9  11
HETATM   11  N4  UNL     1     -95.096 -15.112  49.581  1.00  0.00    -0.238 N 
HETATM   12  C12 UNL     1     -93.974 -15.515  48.993  1.00  0.00     0.165 A 
HETATM   13  S1  UNL     1     -93.681 -16.228  47.558  1.00  0.00    -0.050 SA
HETATM   14  S2  UNL     1     -92.769 -15.118  50.114  1.00  0.00    -0.057 SA
HETATM   15  C13 UNL     1     -93.766 -14.432  51.327  1.00  0.00     0.038 A 
HETATM   16  C14 UNL     1     -93.526 -13.860  52.589  1.00  0.00     0.047 A 
HETATM   17  C18 UNL     1     -95.010 -14.555  50.775  1.00  0.00     0.077 A 
HETATM   18  C15 UNL     1     -94.575 -13.383  53.350  1.00  0.00     0.057 A 
HETATM   19 CL1  UNL     1     -94.237 -12.679  54.911  1.00  0.00    -0.083 Cl
HETATM   20  C16 UNL     1     -95.820 -13.507  52.796  1.00  0.00     0.058 A 
HETATM   21 CL2  UNL     1     -97.164 -12.901  53.759  1.00  0.00    -0.082 Cl
HETATM   22  C17 UNL     1     -96.067 -14.057  51.578  1.00  0.00     0.058 A 
ENDBRANCH   9  11
ENDBRANCH   6   8
BRANCH   5  23
HETATM   23  O1  UNL     1     -97.793 -15.234  46.285  1.00  0.00    -0.357 OA
ATOM     24  H1  UNL     1     -98.229 -14.536  45.812  1.00  0.00     0.218 HD
ENDBRANCH   5  23
BRANCH   1  25
HETATM   25  C5  UNL     1    -101.056 -19.062  48.883  1.00  0.00     0.022 C 
HETATM   26  C4  UNL     1    -101.209 -18.808  50.346  1.00  0.00     0.039 C 
HETATM   27  C3  UNL     1    -102.621 -18.458  50.690  1.00  0.00     0.273 C 
HETATM   28  N2  UNL     1    -103.574 -19.500  50.360  1.00  0.00     0.090 N 
HETATM   29  C21 UNL     1    -103.222 -20.124  49.123  1.00  0.00     0.273 C 
HETATM   30  C20 UNL     1    -102.421 -19.171  48.226  1.00  0.00     0.039 C 
BRANCH  28  31
HETATM   31  C2  UNL     1    -104.879 -18.879  50.337  1.00  0.00     0.299 C 
BRANCH  31  32
HETATM   32  C1  UNL     1    -104.834 -17.387  50.406  1.00  0.00     0.259 C 
BRANCH  32  33
HETATM   33  N1  UNL     1    -105.955 -16.885  51.193  1.00  0.00    -0.078 N 
ATOM     34  H13 UNL     1    -106.676 -16.468  50.606  1.00  0.00     0.274 HD
ATOM     35  H12 UNL     1    -106.508 -17.643  51.595  1.00  0.00     0.274 HD
ATOM     36  H11 UNL     1    -105.622 -16.237  51.907  1.00  0.00     0.274 HD
ENDBRANCH  32  33
ENDBRANCH  31  32
ENDBRANCH  28  31
ENDBRANCH   1  25
TORSDOF 7
ENDMDL
MODEL 5
REMARK VINA RESULT: -8.661714934      2.698      3.110
REMARK  7 active torsions:
REMARK  status: ('A' for Active; 'I' for Inactive)
REMARK    1  A    between atoms: N1_1  and  C1_5 
REMARK    2  A    between atoms: C1_5  and  C2_6 
REMARK    3  A    between atoms: C2_6  and  N2_7 
REMARK    4  A    between atoms: C5_10  and  C6_11 
REMARK    5  A    between atoms: C9_15  and  O1_16 
REMARK    6  A    between atoms: C10_18  and  C11_19 
REMARK    7  A    between atoms: N3_20  and  N4_22 
ROOT
HETATM    1  C6  UNL     1    -100.448 -19.033  51.090  1.00  0.00    -0.050 A 
HETATM    2  C7  UNL     1     -99.938 -19.390  52.318  1.00  0.00     0.052 A 
HETATM    3  C8  UNL     1     -98.672 -19.026  52.681  1.00  0.00     0.150 A 
HETATM    4  F1  UNL     1     -98.155 -19.369  53.882  1.00  0.00    -0.203 F 
HETATM    5  C9  UNL     1     -97.836 -18.276  51.830  1.00  0.00     0.116 A 
HETATM    6  C10 UNL     1     -98.332 -17.914  50.606  1.00  0.00     0.018 A 
HETATM    7  C19 UNL     1     -99.640 -18.309  50.273  1.00  0.00     0.023 A 
ENDROOT
BRANCH   6   8
HETATM    8  C11 UNL     1     -97.571 -17.136  49.632  1.00  0.00     0.122 C 
HETATM    9  N3  UNL     1     -97.230 -15.946  49.702  1.00  0.00    -0.302 N 
ATOM     10  H3  UNL     1     -97.498 -15.410  50.528  1.00  0.00     0.186 HD
BRANCH   9  11
HETATM   11  N4  UNL     1     -96.475 -15.284  48.670  1.00  0.00    -0.238 N 
HETATM   12  C12 UNL     1     -95.355 -14.656  49.014  1.00  0.00     0.165 A 
HETATM   13  S1  UNL     1     -94.601 -14.459  50.445  1.00  0.00    -0.050 SA
HETATM   14  S2  UNL     1     -94.783 -14.027  47.551  1.00  0.00    -0.057 SA
HETATM   15  C13 UNL     1     -96.027 -14.603  46.523  1.00  0.00     0.038 A 
HETATM   16  C14 UNL     1     -96.286 -14.505  45.144  1.00  0.00     0.047 A 
HETATM   17  C18 UNL     1     -96.835 -15.269  47.400  1.00  0.00     0.077 A 
HETATM   18  C15 UNL     1     -97.409 -15.098  44.602  1.00  0.00     0.057 A 
HETATM   19 CL1  UNL     1     -97.697 -14.954  42.886  1.00  0.00    -0.083 Cl
HETATM   20  C16 UNL     1     -98.217 -15.764  45.482  1.00  0.00     0.058 A 
HETATM   21 CL2  UNL     1     -99.652 -16.524  44.799  1.00  0.00    -0.082 Cl
HETATM   22  C17 UNL     1     -97.980 -15.867  46.815  1.00  0.00     0.058 A 
ENDBRANCH   9  11
ENDBRANCH   6   8
BRANCH   5  23
HETATM   23  O1  UNL     1     -96.590 -17.948  52.253  1.00  0.00    -0.357 OA
ATOM     24  H1  UNL     1     -96.003 -17.500  51.655  1.00  0.00     0.218 HD
ENDBRANCH   5  23
BRANCH   1  25
HETATM   25  C5  UNL     1    -101.822 -19.411  50.660  1.00  0.00     0.022 C 
HETATM   26  C4  UNL     1    -102.891 -18.905  51.572  1.00  0.00     0.039 C 
HETATM   27  C3  UNL     1    -103.748 -17.887  50.890  1.00  0.00     0.273 C 
HETATM   28  N2  UNL     1    -104.426 -18.393  49.713  1.00  0.00     0.090 N 
HETATM   29  C21 UNL     1    -103.572 -19.281  48.988  1.00  0.00     0.273 C 
HETATM   30  C20 UNL     1    -102.093 -18.958  49.237  1.00  0.00     0.039 C 
BRANCH  28  31
HETATM   31  C2  UNL     1    -104.841 -17.242  48.944  1.00  0.00     0.299 C 
BRANCH  31  32
HETATM   32  C1  UNL     1    -104.657 -15.944  49.661  1.00  0.00     0.259 C 
BRANCH  32  33
HETATM   33  N1  UNL     1    -105.952 -15.383  50.029  1.00  0.00    -0.078 N 
ATOM     34  H13 UNL     1    -106.490 -15.099  49.210  1.00  0.00     0.274 HD
ATOM     35  H12 UNL     1    -106.588 -16.096  50.386  1.00  0.00     0.274 HD
ATOM     36  H11 UNL     1    -105.828 -14.616  50.689  1.00  0.00     0.274 HD
ENDBRANCH  32  33
ENDBRANCH  31  32
ENDBRANCH  28  31
ENDBRANCH   1  25
TORSDOF 7
ENDMDL
