MODEL 1
REMARK VINA RESULT: -7.756466363      0.000      0.000
REMARK  6 active torsions:
REMARK  status: ('A' for Active; 'I' for Inactive)
REMARK    1  A    between atoms: C2_2  and  O1_3 
REMARK    2  A    between atoms: O1_3  and  C3_4 
REMARK    3  A    between atoms: C3_4  and  C4_6 
REMARK    4  A    between atoms: C5_7  and  C6_8 
REMARK    5  A    between atoms: C6_8  and  C7_10 
REMARK    6  A    between atoms: N1_15  and  C11_16 
ROOT
HETATM    1  C4  UNL     1     -98.429 -17.170  47.605  1.00  0.00     0.085 A 
HETATM    2  C5  UNL     1     -97.200 -16.739  47.965  1.00  0.00     0.111 A 
HETATM    3  N1  UNL     1     -96.943 -16.990  49.294  1.00  0.00    -0.294 N 
HETATM    4  C17 UNL     1     -98.049 -17.596  49.772  1.00  0.00     0.078 A 
HETATM    5  C18 UNL     1     -98.441 -18.092  50.991  1.00  0.00     0.088 A 
HETATM    6 CL1  UNL     1     -97.380 -17.986  52.351  1.00  0.00    -0.080 Cl
HETATM    7  C19 UNL     1     -99.670 -18.675  51.203  1.00  0.00     0.093 A 
HETATM    8  N3  UNL     1    -100.016 -19.173  52.503  1.00  0.00    -0.099 NA
HETATM    9  C20 UNL     1    -100.578 -18.782  50.155  1.00  0.00     0.082 A 
HETATM   10 CL2  UNL     1    -102.117 -19.527  50.473  1.00  0.00    -0.080 Cl
HETATM   11  C21 UNL     1    -100.217 -18.295  48.921  1.00  0.00     0.071 A 
HETATM   12 CL3  UNL     1    -101.380 -18.445  47.628  1.00  0.00    -0.081 Cl
HETATM   13  C22 UNL     1     -98.981 -17.713  48.725  1.00  0.00     0.035 A 
ENDROOT
BRANCH   3  14
HETATM   14  C11 UNL     1     -95.762 -16.691  50.017  1.00  0.00     0.088 C 
HETATM   15  N2  UNL     1     -94.633 -17.587  49.841  1.00  0.00    -0.379 N 
HETATM   16  C12 UNL     1     -93.791 -17.454  51.009  1.00  0.00     0.121 C 
ATOM     17  H2  UNL     1     -94.465 -18.198  49.041  1.00  0.00     0.160 HD
HETATM   18  C13 UNL     1     -93.131 -16.121  50.950  1.00  0.00     0.020 C 
HETATM   19  C14 UNL     1     -94.022 -14.970  50.701  1.00  0.00     0.013 C 
HETATM   20  C15 UNL     1     -95.439 -15.268  50.319  1.00  0.00     0.050 C 
HETATM   21  C16 UNL     1     -96.255 -14.729  51.527  1.00  0.00     0.018 C 
ENDBRANCH   3  14
BRANCH   2  22
HETATM   22  C6  UNL     1     -96.275 -16.105  47.079  1.00  0.00     0.233 C 
HETATM   23  O3  UNL     1     -96.250 -14.867  46.884  1.00  0.00    -0.283 OA
BRANCH  22  24
HETATM   24  C7  UNL     1     -95.286 -16.909  46.343  1.00  0.00     0.127 A 
HETATM   25  C8  UNL     1     -95.316 -17.354  45.064  1.00  0.00     0.043 A 
HETATM   26  C9  UNL     1     -94.165 -18.058  44.834  1.00  0.00     0.027 A 
HETATM   27  C10 UNL     1     -93.450 -18.020  46.012  1.00  0.00     0.142 A 
HETATM   28  O4  UNL     1     -94.148 -17.336  46.861  1.00  0.00    -0.319 OA
ENDBRANCH  22  24
ENDBRANCH   2  22
BRANCH   1  29
HETATM   29  C3  UNL     1     -99.107 -17.098  46.323  1.00  0.00     0.296 C 
HETATM   30  O2  UNL     1     -99.184 -18.131  45.562  1.00  0.00    -0.259 OA
BRANCH  29  31
HETATM   31  O1  UNL     1     -99.717 -15.977  45.788  1.00  0.00    -0.318 OA
BRANCH  31  32
HETATM   32  C2  UNL     1     -99.830 -15.747  44.395  1.00  0.00     0.174 C 
HETATM   33  C1  UNL     1     -98.548 -15.308  43.766  1.00  0.00     0.034 C 
ENDBRANCH  31  32
ENDBRANCH  29  31
ENDBRANCH   1  29
TORSDOF 6
ENDMDL
MODEL 2
REMARK VINA RESULT: -7.593971038      2.587      5.385
REMARK  6 active torsions:
REMARK  status: ('A' for Active; 'I' for Inactive)
REMARK    1  A    between atoms: C2_2  and  O1_3 
REMARK    2  A    between atoms: O1_3  and  C3_4 
REMARK    3  A    between atoms: C3_4  and  C4_6 
REMARK    4  A    between atoms: C5_7  and  C6_8 
REMARK    5  A    between atoms: C6_8  and  C7_10 
REMARK    6  A    between atoms: N1_15  and  C11_16 
ROOT
HETATM    1  C4  UNL     1     -97.384 -17.616  50.866  1.00  0.00     0.085 A 
HETATM    2  C5  UNL     1     -96.641 -17.030  49.901  1.00  0.00     0.111 A 
HETATM    3  N1  UNL     1     -97.310 -16.994  48.698  1.00  0.00    -0.294 N 
HETATM    4  C17 UNL     1     -98.504 -17.576  48.926  1.00  0.00     0.078 A 
HETATM    5  C18 UNL     1     -99.614 -17.857  48.168  1.00  0.00     0.088 A 
HETATM    6 CL1  UNL     1     -99.648 -17.437  46.492  1.00  0.00    -0.080 Cl
HETATM    7  C19 UNL     1    -100.730 -18.484  48.676  1.00  0.00     0.093 A 
HETATM    8  N3  UNL     1    -101.856 -18.748  47.827  1.00  0.00    -0.099 NA
HETATM    9  C20 UNL     1    -100.766 -18.862  50.013  1.00  0.00     0.082 A 
HETATM   10 CL2  UNL     1    -102.198 -19.650  50.607  1.00  0.00    -0.080 Cl
HETATM   11  C21 UNL     1     -99.671 -18.595  50.800  1.00  0.00     0.071 A 
HETATM   12 CL3  UNL     1     -99.749 -19.082  52.475  1.00  0.00    -0.081 Cl
HETATM   13  C22 UNL     1     -98.560 -17.966  50.276  1.00  0.00     0.035 A 
ENDROOT
BRANCH   3  14
HETATM   14  C11 UNL     1     -96.853 -16.450  47.472  1.00  0.00     0.088 C 
HETATM   15  N2  UNL     1     -96.356 -17.385  46.477  1.00  0.00    -0.379 N 
HETATM   16  C12 UNL     1     -95.471 -16.651  45.600  1.00  0.00     0.121 C 
ATOM     17  H2  UNL     1     -96.589 -18.376  46.410  1.00  0.00     0.160 HD
HETATM   18  C13 UNL     1     -96.302 -15.738  44.769  1.00  0.00     0.020 C 
HETATM   19  C14 UNL     1     -97.272 -14.900  45.503  1.00  0.00     0.013 C 
HETATM   20  C15 UNL     1     -97.480 -15.202  46.954  1.00  0.00     0.050 C 
HETATM   21  C16 UNL     1     -96.928 -13.934  47.664  1.00  0.00     0.018 C 
ENDBRANCH   3  14
BRANCH   2  22
HETATM   22  C6  UNL     1     -95.327 -16.507  50.099  1.00  0.00     0.233 C 
HETATM   23  O3  UNL     1     -94.288 -17.199  49.986  1.00  0.00    -0.283 OA
BRANCH  22  24
HETATM   24  C7  UNL     1     -95.140 -15.090  50.453  1.00  0.00     0.127 A 
HETATM   25  C8  UNL     1     -95.921 -14.278  51.205  1.00  0.00     0.043 A 
HETATM   26  C9  UNL     1     -95.328 -13.046  51.252  1.00  0.00     0.027 A 
HETATM   27  C10 UNL     1     -94.172 -13.148  50.508  1.00  0.00     0.142 A 
HETATM   28  O4  UNL     1     -94.108 -14.361  50.064  1.00  0.00    -0.319 OA
ENDBRANCH  22  24
ENDBRANCH   2  22
BRANCH   1  29
HETATM   29  C3  UNL     1     -97.070 -17.872  52.260  1.00  0.00     0.296 C 
HETATM   30  O2  UNL     1     -96.529 -18.982  52.618  1.00  0.00    -0.259 OA
BRANCH  29  31
HETATM   31  O1  UNL     1     -97.302 -17.009  53.317  1.00  0.00    -0.318 OA
BRANCH  31  32
HETATM   32  C2  UNL     1     -96.267 -16.473  54.120  1.00  0.00     0.174 C 
HETATM   33  C1  UNL     1     -96.659 -15.214  54.824  1.00  0.00     0.034 C 
ENDBRANCH  31  32
ENDBRANCH  29  31
ENDBRANCH   1  29
TORSDOF 6
ENDMDL
MODEL 3
REMARK VINA RESULT: -7.527500726      2.928      6.628
REMARK  6 active torsions:
REMARK  status: ('A' for Active; 'I' for Inactive)
REMARK    1  A    between atoms: C2_2  and  O1_3 
REMARK    2  A    between atoms: O1_3  and  C3_4 
REMARK    3  A    between atoms: C3_4  and  C4_6 
REMARK    4  A    between atoms: C5_7  and  C6_8 
REMARK    5  A    between atoms: C6_8  and  C7_10 
REMARK    6  A    between atoms: N1_15  and  C11_16 
ROOT
HETATM    1  C4  UNL     1     -98.426 -17.655  49.671  1.00  0.00     0.085 A 
HETATM    2  C5  UNL     1     -98.817 -17.626  48.378  1.00  0.00     0.111 A 
HETATM    3  N1  UNL     1     -98.185 -16.623  47.679  1.00  0.00    -0.294 N 
HETATM    4  C17 UNL     1     -97.377 -16.010  48.567  1.00  0.00     0.078 A 
HETATM    5  C18 UNL     1     -96.497 -14.957  48.524  1.00  0.00     0.088 A 
HETATM    6 CL1  UNL     1     -96.256 -14.090  47.048  1.00  0.00    -0.080 Cl
HETATM    7  C19 UNL     1     -95.784 -14.530  49.621  1.00  0.00     0.093 A 
HETATM    8  N3  UNL     1     -94.881 -13.421  49.505  1.00  0.00    -0.099 NA
HETATM    9  C20 UNL     1     -95.939 -15.173  50.844  1.00  0.00     0.082 A 
HETATM   10 CL2  UNL     1     -95.015 -14.597  52.200  1.00  0.00    -0.080 Cl
HETATM   11  C21 UNL     1     -96.812 -16.232  50.923  1.00  0.00     0.071 A 
HETATM   12 CL3  UNL     1     -96.983 -17.018  52.472  1.00  0.00    -0.081 Cl
HETATM   13  C22 UNL     1     -97.520 -16.648  49.813  1.00  0.00     0.035 A 
ENDROOT
BRANCH   3  14
HETATM   14  C11 UNL     1     -98.335 -16.299  46.307  1.00  0.00     0.088 C 
HETATM   15  N2  UNL     1     -99.563 -15.630  45.916  1.00  0.00    -0.379 N 
HETATM   16  C12 UNL     1     -99.763 -15.887  44.507  1.00  0.00     0.121 C 
ATOM     17  H2  UNL     1    -100.172 -15.080  46.522  1.00  0.00     0.160 HD
HETATM   18  C13 UNL     1     -98.742 -15.112  43.749  1.00  0.00     0.020 C 
HETATM   19  C14 UNL     1     -97.347 -15.262  44.209  1.00  0.00     0.013 C 
HETATM   20  C15 UNL     1     -97.122 -15.986  45.500  1.00  0.00     0.050 C 
HETATM   21  C16 UNL     1     -96.366 -17.271  45.062  1.00  0.00     0.018 C 
ENDBRANCH   3  14
BRANCH   2  22
HETATM   22  C6  UNL     1     -99.764 -18.526  47.801  1.00  0.00     0.233 C 
HETATM   23  O3  UNL     1     -99.435 -19.523  47.114  1.00  0.00    -0.283 OA
BRANCH  22  24
HETATM   24  C7  UNL     1    -101.207 -18.310  47.998  1.00  0.00     0.127 A 
HETATM   25  C8  UNL     1    -102.062 -18.922  48.851  1.00  0.00     0.043 A 
HETATM   26  C9  UNL     1    -103.304 -18.376  48.669  1.00  0.00     0.027 A 
HETATM   27  C10 UNL     1    -103.163 -17.422  47.685  1.00  0.00     0.142 A 
HETATM   28  O4  UNL     1    -101.919 -17.422  47.327  1.00  0.00    -0.319 OA
ENDBRANCH  22  24
ENDBRANCH   2  22
BRANCH   1  29
HETATM   29  C3  UNL     1     -98.841 -18.528  50.754  1.00  0.00     0.296 C 
HETATM   30  O2  UNL     1     -98.218 -19.629  50.986  1.00  0.00    -0.259 OA
BRANCH  29  31
HETATM   31  O1  UNL     1     -99.896 -18.303  51.620  1.00  0.00    -0.318 OA
BRANCH  31  32
HETATM   32  C2  UNL     1    -100.513 -19.332  52.373  1.00  0.00     0.174 C 
HETATM   33  C1  UNL     1    -101.990 -19.155  52.512  1.00  0.00     0.034 C 
ENDBRANCH  31  32
ENDBRANCH  29  31
ENDBRANCH   1  29
TORSDOF 6
ENDMDL
MODEL 4
REMARK VINA RESULT: -7.171711421      1.893      2.283
REMARK  6 active torsions:
REMARK  status: ('A' for Active; 'I' for Inactive)
REMARK    1  A    between atoms: C2_2  and  O1_3 
REMARK    2  A    between atoms: O1_3  and  C3_4 
REMARK    3  A    between atoms: C3_4  and  C4_6 
REMARK    4  A    between atoms: C5_7  and  C6_8 
REMARK    5  A    between atoms: C6_8  and  C7_10 
REMARK    6  A    between atoms: N1_15  and  C11_16 
ROOT
HETATM    1  C4  UNL     1     -97.329 -16.181  47.716  1.00  0.00     0.085 A 
HETATM    2  C5  UNL     1     -96.229 -15.400  47.791  1.00  0.00     0.111 A 
HETATM    3  N1  UNL     1     -95.667 -15.433  49.047  1.00  0.00    -0.294 N 
HETATM    4  C17 UNL     1     -96.444 -16.262  49.773  1.00  0.00     0.078 A 
HETATM    5  C18 UNL     1     -96.443 -16.717  51.069  1.00  0.00     0.088 A 
HETATM    6 CL1  UNL     1     -95.221 -16.188  52.172  1.00  0.00    -0.080 Cl
HETATM    7  C19 UNL     1     -97.392 -17.585  51.559  1.00  0.00     0.093 A 
HETATM    8  N3  UNL     1     -97.332 -18.020  52.925  1.00  0.00    -0.099 NA
HETATM    9  C20 UNL     1     -98.411 -18.041  50.731  1.00  0.00     0.082 A 
HETATM   10 CL2  UNL     1     -99.585 -19.137  51.398  1.00  0.00    -0.080 Cl
HETATM   11  C21 UNL     1     -98.442 -17.605  49.428  1.00  0.00     0.071 A 
HETATM   12 CL3  UNL     1     -99.735 -18.196  48.414  1.00  0.00    -0.081 Cl
HETATM   13  C22 UNL     1     -97.483 -16.734  48.951  1.00  0.00     0.035 A 
ENDROOT
BRANCH   3  14
HETATM   14  C11 UNL     1     -94.507 -14.753  49.493  1.00  0.00     0.088 C 
HETATM   15  N2  UNL     1     -93.223 -15.328  49.132  1.00  0.00    -0.379 N 
HETATM   16  C12 UNL     1     -92.252 -14.850  50.092  1.00  0.00     0.121 C 
ATOM     17  H2  UNL     1     -93.039 -15.953  48.347  1.00  0.00     0.160 HD
HETATM   18  C13 UNL     1     -92.020 -13.403  49.829  1.00  0.00     0.020 C 
HETATM   19  C14 UNL     1     -93.231 -12.566  49.712  1.00  0.00     0.013 C 
HETATM   20  C15 UNL     1     -94.550 -13.272  49.648  1.00  0.00     0.050 C 
HETATM   21  C16 UNL     1     -95.248 -12.844  50.970  1.00  0.00     0.018 C 
ENDBRANCH   3  14
BRANCH   2  22
HETATM   22  C6  UNL     1     -95.706 -14.635  46.703  1.00  0.00     0.233 C 
HETATM   23  O3  UNL     1     -96.088 -13.471  46.435  1.00  0.00    -0.283 OA
BRANCH  22  24
HETATM   24  C7  UNL     1     -94.666 -15.204  45.831  1.00  0.00     0.127 A 
HETATM   25  C8  UNL     1     -94.794 -15.887  44.669  1.00  0.00     0.043 A 
HETATM   26  C9  UNL     1     -93.538 -16.207  44.226  1.00  0.00     0.027 A 
HETATM   27  C10 UNL     1     -92.661 -15.694  45.157  1.00  0.00     0.142 A 
HETATM   28  O4  UNL     1     -93.370 -15.118  46.074  1.00  0.00    -0.319 OA
ENDBRANCH  22  24
ENDBRANCH   2  22
BRANCH   1  29
HETATM   29  C3  UNL     1     -98.227 -16.428  46.602  1.00  0.00     0.296 C 
HETATM   30  O2  UNL     1     -97.949 -17.320  45.720  1.00  0.00    -0.259 OA
BRANCH  29  31
HETATM   31  O1  UNL     1     -99.421 -15.772  46.360  1.00  0.00    -0.318 OA
BRANCH  31  32
HETATM   32  C2  UNL     1    -100.379 -16.229  45.423  1.00  0.00     0.174 C 
HETATM   33  C1  UNL     1    -101.702 -16.547  46.041  1.00  0.00     0.034 C 
ENDBRANCH  31  32
ENDBRANCH  29  31
ENDBRANCH   1  29
TORSDOF 6
ENDMDL
MODEL 5
REMARK VINA RESULT: -7.164087063      2.414      5.452
REMARK  6 active torsions:
REMARK  status: ('A' for Active; 'I' for Inactive)
REMARK    1  A    between atoms: C2_2  and  O1_3 
REMARK    2  A    between atoms: O1_3  and  C3_4 
REMARK    3  A    between atoms: C3_4  and  C4_6 
REMARK    4  A    between atoms: C5_7  and  C6_8 
REMARK    5  A    between atoms: C6_8  and  C7_10 
REMARK    6  A    between atoms: N1_15  and  C11_16 
ROOT
HETATM    1  C4  UNL     1     -96.221 -14.970  49.482  1.00  0.00     0.085 A 
HETATM    2  C5  UNL     1     -96.602 -14.886  48.188  1.00  0.00     0.111 A 
HETATM    3  N1  UNL     1     -97.492 -15.883  47.855  1.00  0.00    -0.294 N 
HETATM    4  C17 UNL     1     -97.667 -16.607  48.979  1.00  0.00     0.078 A 
HETATM    5  C18 UNL     1     -98.404 -17.713  49.323  1.00  0.00     0.088 A 
HETATM    6 CL1  UNL     1     -99.395 -18.495  48.143  1.00  0.00    -0.080 Cl
HETATM    7  C19 UNL     1     -98.390 -18.260  50.587  1.00  0.00     0.093 A 
HETATM    8  N3  UNL     1     -99.184 -19.418  50.878  1.00  0.00    -0.099 NA
HETATM    9  C20 UNL     1     -97.604 -17.690  51.582  1.00  0.00     0.082 A 
HETATM   10 CL2  UNL     1     -97.622 -18.417  53.161  1.00  0.00    -0.080 Cl
HETATM   11  C21 UNL     1     -96.854 -16.581  51.271  1.00  0.00     0.071 A 
HETATM   12 CL3  UNL     1     -95.879 -15.889  52.544  1.00  0.00    -0.081 Cl
HETATM   13  C22 UNL     1     -96.879 -16.044  49.999  1.00  0.00     0.035 A 
ENDROOT
BRANCH   3  14
HETATM   14  C11 UNL     1     -98.110 -16.104  46.600  1.00  0.00     0.088 C 
HETATM   15  N2  UNL     1     -99.513 -15.747  46.481  1.00  0.00    -0.379 N 
HETATM   16  C12 UNL     1    -100.065 -16.524  45.394  1.00  0.00     0.121 C 
ATOM     17  H2  UNL     1    -100.016 -15.073  47.059  1.00  0.00     0.160 HD
HETATM   18  C13 UNL     1     -99.508 -15.992  44.120  1.00  0.00     0.020 C 
HETATM   19  C14 UNL     1     -98.041 -15.828  44.075  1.00  0.00     0.013 C 
HETATM   20  C15 UNL     1     -97.291 -15.999  45.360  1.00  0.00     0.050 C 
HETATM   21  C16 UNL     1     -96.443 -17.276  45.111  1.00  0.00     0.018 C 
ENDBRANCH   3  14
BRANCH   2  22
HETATM   22  C6  UNL     1     -96.145 -13.887  47.275  1.00  0.00     0.233 C 
HETATM   23  O3  UNL     1     -96.865 -12.941  46.877  1.00  0.00    -0.283 OA
BRANCH  22  24
HETATM   24  C7  UNL     1     -94.769 -13.933  46.754  1.00  0.00     0.127 A 
HETATM   25  C8  UNL     1     -93.883 -14.956  46.747  1.00  0.00     0.043 A 
HETATM   26  C9  UNL     1     -92.733 -14.516  46.149  1.00  0.00     0.027 A 
HETATM   27  C10 UNL     1     -92.961 -13.203  45.800  1.00  0.00     0.142 A 
HETATM   28  O4  UNL     1     -94.165 -12.910  46.174  1.00  0.00    -0.319 OA
ENDBRANCH  22  24
ENDBRANCH   2  22
BRANCH   1  29
HETATM   29  C3  UNL     1     -95.299 -14.143  50.241  1.00  0.00     0.296 C 
HETATM   30  O2  UNL     1     -95.722 -13.124  50.899  1.00  0.00    -0.259 OA
BRANCH  29  31
HETATM   31  O1  UNL     1     -93.933 -14.335  50.343  1.00  0.00    -0.318 OA
BRANCH  31  32
HETATM   32  C2  UNL     1     -93.024 -13.286  50.628  1.00  0.00     0.174 C 
HETATM   33  C1  UNL     1     -92.651 -12.487  49.422  1.00  0.00     0.034 C 
ENDBRANCH  31  32
ENDBRANCH  29  31
ENDBRANCH   1  29
TORSDOF 6
ENDMDL
