MODEL 1
REMARK VINA RESULT: -7.516491184      0.000      0.000
REMARK  8 active torsions:
REMARK  status: ('A' for Active; 'I' for Inactive)
REMARK    1  A    between atoms: C2_2  and  O1_3 
REMARK    2  A    between atoms: O1_3  and  C3_4 
REMARK    3  A    between atoms: C3_4  and  C4_6 
REMARK    4  A    between atoms: C9_13  and  O4_14 
REMARK    5  A    between atoms: C10_16  and  O5_17 
REMARK    6  A    between atoms: C12_19  and  O6_20 
REMARK    7  A    between atoms: C16_24  and  C17_25 
REMARK    8  A    between atoms: C22_32  and  O7_33 
ROOT
HETATM    1  C4  UNL     1      -2.020   5.416 111.366  1.00  0.00     0.069 C 
HETATM    2  C5  UNL     1      -0.753   5.679 111.170  1.00  0.00     0.161 C 
HETATM    3  O3  UNL     1      -0.104   6.663 110.406  1.00  0.00    -0.318 OA
HETATM    4  C6  UNL     1      -0.449   8.040 110.354  1.00  0.00     0.119 A 
HETATM    5  C7  UNL     1      -1.569   8.753 110.739  1.00  0.00     0.004 A 
HETATM    6  C8  UNL     1      -1.613  10.099 110.551  1.00  0.00     0.079 A 
HETATM    7 CL1  UNL     1      -3.050  10.966 111.052  1.00  0.00    -0.081 Cl
HETATM    8  C9  UNL     1      -0.524  10.717 109.978  1.00  0.00     0.124 A 
HETATM    9  C10 UNL     1       0.607   9.987 109.593  1.00  0.00     0.139 A 
HETATM   10  C12 UNL     1       0.660   8.604 109.781  1.00  0.00     0.139 A 
HETATM   11  C14 UNL     1      -2.830   8.330 111.438  1.00  0.00     0.048 C 
HETATM   12  C15 UNL     1      -3.533   7.317 110.625  1.00  0.00     0.045 C 
HETATM   13  C16 UNL     1      -3.334   5.876 111.004  1.00  0.00    -0.027 C 
ENDROOT
BRANCH  13  14
HETATM   14  C17 UNL     1      -4.260   5.013 110.298  1.00  0.00     0.008 A 
HETATM   15  C18 UNL     1      -3.826   4.410 109.097  1.00  0.00     0.038 A 
HETATM   16  C19 UNL     1      -4.672   3.752 108.253  1.00  0.00     0.036 A 
HETATM   17 CL2  UNL     1      -4.034   3.049 106.766  1.00  0.00    -0.084 Cl
HETATM   18  C20 UNL     1      -6.004   3.633 108.515  1.00  0.00     0.050 A 
HETATM   19  C21 UNL     1      -6.478   4.207 109.686  1.00  0.00     0.069 A 
HETATM   20 CL3  UNL     1      -8.177   4.079 110.056  1.00  0.00    -0.081 Cl
HETATM   21  C22 UNL     1      -5.609   4.875 110.548  1.00  0.00     0.098 A 
BRANCH  21  22
HETATM   22  O7  UNL     1      -6.194   5.396 111.702  1.00  0.00    -0.358 OA
ATOM     23  H7  UNL     1      -6.757   6.159 111.672  1.00  0.00     0.217 HD
ENDBRANCH  21  22
ENDBRANCH  13  14
BRANCH   1  24
HETATM   24  C3  UNL     1      -2.097   4.252 112.298  1.00  0.00     0.295 C 
HETATM   25  O2  UNL     1      -2.836   4.255 113.317  1.00  0.00    -0.259 OA
BRANCH  24  26
HETATM   26  O1  UNL     1      -1.340   3.118 112.053  1.00  0.00    -0.318 OA
BRANCH  26  27
HETATM   27  C2  UNL     1      -1.799   2.044 111.302  1.00  0.00     0.174 C 
HETATM   28  C1  UNL     1      -1.138   2.065 109.948  1.00  0.00     0.034 C 
ENDBRANCH  26  27
ENDBRANCH  24  26
ENDBRANCH   1  24
BRANCH  10  29
HETATM   29  O6  UNL     1       1.750   7.874 109.424  1.00  0.00    -0.351 OA
HETATM   30  C13 UNL     1       2.192   7.403 108.210  1.00  0.00     0.210 C 
ENDBRANCH  10  29
BRANCH   8  31
HETATM   31  O4  UNL     1      -0.548  12.094 109.779  1.00  0.00    -0.356 OA
ATOM     32  H4  UNL     1       0.265  12.584 109.818  1.00  0.00     0.218 HD
ENDBRANCH   8  31
BRANCH   9  33
HETATM   33  O5  UNL     1       1.682  10.646 109.018  1.00  0.00    -0.351 OA
HETATM   34  C11 UNL     1       1.798  10.988 107.656  1.00  0.00     0.210 C 
ENDBRANCH   9  33
TORSDOF 8
ENDMDL
MODEL 2
REMARK VINA RESULT: -7.423978863      0.882      1.098
REMARK  8 active torsions:
REMARK  status: ('A' for Active; 'I' for Inactive)
REMARK    1  A    between atoms: C2_2  and  O1_3 
REMARK    2  A    between atoms: O1_3  and  C3_4 
REMARK    3  A    between atoms: C3_4  and  C4_6 
REMARK    4  A    between atoms: C9_13  and  O4_14 
REMARK    5  A    between atoms: C10_16  and  O5_17 
REMARK    6  A    between atoms: C12_19  and  O6_20 
REMARK    7  A    between atoms: C16_24  and  C17_25 
REMARK    8  A    between atoms: C22_32  and  O7_33 
ROOT
HETATM    1  C4  UNL     1      -1.717   5.586 111.298  1.00  0.00     0.069 C 
HETATM    2  C5  UNL     1      -0.483   5.918 111.019  1.00  0.00     0.161 C 
HETATM    3  O3  UNL     1       0.058   6.946 110.228  1.00  0.00    -0.318 OA
HETATM    4  C6  UNL     1      -0.361   8.304 110.224  1.00  0.00     0.119 A 
HETATM    5  C7  UNL     1      -1.487   8.951 110.699  1.00  0.00     0.004 A 
HETATM    6  C8  UNL     1      -1.615  10.295 110.537  1.00  0.00     0.079 A 
HETATM    7 CL1  UNL     1      -3.056  11.076 111.151  1.00  0.00    -0.081 Cl
HETATM    8  C9  UNL     1      -0.604  10.977 109.900  1.00  0.00     0.124 A 
HETATM    9  C10 UNL     1       0.534  10.314 109.424  1.00  0.00     0.139 A 
HETATM   10  C12 UNL     1       0.673   8.934 109.584  1.00  0.00     0.139 A 
HETATM   11  C14 UNL     1      -2.672   8.451 111.476  1.00  0.00     0.048 C 
HETATM   12  C15 UNL     1      -3.377   7.413 110.697  1.00  0.00     0.045 C 
HETATM   13  C16 UNL     1      -3.076   5.979 111.037  1.00  0.00    -0.027 C 
ENDROOT
BRANCH  13  14
HETATM   14  C17 UNL     1      -4.003   5.077 110.383  1.00  0.00     0.008 A 
HETATM   15  C18 UNL     1      -3.575   4.417 109.211  1.00  0.00     0.038 A 
HETATM   16  C19 UNL     1      -4.424   3.712 108.408  1.00  0.00     0.036 A 
HETATM   17 CL2  UNL     1      -3.794   2.939 106.953  1.00  0.00    -0.084 Cl
HETATM   18  C20 UNL     1      -5.754   3.601 108.686  1.00  0.00     0.050 A 
HETATM   19  C21 UNL     1      -6.222   4.232 109.830  1.00  0.00     0.069 A 
HETATM   20 CL3  UNL     1      -7.917   4.114 110.219  1.00  0.00    -0.081 Cl
HETATM   21  C22 UNL     1      -5.349   4.947 110.650  1.00  0.00     0.098 A 
BRANCH  21  22
HETATM   22  O7  UNL     1      -5.928   5.522 111.781  1.00  0.00    -0.358 OA
ATOM     23  H7  UNL     1      -5.807   5.149 112.645  1.00  0.00     0.217 HD
ENDBRANCH  21  22
ENDBRANCH  13  14
BRANCH   1  24
HETATM   24  C3  UNL     1      -1.668   4.407 112.214  1.00  0.00     0.295 C 
HETATM   25  O2  UNL     1      -0.672   3.640 112.271  1.00  0.00    -0.259 OA
BRANCH  24  26
HETATM   26  O1  UNL     1      -2.744   4.130 113.042  1.00  0.00    -0.318 OA
BRANCH  26  27
HETATM   27  C2  UNL     1      -3.035   2.855 113.509  1.00  0.00     0.174 C 
HETATM   28  C1  UNL     1      -3.874   2.130 112.488  1.00  0.00     0.034 C 
ENDBRANCH  26  27
ENDBRANCH  24  26
ENDBRANCH   1  24
BRANCH  10  29
HETATM   29  O6  UNL     1       1.772   8.267 109.140  1.00  0.00    -0.351 OA
HETATM   30  C13 UNL     1       2.209   7.942 107.877  1.00  0.00     0.210 C 
ENDBRANCH  10  29
BRANCH   8  31
HETATM   31  O4  UNL     1      -0.713  12.354 109.726  1.00  0.00    -0.356 OA
ATOM     32  H4  UNL     1      -1.538  12.722 109.431  1.00  0.00     0.218 HD
ENDBRANCH   8  31
BRANCH   9  33
HETATM   33  O5  UNL     1       1.530  11.037 108.786  1.00  0.00    -0.351 OA
HETATM   34  C11 UNL     1       2.576  11.728 109.428  1.00  0.00     0.210 C 
ENDBRANCH   9  33
TORSDOF 8
ENDMDL
MODEL 3
REMARK VINA RESULT: -7.313196752      1.321      1.420
REMARK  8 active torsions:
REMARK  status: ('A' for Active; 'I' for Inactive)
REMARK    1  A    between atoms: C2_2  and  O1_3 
REMARK    2  A    between atoms: O1_3  and  C3_4 
REMARK    3  A    between atoms: C3_4  and  C4_6 
REMARK    4  A    between atoms: C9_13  and  O4_14 
REMARK    5  A    between atoms: C10_16  and  O5_17 
REMARK    6  A    between atoms: C12_19  and  O6_20 
REMARK    7  A    between atoms: C16_24  and  C17_25 
REMARK    8  A    between atoms: C22_32  and  O7_33 
ROOT
HETATM    1  C4  UNL     1      -1.647   4.420 110.988  1.00  0.00     0.069 C 
HETATM    2  C5  UNL     1      -0.456   4.952 110.894  1.00  0.00     0.161 C 
HETATM    3  O3  UNL     1      -0.003   6.143 110.301  1.00  0.00    -0.318 OA
HETATM    4  C6  UNL     1      -0.618   7.418 110.416  1.00  0.00     0.119 A 
HETATM    5  C7  UNL     1      -1.868   7.835 110.836  1.00  0.00     0.004 A 
HETATM    6  C8  UNL     1      -2.180   9.158 110.826  1.00  0.00     0.079 A 
HETATM    7 CL1  UNL     1      -3.774   9.644 111.365  1.00  0.00    -0.081 Cl
HETATM    8  C9  UNL     1      -1.227  10.053 110.396  1.00  0.00     0.124 A 
HETATM    9  C10 UNL     1       0.038   9.623 109.974  1.00  0.00     0.139 A 
HETATM   10  C12 UNL     1       0.366   8.265 109.980  1.00  0.00     0.139 A 
HETATM   11  C14 UNL     1      -3.032   7.076 111.407  1.00  0.00     0.048 C 
HETATM   12  C15 UNL     1      -3.498   6.069 110.432  1.00  0.00     0.045 C 
HETATM   13  C16 UNL     1      -3.019   4.657 110.625  1.00  0.00    -0.027 C 
ENDROOT
BRANCH  13  14
HETATM   14  C17 UNL     1      -3.734   3.735 109.765  1.00  0.00     0.008 A 
HETATM   15  C18 UNL     1      -3.291   3.587 108.433  1.00  0.00     0.038 A 
HETATM   16  C19 UNL     1      -4.006   2.911 107.488  1.00  0.00     0.036 A 
HETATM   17 CL2  UNL     1      -3.374   2.798 105.844  1.00  0.00    -0.084 Cl
HETATM   18  C20 UNL     1      -5.207   2.331 107.769  1.00  0.00     0.050 A 
HETATM   19  C21 UNL     1      -5.684   2.448 109.067  1.00  0.00     0.069 A 
HETATM   20 CL3  UNL     1      -7.217   1.722 109.466  1.00  0.00    -0.081 Cl
HETATM   21  C22 UNL     1      -4.947   3.136 110.031  1.00  0.00     0.098 A 
BRANCH  21  22
HETATM   22  O7  UNL     1      -5.516   3.174 111.303  1.00  0.00    -0.358 OA
ATOM     23  H7  UNL     1      -5.867   2.392 111.713  1.00  0.00     0.217 HD
ENDBRANCH  21  22
ENDBRANCH  13  14
BRANCH   1  24
HETATM   24  C3  UNL     1      -1.509   3.144 111.753  1.00  0.00     0.295 C 
HETATM   25  O2  UNL     1      -2.160   2.916 112.805  1.00  0.00    -0.259 OA
BRANCH  24  26
HETATM   26  O1  UNL     1      -0.639   2.162 111.306  1.00  0.00    -0.318 OA
BRANCH  26  27
HETATM   27  C2  UNL     1      -0.972   1.242 110.321  1.00  0.00     0.174 C 
HETATM   28  C1  UNL     1      -0.239   1.587 109.050  1.00  0.00     0.034 C 
ENDBRANCH  26  27
ENDBRANCH  24  26
ENDBRANCH   1  24
BRANCH  10  29
HETATM   29  O6  UNL     1       1.589   7.822 109.584  1.00  0.00    -0.351 OA
HETATM   30  C13 UNL     1       2.142   7.616 108.342  1.00  0.00     0.210 C 
ENDBRANCH  10  29
BRANCH   8  31
HETATM   31  O4  UNL     1      -1.524  11.412 110.381  1.00  0.00    -0.356 OA
ATOM     32  H4  UNL     1      -0.817  12.044 110.320  1.00  0.00     0.218 HD
ENDBRANCH   8  31
BRANCH   9  33
HETATM   33  O5  UNL     1       0.970  10.555 109.547  1.00  0.00    -0.351 OA
HETATM   34  C11 UNL     1       1.909  11.207 110.370  1.00  0.00     0.210 C 
ENDBRANCH   9  33
TORSDOF 8
ENDMDL
MODEL 4
REMARK VINA RESULT: -7.204424126      0.994      1.421
REMARK  8 active torsions:
REMARK  status: ('A' for Active; 'I' for Inactive)
REMARK    1  A    between atoms: C2_2  and  O1_3 
REMARK    2  A    between atoms: O1_3  and  C3_4 
REMARK    3  A    between atoms: C3_4  and  C4_6 
REMARK    4  A    between atoms: C9_13  and  O4_14 
REMARK    5  A    between atoms: C10_16  and  O5_17 
REMARK    6  A    between atoms: C12_19  and  O6_20 
REMARK    7  A    between atoms: C16_24  and  C17_25 
REMARK    8  A    between atoms: C22_32  and  O7_33 
ROOT
HETATM    1  C4  UNL     1      -1.822   4.764 110.998  1.00  0.00     0.069 C 
HETATM    2  C5  UNL     1      -0.565   5.112 110.891  1.00  0.00     0.161 C 
HETATM    3  O3  UNL     1       0.058   6.200 110.258  1.00  0.00    -0.318 OA
HETATM    4  C6  UNL     1      -0.364   7.555 110.321  1.00  0.00     0.119 A 
HETATM    5  C7  UNL     1      -1.539   8.166 110.717  1.00  0.00     0.004 A 
HETATM    6  C8  UNL     1      -1.653   9.519 110.656  1.00  0.00     0.079 A 
HETATM    7 CL1  UNL     1      -3.159  10.254 111.165  1.00  0.00    -0.081 Cl
HETATM    8  C9  UNL     1      -0.579  10.248 110.200  1.00  0.00     0.124 A 
HETATM    9  C10 UNL     1       0.609   9.622 109.803  1.00  0.00     0.139 A 
HETATM   10  C12 UNL     1       0.735   8.232 109.860  1.00  0.00     0.139 A 
HETATM   11  C14 UNL     1      -2.803   7.608 111.308  1.00  0.00     0.048 C 
HETATM   12  C15 UNL     1      -3.410   6.644 110.368  1.00  0.00     0.045 C 
HETATM   13  C16 UNL     1      -3.143   5.185 110.617  1.00  0.00    -0.027 C 
ENDROOT
BRANCH  13  14
HETATM   14  C17 UNL     1      -3.985   4.347 109.787  1.00  0.00     0.008 A 
HETATM   15  C18 UNL     1      -3.393   3.691 108.686  1.00  0.00     0.038 A 
HETATM   16  C19 UNL     1      -4.123   3.050 107.728  1.00  0.00     0.036 A 
HETATM   17 CL2  UNL     1      -3.290   2.277 106.379  1.00  0.00    -0.084 Cl
HETATM   18  C20 UNL     1      -5.485   3.002 107.771  1.00  0.00     0.050 A 
HETATM   19  C21 UNL     1      -6.113   3.630 108.837  1.00  0.00     0.069 A 
HETATM   20 CL3  UNL     1      -7.853   3.591 108.927  1.00  0.00    -0.081 Cl
HETATM   21  C22 UNL     1      -5.362   4.280 109.815  1.00  0.00     0.098 A 
BRANCH  21  22
HETATM   22  O7  UNL     1      -6.099   4.860 110.848  1.00  0.00    -0.358 OA
ATOM     23  H7  UNL     1      -6.803   5.473 110.672  1.00  0.00     0.217 HD
ENDBRANCH  21  22
ENDBRANCH  13  14
BRANCH   1  24
HETATM   24  C3  UNL     1      -1.872   3.511 111.810  1.00  0.00     0.295 C 
HETATM   25  O2  UNL     1      -1.481   2.402 111.362  1.00  0.00    -0.259 OA
BRANCH  24  26
HETATM   26  O1  UNL     1      -2.362   3.547 113.106  1.00  0.00    -0.318 OA
BRANCH  26  27
HETATM   27  C2  UNL     1      -3.403   2.741 113.548  1.00  0.00     0.174 C 
HETATM   28  C1  UNL     1      -4.667   3.559 113.628  1.00  0.00     0.034 C 
ENDBRANCH  26  27
ENDBRANCH  24  26
ENDBRANCH   1  24
BRANCH  10  29
HETATM   29  O6  UNL     1       1.880   7.600 109.490  1.00  0.00    -0.351 OA
HETATM   30  C13 UNL     1       2.367   7.210 108.264  1.00  0.00     0.210 C 
ENDBRANCH  10  29
BRANCH   8  31
HETATM   31  O4  UNL     1      -0.674  11.635 110.132  1.00  0.00    -0.356 OA
ATOM     32  H4  UNL     1      -0.719  12.058 109.282  1.00  0.00     0.218 HD
ENDBRANCH   8  31
BRANCH   9  33
HETATM   33  O5  UNL     1       1.668  10.391 109.347  1.00  0.00    -0.351 OA
HETATM   34  C11 UNL     1       1.843  10.838 108.023  1.00  0.00     0.210 C 
ENDBRANCH   9  33
TORSDOF 8
ENDMDL
MODEL 5
REMARK VINA RESULT: -7.042882380      1.007      1.886
REMARK  8 active torsions:
REMARK  status: ('A' for Active; 'I' for Inactive)
REMARK    1  A    between atoms: C2_2  and  O1_3 
REMARK    2  A    between atoms: O1_3  and  C3_4 
REMARK    3  A    between atoms: C3_4  and  C4_6 
REMARK    4  A    between atoms: C9_13  and  O4_14 
REMARK    5  A    between atoms: C10_16  and  O5_17 
REMARK    6  A    between atoms: C12_19  and  O6_20 
REMARK    7  A    between atoms: C16_24  and  C17_25 
REMARK    8  A    between atoms: C22_32  and  O7_33 
ROOT
HETATM    1  C4  UNL     1      -1.935   5.777 111.392  1.00  0.00     0.069 C 
HETATM    2  C5  UNL     1      -0.669   6.016 111.164  1.00  0.00     0.161 C 
HETATM    3  O3  UNL     1      -0.022   6.970 110.361  1.00  0.00    -0.318 OA
HETATM    4  C6  UNL     1      -0.348   8.350 110.278  1.00  0.00     0.119 A 
HETATM    5  C7  UNL     1      -1.450   9.090 110.666  1.00  0.00     0.004 A 
HETATM    6  C8  UNL     1      -1.479  10.431 110.442  1.00  0.00     0.079 A 
HETATM    7 CL1  UNL     1      -2.894  11.331 110.946  1.00  0.00    -0.081 Cl
HETATM    8  C9  UNL     1      -0.394  11.017 109.831  1.00  0.00     0.124 A 
HETATM    9  C10 UNL     1       0.719  10.261 109.443  1.00  0.00     0.139 A 
HETATM   10  C12 UNL     1       0.757   8.882 109.669  1.00  0.00     0.139 A 
HETATM   11  C14 UNL     1      -2.703   8.703 111.400  1.00  0.00     0.048 C 
HETATM   12  C15 UNL     1      -3.437   7.679 110.629  1.00  0.00     0.045 C 
HETATM   13  C16 UNL     1      -3.250   6.246 111.043  1.00  0.00    -0.027 C 
ENDROOT
BRANCH  13  14
HETATM   14  C17 UNL     1      -4.201   5.378 110.379  1.00  0.00     0.008 A 
HETATM   15  C18 UNL     1      -5.567   5.505 110.715  1.00  0.00     0.038 A 
HETATM   16  C19 UNL     1      -6.514   4.611 110.309  1.00  0.00     0.036 A 
HETATM   17 CL2  UNL     1      -8.192   4.849 110.799  1.00  0.00    -0.084 Cl
HETATM   18  C20 UNL     1      -6.201   3.524 109.549  1.00  0.00     0.050 A 
HETATM   19  C21 UNL     1      -4.871   3.357 109.191  1.00  0.00     0.069 A 
HETATM   20 CL3  UNL     1      -4.430   1.977 108.220  1.00  0.00    -0.081 Cl
HETATM   21  C22 UNL     1      -3.907   4.276 109.604  1.00  0.00     0.098 A 
BRANCH  21  22
HETATM   22  O7  UNL     1      -2.608   4.016 109.170  1.00  0.00    -0.358 OA
ATOM     23  H7  UNL     1      -2.167   4.587 108.553  1.00  0.00     0.217 HD
ENDBRANCH  21  22
ENDBRANCH  13  14
BRANCH   1  24
HETATM   24  C3  UNL     1      -2.011   4.640 112.357  1.00  0.00     0.295 C 
HETATM   25  O2  UNL     1      -2.730   4.681 113.389  1.00  0.00    -0.259 OA
BRANCH  24  26
HETATM   26  O1  UNL     1      -1.273   3.490 112.129  1.00  0.00    -0.318 OA
BRANCH  26  27
HETATM   27  C2  UNL     1      -1.607   2.253 112.666  1.00  0.00     0.174 C 
HETATM   28  C1  UNL     1      -2.522   1.528 111.713  1.00  0.00     0.034 C 
ENDBRANCH  26  27
ENDBRANCH  24  26
ENDBRANCH   1  24
BRANCH  10  29
HETATM   29  O6  UNL     1       1.829   8.127 109.311  1.00  0.00    -0.351 OA
HETATM   30  C13 UNL     1       2.209   7.567 108.113  1.00  0.00     0.210 C 
ENDBRANCH  10  29
BRANCH   8  31
HETATM   31  O4  UNL     1      -0.402  12.388 109.594  1.00  0.00    -0.356 OA
ATOM     32  H4  UNL     1      -1.224  12.863 109.637  1.00  0.00     0.218 HD
ENDBRANCH   8  31
BRANCH   9  33
HETATM   33  O5  UNL     1       1.792  10.888 108.830  1.00  0.00    -0.351 OA
HETATM   34  C11 UNL     1       1.894  11.172 107.454  1.00  0.00     0.210 C 
ENDBRANCH   9  33
TORSDOF 8
ENDMDL
