MODEL 1
REMARK VINA RESULT: -8.664603201      0.000      0.000
REMARK  8 active torsions:
REMARK  status: ('A' for Active; 'I' for Inactive)
REMARK    1  A    between atoms: C3_3  and  C4_4 
REMARK    2  A    between atoms: C6_7  and  O2_8 
REMARK    3  A    between atoms: C18_23  and  C19_24 
REMARK    4  A    between atoms: C20_26  and  C21_27 
REMARK    5  A    between atoms: C23_32  and  O6_33 
REMARK    6  A    between atoms: O6_33  and  C24_34 
REMARK    7  A    between atoms: C24_34  and  C25_35 
REMARK    8  A    between atoms: C25_35  and  O7_36 
ROOT
HETATM    1  C1  UNL     1      -7.452   4.758 111.394  1.00  0.00     0.013 C 
HETATM    2  C2  UNL     1      -6.620   5.277 112.542  1.00  0.00     0.020 C 
HETATM    3  C3  UNL     1      -7.109   6.597 113.066  1.00  0.00     0.160 C 
HETATM    4  O3  UNL     1      -6.783   7.606 112.150  1.00  0.00    -0.380 OA
HETATM    5  C8  UNL     1      -5.353   7.812 112.282  1.00  0.00     0.182 C 
HETATM    6  C9  UNL     1      -4.773   6.695 111.511  1.00  0.00     0.009 C 
HETATM    7  C10 UNL     1      -5.534   6.771 110.148  1.00  0.00     0.023 C 
HETATM    8  C11 UNL     1      -5.184   5.404 112.251  1.00  0.00     0.007 C 
HETATM    9  C12 UNL     1      -4.525   4.203 111.631  1.00  0.00     0.009 C 
HETATM   10  C13 UNL     1      -3.075   4.224 112.041  1.00  0.00     0.043 C 
HETATM   11  C14 UNL     1      -2.481   5.619 111.935  1.00  0.00     0.082 C 
HETATM   12  C15 UNL     1      -1.936   6.109 113.241  1.00  0.00     0.051 C 
HETATM   13  O4  UNL     1      -1.408   5.552 111.055  1.00  0.00    -0.371 OA
HETATM   14  C16 UNL     1      -1.283   6.816 110.420  1.00  0.00     0.208 C 
HETATM   15  C17 UNL     1      -2.442   7.635 110.865  1.00  0.00    -0.026 C 
HETATM   16  C18 UNL     1      -2.537   8.879 110.836  1.00  0.00     0.049 C 
HETATM   17  C26 UNL     1      -3.390   6.537 111.191  1.00  0.00    -0.027 C 
ENDROOT
BRANCH  16  18
HETATM   18  C19 UNL     1      -1.674   9.946 110.396  1.00  0.00     0.110 A 
HETATM   19  O5  UNL     1      -0.418  10.015 110.065  1.00  0.00    -0.303 OA
HETATM   20  C20 UNL     1      -0.015  11.196 109.748  1.00  0.00     0.162 A 
HETATM   21  C22 UNL     1      -1.123  12.036 109.863  1.00  0.00     0.081 A 
HETATM   22  C23 UNL     1      -2.164  11.270 110.265  1.00  0.00     0.105 A 
BRANCH  20  23
HETATM   23  C21 UNL     1       1.333  11.664 109.325  1.00  0.00     0.439 C 
HETATM   24  F1  UNL     1       1.852  12.516 110.285  1.00  0.00    -0.164 F 
HETATM   25  F2  UNL     1       1.146  12.391 108.127  1.00  0.00    -0.164 F 
HETATM   26  F3  UNL     1       2.211  10.643 109.095  1.00  0.00    -0.164 F 
ENDBRANCH  20  23
BRANCH  22  27
HETATM   27  O6  UNL     1      -3.462  11.613 110.512  1.00  0.00    -0.346 OA
BRANCH  27  28
HETATM   28  C24 UNL     1      -3.885  12.132 111.739  1.00  0.00     0.201 C 
BRANCH  28  29
HETATM   29  C25 UNL     1      -5.382  11.927 111.975  1.00  0.00     0.190 C 
BRANCH  29  30
HETATM   30  O7  UNL     1      -6.031  13.143 112.011  1.00  0.00    -0.399 OA
ATOM     31  H7  UNL     1      -6.758  13.146 111.400  1.00  0.00     0.209 HD
ENDBRANCH  29  30
ENDBRANCH  28  29
ENDBRANCH  27  28
ENDBRANCH  22  27
ENDBRANCH  16  18
BRANCH   3  32
HETATM   32  C4  UNL     1      -8.558   6.576 113.272  1.00  0.00    -0.002 A 
HETATM   33  C5  UNL     1      -9.212   5.900 114.256  1.00  0.00     0.154 A 
HETATM   34  O1  UNL     1     -10.525   6.105 114.115  1.00  0.00    -0.300 OA
HETATM   35  C6  UNL     1     -10.781   6.872 113.103  1.00  0.00     0.183 A 
HETATM   36  C7  UNL     1      -9.541   7.199 112.530  1.00  0.00     0.075 A 
BRANCH  35  37
HETATM   37  O2  UNL     1     -11.999   7.339 112.590  1.00  0.00    -0.341 OA
ATOM     38  H2  UNL     1     -12.793   7.617 113.031  1.00  0.00     0.220 HD
ENDBRANCH  35  37
ENDBRANCH   3  32
TORSDOF 8
ENDMDL
MODEL 2
REMARK VINA RESULT: -8.605146625      0.755      1.103
REMARK  8 active torsions:
REMARK  status: ('A' for Active; 'I' for Inactive)
REMARK    1  A    between atoms: C3_3  and  C4_4 
REMARK    2  A    between atoms: C6_7  and  O2_8 
REMARK    3  A    between atoms: C18_23  and  C19_24 
REMARK    4  A    between atoms: C20_26  and  C21_27 
REMARK    5  A    between atoms: C23_32  and  O6_33 
REMARK    6  A    between atoms: O6_33  and  C24_34 
REMARK    7  A    between atoms: C24_34  and  C25_35 
REMARK    8  A    between atoms: C25_35  and  O7_36 
ROOT
HETATM    1  C1  UNL     1      -7.702   4.555 110.852  1.00  0.00     0.013 C 
HETATM    2  C2  UNL     1      -6.883   4.907 112.070  1.00  0.00     0.020 C 
HETATM    3  C3  UNL     1      -7.321   6.190 112.716  1.00  0.00     0.160 C 
HETATM    4  O3  UNL     1      -6.915   7.270 111.920  1.00  0.00    -0.380 OA
HETATM    5  C8  UNL     1      -5.481   7.384 112.112  1.00  0.00     0.182 C 
HETATM    6  C9  UNL     1      -4.933   6.323 111.244  1.00  0.00     0.009 C 
HETATM    7  C10 UNL     1      -5.645   6.580 109.876  1.00  0.00     0.023 C 
HETATM    8  C11 UNL     1      -5.433   4.986 111.833  1.00  0.00     0.007 C 
HETATM    9  C12 UNL     1      -4.816   3.822 111.108  1.00  0.00     0.009 C 
HETATM   10  C13 UNL     1      -3.382   3.722 111.558  1.00  0.00     0.043 C 
HETATM   11  C14 UNL     1      -2.714   5.087 111.614  1.00  0.00     0.082 C 
HETATM   12  C15 UNL     1      -2.188   5.409 112.980  1.00  0.00     0.051 C 
HETATM   13  O4  UNL     1      -1.618   5.053 110.762  1.00  0.00    -0.371 OA
HETATM   14  C16 UNL     1      -1.408   6.367 110.266  1.00  0.00     0.208 C 
HETATM   15  C17 UNL     1      -2.538   7.197 110.764  1.00  0.00    -0.026 C 
HETATM   16  C18 UNL     1      -2.569   8.441 110.863  1.00  0.00     0.049 C 
HETATM   17  C26 UNL     1      -3.550   6.124 110.947  1.00  0.00    -0.027 C 
ENDROOT
BRANCH  16  18
HETATM   18  C19 UNL     1      -1.639   9.500 110.561  1.00  0.00     0.110 A 
HETATM   19  O5  UNL     1      -0.349   9.551 110.400  1.00  0.00    -0.303 OA
HETATM   20  C20 UNL     1       0.110  10.731 110.161  1.00  0.00     0.162 A 
HETATM   21  C22 UNL     1      -0.990  11.588 110.144  1.00  0.00     0.081 A 
HETATM   22  C23 UNL     1      -2.087  10.834 110.390  1.00  0.00     0.105 A 
BRANCH  20  23
HETATM   23  C21 UNL     1       1.509  11.182 109.929  1.00  0.00     0.439 C 
HETATM   24  F1  UNL     1       1.502  12.405 109.280  1.00  0.00    -0.164 F 
HETATM   25  F2  UNL     1       2.104  10.221 109.081  1.00  0.00    -0.164 F 
HETATM   26  F3  UNL     1       2.243  11.278 111.079  1.00  0.00    -0.164 F 
ENDBRANCH  20  23
BRANCH  22  27
HETATM   27  O6  UNL     1      -3.401  11.195 110.469  1.00  0.00    -0.346 OA
BRANCH  27  28
HETATM   28  C24 UNL     1      -3.969  11.725 111.632  1.00  0.00     0.201 C 
BRANCH  28  29
HETATM   29  C25 UNL     1      -4.544  13.125 111.415  1.00  0.00     0.190 C 
BRANCH  29  30
HETATM   30  O7  UNL     1      -5.855  13.174 111.835  1.00  0.00    -0.399 OA
ATOM     31  H7  UNL     1      -5.959  12.692 112.647  1.00  0.00     0.209 HD
ENDBRANCH  29  30
ENDBRANCH  28  29
ENDBRANCH  27  28
ENDBRANCH  22  27
ENDBRANCH  16  18
BRANCH   3  32
HETATM   32  C4  UNL     1      -8.775   6.226 112.879  1.00  0.00    -0.002 A 
HETATM   33  C5  UNL     1      -9.612   7.163 112.355  1.00  0.00     0.154 A 
HETATM   34  O1  UNL     1     -10.862   6.876 112.729  1.00  0.00    -0.300 OA
HETATM   35  C6  UNL     1     -10.906   5.811 113.465  1.00  0.00     0.183 A 
HETATM   36  C7  UNL     1      -9.583   5.359 113.587  1.00  0.00     0.075 A 
BRANCH  35  37
HETATM   37  O2  UNL     1     -11.988   5.158 114.071  1.00  0.00    -0.341 OA
ATOM     38  H2  UNL     1     -12.403   4.327 113.873  1.00  0.00     0.220 HD
ENDBRANCH  35  37
ENDBRANCH   3  32
TORSDOF 8
ENDMDL
MODEL 3
REMARK VINA RESULT: -8.266156101      2.079      4.614
REMARK  8 active torsions:
REMARK  status: ('A' for Active; 'I' for Inactive)
REMARK    1  A    between atoms: C3_3  and  C4_4 
REMARK    2  A    between atoms: C6_7  and  O2_8 
REMARK    3  A    between atoms: C18_23  and  C19_24 
REMARK    4  A    between atoms: C20_26  and  C21_27 
REMARK    5  A    between atoms: C23_32  and  O6_33 
REMARK    6  A    between atoms: O6_33  and  C24_34 
REMARK    7  A    between atoms: C24_34  and  C25_35 
REMARK    8  A    between atoms: C25_35  and  O7_36 
ROOT
HETATM    1  C1  UNL     1      -6.930   6.590 113.712  1.00  0.00     0.013 C 
HETATM    2  C2  UNL     1      -7.018   7.483 112.498  1.00  0.00     0.020 C 
HETATM    3  C3  UNL     1      -6.844   6.733 111.209  1.00  0.00     0.160 C 
HETATM    4  O3  UNL     1      -5.497   6.376 111.061  1.00  0.00    -0.380 OA
HETATM    5  C8  UNL     1      -4.799   7.602 110.719  1.00  0.00     0.182 C 
HETATM    6  C9  UNL     1      -4.648   8.284 112.020  1.00  0.00     0.009 C 
HETATM    7  C10 UNL     1      -4.042   7.173 112.936  1.00  0.00     0.023 C 
HETATM    8  C11 UNL     1      -6.078   8.615 112.500  1.00  0.00     0.007 C 
HETATM    9  C12 UNL     1      -6.040   9.443 113.754  1.00  0.00     0.009 C 
HETATM   10  C13 UNL     1      -5.627  10.837 113.359  1.00  0.00     0.043 C 
HETATM   11  C14 UNL     1      -4.479  10.823 112.363  1.00  0.00     0.082 C 
HETATM   12  C15 UNL     1      -4.824  11.521 111.084  1.00  0.00     0.051 C 
HETATM   13  O4  UNL     1      -3.423  11.526 112.930  1.00  0.00    -0.371 OA
HETATM   14  C16 UNL     1      -2.213  10.985 112.419  1.00  0.00     0.208 C 
HETATM   15  C17 UNL     1      -2.586   9.802 111.599  1.00  0.00    -0.026 C 
HETATM   16  C18 UNL     1      -1.899   9.258 110.710  1.00  0.00     0.049 C 
HETATM   17  C26 UNL     1      -3.877   9.464 112.253  1.00  0.00    -0.027 C 
ENDROOT
BRANCH  16  18
HETATM   18  C19 UNL     1      -0.588   9.499 110.161  1.00  0.00     0.110 A 
HETATM   19  O5  UNL     1       0.035  10.560 109.741  1.00  0.00    -0.303 OA
HETATM   20  C20 UNL     1       1.220  10.337 109.287  1.00  0.00     0.162 A 
HETATM   21  C22 UNL     1       1.442   8.967 109.419  1.00  0.00     0.081 A 
HETATM   22  C23 UNL     1       0.325   8.432 109.964  1.00  0.00     0.105 A 
BRANCH  20  23
HETATM   23  C21 UNL     1       2.221  11.283 108.725  1.00  0.00     0.439 C 
HETATM   24  F1  UNL     1       1.571  12.325 108.086  1.00  0.00    -0.164 F 
HETATM   25  F2  UNL     1       2.963  10.557 107.766  1.00  0.00    -0.164 F 
HETATM   26  F3  UNL     1       3.078  11.785 109.665  1.00  0.00    -0.164 F 
ENDBRANCH  20  23
BRANCH  22  27
HETATM   27  O6  UNL     1       0.044   7.139 110.300  1.00  0.00    -0.346 OA
BRANCH  27  28
HETATM   28  C24 UNL     1       0.676   6.048 109.695  1.00  0.00     0.201 C 
BRANCH  28  29
HETATM   29  C25 UNL     1       0.145   4.708 110.208  1.00  0.00     0.190 C 
BRANCH  29  30
HETATM   30  O7  UNL     1       0.338   3.724 109.263  1.00  0.00    -0.399 OA
ATOM     31  H7  UNL     1       0.135   2.871 109.629  1.00  0.00     0.209 HD
ENDBRANCH  29  30
ENDBRANCH  28  29
ENDBRANCH  27  28
ENDBRANCH  22  27
ENDBRANCH  16  18
BRANCH   3  32
HETATM   32  C4  UNL     1      -7.672   5.526 111.188  1.00  0.00    -0.002 A 
HETATM   33  C5  UNL     1      -8.998   5.465 111.492  1.00  0.00     0.154 A 
HETATM   34  O1  UNL     1      -9.404   4.197 111.377  1.00  0.00    -0.300 OA
HETATM   35  C6  UNL     1      -8.434   3.417 111.017  1.00  0.00     0.183 A 
HETATM   36  C7  UNL     1      -7.299   4.232 110.883  1.00  0.00     0.075 A 
BRANCH  35  37
HETATM   37  O2  UNL     1      -8.407   2.035 110.784  1.00  0.00    -0.341 OA
ATOM     38  H2  UNL     1      -9.001   1.474 110.301  1.00  0.00     0.220 HD
ENDBRANCH  35  37
ENDBRANCH   3  32
TORSDOF 8
ENDMDL
MODEL 4
REMARK VINA RESULT: -8.113931970      2.177      4.545
REMARK  8 active torsions:
REMARK  status: ('A' for Active; 'I' for Inactive)
REMARK    1  A    between atoms: C3_3  and  C4_4 
REMARK    2  A    between atoms: C6_7  and  O2_8 
REMARK    3  A    between atoms: C18_23  and  C19_24 
REMARK    4  A    between atoms: C20_26  and  C21_27 
REMARK    5  A    between atoms: C23_32  and  O6_33 
REMARK    6  A    between atoms: O6_33  and  C24_34 
REMARK    7  A    between atoms: C24_34  and  C25_35 
REMARK    8  A    between atoms: C25_35  and  O7_36 
ROOT
HETATM    1  C1  UNL     1      -6.702   6.097 113.757  1.00  0.00     0.013 C 
HETATM    2  C2  UNL     1      -6.885   6.956 112.530  1.00  0.00     0.020 C 
HETATM    3  C3  UNL     1      -6.601   6.216 111.253  1.00  0.00     0.160 C 
HETATM    4  O3  UNL     1      -5.219   6.029 111.126  1.00  0.00    -0.380 OA
HETATM    5  C8  UNL     1      -4.676   7.328 110.774  1.00  0.00     0.182 C 
HETATM    6  C9  UNL     1      -4.628   8.041 112.066  1.00  0.00     0.009 C 
HETATM    7  C10 UNL     1      -3.900   7.027 113.005  1.00  0.00     0.023 C 
HETATM    8  C11 UNL     1      -6.094   8.196 112.525  1.00  0.00     0.007 C 
HETATM    9  C12 UNL     1      -6.176   9.039 113.767  1.00  0.00     0.009 C 
HETATM   10  C13 UNL     1      -5.937  10.469 113.356  1.00  0.00     0.043 C 
HETATM   11  C14 UNL     1      -4.783  10.585 112.373  1.00  0.00     0.082 C 
HETATM   12  C15 UNL     1      -5.196  11.218 111.079  1.00  0.00     0.051 C 
HETATM   13  O4  UNL     1      -3.831  11.422 112.941  1.00  0.00    -0.371 OA
HETATM   14  C16 UNL     1      -2.556  11.031 112.452  1.00  0.00     0.208 C 
HETATM   15  C17 UNL     1      -2.767   9.800 111.645  1.00  0.00    -0.026 C 
HETATM   16  C18 UNL     1      -2.006   9.334 110.772  1.00  0.00     0.049 C 
HETATM   17  C26 UNL     1      -4.014   9.311 112.290  1.00  0.00    -0.027 C 
ENDROOT
BRANCH  16  18
HETATM   18  C19 UNL     1      -0.729   9.730 110.234  1.00  0.00     0.110 A 
HETATM   19  O5  UNL     1      -0.211  10.869 109.880  1.00  0.00    -0.303 OA
HETATM   20  C20 UNL     1       0.985  10.786 109.408  1.00  0.00     0.162 A 
HETATM   21  C22 UNL     1       1.335   9.437 109.453  1.00  0.00     0.081 A 
HETATM   22  C23 UNL     1       0.278   8.767 109.967  1.00  0.00     0.105 A 
BRANCH  20  23
HETATM   23  C21 UNL     1       1.889  11.855 108.902  1.00  0.00     0.439 C 
HETATM   24  F1  UNL     1       2.064  12.819 109.881  1.00  0.00    -0.164 F 
HETATM   25  F2  UNL     1       1.234  12.443 107.798  1.00  0.00    -0.164 F 
HETATM   26  F3  UNL     1       3.108  11.384 108.500  1.00  0.00    -0.164 F 
ENDBRANCH  20  23
BRANCH  22  27
HETATM   27  O6  UNL     1       0.121   7.435 110.222  1.00  0.00    -0.346 OA
BRANCH  27  28
HETATM   28  C24 UNL     1       0.885   6.451 109.587  1.00  0.00     0.201 C 
BRANCH  28  29
HETATM   29  C25 UNL     1       0.477   5.037 110.003  1.00  0.00     0.190 C 
BRANCH  29  30
HETATM   30  O7  UNL     1       1.429   4.126 109.600  1.00  0.00    -0.399 OA
ATOM     31  H7  UNL     1       1.026   3.431 109.093  1.00  0.00     0.209 HD
ENDBRANCH  29  30
ENDBRANCH  28  29
ENDBRANCH  27  28
ENDBRANCH  22  27
ENDBRANCH  16  18
BRANCH   3  32
HETATM   32  C4  UNL     1      -7.272   4.915 111.241  1.00  0.00    -0.002 A 
HETATM   33  C5  UNL     1      -6.655   3.702 111.178  1.00  0.00     0.154 A 
HETATM   34  O1  UNL     1      -7.590   2.748 111.172  1.00  0.00    -0.300 OA
HETATM   35  C6  UNL     1      -8.783   3.249 111.228  1.00  0.00     0.183 A 
HETATM   36  C7  UNL     1      -8.625   4.643 111.274  1.00  0.00     0.075 A 
BRANCH  35  37
HETATM   37  O2  UNL     1     -10.040   2.629 111.240  1.00  0.00    -0.341 OA
ATOM     38  H2  UNL     1     -10.854   2.883 111.656  1.00  0.00     0.220 HD
ENDBRANCH  35  37
ENDBRANCH   3  32
TORSDOF 8
ENDMDL
MODEL 5
REMARK VINA RESULT: -8.030926943      4.358      7.943
REMARK  8 active torsions:
REMARK  status: ('A' for Active; 'I' for Inactive)
REMARK    1  A    between atoms: C3_3  and  C4_4 
REMARK    2  A    between atoms: C6_7  and  O2_8 
REMARK    3  A    between atoms: C18_23  and  C19_24 
REMARK    4  A    between atoms: C20_26  and  C21_27 
REMARK    5  A    between atoms: C23_32  and  O6_33 
REMARK    6  A    between atoms: O6_33  and  C24_34 
REMARK    7  A    between atoms: C24_34  and  C25_35 
REMARK    8  A    between atoms: C25_35  and  O7_36 
ROOT
HETATM    1  C1  UNL     1      -0.643   4.913 111.805  1.00  0.00     0.013 C 
HETATM    2  C2  UNL     1      -1.639   5.407 110.785  1.00  0.00     0.020 C 
HETATM    3  C3  UNL     1      -1.316   6.782 110.273  1.00  0.00     0.160 C 
HETATM    4  O3  UNL     1      -1.608   7.725 111.267  1.00  0.00    -0.380 OA
HETATM    5  C8  UNL     1      -3.056   7.820 111.307  1.00  0.00     0.182 C 
HETATM    6  C9  UNL     1      -3.457   6.631 112.084  1.00  0.00     0.009 C 
HETATM    7  C10 UNL     1      -2.551   6.714 113.355  1.00  0.00     0.023 C 
HETATM    8  C11 UNL     1      -3.038   5.407 111.241  1.00  0.00     0.007 C 
HETATM    9  C12 UNL     1      -3.527   4.133 111.873  1.00  0.00     0.009 C 
HETATM   10  C13 UNL     1      -5.012   4.053 111.630  1.00  0.00     0.043 C 
HETATM   11  C14 UNL     1      -5.694   5.391 111.870  1.00  0.00     0.082 C 
HETATM   12  C15 UNL     1      -6.422   5.886 110.657  1.00  0.00     0.051 C 
HETATM   13  O4  UNL     1      -6.649   5.203 112.861  1.00  0.00    -0.371 OA
HETATM   14  C16 UNL     1      -6.795   6.427 113.565  1.00  0.00     0.208 C 
HETATM   15  C17 UNL     1      -5.761   7.353 113.032  1.00  0.00    -0.026 C 
HETATM   16  C18 UNL     1      -5.757   8.600 113.110  1.00  0.00     0.049 C 
HETATM   17  C26 UNL     1      -4.777   6.350 112.549  1.00  0.00    -0.027 C 
ENDROOT
BRANCH  16  18
HETATM   18  C19 UNL     1      -6.642   9.575 113.695  1.00  0.00     0.110 A 
HETATM   19  O5  UNL     1      -7.428   9.577 114.732  1.00  0.00    -0.303 OA
HETATM   20  C20 UNL     1      -8.087  10.671 114.898  1.00  0.00     0.162 A 
HETATM   21  C22 UNL     1      -7.704  11.524 113.864  1.00  0.00     0.081 A 
HETATM   22  C23 UNL     1      -6.802  10.856 113.108  1.00  0.00     0.105 A 
BRANCH  20  23
HETATM   23  C21 UNL     1      -9.071  11.042 115.951  1.00  0.00     0.439 C 
HETATM   24  F1  UNL     1      -9.533  12.328 115.724  1.00  0.00    -0.164 F 
HETATM   25  F2  UNL     1      -8.372  11.021 117.178  1.00  0.00    -0.164 F 
HETATM   26  F3  UNL     1     -10.131  10.182 116.026  1.00  0.00    -0.164 F 
ENDBRANCH  20  23
BRANCH  22  27
HETATM   27  O6  UNL     1      -6.125  11.254 111.992  1.00  0.00    -0.346 OA
BRANCH  27  28
HETATM   28  C24 UNL     1      -5.753  12.584 111.770  1.00  0.00     0.201 C 
BRANCH  28  29
HETATM   29  C25 UNL     1      -4.250  12.737 111.528  1.00  0.00     0.190 C 
BRANCH  29  30
HETATM   30  O7  UNL     1      -3.981  13.957 110.946  1.00  0.00    -0.399 OA
ATOM     31  H7  UNL     1      -4.195  14.662 111.546  1.00  0.00     0.209 HD
ENDBRANCH  29  30
ENDBRANCH  28  29
ENDBRANCH  27  28
ENDBRANCH  22  27
ENDBRANCH  16  18
BRANCH   3  32
HETATM   32  C4  UNL     1       0.097   6.886 109.905  1.00  0.00    -0.002 A 
HETATM   33  C5  UNL     1       0.837   8.029 109.898  1.00  0.00     0.154 A 
HETATM   34  O1  UNL     1       2.075   7.735 109.492  1.00  0.00    -0.300 OA
HETATM   35  C6  UNL     1       2.203   6.472 109.231  1.00  0.00     0.183 A 
HETATM   36  C7  UNL     1       0.952   5.887 109.484  1.00  0.00     0.075 A 
BRANCH  35  37
HETATM   37  O2  UNL     1       3.306   5.736 108.781  1.00  0.00    -0.341 OA
ATOM     38  H2  UNL     1       4.060   5.997 108.266  1.00  0.00     0.220 HD
ENDBRANCH  35  37
ENDBRANCH   3  32
TORSDOF 8
ENDMDL
