MODEL 1
REMARK VINA RESULT: -5.286905740      0.000      0.000
REMARK  4 active torsions:
REMARK  status: ('A' for Active; 'I' for Inactive)
REMARK    1  A    between atoms: N1_1  and  C1_5 
REMARK    2  A    between atoms: C1_5  and  C2_6 
REMARK    3  A    between atoms: C2_6  and  N2_7 
REMARK    4  A    between atoms: N2_7  and  C3_10 
ROOT
HETATM    1  N2  UNL     1       8.806  14.975  14.928  1.00  0.00    -0.069 N 
ATOM      2  H21 UNL     1       9.814  14.941  15.079  1.00  0.00     0.277 HD
ATOM      3  H22 UNL     1       8.784  15.408  14.004  1.00  0.00     0.277 HD
ENDROOT
BRANCH   1   4
HETATM    4  C2  UNL     1       8.184  15.830  15.895  1.00  0.00     0.260 C 
BRANCH   4   5
HETATM    5  C1  UNL     1       7.012  16.529  15.227  1.00  0.00     0.257 C 
BRANCH   5   6
HETATM    6  N1  UNL     1       5.751  16.133  15.813  1.00  0.00    -0.078 N 
ATOM      7  H13 UNL     1       5.683  15.120  15.901  1.00  0.00     0.274 HD
ATOM      8  H12 UNL     1       5.706  16.382  16.802  1.00  0.00     0.274 HD
ATOM      9  H11 UNL     1       4.960  16.515  15.296  1.00  0.00     0.274 HD
ENDBRANCH   5   6
ENDBRANCH   4   5
ENDBRANCH   1   4
BRANCH   1  10
HETATM   10  C3  UNL     1       8.264  13.653  14.873  1.00  0.00     0.193 C 
HETATM   11  C4  UNL     1       7.902  13.264  16.314  1.00  0.00     0.038 C 
HETATM   12  C5  UNL     1       8.540  11.894  16.454  1.00  0.00    -0.009 C 
HETATM   13  C6  UNL     1       7.921  10.925  15.486  1.00  0.00     0.042 C 
HETATM   14  C9  UNL     1       9.871  12.181  15.740  1.00  0.00     0.014 C 
HETATM   15  C7  UNL     1       8.442  11.352  14.106  1.00  0.00     0.176 C 
HETATM   16  F1  UNL     1       9.325  10.406  13.651  1.00  0.00    -0.249 F 
HETATM   17  C8  UNL     1       9.224  12.609  14.412  1.00  0.00     0.051 C 
ENDBRANCH   1  10
TORSDOF 4
ENDMDL
MODEL 2
REMARK VINA RESULT: -5.091343173      1.036      1.062
REMARK  4 active torsions:
REMARK  status: ('A' for Active; 'I' for Inactive)
REMARK    1  A    between atoms: N1_1  and  C1_5 
REMARK    2  A    between atoms: C1_5  and  C2_6 
REMARK    3  A    between atoms: C2_6  and  N2_7 
REMARK    4  A    between atoms: N2_7  and  C3_10 
ROOT
HETATM    1  N2  UNL     1       7.869  15.080  15.265  1.00  0.00    -0.069 N 
ATOM      2  H21 UNL     1       8.538  15.468  15.929  1.00  0.00     0.277 HD
ATOM      3  H22 UNL     1       8.328  15.329  14.389  1.00  0.00     0.277 HD
ENDROOT
BRANCH   1   4
HETATM    4  C2  UNL     1       6.607  15.749  15.376  1.00  0.00     0.260 C 
BRANCH   4   5
HETATM    5  C1  UNL     1       6.870  17.240  15.503  1.00  0.00     0.257 C 
BRANCH   5   6
HETATM    6  N1  UNL     1       5.687  18.017  15.205  1.00  0.00    -0.078 N 
ATOM      7  H13 UNL     1       5.376  17.869  14.246  1.00  0.00     0.274 HD
ATOM      8  H12 UNL     1       4.870  17.653  15.695  1.00  0.00     0.274 HD
ATOM      9  H11 UNL     1       5.830  19.007  15.401  1.00  0.00     0.274 HD
ENDBRANCH   5   6
ENDBRANCH   4   5
ENDBRANCH   1   4
BRANCH   1  10
HETATM   10  C3  UNL     1       7.797  13.658  15.403  1.00  0.00     0.193 C 
HETATM   11  C4  UNL     1       8.544  13.301  16.697  1.00  0.00     0.038 C 
HETATM   12  C5  UNL     1       9.468  12.185  16.245  1.00  0.00    -0.009 C 
HETATM   13  C6  UNL     1       8.671  11.004  15.767  1.00  0.00     0.042 C 
HETATM   14  C9  UNL     1       9.912  12.779  14.898  1.00  0.00     0.014 C 
HETATM   15  C7  UNL     1       8.068  11.447  14.425  1.00  0.00     0.176 C 
HETATM   16  F1  UNL     1       8.681  10.758  13.411  1.00  0.00    -0.249 F 
HETATM   17  C8  UNL     1       8.490  12.895  14.325  1.00  0.00     0.051 C 
ENDBRANCH   1  10
TORSDOF 4
ENDMDL
MODEL 3
REMARK VINA RESULT: -4.929989910      1.871      2.920
REMARK  4 active torsions:
REMARK  status: ('A' for Active; 'I' for Inactive)
REMARK    1  A    between atoms: N1_1  and  C1_5 
REMARK    2  A    between atoms: C1_5  and  C2_6 
REMARK    3  A    between atoms: C2_6  and  N2_7 
REMARK    4  A    between atoms: N2_7  and  C3_10 
ROOT
HETATM    1  N2  UNL     1       6.393  16.071  14.422  1.00  0.00    -0.069 N 
ATOM      2  H21 UNL     1       6.733  15.800  13.499  1.00  0.00     0.277 HD
ATOM      3  H22 UNL     1       5.391  15.939  14.285  1.00  0.00     0.277 HD
ENDROOT
BRANCH   1   4
HETATM    4  C2  UNL     1       6.685  17.451  14.677  1.00  0.00     0.260 C 
BRANCH   4   5
HETATM    5  C1  UNL     1       6.823  18.161  13.340  1.00  0.00     0.257 C 
BRANCH   5   6
HETATM    6  N1  UNL     1       7.768  17.489  12.476  1.00  0.00    -0.078 N 
ATOM      7  H13 UNL     1       7.581  16.488  12.427  1.00  0.00     0.274 HD
ATOM      8  H12 UNL     1       7.611  17.728  11.496  1.00  0.00     0.274 HD
ATOM      9  H11 UNL     1       8.731  17.675  12.755  1.00  0.00     0.274 HD
ENDBRANCH   5   6
ENDBRANCH   4   5
ENDBRANCH   1   4
BRANCH   1  10
HETATM   10  C3  UNL     1       6.883  15.171  15.419  1.00  0.00     0.193 C 
HETATM   11  C4  UNL     1       7.523  16.033  16.517  1.00  0.00     0.038 C 
HETATM   12  C5  UNL     1       8.872  15.366  16.713  1.00  0.00    -0.009 C 
HETATM   13  C6  UNL     1       8.695  13.956  17.202  1.00  0.00     0.042 C 
HETATM   14  C9  UNL     1       9.221  15.103  15.240  1.00  0.00     0.014 C 
HETATM   15  C7  UNL     1       8.157  13.179  15.990  1.00  0.00     0.176 C 
HETATM   16  F1  UNL     1       9.132  12.326  15.539  1.00  0.00    -0.249 F 
HETATM   17  C8  UNL     1       7.967  14.260  14.951  1.00  0.00     0.051 C 
ENDBRANCH   1  10
TORSDOF 4
ENDMDL
MODEL 4
REMARK VINA RESULT: -4.826644650      2.935      5.028
REMARK  4 active torsions:
REMARK  status: ('A' for Active; 'I' for Inactive)
REMARK    1  A    between atoms: N1_1  and  C1_5 
REMARK    2  A    between atoms: C1_5  and  C2_6 
REMARK    3  A    between atoms: C2_6  and  N2_7 
REMARK    4  A    between atoms: N2_7  and  C3_10 
ROOT
HETATM    1  N2  UNL     1       7.277  13.541  15.915  1.00  0.00    -0.069 N 
ATOM      2  H21 UNL     1       6.814  13.709  16.808  1.00  0.00     0.277 HD
ATOM      3  H22 UNL     1       6.539  13.032  15.429  1.00  0.00     0.277 HD
ENDROOT
BRANCH   1   4
HETATM    4  C2  UNL     1       8.426  12.703  16.097  1.00  0.00     0.260 C 
BRANCH   4   5
HETATM    5  C1  UNL     1       8.112  11.336  15.512  1.00  0.00     0.257 C 
BRANCH   5   6
HETATM    6  N1  UNL     1       8.709  11.165  14.207  1.00  0.00    -0.078 N 
ATOM      7  H13 UNL     1       8.937  12.064  13.781  1.00  0.00     0.274 HD
ATOM      8  H12 UNL     1       9.651  10.779  14.275  1.00  0.00     0.274 HD
ATOM      9  H11 UNL     1       8.119  10.603  13.594  1.00  0.00     0.274 HD
ENDBRANCH   5   6
ENDBRANCH   4   5
ENDBRANCH   1   4
BRANCH   1  10
HETATM   10  C3  UNL     1       7.550  14.779  15.254  1.00  0.00     0.193 C 
HETATM   11  C4  UNL     1       9.010  15.136  15.568  1.00  0.00     0.038 C 
HETATM   12  C5  UNL     1       8.903  16.580  16.023  1.00  0.00    -0.009 C 
HETATM   13  C6  UNL     1       8.389  17.446  14.908  1.00  0.00     0.042 C 
HETATM   14  C9  UNL     1       7.636  16.462  16.885  1.00  0.00     0.014 C 
HETATM   15  C7  UNL     1       6.905  17.074  14.766  1.00  0.00     0.176 C 
HETATM   16  F1  UNL     1       6.138  18.121  15.208  1.00  0.00    -0.249 F 
HETATM   17  C8  UNL     1       6.746  15.934  15.747  1.00  0.00     0.051 C 
ENDBRANCH   1  10
TORSDOF 4
ENDMDL
MODEL 5
REMARK VINA RESULT: -4.776668697      1.607      1.931
REMARK  4 active torsions:
REMARK  status: ('A' for Active; 'I' for Inactive)
REMARK    1  A    between atoms: N1_1  and  C1_5 
REMARK    2  A    between atoms: C1_5  and  C2_6 
REMARK    3  A    between atoms: C2_6  and  N2_7 
REMARK    4  A    between atoms: N2_7  and  C3_10 
ROOT
HETATM    1  N2  UNL     1       7.700  15.547  14.250  1.00  0.00    -0.069 N 
ATOM      2  H21 UNL     1       8.588  15.484  13.751  1.00  0.00     0.277 HD
ATOM      3  H22 UNL     1       7.054  15.470  13.465  1.00  0.00     0.277 HD
ENDROOT
BRANCH   1   4
HETATM    4  C2  UNL     1       7.572  16.828  14.880  1.00  0.00     0.260 C 
BRANCH   4   5
HETATM    5  C1  UNL     1       7.042  17.812  13.850  1.00  0.00     0.257 C 
BRANCH   5   6
HETATM    6  N1  UNL     1       7.644  17.601  12.553  1.00  0.00    -0.078 N 
ATOM      7  H13 UNL     1       8.126  16.704  12.507  1.00  0.00     0.274 HD
ATOM      8  H12 UNL     1       6.937  17.437  11.836  1.00  0.00     0.274 HD
ATOM      9  H11 UNL     1       8.263  18.369  12.296  1.00  0.00     0.274 HD
ENDBRANCH   5   6
ENDBRANCH   4   5
ENDBRANCH   1   4
BRANCH   1  10
HETATM   10  C3  UNL     1       7.545  14.436  15.136  1.00  0.00     0.193 C 
HETATM   11  C4  UNL     1       8.344  14.767  16.405  1.00  0.00     0.038 C 
HETATM   12  C5  UNL     1       9.165  13.507  16.613  1.00  0.00    -0.009 C 
HETATM   13  C6  UNL     1       8.265  12.329  16.862  1.00  0.00     0.042 C 
HETATM   14  C9  UNL     1       9.564  13.243  15.153  1.00  0.00     0.014 C 
HETATM   15  C7  UNL     1       7.613  12.032  15.504  1.00  0.00     0.176 C 
HETATM   16  F1  UNL     1       8.118  10.855  15.014  1.00  0.00    -0.249 F 
HETATM   17  C8  UNL     1       8.121  13.156  14.630  1.00  0.00     0.051 C 
ENDBRANCH   1  10
TORSDOF 4
ENDMDL
