MODEL 1
REMARK VINA RESULT: -7.612246864      0.000      0.000
REMARK  14 active torsions:
REMARK  status: ('A' for Active; 'I' for Inactive)
REMARK    1  A    between atoms: C2_2  and  C3_3 
REMARK    2  A    between atoms: C3_3  and  C4_4 
REMARK    3  A    between atoms: C3_3  and  O6_36 
REMARK    4  A    between atoms: C4_4  and  C5_5 
REMARK    5  A    between atoms: C6_6  and  C8_8 
REMARK    6  A    between atoms: C8_8  and  C11_11 
REMARK    7  A    between atoms: C11_11  and  C12_12 
REMARK    8  A    between atoms: C12_12  and  O2_14 
REMARK    9  A    between atoms: O2_14  and  C13_15 
REMARK   10  A    between atoms: C16_18  and  O3_19 
REMARK   11  A    between atoms: C20_24  and  C22_26 
REMARK   12  A    between atoms: O6_36  and  C29_37 
REMARK   13  A    between atoms: C29_37  and  C30_39 
REMARK   14  A    between atoms: C30_39  and  C31_40 
ROOT
HETATM    1  C13 UNL     1      12.015   0.121  24.702  1.00  0.00     0.135 C 
HETATM    2  C14 UNL     1      12.489   0.109  26.124  1.00  0.00     0.042 C 
HETATM    3  C15 UNL     1      13.963  -0.089  25.958  1.00  0.00     0.041 C 
HETATM    4  C16 UNL     1      14.318   0.370  24.595  1.00  0.00     0.065 C 
HETATM    5  C17 UNL     1      15.663  -0.140  24.234  1.00  0.00     0.039 C 
HETATM    6  C18 UNL     1      16.494  -0.413  25.474  1.00  0.00     0.010 C 
HETATM    7  C19 UNL     1      16.177   0.589  26.596  1.00  0.00     0.023 C 
HETATM    8  C20 UNL     1      17.267   0.713  27.577  1.00  0.00     0.050 C 
HETATM    9  C21 UNL     1      18.472  -0.154  27.163  1.00  0.00     0.027 C 
HETATM   10  C23 UNL     1      16.964   0.366  28.989  1.00  0.00     0.021 C 
HETATM   11  C24 UNL     1      17.053  -1.113  29.301  1.00  0.00     0.012 C 
HETATM   12  C25 UNL     1      15.692  -1.678  29.110  1.00  0.00     0.075 C 
HETATM   13  S1  UNL     1      14.470  -0.639  28.435  1.00  0.00    -0.159 SA
HETATM   14  C26 UNL     1      14.791   0.445  27.102  1.00  0.00     0.016 C 
HETATM   15  C27 UNL     1      14.291   1.841  27.503  1.00  0.00     0.028 C 
HETATM   16  C28 UNL     1      13.176  -0.325  23.822  1.00  0.00     0.071 C 
ENDROOT
BRANCH   1  17
HETATM   17  O2  UNL     1      10.831  -0.583  24.487  1.00  0.00    -0.316 OA
BRANCH  17  18
HETATM   18  C12 UNL     1       9.580   0.016  24.302  1.00  0.00     0.260 C 
HETATM   19  O1  UNL     1       9.194   0.128  23.134  1.00  0.00    -0.265 OA
BRANCH  18  20
HETATM   20  C11 UNL     1       8.884   0.438  25.526  1.00  0.00     0.124 C 
BRANCH  20  21
HETATM   21  C8  UNL     1       8.571   1.899  25.446  1.00  0.00    -0.016 C 
HETATM   22  C9  UNL     1       9.425   2.665  24.492  1.00  0.00     0.020 C 
HETATM   23  C10 UNL     1       7.102   2.066  25.032  1.00  0.00     0.020 C 
BRANCH  21  24
HETATM   24  C6  UNL     1       8.666   2.577  26.780  1.00  0.00    -0.079 C 
HETATM   25  C5  UNL     1       9.784   2.740  27.449  1.00  0.00    -0.021 C 
HETATM   26  C7  UNL     1       7.397   3.096  27.364  1.00  0.00     0.044 C 
BRANCH  25  27
HETATM   27  C4  UNL     1       9.813   3.421  28.763  1.00  0.00     0.060 C 
BRANCH  27  28
HETATM   28  C3  UNL     1      11.182   3.345  29.424  1.00  0.00     0.135 C 
BRANCH  28  29
HETATM   29  C2  UNL     1      11.724   4.729  29.697  1.00  0.00     0.028 C 
HETATM   30  C1  UNL     1      13.237   4.687  29.666  1.00  0.00     0.007 C 
ENDBRANCH  28  29
BRANCH  28  31
HETATM   31  O6  UNL     1      11.185   2.498  30.532  1.00  0.00    -0.316 OA
BRANCH  31  32
HETATM   32  C29 UNL     1      11.909   1.319  30.567  1.00  0.00     0.259 C 
HETATM   33  O7  UNL     1      12.795   1.205  31.450  1.00  0.00    -0.265 OA
BRANCH  32  34
HETATM   34  C30 UNL     1      11.587   0.285  29.567  1.00  0.00     0.115 C 
BRANCH  34  35
HETATM   35  C31 UNL     1      10.458  -0.618  29.967  1.00  0.00    -0.013 C 
HETATM   36  C32 UNL     1      10.885  -1.647  30.984  1.00  0.00     0.010 C 
HETATM   37  C33 UNL     1       9.823  -1.282  28.773  1.00  0.00     0.010 C 
ENDBRANCH  34  35
ENDBRANCH  32  34
ENDBRANCH  31  32
ENDBRANCH  28  31
ENDBRANCH  27  28
ENDBRANCH  25  27
ENDBRANCH  21  24
ENDBRANCH  20  21
ENDBRANCH  18  20
ENDBRANCH  17  18
ENDBRANCH   1  17
BRANCH   4  38
HETATM   38  O3  UNL     1      14.128   1.715  24.342  1.00  0.00    -0.389 OA
ATOM     39  H3  UNL     1      13.613   1.923  23.572  1.00  0.00     0.210 HD
ENDBRANCH   4  38
BRANCH   8  40
HETATM   40  C22 UNL     1      17.865   2.108  27.611  1.00  0.00     0.181 C 
HETATM   41  O4  UNL     1      18.780   2.432  28.384  1.00  0.00    -0.647 OA
HETATM   42  O5  UNL     1      17.377   3.089  26.743  1.00  0.00    -0.647 OA
ENDBRANCH   8  40
TORSDOF 14
ENDMDL
MODEL 2
REMARK VINA RESULT: -7.580830526      1.970      6.840
REMARK  14 active torsions:
REMARK  status: ('A' for Active; 'I' for Inactive)
REMARK    1  A    between atoms: C2_2  and  C3_3 
REMARK    2  A    between atoms: C3_3  and  C4_4 
REMARK    3  A    between atoms: C3_3  and  O6_36 
REMARK    4  A    between atoms: C4_4  and  C5_5 
REMARK    5  A    between atoms: C6_6  and  C8_8 
REMARK    6  A    between atoms: C8_8  and  C11_11 
REMARK    7  A    between atoms: C11_11  and  C12_12 
REMARK    8  A    between atoms: C12_12  and  O2_14 
REMARK    9  A    between atoms: O2_14  and  C13_15 
REMARK   10  A    between atoms: C16_18  and  O3_19 
REMARK   11  A    between atoms: C20_24  and  C22_26 
REMARK   12  A    between atoms: O6_36  and  C29_37 
REMARK   13  A    between atoms: C29_37  and  C30_39 
REMARK   14  A    between atoms: C30_39  and  C31_40 
ROOT
HETATM    1  C13 UNL     1      15.079  -0.161  26.187  1.00  0.00     0.135 C 
HETATM    2  C14 UNL     1      13.731  -0.114  26.843  1.00  0.00     0.042 C 
HETATM    3  C15 UNL     1      12.906   0.580  25.806  1.00  0.00     0.041 C 
HETATM    4  C16 UNL     1      13.582   0.388  24.502  1.00  0.00     0.065 C 
HETATM    5  C17 UNL     1      13.038   1.349  23.513  1.00  0.00     0.039 C 
HETATM    6  C18 UNL     1      11.630   1.777  23.886  1.00  0.00     0.010 C 
HETATM    7  C19 UNL     1      10.854   0.632  24.558  1.00  0.00     0.023 C 
HETATM    8  C20 UNL     1       9.395   0.797  24.461  1.00  0.00     0.050 C 
HETATM    9  C21 UNL     1       9.043   2.050  23.637  1.00  0.00     0.027 C 
HETATM   10  C23 UNL     1       8.629   0.897  25.730  1.00  0.00     0.021 C 
HETATM   11  C24 UNL     1       8.595   2.287  26.329  1.00  0.00     0.012 C 
HETATM   12  C25 UNL     1       9.735   2.377  27.277  1.00  0.00     0.075 C 
HETATM   13  S1  UNL     1      10.861   1.051  27.320  1.00  0.00    -0.159 SA
HETATM   14  C26 UNL     1      11.432   0.257  25.871  1.00  0.00     0.016 C 
HETATM   15  C27 UNL     1      11.235  -1.254  26.055  1.00  0.00     0.028 C 
HETATM   16  C28 UNL     1      15.023   0.724  24.948  1.00  0.00     0.071 C 
ENDROOT
BRANCH   1  17
HETATM   17  O2  UNL     1      16.143   0.121  27.044  1.00  0.00    -0.316 OA
BRANCH  17  18
HETATM   18  C12 UNL     1      16.782   1.362  27.124  1.00  0.00     0.260 C 
HETATM   19  O1  UNL     1      17.943   1.408  26.702  1.00  0.00    -0.265 OA
BRANCH  18  20
HETATM   20  C11 UNL     1      15.990   2.456  27.702  1.00  0.00     0.124 C 
BRANCH  20  21
HETATM   21  C8  UNL     1      15.905   2.284  29.186  1.00  0.00    -0.016 C 
HETATM   22  C9  UNL     1      16.880   1.307  29.754  1.00  0.00     0.020 C 
HETATM   23  C10 UNL     1      16.131   3.648  29.854  1.00  0.00     0.020 C 
BRANCH  21  24
HETATM   24  C6  UNL     1      14.536   1.867  29.635  1.00  0.00    -0.079 C 
HETATM   25  C5  UNL     1      14.261   0.709  30.189  1.00  0.00    -0.021 C 
HETATM   26  C7  UNL     1      13.433   2.847  29.434  1.00  0.00     0.044 C 
BRANCH  25  27
HETATM   27  C4  UNL     1      12.887   0.356  30.615  1.00  0.00     0.060 C 
BRANCH  27  28
HETATM   28  C3  UNL     1      12.753  -1.117  30.973  1.00  0.00     0.135 C 
BRANCH  28  29
HETATM   29  C2  UNL     1      11.310  -1.474  31.244  1.00  0.00     0.028 C 
HETATM   30  C1  UNL     1      10.541  -1.472  29.939  1.00  0.00     0.007 C 
ENDBRANCH  28  29
BRANCH  28  31
HETATM   31  O6  UNL     1      13.384  -1.944  30.043  1.00  0.00    -0.316 OA
BRANCH  31  32
HETATM   32  C29 UNL     1      14.164  -3.025  30.416  1.00  0.00     0.259 C 
HETATM   33  O7  UNL     1      13.864  -3.620  31.481  1.00  0.00    -0.265 OA
BRANCH  32  34
HETATM   34  C30 UNL     1      15.287  -3.399  29.537  1.00  0.00     0.115 C 
BRANCH  34  35
HETATM   35  C31 UNL     1      16.403  -2.398  29.518  1.00  0.00    -0.013 C 
HETATM   36  C32 UNL     1      17.472  -2.755  28.515  1.00  0.00     0.010 C 
HETATM   37  C33 UNL     1      17.002  -2.202  30.886  1.00  0.00     0.010 C 
ENDBRANCH  34  35
ENDBRANCH  32  34
ENDBRANCH  31  32
ENDBRANCH  28  31
ENDBRANCH  27  28
ENDBRANCH  25  27
ENDBRANCH  21  24
ENDBRANCH  20  21
ENDBRANCH  18  20
ENDBRANCH  17  18
ENDBRANCH   1  17
BRANCH   4  38
HETATM   38  O3  UNL     1      13.664  -0.915  24.050  1.00  0.00    -0.389 OA
ATOM     39  H3  UNL     1      14.295  -1.075  23.359  1.00  0.00     0.210 HD
ENDBRANCH   4  38
BRANCH   8  40
HETATM   40  C22 UNL     1       8.735  -0.314  23.664  1.00  0.00     0.181 C 
HETATM   41  O4  UNL     1       9.345  -1.325  23.281  1.00  0.00    -0.647 OA
HETATM   42  O5  UNL     1       7.380  -0.215  23.334  1.00  0.00    -0.647 OA
ENDBRANCH   8  40
TORSDOF 14
ENDMDL
MODEL 3
REMARK VINA RESULT: -7.407544133      1.034      1.294
REMARK  14 active torsions:
REMARK  status: ('A' for Active; 'I' for Inactive)
REMARK    1  A    between atoms: C2_2  and  C3_3 
REMARK    2  A    between atoms: C3_3  and  C4_4 
REMARK    3  A    between atoms: C3_3  and  O6_36 
REMARK    4  A    between atoms: C4_4  and  C5_5 
REMARK    5  A    between atoms: C6_6  and  C8_8 
REMARK    6  A    between atoms: C8_8  and  C11_11 
REMARK    7  A    between atoms: C11_11  and  C12_12 
REMARK    8  A    between atoms: C12_12  and  O2_14 
REMARK    9  A    between atoms: O2_14  and  C13_15 
REMARK   10  A    between atoms: C16_18  and  O3_19 
REMARK   11  A    between atoms: C20_24  and  C22_26 
REMARK   12  A    between atoms: O6_36  and  C29_37 
REMARK   13  A    between atoms: C29_37  and  C30_39 
REMARK   14  A    between atoms: C30_39  and  C31_40 
ROOT
HETATM    1  C13 UNL     1      12.194   0.606  24.690  1.00  0.00     0.135 C 
HETATM    2  C14 UNL     1      12.615   0.551  26.128  1.00  0.00     0.042 C 
HETATM    3  C15 UNL     1      14.044   0.122  26.017  1.00  0.00     0.041 C 
HETATM    4  C16 UNL     1      14.511   0.491  24.660  1.00  0.00     0.065 C 
HETATM    5  C17 UNL     1      15.769  -0.230  24.354  1.00  0.00     0.039 C 
HETATM    6  C18 UNL     1      16.507  -0.603  25.627  1.00  0.00     0.010 C 
HETATM    7  C19 UNL     1      16.315   0.460  26.721  1.00  0.00     0.023 C 
HETATM    8  C20 UNL     1      17.380   0.433  27.737  1.00  0.00     0.050 C 
HETATM    9  C21 UNL     1      18.447  -0.620  27.379  1.00  0.00     0.027 C 
HETATM   10  C23 UNL     1      16.981   0.167  29.143  1.00  0.00     0.021 C 
HETATM   11  C24 UNL     1      16.828  -1.300  29.481  1.00  0.00     0.012 C 
HETATM   12  C25 UNL     1      15.402  -1.650  29.252  1.00  0.00     0.075 C 
HETATM   13  S1  UNL     1      14.380  -0.448  28.518  1.00  0.00    -0.159 SA
HETATM   14  C26 UNL     1      14.909   0.545  27.181  1.00  0.00     0.016 C 
HETATM   15  C27 UNL     1      14.621   2.010  27.541  1.00  0.00     0.028 C 
HETATM   16  C28 UNL     1      13.299  -0.034  23.859  1.00  0.00     0.071 C 
ENDROOT
BRANCH   1  17
HETATM   17  O2  UNL     1      10.922   0.091  24.445  1.00  0.00    -0.316 OA
BRANCH  17  18
HETATM   18  C12 UNL     1       9.842   0.848  23.978  1.00  0.00     0.260 C 
HETATM   19  O1  UNL     1      10.065   1.578  23.007  1.00  0.00    -0.265 OA
BRANCH  18  20
HETATM   20  C11 UNL     1       8.577   0.678  24.706  1.00  0.00     0.124 C 
BRANCH  20  21
HETATM   21  C8  UNL     1       8.467   1.722  25.771  1.00  0.00    -0.016 C 
HETATM   22  C9  UNL     1       8.957   3.073  25.369  1.00  0.00     0.020 C 
HETATM   23  C10 UNL     1       6.996   1.840  26.196  1.00  0.00     0.020 C 
BRANCH  21  24
HETATM   24  C6  UNL     1       9.191   1.336  27.027  1.00  0.00    -0.079 C 
HETATM   25  C5  UNL     1       9.877   2.173  27.771  1.00  0.00    -0.021 C 
HETATM   26  C7  UNL     1       9.109  -0.092  27.440  1.00  0.00     0.044 C 
BRANCH  25  27
HETATM   27  C4  UNL     1      10.569   1.731  29.003  1.00  0.00     0.060 C 
BRANCH  27  28
HETATM   28  C3  UNL     1      11.441   2.826  29.601  1.00  0.00     0.135 C 
BRANCH  28  29
HETATM   29  C2  UNL     1      10.828   4.187  29.370  1.00  0.00     0.028 C 
HETATM   30  C1  UNL     1      11.837   5.257  29.731  1.00  0.00     0.007 C 
ENDBRANCH  28  29
BRANCH  28  31
HETATM   31  O6  UNL     1      11.775   2.565  30.931  1.00  0.00    -0.316 OA
BRANCH  31  32
HETATM   32  C29 UNL     1      12.899   1.841  31.288  1.00  0.00     0.259 C 
HETATM   33  O7  UNL     1      14.021   2.366  31.081  1.00  0.00    -0.265 OA
BRANCH  32  34
HETATM   34  C30 UNL     1      12.697   0.508  31.886  1.00  0.00     0.115 C 
BRANCH  34  35
HETATM   35  C31 UNL     1      11.256   0.145  32.090  1.00  0.00    -0.013 C 
HETATM   36  C32 UNL     1      10.891   0.061  33.552  1.00  0.00     0.010 C 
HETATM   37  C33 UNL     1      10.895  -1.132  31.378  1.00  0.00     0.010 C 
ENDBRANCH  34  35
ENDBRANCH  32  34
ENDBRANCH  31  32
ENDBRANCH  28  31
ENDBRANCH  27  28
ENDBRANCH  25  27
ENDBRANCH  21  24
ENDBRANCH  20  21
ENDBRANCH  18  20
ENDBRANCH  17  18
ENDBRANCH   1  17
BRANCH   4  38
HETATM   38  O3  UNL     1      14.542   1.843  24.379  1.00  0.00    -0.389 OA
ATOM     39  H3  UNL     1      14.455   2.424  25.125  1.00  0.00     0.210 HD
ENDBRANCH   4  38
BRANCH   8  40
HETATM   40  C22 UNL     1      18.187   1.718  27.770  1.00  0.00     0.181 C 
HETATM   41  O4  UNL     1      19.074   1.938  28.610  1.00  0.00    -0.647 OA
HETATM   42  O5  UNL     1      17.937   2.714  26.822  1.00  0.00    -0.647 OA
ENDBRANCH   8  40
TORSDOF 14
ENDMDL
MODEL 4
REMARK VINA RESULT: -7.346187687      3.167      6.884
REMARK  14 active torsions:
REMARK  status: ('A' for Active; 'I' for Inactive)
REMARK    1  A    between atoms: C2_2  and  C3_3 
REMARK    2  A    between atoms: C3_3  and  C4_4 
REMARK    3  A    between atoms: C3_3  and  O6_36 
REMARK    4  A    between atoms: C4_4  and  C5_5 
REMARK    5  A    between atoms: C6_6  and  C8_8 
REMARK    6  A    between atoms: C8_8  and  C11_11 
REMARK    7  A    between atoms: C11_11  and  C12_12 
REMARK    8  A    between atoms: C12_12  and  O2_14 
REMARK    9  A    between atoms: O2_14  and  C13_15 
REMARK   10  A    between atoms: C16_18  and  O3_19 
REMARK   11  A    between atoms: C20_24  and  C22_26 
REMARK   12  A    between atoms: O6_36  and  C29_37 
REMARK   13  A    between atoms: C29_37  and  C30_39 
REMARK   14  A    between atoms: C30_39  and  C31_40 
ROOT
HETATM    1  C13 UNL     1      11.791  -0.677  29.259  1.00  0.00     0.135 C 
HETATM    2  C14 UNL     1      13.109  -1.387  29.339  1.00  0.00     0.042 C 
HETATM    3  C15 UNL     1      13.652  -0.886  30.641  1.00  0.00     0.041 C 
HETATM    4  C16 UNL     1      12.501  -0.432  31.454  1.00  0.00     0.065 C 
HETATM    5  C17 UNL     1      12.985   0.409  32.575  1.00  0.00     0.039 C 
HETATM    6  C18 UNL     1      14.422   0.073  32.928  1.00  0.00     0.010 C 
HETATM    7  C19 UNL     1      14.716  -1.423  32.726  1.00  0.00     0.023 C 
HETATM    8  C20 UNL     1      15.865  -1.891  33.518  1.00  0.00     0.050 C 
HETATM    9  C21 UNL     1      16.418  -0.755  34.399  1.00  0.00     0.027 C 
HETATM   10  C23 UNL     1      17.024  -2.455  32.779  1.00  0.00     0.021 C 
HETATM   11  C24 UNL     1      17.996  -1.417  32.260  1.00  0.00     0.012 C 
HETATM   12  C25 UNL     1      17.571  -1.080  30.877  1.00  0.00     0.075 C 
HETATM   13  S1  UNL     1      16.069  -1.747  30.305  1.00  0.00    -0.159 SA
HETATM   14  C26 UNL     1      14.635  -1.823  31.301  1.00  0.00     0.016 C 
HETATM   15  C27 UNL     1      14.103  -3.262  31.248  1.00  0.00     0.028 C 
HETATM   16  C28 UNL     1      11.762   0.374  30.363  1.00  0.00     0.071 C 
ENDROOT
BRANCH   1  17
HETATM   17  O2  UNL     1      11.482  -0.184  27.992  1.00  0.00    -0.316 OA
BRANCH  17  18
HETATM   18  C12 UNL     1      10.437  -0.662  27.195  1.00  0.00     0.260 C 
HETATM   19  O1  UNL     1       9.296  -0.533  27.651  1.00  0.00    -0.265 OA
BRANCH  18  20
HETATM   20  C11 UNL     1      10.831  -1.260  25.912  1.00  0.00     0.124 C 
BRANCH  20  21
HETATM   21  C8  UNL     1      11.256  -0.182  24.965  1.00  0.00    -0.016 C 
HETATM   22  C9  UNL     1      11.396   1.169  25.585  1.00  0.00     0.020 C 
HETATM   23  C10 UNL     1      12.602  -0.577  24.341  1.00  0.00     0.020 C 
BRANCH  21  24
HETATM   24  C6  UNL     1      10.325  -0.047  23.797  1.00  0.00    -0.079 C 
HETATM   25  C5  UNL     1       9.426  -0.943  23.461  1.00  0.00    -0.021 C 
HETATM   26  C7  UNL     1      10.442   1.194  22.981  1.00  0.00     0.044 C 
BRANCH  25  27
HETATM   27  C4  UNL     1       8.532  -0.751  22.297  1.00  0.00     0.060 C 
BRANCH  27  28
HETATM   28  C3  UNL     1       7.063  -0.735  22.691  1.00  0.00     0.135 C 
BRANCH  28  29
HETATM   29  C2  UNL     1       6.465  -2.119  22.596  1.00  0.00     0.028 C 
HETATM   30  C1  UNL     1       4.957  -2.020  22.703  1.00  0.00     0.007 C 
ENDBRANCH  28  29
BRANCH  28  31
HETATM   31  O6  UNL     1       6.854  -0.103  23.917  1.00  0.00    -0.316 OA
BRANCH  31  32
HETATM   32  C29 UNL     1       6.213   1.119  24.026  1.00  0.00     0.259 C 
HETATM   33  O7  UNL     1       5.638   1.569  23.004  1.00  0.00    -0.265 OA
BRANCH  32  34
HETATM   34  C30 UNL     1       6.250   1.801  25.333  1.00  0.00     0.115 C 
BRANCH  34  35
HETATM   35  C31 UNL     1       7.635   2.055  25.847  1.00  0.00    -0.013 C 
HETATM   36  C32 UNL     1       7.638   2.465  27.299  1.00  0.00     0.010 C 
HETATM   37  C33 UNL     1       8.366   3.070  25.007  1.00  0.00     0.010 C 
ENDBRANCH  34  35
ENDBRANCH  32  34
ENDBRANCH  31  32
ENDBRANCH  28  31
ENDBRANCH  27  28
ENDBRANCH  25  27
ENDBRANCH  21  24
ENDBRANCH  20  21
ENDBRANCH  18  20
ENDBRANCH  17  18
ENDBRANCH   1  17
BRANCH   4  38
HETATM   38  O3  UNL     1      11.597  -1.411  31.821  1.00  0.00    -0.389 OA
ATOM     39  H3  UNL     1      10.717  -1.313  31.477  1.00  0.00     0.210 HD
ENDBRANCH   4  38
BRANCH   8  40
HETATM   40  C22 UNL     1      15.477  -2.941  34.544  1.00  0.00     0.181 C 
HETATM   41  O4  UNL     1      15.489  -4.158  34.304  1.00  0.00    -0.647 OA
HETATM   42  O5  UNL     1      15.083  -2.540  35.824  1.00  0.00    -0.647 OA
ENDBRANCH   8  40
TORSDOF 14
ENDMDL
MODEL 5
REMARK VINA RESULT: -7.345547393      2.705      5.563
REMARK  14 active torsions:
REMARK  status: ('A' for Active; 'I' for Inactive)
REMARK    1  A    between atoms: C2_2  and  C3_3 
REMARK    2  A    between atoms: C3_3  and  C4_4 
REMARK    3  A    between atoms: C3_3  and  O6_36 
REMARK    4  A    between atoms: C4_4  and  C5_5 
REMARK    5  A    between atoms: C6_6  and  C8_8 
REMARK    6  A    between atoms: C8_8  and  C11_11 
REMARK    7  A    between atoms: C11_11  and  C12_12 
REMARK    8  A    between atoms: C12_12  and  O2_14 
REMARK    9  A    between atoms: O2_14  and  C13_15 
REMARK   10  A    between atoms: C16_18  and  O3_19 
REMARK   11  A    between atoms: C20_24  and  C22_26 
REMARK   12  A    between atoms: O6_36  and  C29_37 
REMARK   13  A    between atoms: C29_37  and  C30_39 
REMARK   14  A    between atoms: C30_39  and  C31_40 
ROOT
HETATM    1  C13 UNL     1      14.831   1.105  25.619  1.00  0.00     0.135 C 
HETATM    2  C14 UNL     1      14.521   0.926  27.075  1.00  0.00     0.042 C 
HETATM    3  C15 UNL     1      15.521  -0.110  27.480  1.00  0.00     0.041 C 
HETATM    4  C16 UNL     1      16.636  -0.052  26.506  1.00  0.00     0.065 C 
HETATM    5  C17 UNL     1      17.460  -1.279  26.620  1.00  0.00     0.039 C 
HETATM    6  C18 UNL     1      17.337  -1.892  28.003  1.00  0.00     0.010 C 
HETATM    7  C19 UNL     1      17.166  -0.811  29.084  1.00  0.00     0.023 C 
HETATM    8  C20 UNL     1      17.561  -1.276  30.424  1.00  0.00     0.050 C 
HETATM    9  C21 UNL     1      18.114  -2.712  30.360  1.00  0.00     0.027 C 
HETATM   10  C23 UNL     1      16.523  -1.270  31.487  1.00  0.00     0.021 C 
HETATM   11  C24 UNL     1      15.629  -2.491  31.492  1.00  0.00     0.012 C 
HETATM   12  C25 UNL     1      14.446  -2.164  30.654  1.00  0.00     0.075 C 
HETATM   13  S1  UNL     1      14.464  -0.661  29.776  1.00  0.00    -0.159 SA
HETATM   14  C26 UNL     1      15.886  -0.076  28.945  1.00  0.00     0.016 C 
HETATM   15  C27 UNL     1      16.127   1.373  29.392  1.00  0.00     0.028 C 
HETATM   16  C28 UNL     1      15.795  -0.002  25.211  1.00  0.00     0.071 C 
ENDROOT
BRANCH   1  17
HETATM   17  O2  UNL     1      13.706   1.214  24.802  1.00  0.00    -0.316 OA
BRANCH  17  18
HETATM   18  C12 UNL     1      13.118   0.142  24.125  1.00  0.00     0.260 C 
HETATM   19  O1  UNL     1      13.337   0.075  22.911  1.00  0.00    -0.265 OA
BRANCH  18  20
HETATM   20  C11 UNL     1      12.310  -0.770  24.945  1.00  0.00     0.124 C 
BRANCH  20  21
HETATM   21  C8  UNL     1      10.984  -0.141  25.236  1.00  0.00    -0.016 C 
HETATM   22  C9  UNL     1      10.186  -0.832  26.291  1.00  0.00     0.020 C 
HETATM   23  C10 UNL     1      11.213   1.314  25.668  1.00  0.00     0.020 C 
BRANCH  21  24
HETATM   24  C6  UNL     1      10.120  -0.038  24.014  1.00  0.00    -0.079 C 
HETATM   25  C5  UNL     1       9.398  -1.025  23.534  1.00  0.00    -0.021 C 
HETATM   26  C7  UNL     1      10.091   1.278  23.318  1.00  0.00     0.044 C 
BRANCH  25  27
HETATM   27  C4  UNL     1       8.562  -0.860  22.323  1.00  0.00     0.060 C 
BRANCH  27  28
HETATM   28  C3  UNL     1       7.074  -0.924  22.634  1.00  0.00     0.135 C 
BRANCH  28  29
HETATM   29  C2  UNL     1       6.530  -2.311  22.380  1.00  0.00     0.028 C 
HETATM   30  C1  UNL     1       5.021  -2.285  22.498  1.00  0.00     0.007 C 
ENDBRANCH  28  29
BRANCH  28  31
HETATM   31  O6  UNL     1       6.778  -0.414  23.899  1.00  0.00    -0.316 OA
BRANCH  31  32
HETATM   32  C29 UNL     1       6.120   0.789  24.082  1.00  0.00     0.259 C 
HETATM   33  O7  UNL     1       4.867   0.762  24.166  1.00  0.00    -0.265 OA
BRANCH  32  34
HETATM   34  C30 UNL     1       6.937   2.014  24.167  1.00  0.00     0.115 C 
BRANCH  34  35
HETATM   35  C31 UNL     1       7.198   2.475  25.570  1.00  0.00    -0.013 C 
HETATM   36  C32 UNL     1       8.338   3.461  25.643  1.00  0.00     0.010 C 
HETATM   37  C33 UNL     1       7.436   1.317  26.504  1.00  0.00     0.010 C 
ENDBRANCH  34  35
ENDBRANCH  32  34
ENDBRANCH  31  32
ENDBRANCH  28  31
ENDBRANCH  27  28
ENDBRANCH  25  27
ENDBRANCH  21  24
ENDBRANCH  20  21
ENDBRANCH  18  20
ENDBRANCH  17  18
ENDBRANCH   1  17
BRANCH   4  38
HETATM   38  O3  UNL     1      17.359   1.125  26.484  1.00  0.00    -0.389 OA
ATOM     39  H3  UNL     1      18.304   1.031  26.508  1.00  0.00     0.210 HD
ENDBRANCH   4  38
BRANCH   8  40
HETATM   40  C22 UNL     1      18.737  -0.498  30.987  1.00  0.00     0.181 C 
HETATM   41  O4  UNL     1      19.729  -0.187  30.308  1.00  0.00    -0.647 OA
HETATM   42  O5  UNL     1      18.725  -0.104  32.328  1.00  0.00    -0.647 OA
ENDBRANCH   8  40
TORSDOF 14
ENDMDL
