MODEL 1
REMARK VINA RESULT: -6.653238170      0.000      0.000
REMARK  9 active torsions:
REMARK  status: ('A' for Active; 'I' for Inactive)
REMARK    1  A    between atoms: C2_2  and  C3_3 
REMARK    2  A    between atoms: C3_3  and  C4_4 
REMARK    3  A    between atoms: C4_4  and  O1_5 
REMARK    4  A    between atoms: C5_8  and  C6_9 
REMARK    5  A    between atoms: C7_10  and  C8_11 
REMARK    6  A    between atoms: C8_11  and  O3_12 
REMARK    7  A    between atoms: C8_11  and  C9_14 
REMARK    8  A    between atoms: C10_15  and  C11_16 
REMARK    9  A    between atoms: C12_17  and  C13_18 
ROOT
HETATM    1  C8  UNL     1       1.401   9.091   3.029  1.00  0.00     0.164 C 
ENDROOT
BRANCH   1   2
HETATM    2  C7  UNL     1       1.681  10.114   4.062  1.00  0.00     0.011 C 
HETATM    3  C6  UNL     1       0.809  10.438   4.975  1.00  0.00     0.035 C 
BRANCH   3   4
HETATM    4  C5  UNL     1      -0.519   9.867   5.112  1.00  0.00     0.067 C 
HETATM    5  O2  UNL     1      -0.840   8.610   5.586  1.00  0.00    -0.337 OA
HETATM    6  C3  UNL     1      -2.156   8.235   5.199  1.00  0.00     0.099 C 
HETATM    7  C20 UNL     1      -2.804   9.563   5.080  1.00  0.00     0.006 C 
HETATM    8  C19 UNL     1      -1.679  10.487   4.790  1.00  0.00     0.022 C 
HETATM    9  C21 UNL     1      -3.389   9.985   6.410  1.00  0.00     0.022 C 
HETATM   10  C22 UNL     1      -3.796   9.691   3.963  1.00  0.00     0.022 C 
BRANCH   6  11
HETATM   11  C2  UNL     1      -2.693   7.369   6.288  1.00  0.00     0.037 C 
HETATM   12  C1  UNL     1      -1.687   6.783   7.199  1.00  0.00     0.008 C 
ENDBRANCH   6  11
BRANCH   6  13
HETATM   13  C4  UNL     1      -2.017   7.502   3.886  1.00  0.00     0.203 C 
BRANCH  13  14
HETATM   14  O1  UNL     1      -2.847   6.400   3.802  1.00  0.00    -0.398 OA
ATOM     15  H1  UNL     1      -3.229   6.295   2.938  1.00  0.00     0.209 HD
ENDBRANCH  13  14
ENDBRANCH   6  13
ENDBRANCH   3   4
ENDBRANCH   1   2
BRANCH   1  16
HETATM   16  O3  UNL     1       0.412   9.524   2.139  1.00  0.00    -0.388 OA
ATOM     17  H3  UNL     1      -0.408   9.688   2.589  1.00  0.00     0.210 HD
ENDBRANCH   1  16
BRANCH   1  18
HETATM   18  C9  UNL     1       2.640   8.955   2.212  1.00  0.00     0.008 C 
HETATM   19  C10 UNL     1       3.229   7.746   2.202  1.00  0.00    -0.001 C 
BRANCH  19  20
HETATM   20  C11 UNL     1       4.439   7.523   1.435  1.00  0.00    -0.003 C 
HETATM   21  C12 UNL     1       4.964   6.338   1.303  1.00  0.00    -0.016 C 
BRANCH  21  22
HETATM   22  C13 UNL     1       4.449   5.091   1.878  1.00  0.00     0.063 C 
HETATM   23  C14 UNL     1       5.532   4.075   2.048  1.00  0.00    -0.016 C 
HETATM   24  C15 UNL     1       5.593   2.955   1.347  1.00  0.00     0.031 C 
HETATM   25  C16 UNL     1       4.561   2.647   0.330  1.00  0.00     0.406 C 
HETATM   26  N1  UNL     1       3.329   2.185   0.929  1.00  0.00    -0.041 N 
HETATM   27  N2  UNL     1       4.156   3.941  -0.228  1.00  0.00    -0.036 N 
HETATM   28  C17 UNL     1       2.730   3.343   1.545  1.00  0.00     0.269 C 
ATOM     29  H12 UNL     1       2.710   1.707   0.273  1.00  0.00     0.280 HD
ATOM     30  H11 UNL     1       3.455   1.401   1.570  1.00  0.00     0.280 HD
HETATM   31  C18 UNL     1       3.439   4.508   0.883  1.00  0.00     0.225 C 
ATOM     32  H22 UNL     1       4.913   4.515  -0.599  1.00  0.00     0.280 HD
ATOM     33  H21 UNL     1       3.639   3.898  -1.107  1.00  0.00     0.280 HD
ENDBRANCH  21  22
ENDBRANCH  19  20
ENDBRANCH   1  18
TORSDOF 9
ENDMDL
MODEL 2
REMARK VINA RESULT: -6.412192490      2.861      4.007
REMARK  9 active torsions:
REMARK  status: ('A' for Active; 'I' for Inactive)
REMARK    1  A    between atoms: C2_2  and  C3_3 
REMARK    2  A    between atoms: C3_3  and  C4_4 
REMARK    3  A    between atoms: C4_4  and  O1_5 
REMARK    4  A    between atoms: C5_8  and  C6_9 
REMARK    5  A    between atoms: C7_10  and  C8_11 
REMARK    6  A    between atoms: C8_11  and  O3_12 
REMARK    7  A    between atoms: C8_11  and  C9_14 
REMARK    8  A    between atoms: C10_15  and  C11_16 
REMARK    9  A    between atoms: C12_17  and  C13_18 
ROOT
HETATM    1  C8  UNL     1       1.382  10.124   2.867  1.00  0.00     0.164 C 
ENDROOT
BRANCH   1   2
HETATM    2  C7  UNL     1       1.794  10.566   4.219  1.00  0.00     0.011 C 
HETATM    3  C6  UNL     1       1.003  10.477   5.251  1.00  0.00     0.035 C 
BRANCH   3   4
HETATM    4  C5  UNL     1      -0.351   9.952   5.233  1.00  0.00     0.067 C 
HETATM    5  O2  UNL     1      -0.751   8.673   5.568  1.00  0.00    -0.337 OA
HETATM    6  C3  UNL     1      -2.044   8.387   5.048  1.00  0.00     0.099 C 
HETATM    7  C20 UNL     1      -2.634   9.745   4.998  1.00  0.00     0.006 C 
HETATM    8  C19 UNL     1      -1.458  10.644   4.880  1.00  0.00     0.022 C 
HETATM    9  C21 UNL     1      -3.310  10.076   6.311  1.00  0.00     0.022 C 
HETATM   10  C22 UNL     1      -3.528  10.010   3.823  1.00  0.00     0.022 C 
BRANCH   6  11
HETATM   11  C2  UNL     1      -2.696   7.453   6.011  1.00  0.00     0.037 C 
HETATM   12  C1  UNL     1      -1.804   6.837   7.015  1.00  0.00     0.008 C 
ENDBRANCH   6  11
BRANCH   6  13
HETATM   13  C4  UNL     1      -1.824   7.765   3.689  1.00  0.00     0.203 C 
BRANCH  13  14
HETATM   14  O1  UNL     1      -2.636   6.667   3.470  1.00  0.00    -0.398 OA
ATOM     15  H1  UNL     1      -2.822   6.185   4.269  1.00  0.00     0.209 HD
ENDBRANCH  13  14
ENDBRANCH   6  13
ENDBRANCH   3   4
ENDBRANCH   1   2
BRANCH   1  16
HETATM   16  O3  UNL     1       1.778  11.042   1.889  1.00  0.00    -0.388 OA
ATOM     17  H3  UNL     1       1.034  11.353   1.386  1.00  0.00     0.210 HD
ENDBRANCH   1  16
BRANCH   1  18
HETATM   18  C9  UNL     1       2.142   8.876   2.573  1.00  0.00     0.008 C 
HETATM   19  C10 UNL     1       3.359   9.024   2.021  1.00  0.00    -0.001 C 
BRANCH  19  20
HETATM   20  C11 UNL     1       4.168   7.864   1.701  1.00  0.00    -0.003 C 
HETATM   21  C12 UNL     1       5.470   7.912   1.695  1.00  0.00    -0.016 C 
BRANCH  21  22
HETATM   22  C13 UNL     1       6.298   9.084   1.994  1.00  0.00     0.063 C 
HETATM   23  C14 UNL     1       6.751   9.772   0.747  1.00  0.00    -0.016 C 
HETATM   24  C15 UNL     1       8.013   9.802   0.352  1.00  0.00     0.031 C 
HETATM   25  C16 UNL     1       9.067   9.135   1.151  1.00  0.00     0.406 C 
HETATM   26  N1  UNL     1       9.433   9.904   2.319  1.00  0.00    -0.041 N 
HETATM   27  N2  UNL     1       8.425   7.962   1.753  1.00  0.00    -0.036 N 
HETATM   28  C17 UNL     1       8.322   9.789   3.231  1.00  0.00     0.269 C 
ATOM     29  H12 UNL     1      10.325   9.626   2.727  1.00  0.00     0.280 HD
ATOM     30  H11 UNL     1       9.689  10.869   2.108  1.00  0.00     0.280 HD
HETATM   31  C18 UNL     1       7.556   8.587   2.714  1.00  0.00     0.225 C 
ATOM     32  H22 UNL     1       7.969   7.327   1.098  1.00  0.00     0.280 HD
ATOM     33  H21 UNL     1       9.061   7.258   2.129  1.00  0.00     0.280 HD
ENDBRANCH  21  22
ENDBRANCH  19  20
ENDBRANCH   1  18
TORSDOF 9
ENDMDL
MODEL 3
REMARK VINA RESULT: -6.330584463      9.556     12.784
REMARK  9 active torsions:
REMARK  status: ('A' for Active; 'I' for Inactive)
REMARK    1  A    between atoms: C2_2  and  C3_3 
REMARK    2  A    between atoms: C3_3  and  C4_4 
REMARK    3  A    between atoms: C4_4  and  O1_5 
REMARK    4  A    between atoms: C5_8  and  C6_9 
REMARK    5  A    between atoms: C7_10  and  C8_11 
REMARK    6  A    between atoms: C8_11  and  O3_12 
REMARK    7  A    between atoms: C8_11  and  C9_14 
REMARK    8  A    between atoms: C10_15  and  C11_16 
REMARK    9  A    between atoms: C12_17  and  C13_18 
ROOT
HETATM    1  C8  UNL     1      12.041  13.870   0.280  1.00  0.00     0.164 C 
ENDROOT
BRANCH   1   2
HETATM    2  C7  UNL     1      10.778  14.235  -0.401  1.00  0.00     0.011 C 
HETATM    3  C6  UNL     1       9.672  13.572  -0.219  1.00  0.00     0.035 C 
BRANCH   3   4
HETATM    4  C5  UNL     1       9.514  12.416   0.647  1.00  0.00     0.067 C 
HETATM    5  O2  UNL     1       9.473  11.090   0.264  1.00  0.00    -0.337 OA
HETATM    6  C3  UNL     1       8.902  10.278   1.283  1.00  0.00     0.099 C 
HETATM    7  C20 UNL     1       9.246  11.062   2.492  1.00  0.00     0.006 C 
HETATM    8  C19 UNL     1       9.380  12.453   1.993  1.00  0.00     0.022 C 
HETATM    9  C21 UNL     1      10.602  10.651   3.021  1.00  0.00     0.022 C 
HETATM   10  C22 UNL     1       8.200  11.065   3.568  1.00  0.00     0.022 C 
BRANCH   6  11
HETATM   11  C2  UNL     1       9.563   8.944   1.189  1.00  0.00     0.037 C 
HETATM   12  C1  UNL     1      10.439   8.741   0.016  1.00  0.00     0.008 C 
ENDBRANCH   6  11
BRANCH   6  13
HETATM   13  C4  UNL     1       7.421  10.216   0.993  1.00  0.00     0.203 C 
BRANCH  13  14
HETATM   14  O1  UNL     1       7.148   9.748  -0.279  1.00  0.00    -0.398 OA
ATOM     15  H1  UNL     1       6.831   8.851  -0.277  1.00  0.00     0.209 HD
ENDBRANCH  13  14
ENDBRANCH   6  13
ENDBRANCH   3   4
ENDBRANCH   1   2
BRANCH   1  16
HETATM   16  O3  UNL     1      13.107  13.807  -0.624  1.00  0.00    -0.388 OA
ATOM     17  H3  UNL     1      13.935  13.692  -0.173  1.00  0.00     0.210 HD
ENDBRANCH   1  16
BRANCH   1  18
HETATM   18  C9  UNL     1      12.369  14.989   1.206  1.00  0.00     0.008 C 
HETATM   19  C10 UNL     1      12.427  14.694   2.518  1.00  0.00    -0.001 C 
BRANCH  19  20
HETATM   20  C11 UNL     1      12.739  15.722   3.491  1.00  0.00    -0.003 C 
HETATM   21  C12 UNL     1      12.053  15.864   4.588  1.00  0.00    -0.016 C 
BRANCH  21  22
HETATM   22  C13 UNL     1      10.905  15.052   5.007  1.00  0.00     0.063 C 
HETATM   23  C14 UNL     1       9.610  15.739   4.722  1.00  0.00    -0.016 C 
HETATM   24  C15 UNL     1       8.801  16.184   5.669  1.00  0.00     0.031 C 
HETATM   25  C16 UNL     1       9.153  16.018   7.098  1.00  0.00     0.406 C 
HETATM   26  N1  UNL     1       8.923  14.668   7.561  1.00  0.00    -0.041 N 
HETATM   27  N2  UNL     1      10.615  16.111   7.160  1.00  0.00    -0.036 N 
HETATM   28  C17 UNL     1       9.954  13.862   6.957  1.00  0.00     0.269 C 
ATOM     29  H12 UNL     1       8.884  14.586   8.577  1.00  0.00     0.280 HD
ATOM     30  H11 UNL     1       7.979  14.328   7.375  1.00  0.00     0.280 HD
HETATM   31  C18 UNL     1      10.996  14.876   6.527  1.00  0.00     0.225 C 
ATOM     32  H22 UNL     1      11.018  16.954   6.753  1.00  0.00     0.280 HD
ATOM     33  H21 UNL     1      11.006  16.266   8.090  1.00  0.00     0.280 HD
ENDBRANCH  21  22
ENDBRANCH  19  20
ENDBRANCH   1  18
TORSDOF 9
ENDMDL
MODEL 4
REMARK VINA RESULT: -6.328532464      5.006      9.523
REMARK  9 active torsions:
REMARK  status: ('A' for Active; 'I' for Inactive)
REMARK    1  A    between atoms: C2_2  and  C3_3 
REMARK    2  A    between atoms: C3_3  and  C4_4 
REMARK    3  A    between atoms: C4_4  and  O1_5 
REMARK    4  A    between atoms: C5_8  and  C6_9 
REMARK    5  A    between atoms: C7_10  and  C8_11 
REMARK    6  A    between atoms: C8_11  and  O3_12 
REMARK    7  A    between atoms: C8_11  and  C9_14 
REMARK    8  A    between atoms: C10_15  and  C11_16 
REMARK    9  A    between atoms: C12_17  and  C13_18 
ROOT
HETATM    1  C8  UNL     1       3.809  10.570   2.105  1.00  0.00     0.164 C 
ENDROOT
BRANCH   1   2
HETATM    2  C7  UNL     1       4.029   9.189   1.618  1.00  0.00     0.011 C 
HETATM    3  C6  UNL     1       5.222   8.704   1.420  1.00  0.00     0.035 C 
BRANCH   3   4
HETATM    4  C5  UNL     1       6.470   9.415   1.636  1.00  0.00     0.067 C 
HETATM    5  O2  UNL     1       7.004  10.416   0.847  1.00  0.00    -0.337 OA
HETATM    6  C3  UNL     1       8.392  10.587   1.105  1.00  0.00     0.099 C 
HETATM    7  C20 UNL     1       8.473  10.139   2.515  1.00  0.00     0.006 C 
HETATM    8  C19 UNL     1       7.325   9.210   2.664  1.00  0.00     0.022 C 
HETATM    9  C21 UNL     1       8.225  11.299   3.454  1.00  0.00     0.022 C 
HETATM   10  C22 UNL     1       9.719   9.383   2.873  1.00  0.00     0.022 C 
BRANCH   6  11
HETATM   11  C2  UNL     1       8.693  12.032   0.886  1.00  0.00     0.037 C 
HETATM   12  C1  UNL     1      10.090  12.352   0.525  1.00  0.00     0.008 C 
ENDBRANCH   6  11
BRANCH   6  13
HETATM   13  C4  UNL     1       9.117   9.687   0.133  1.00  0.00     0.203 C 
BRANCH  13  14
HETATM   14  O1  UNL     1       8.594   9.754  -1.144  1.00  0.00    -0.398 OA
ATOM     15  H1  UNL     1       8.808  10.569  -1.585  1.00  0.00     0.209 HD
ENDBRANCH  13  14
ENDBRANCH   6  13
ENDBRANCH   3   4
ENDBRANCH   1   2
BRANCH   1  16
HETATM   16  O3  UNL     1       4.410  11.509   1.259  1.00  0.00    -0.388 OA
ATOM     17  H3  UNL     1       5.349  11.376   1.208  1.00  0.00     0.210 HD
ENDBRANCH   1  16
BRANCH   1  18
HETATM   18  C9  UNL     1       2.345  10.829   2.014  1.00  0.00     0.008 C 
HETATM   19  C10 UNL     1       1.536   9.754   2.038  1.00  0.00    -0.001 C 
BRANCH  19  20
HETATM   20  C11 UNL     1       0.098   9.913   1.954  1.00  0.00    -0.003 C 
HETATM   21  C12 UNL     1      -0.650   9.998   3.016  1.00  0.00    -0.016 C 
BRANCH  21  22
HETATM   22  C13 UNL     1      -0.191   9.949   4.409  1.00  0.00     0.063 C 
HETATM   23  C14 UNL     1      -0.305   8.573   4.979  1.00  0.00    -0.016 C 
HETATM   24  C15 UNL     1      -1.156   8.254   5.939  1.00  0.00     0.031 C 
HETATM   25  C16 UNL     1      -2.064   9.276   6.511  1.00  0.00     0.406 C 
HETATM   26  N1  UNL     1      -1.379  10.154   7.433  1.00  0.00    -0.041 N 
HETATM   27  N2  UNL     1      -2.380  10.187   5.407  1.00  0.00    -0.036 N 
HETATM   28  C17 UNL     1      -0.536  10.997   6.623  1.00  0.00     0.269 C 
ATOM     29  H12 UNL     1      -2.009  10.675   8.044  1.00  0.00     0.280 HD
ATOM     30  H11 UNL     1      -0.875   9.660   8.169  1.00  0.00     0.280 HD
HETATM   31  C18 UNL     1      -1.117  10.854   5.230  1.00  0.00     0.225 C 
ATOM     32  H22 UNL     1      -2.763   9.747   4.571  1.00  0.00     0.280 HD
ATOM     33  H21 UNL     1      -3.181  10.800   5.559  1.00  0.00     0.280 HD
ENDBRANCH  21  22
ENDBRANCH  19  20
ENDBRANCH   1  18
TORSDOF 9
ENDMDL
MODEL 5
REMARK VINA RESULT: -6.315364096      6.347     10.574
REMARK  9 active torsions:
REMARK  status: ('A' for Active; 'I' for Inactive)
REMARK    1  A    between atoms: C2_2  and  C3_3 
REMARK    2  A    between atoms: C3_3  and  C4_4 
REMARK    3  A    between atoms: C4_4  and  O1_5 
REMARK    4  A    between atoms: C5_8  and  C6_9 
REMARK    5  A    between atoms: C7_10  and  C8_11 
REMARK    6  A    between atoms: C8_11  and  O3_12 
REMARK    7  A    between atoms: C8_11  and  C9_14 
REMARK    8  A    between atoms: C10_15  and  C11_16 
REMARK    9  A    between atoms: C12_17  and  C13_18 
ROOT
HETATM    1  C8  UNL     1       7.338   9.718   1.492  1.00  0.00     0.164 C 
ENDROOT
BRANCH   1   2
HETATM    2  C7  UNL     1       8.483   8.987   0.904  1.00  0.00     0.011 C 
HETATM    3  C6  UNL     1       9.526   9.601   0.420  1.00  0.00     0.035 C 
BRANCH   3   4
HETATM    4  C5  UNL     1       9.716  11.041   0.385  1.00  0.00     0.067 C 
HETATM    5  O2  UNL     1       8.898  11.973  -0.223  1.00  0.00    -0.337 OA
HETATM    6  C3  UNL     1       9.582  13.204  -0.422  1.00  0.00     0.099 C 
HETATM    7  C20 UNL     1      10.565  13.162   0.686  1.00  0.00     0.006 C 
HETATM    8  C19 UNL     1      10.744  11.713   0.952  1.00  0.00     0.022 C 
HETATM    9  C21 UNL     1       9.975  13.770   1.939  1.00  0.00     0.022 C 
HETATM   10  C22 UNL     1      11.913  13.735   0.364  1.00  0.00     0.022 C 
BRANCH   6  11
HETATM   11  C2  UNL     1       8.558  14.284  -0.314  1.00  0.00     0.037 C 
HETATM   12  C1  UNL     1       8.785  15.474  -1.161  1.00  0.00     0.008 C 
ENDBRANCH   6  11
BRANCH   6  13
HETATM   13  C4  UNL     1      10.203  13.126  -1.796  1.00  0.00     0.203 C 
BRANCH  13  14
HETATM   14  O1  UNL     1       9.537  12.247  -2.630  1.00  0.00    -0.398 OA
ATOM     15  H1  UNL     1       9.772  12.362  -3.544  1.00  0.00     0.209 HD
ENDBRANCH  13  14
ENDBRANCH   6  13
ENDBRANCH   3   4
ENDBRANCH   1   2
BRANCH   1  16
HETATM   16  O3  UNL     1       6.682  10.494   0.531  1.00  0.00    -0.388 OA
ATOM     17  H3  UNL     1       6.080   9.969   0.016  1.00  0.00     0.210 HD
ENDBRANCH   1  16
BRANCH   1  18
HETATM   18  C9  UNL     1       6.347   8.691   1.920  1.00  0.00     0.008 C 
HETATM   19  C10 UNL     1       5.081   8.857   1.495  1.00  0.00    -0.001 C 
BRANCH  19  20
HETATM   20  C11 UNL     1       4.051   7.906   1.864  1.00  0.00    -0.003 C 
HETATM   21  C12 UNL     1       2.922   8.282   2.393  1.00  0.00    -0.016 C 
BRANCH  21  22
HETATM   22  C13 UNL     1       2.519   9.660   2.692  1.00  0.00     0.063 C 
HETATM   23  C14 UNL     1       1.752   9.745   3.972  1.00  0.00    -0.016 C 
HETATM   24  C15 UNL     1       0.468  10.056   4.029  1.00  0.00     0.031 C 
HETATM   25  C16 UNL     1      -0.292  10.342   2.791  1.00  0.00     0.406 C 
HETATM   26  N1  UNL     1      -0.013  11.664   2.275  1.00  0.00    -0.041 N 
HETATM   27  N2  UNL     1       0.298   9.486   1.756  1.00  0.00    -0.036 N 
HETATM   28  C17 UNL     1       1.323  11.604   1.737  1.00  0.00     0.269 C 
ATOM     29  H12 UNL     1      -0.708  11.996   1.606  1.00  0.00     0.280 HD
ATOM     30  H11 UNL     1      -0.142  12.406   2.963  1.00  0.00     0.280 HD
HETATM   31  C18 UNL     1       1.577  10.118   1.573  1.00  0.00     0.225 C 
ATOM     32  H22 UNL     1       0.328   8.491   1.976  1.00  0.00     0.280 HD
ATOM     33  H21 UNL     1      -0.261   9.373   0.910  1.00  0.00     0.280 HD
ENDBRANCH  21  22
ENDBRANCH  19  20
ENDBRANCH   1  18
TORSDOF 9
ENDMDL
