MODEL 1
REMARK VINA RESULT: -7.494613710      0.000      0.000
REMARK  10 active torsions:
REMARK  status: ('A' for Active; 'I' for Inactive)
REMARK    1  A    between atoms: C5_5  and  O1_6 
REMARK    2  A    between atoms: C6_8  and  C7_9 
REMARK    3  A    between atoms: C7_9  and  O2_11 
REMARK    4  A    between atoms: C11_15  and  C12_16 
REMARK    5  A    between atoms: C12_16  and  C13_17 
REMARK    6  A    between atoms: C14_18  and  C15_19 
REMARK    7  A    between atoms: C15_19  and  C16_20 
REMARK    8  A    between atoms: C17_21  and  C18_22 
REMARK    9  A    between atoms: C18_22  and  C19_23 
REMARK   10  A    between atoms: C19_23  and  O3_24 
ROOT
HETATM    1  C12 UNL     1       5.780   9.944   1.247  1.00  0.00     0.032 C 
ENDROOT
BRANCH   1   2
HETATM    2  C11 UNL     1       6.841  10.240   2.253  1.00  0.00     0.000 C 
HETATM    3  C4  UNL     1       7.291  11.664   2.150  1.00  0.00     0.020 C 
HETATM    4  C3  UNL     1       8.192  11.930   3.364  1.00  0.00     0.012 C 
HETATM    5  C5  UNL     1       8.170  11.616   0.884  1.00  0.00     0.129 C 
HETATM    6  C2  UNL     1       8.501  10.699   4.148  1.00  0.00    -0.018 C 
HETATM    7  C1  UNL     1       9.690  11.045   5.052  1.00  0.00     0.010 C 
HETATM    8  C10 UNL     1       8.978   9.605   3.208  1.00  0.00     0.010 C 
HETATM    9  C9  UNL     1       8.163   9.513   1.966  1.00  0.00    -0.000 C 
HETATM   10  C6  UNL     1       8.656  10.226   0.770  1.00  0.00     0.048 C 
BRANCH  10  11
HETATM   11  C7  UNL     1      10.092  10.073   0.401  1.00  0.00     0.121 C 
HETATM   12  C8  UNL     1      10.505   8.684   0.042  1.00  0.00     0.040 C 
BRANCH  11  13
HETATM   13  O2  UNL     1      11.018  10.625   1.241  1.00  0.00    -0.395 OA
ATOM     14  H2  UNL     1      11.101  10.246   2.108  1.00  0.00     0.210 HD
ENDBRANCH  11  13
ENDBRANCH  10  11
BRANCH   5  15
HETATM   15  O1  UNL     1       9.150  12.572   1.068  1.00  0.00    -0.395 OA
ATOM     16  H1  UNL     1       9.971  12.152   0.837  1.00  0.00     0.210 HD
ENDBRANCH   5  15
ENDBRANCH   1   2
BRANCH   1  17
HETATM   17  C13 UNL     1       4.481   9.656   1.909  1.00  0.00    -0.030 C 
HETATM   18  C14 UNL     1       3.780   8.566   1.784  1.00  0.00    -0.027 C 
BRANCH  18  19
HETATM   19  C15 UNL     1       4.171   7.418   0.952  1.00  0.00     0.053 C 
BRANCH  19  20
HETATM   20  C16 UNL     1       4.978   6.434   1.754  1.00  0.00    -0.027 C 
HETATM   21  C17 UNL     1       4.995   5.152   1.557  1.00  0.00    -0.027 C 
BRANCH  21  22
HETATM   22  C18 UNL     1       4.243   4.409   0.528  1.00  0.00     0.066 C 
BRANCH  22  23
HETATM   23  C19 UNL     1       3.935   3.018   1.061  1.00  0.00     0.086 C 
HETATM   24  C20 UNL     1       4.082   2.053  -0.103  1.00  0.00     0.067 C 
HETATM   25  C21 UNL     1       2.645   1.759  -0.457  1.00  0.00     0.235 C 
HETATM   26  N1  UNL     1       2.035   1.630   0.874  1.00  0.00    -0.072 N 
HETATM   27  C22 UNL     1       2.481   2.908   1.458  1.00  0.00     0.270 C 
ATOM     28  H12 UNL     1       1.031   1.450   0.895  1.00  0.00     0.277 HD
ATOM     29  H11 UNL     1       2.272   0.788   1.398  1.00  0.00     0.277 HD
BRANCH  23  30
HETATM   30  O3  UNL     1       4.807   2.658   2.069  1.00  0.00    -0.388 OA
ATOM     31  H3  UNL     1       5.038   1.738   2.018  1.00  0.00     0.210 HD
ENDBRANCH  23  30
ENDBRANCH  22  23
ENDBRANCH  21  22
ENDBRANCH  19  20
ENDBRANCH  18  19
ENDBRANCH   1  17
TORSDOF 10
ENDMDL
MODEL 2
REMARK VINA RESULT: -7.384128255      1.246      2.546
REMARK  10 active torsions:
REMARK  status: ('A' for Active; 'I' for Inactive)
REMARK    1  A    between atoms: C5_5  and  O1_6 
REMARK    2  A    between atoms: C6_8  and  C7_9 
REMARK    3  A    between atoms: C7_9  and  O2_11 
REMARK    4  A    between atoms: C11_15  and  C12_16 
REMARK    5  A    between atoms: C12_16  and  C13_17 
REMARK    6  A    between atoms: C14_18  and  C15_19 
REMARK    7  A    between atoms: C15_19  and  C16_20 
REMARK    8  A    between atoms: C17_21  and  C18_22 
REMARK    9  A    between atoms: C18_22  and  C19_23 
REMARK   10  A    between atoms: C19_23  and  O3_24 
ROOT
HETATM    1  C12 UNL     1       5.543   9.576   2.002  1.00  0.00     0.032 C 
ENDROOT
BRANCH   1   2
HETATM    2  C11 UNL     1       6.782  10.256   1.526  1.00  0.00     0.000 C 
HETATM    3  C4  UNL     1       7.740   9.267   0.938  1.00  0.00     0.020 C 
HETATM    4  C3  UNL     1       8.858  10.080   0.271  1.00  0.00     0.012 C 
HETATM    5  C5  UNL     1       8.307   8.600   2.208  1.00  0.00     0.129 C 
HETATM    6  C2  UNL     1       8.773  11.542   0.556  1.00  0.00    -0.018 C 
HETATM    7  C1  UNL     1      10.132  12.141   0.173  1.00  0.00     0.010 C 
HETATM    8  C10 UNL     1       8.613  11.758   2.051  1.00  0.00     0.010 C 
HETATM    9  C9  UNL     1       7.638  10.820   2.671  1.00  0.00    -0.000 C 
HETATM   10  C6  UNL     1       8.171   9.592   3.293  1.00  0.00     0.048 C 
BRANCH  10  11
HETATM   11  C7  UNL     1       9.345   9.717   4.204  1.00  0.00     0.121 C 
HETATM   12  C8  UNL     1       9.109  10.542   5.425  1.00  0.00     0.040 C 
BRANCH  11  13
HETATM   13  O2  UNL     1      10.542  10.062   3.641  1.00  0.00    -0.395 OA
ATOM     14  H2  UNL     1      11.065   9.363   3.267  1.00  0.00     0.210 HD
ENDBRANCH  11  13
ENDBRANCH  10  11
BRANCH   5  15
HETATM   15  O1  UNL     1       9.604   8.236   1.898  1.00  0.00    -0.395 OA
ATOM     16  H1  UNL     1       9.684   7.323   2.147  1.00  0.00     0.210 HD
ENDBRANCH   5  15
ENDBRANCH   1   2
BRANCH   1  17
HETATM   17  C13 UNL     1       4.786   8.989   0.867  1.00  0.00    -0.030 C 
HETATM   18  C14 UNL     1       4.211   7.820   0.848  1.00  0.00    -0.027 C 
BRANCH  18  19
HETATM   19  C15 UNL     1       4.217   6.875   1.975  1.00  0.00     0.053 C 
BRANCH  19  20
HETATM   20  C16 UNL     1       5.393   5.942   1.878  1.00  0.00    -0.027 C 
HETATM   21  C17 UNL     1       5.406   4.831   1.210  1.00  0.00    -0.027 C 
BRANCH  21  22
HETATM   22  C18 UNL     1       4.295   4.262   0.424  1.00  0.00     0.066 C 
BRANCH  22  23
HETATM   23  C19 UNL     1       3.923   2.911   1.015  1.00  0.00     0.086 C 
HETATM   24  C20 UNL     1       4.006   1.894  -0.110  1.00  0.00     0.067 C 
HETATM   25  C21 UNL     1       2.551   1.661  -0.437  1.00  0.00     0.235 C 
HETATM   26  N1  UNL     1       1.953   1.615   0.905  1.00  0.00    -0.072 N 
HETATM   27  C22 UNL     1       2.470   2.890   1.433  1.00  0.00     0.270 C 
ATOM     28  H12 UNL     1       0.942   1.488   0.944  1.00  0.00     0.277 HD
ATOM     29  H11 UNL     1       2.154   0.783   1.459  1.00  0.00     0.277 HD
BRANCH  23  30
HETATM   30  O3  UNL     1       4.789   2.546   2.028  1.00  0.00    -0.388 OA
ATOM     31  H3  UNL     1       4.713   1.621   2.235  1.00  0.00     0.210 HD
ENDBRANCH  23  30
ENDBRANCH  22  23
ENDBRANCH  21  22
ENDBRANCH  19  20
ENDBRANCH  18  19
ENDBRANCH   1  17
TORSDOF 10
ENDMDL
MODEL 3
REMARK VINA RESULT: -7.261243117      0.935      1.116
REMARK  10 active torsions:
REMARK  status: ('A' for Active; 'I' for Inactive)
REMARK    1  A    between atoms: C5_5  and  O1_6 
REMARK    2  A    between atoms: C6_8  and  C7_9 
REMARK    3  A    between atoms: C7_9  and  O2_11 
REMARK    4  A    between atoms: C11_15  and  C12_16 
REMARK    5  A    between atoms: C12_16  and  C13_17 
REMARK    6  A    between atoms: C14_18  and  C15_19 
REMARK    7  A    between atoms: C15_19  and  C16_20 
REMARK    8  A    between atoms: C17_21  and  C18_22 
REMARK    9  A    between atoms: C18_22  and  C19_23 
REMARK   10  A    between atoms: C19_23  and  O3_24 
ROOT
HETATM    1  C12 UNL     1       5.674   8.971   1.210  1.00  0.00     0.032 C 
ENDROOT
BRANCH   1   2
HETATM    2  C11 UNL     1       6.710   9.460   2.165  1.00  0.00     0.000 C 
HETATM    3  C4  UNL     1       6.927  10.933   2.008  1.00  0.00     0.020 C 
HETATM    4  C3  UNL     1       7.819  11.373   3.178  1.00  0.00     0.012 C 
HETATM    5  C5  UNL     1       7.758  10.982   0.710  1.00  0.00     0.129 C 
HETATM    6  C2  UNL     1       8.345  10.230   3.979  1.00  0.00    -0.018 C 
HETATM    7  C1  UNL     1       9.497  10.785   4.827  1.00  0.00     0.010 C 
HETATM    8  C10 UNL     1       8.954   9.196   3.048  1.00  0.00     0.010 C 
HETATM    9  C9  UNL     1       8.120   8.939   1.843  1.00  0.00    -0.000 C 
HETATM   10  C6  UNL     1       8.451   9.683   0.611  1.00  0.00     0.048 C 
BRANCH  10  11
HETATM   11  C7  UNL     1       9.879   9.743   0.189  1.00  0.00     0.121 C 
HETATM   12  C8  UNL     1      10.481   8.430  -0.186  1.00  0.00     0.040 C 
BRANCH  11  13
HETATM   13  O2  UNL     1      10.743  10.432   0.993  1.00  0.00    -0.395 OA
ATOM     14  H2  UNL     1      11.292  11.089   0.583  1.00  0.00     0.210 HD
ENDBRANCH  11  13
ENDBRANCH  10  11
BRANCH   5  15
HETATM   15  O1  UNL     1       8.582  12.085   0.830  1.00  0.00    -0.395 OA
ATOM     16  H1  UNL     1       8.897  12.272  -0.047  1.00  0.00     0.210 HD
ENDBRANCH   5  15
ENDBRANCH   1   2
BRANCH   1  17
HETATM   17  C13 UNL     1       4.470   8.483   1.931  1.00  0.00    -0.030 C 
HETATM   18  C14 UNL     1       3.919   7.310   1.803  1.00  0.00    -0.027 C 
BRANCH  18  19
HETATM   19  C15 UNL     1       4.414   6.256   0.904  1.00  0.00     0.053 C 
BRANCH  19  20
HETATM   20  C16 UNL     1       4.702   4.996   1.674  1.00  0.00    -0.027 C 
HETATM   21  C17 UNL     1       4.533   3.793   1.221  1.00  0.00    -0.027 C 
BRANCH  21  22
HETATM   22  C18 UNL     1       4.034   3.417  -0.116  1.00  0.00     0.066 C 
BRANCH  22  23
HETATM   23  C19 UNL     1       3.648   1.947  -0.095  1.00  0.00     0.086 C 
HETATM   24  C20 UNL     1       3.143   1.599  -1.484  1.00  0.00     0.067 C 
HETATM   25  C21 UNL     1       1.649   1.544  -1.275  1.00  0.00     0.235 C 
HETATM   26  N1  UNL     1       1.560   0.853   0.019  1.00  0.00    -0.072 N 
HETATM   27  C22 UNL     1       2.456   1.719   0.806  1.00  0.00     0.270 C 
ATOM     28  H12 UNL     1       0.620   0.718   0.394  1.00  0.00     0.277 HD
ATOM     29  H11 UNL     1       1.783  -0.142   0.016  1.00  0.00     0.277 HD
BRANCH  23  30
HETATM   30  O3  UNL     1       4.729   1.144   0.215  1.00  0.00    -0.388 OA
ATOM     31  H3  UNL     1       4.623   0.267  -0.136  1.00  0.00     0.210 HD
ENDBRANCH  23  30
ENDBRANCH  22  23
ENDBRANCH  21  22
ENDBRANCH  19  20
ENDBRANCH  18  19
ENDBRANCH   1  17
TORSDOF 10
ENDMDL
MODEL 4
REMARK VINA RESULT: -6.824833392      1.501      2.923
REMARK  10 active torsions:
REMARK  status: ('A' for Active; 'I' for Inactive)
REMARK    1  A    between atoms: C5_5  and  O1_6 
REMARK    2  A    between atoms: C6_8  and  C7_9 
REMARK    3  A    between atoms: C7_9  and  O2_11 
REMARK    4  A    between atoms: C11_15  and  C12_16 
REMARK    5  A    between atoms: C12_16  and  C13_17 
REMARK    6  A    between atoms: C14_18  and  C15_19 
REMARK    7  A    between atoms: C15_19  and  C16_20 
REMARK    8  A    between atoms: C17_21  and  C18_22 
REMARK    9  A    between atoms: C18_22  and  C19_23 
REMARK   10  A    between atoms: C19_23  and  O3_24 
ROOT
HETATM    1  C12 UNL     1       5.346   8.486   1.994  1.00  0.00     0.032 C 
ENDROOT
BRANCH   1   2
HETATM    2  C11 UNL     1       6.758   8.663   1.547  1.00  0.00     0.000 C 
HETATM    3  C4  UNL     1       7.692   8.664   2.717  1.00  0.00     0.020 C 
HETATM    4  C3  UNL     1       9.115   8.609   2.144  1.00  0.00     0.012 C 
HETATM    5  C5  UNL     1       7.449  10.070   3.300  1.00  0.00     0.129 C 
HETATM    6  C2  UNL     1       9.159   8.762   0.661  1.00  0.00    -0.018 C 
HETATM    7  C1  UNL     1      10.614   9.082   0.297  1.00  0.00     0.010 C 
HETATM    8  C10 UNL     1       8.336   9.973   0.251  1.00  0.00     0.010 C 
HETATM    9  C9  UNL     1       7.037  10.060   0.972  1.00  0.00    -0.000 C 
HETATM   10  C6  UNL     1       6.981  10.909   2.179  1.00  0.00     0.048 C 
BRANCH  10  11
HETATM   11  C7  UNL     1       7.570  12.276   2.106  1.00  0.00     0.121 C 
HETATM   12  C8  UNL     1       6.912  13.194   1.130  1.00  0.00     0.040 C 
BRANCH  11  13
HETATM   13  O2  UNL     1       8.927  12.369   1.981  1.00  0.00    -0.395 OA
ATOM     14  H2  UNL     1       9.445  12.283   2.773  1.00  0.00     0.210 HD
ENDBRANCH  11  13
ENDBRANCH  10  11
BRANCH   5  15
HETATM   15  O1  UNL     1       8.648  10.456   3.868  1.00  0.00    -0.395 OA
ATOM     16  H1  UNL     1       9.098  10.966   3.205  1.00  0.00     0.210 HD
ENDBRANCH   5  15
ENDBRANCH   1   2
BRANCH   1  17
HETATM   17  C13 UNL     1       4.522   7.860   0.928  1.00  0.00    -0.030 C 
HETATM   18  C14 UNL     1       4.154   6.611   0.874  1.00  0.00    -0.027 C 
BRANCH  18  19
HETATM   19  C15 UNL     1       4.501   5.600   1.884  1.00  0.00     0.053 C 
BRANCH  19  20
HETATM   20  C16 UNL     1       5.160   4.412   1.240  1.00  0.00    -0.027 C 
HETATM   21  C17 UNL     1       4.536   3.364   0.800  1.00  0.00    -0.027 C 
BRANCH  21  22
HETATM   22  C18 UNL     1       3.081   3.124   0.838  1.00  0.00     0.066 C 
BRANCH  22  23
HETATM   23  C19 UNL     1       2.797   1.760   0.229  1.00  0.00     0.086 C 
HETATM   24  C20 UNL     1       3.915   1.473  -0.758  1.00  0.00     0.067 C 
HETATM   25  C21 UNL     1       3.239   1.720  -2.085  1.00  0.00     0.235 C 
HETATM   26  N1  UNL     1       1.923   1.104  -1.863  1.00  0.00    -0.072 N 
HETATM   27  C22 UNL     1       1.547   1.802  -0.620  1.00  0.00     0.270 C 
ATOM     28  H12 UNL     1       1.259   1.169  -2.634  1.00  0.00     0.277 HD
ATOM     29  H11 UNL     1       1.902   0.085  -1.832  1.00  0.00     0.277 HD
BRANCH  23  30
HETATM   30  O3  UNL     1       2.771   0.771   1.193  1.00  0.00    -0.388 OA
ATOM     31  H3  UNL     1       1.926   0.337   1.224  1.00  0.00     0.210 HD
ENDBRANCH  23  30
ENDBRANCH  22  23
ENDBRANCH  21  22
ENDBRANCH  19  20
ENDBRANCH  18  19
ENDBRANCH   1  17
TORSDOF 10
ENDMDL
MODEL 5
REMARK VINA RESULT: -6.644412009      4.469      7.193
REMARK  10 active torsions:
REMARK  status: ('A' for Active; 'I' for Inactive)
REMARK    1  A    between atoms: C5_5  and  O1_6 
REMARK    2  A    between atoms: C6_8  and  C7_9 
REMARK    3  A    between atoms: C7_9  and  O2_11 
REMARK    4  A    between atoms: C11_15  and  C12_16 
REMARK    5  A    between atoms: C12_16  and  C13_17 
REMARK    6  A    between atoms: C14_18  and  C15_19 
REMARK    7  A    between atoms: C15_19  and  C16_20 
REMARK    8  A    between atoms: C17_21  and  C18_22 
REMARK    9  A    between atoms: C18_22  and  C19_23 
REMARK   10  A    between atoms: C19_23  and  O3_24 
ROOT
HETATM    1  C12 UNL     1       2.242   8.724   2.789  1.00  0.00     0.032 C 
ENDROOT
BRANCH   1   2
HETATM    2  C11 UNL     1       1.126   9.710   2.878  1.00  0.00     0.000 C 
HETATM    3  C4  UNL     1       1.399  10.729   3.940  1.00  0.00     0.020 C 
HETATM    4  C3  UNL     1       0.327  11.818   3.791  1.00  0.00     0.012 C 
HETATM    5  C5  UNL     1       1.106   9.921   5.220  1.00  0.00     0.129 C 
HETATM    6  C2  UNL     1      -0.738  11.465   2.808  1.00  0.00    -0.018 C 
HETATM    7  C1  UNL     1      -1.902  12.431   3.060  1.00  0.00     0.010 C 
HETATM    8  C10 UNL     1      -1.262  10.070   3.107  1.00  0.00     0.010 C 
HETATM    9  C9  UNL     1      -0.178   9.098   3.413  1.00  0.00    -0.000 C 
HETATM   10  C6  UNL     1       0.151   8.864   4.834  1.00  0.00     0.048 C 
BRANCH  10  11
HETATM   11  C7  UNL     1      -0.972   8.630   5.786  1.00  0.00     0.121 C 
HETATM   12  C8  UNL     1      -1.779   7.403   5.518  1.00  0.00     0.040 C 
BRANCH  11  13
HETATM   13  O2  UNL     1      -1.807   9.681   6.043  1.00  0.00    -0.395 OA
ATOM     14  H2  UNL     1      -1.821  10.391   5.412  1.00  0.00     0.210 HD
ENDBRANCH  11  13
ENDBRANCH  10  11
BRANCH   5  15
HETATM   15  O1  UNL     1       0.636  10.835   6.145  1.00  0.00    -0.395 OA
ATOM     16  H1  UNL     1      -0.185  11.160   5.795  1.00  0.00     0.210 HD
ENDBRANCH   5  15
ENDBRANCH   1   2
BRANCH   1  17
HETATM   17  C13 UNL     1       3.481   9.365   2.278  1.00  0.00    -0.030 C 
HETATM   18  C14 UNL     1       4.343   8.830   1.461  1.00  0.00    -0.027 C 
BRANCH  18  19
HETATM   19  C15 UNL     1       4.223   7.476   0.898  1.00  0.00     0.053 C 
BRANCH  19  20
HETATM   20  C16 UNL     1       5.008   6.490   1.719  1.00  0.00    -0.027 C 
HETATM   21  C17 UNL     1       4.992   5.204   1.551  1.00  0.00    -0.027 C 
BRANCH  21  22
HETATM   22  C18 UNL     1       4.218   4.457   0.540  1.00  0.00     0.066 C 
BRANCH  22  23
HETATM   23  C19 UNL     1       3.927   3.066   1.082  1.00  0.00     0.086 C 
HETATM   24  C20 UNL     1       4.089   2.095  -0.074  1.00  0.00     0.067 C 
HETATM   25  C21 UNL     1       2.656   1.780  -0.430  1.00  0.00     0.235 C 
HETATM   26  N1  UNL     1       2.046   1.652   0.901  1.00  0.00    -0.072 N 
HETATM   27  C22 UNL     1       2.474   2.939   1.478  1.00  0.00     0.270 C 
ATOM     28  H12 UNL     1       1.045   1.459   0.921  1.00  0.00     0.277 HD
ATOM     29  H11 UNL     1       2.293   0.817   1.431  1.00  0.00     0.277 HD
BRANCH  23  30
HETATM   30  O3  UNL     1       4.802   2.724   2.095  1.00  0.00    -0.388 OA
ATOM     31  H3  UNL     1       4.845   1.782   2.214  1.00  0.00     0.210 HD
ENDBRANCH  23  30
ENDBRANCH  22  23
ENDBRANCH  21  22
ENDBRANCH  19  20
ENDBRANCH  18  19
ENDBRANCH   1  17
TORSDOF 10
ENDMDL
