MODEL 1
REMARK VINA RESULT: -7.614655604      0.000      0.000
REMARK  10 active torsions:
REMARK  status: ('A' for Active; 'I' for Inactive)
REMARK    1  A    between atoms: C4_4  and  C5_5 
REMARK    2  A    between atoms: C5_5  and  C6_6 
REMARK    3  A    between atoms: C6_6  and  C7_7 
REMARK    4  A    between atoms: C9_9  and  C10_10 
REMARK    5  A    between atoms: C11_11  and  C12_12 
REMARK    6  A    between atoms: C14_14  and  C15_15 
REMARK    7  A    between atoms: C16_17  and  O2_18 
REMARK    8  A    between atoms: C17_20  and  O3_21 
REMARK    9  A    between atoms: C18_23  and  O4_24 
REMARK   10  A    between atoms: C19_26  and  O5_27 
ROOT
HETATM    1  C12 UNL     1       4.631   9.298   1.623  1.00  0.00    -0.030 A 
HETATM    2  C13 UNL     1       6.005   9.444   1.429  1.00  0.00     0.021 A 
HETATM    3  C14 UNL     1       6.688  10.632   1.484  1.00  0.00    -0.026 A 
HETATM    4  C20 UNL     1       5.958  11.762   1.751  1.00  0.00     0.010 A 
HETATM    5  C21 UNL     1       4.606  11.682   1.951  1.00  0.00     0.008 A 
HETATM    6  C22 UNL     1       3.949  10.442   1.885  1.00  0.00    -0.052 A 
HETATM    7  C23 UNL     1       2.510  10.450   2.145  1.00  0.00     0.049 C 
ENDROOT
BRANCH   3   8
HETATM    8  C15 UNL     1       8.153  10.684   1.264  1.00  0.00     0.189 C 
HETATM    9  O1  UNL     1       8.540   9.498   0.651  1.00  0.00    -0.346 OA
HETATM   10  C16 UNL     1       9.909   9.307   0.677  1.00  0.00     0.289 C 
HETATM   11  C17 UNL     1      10.693  10.571   0.809  1.00  0.00     0.204 C 
HETATM   12  C18 UNL     1      10.049  11.762   0.186  1.00  0.00     0.183 C 
HETATM   13  C19 UNL     1       8.558  11.858   0.411  1.00  0.00     0.183 C 
BRANCH  10  14
HETATM   14  O2  UNL     1      10.303   8.645  -0.480  1.00  0.00    -0.368 OA
ATOM     15  H2  UNL     1      11.217   8.397  -0.405  1.00  0.00     0.212 HD
ENDBRANCH  10  14
BRANCH  11  16
HETATM   16  O3  UNL     1      11.109  10.815   2.139  1.00  0.00    -0.388 OA
ATOM     17  H3  UNL     1      10.816  11.659   2.464  1.00  0.00     0.210 HD
ENDBRANCH  11  16
BRANCH  12  18
HETATM   18  O4  UNL     1      10.371  11.877  -1.170  1.00  0.00    -0.390 OA
ATOM     19  H4  UNL     1      10.603  12.768  -1.403  1.00  0.00     0.210 HD
ENDBRANCH  12  18
BRANCH  13  20
HETATM   20  O5  UNL     1       7.908  11.845  -0.825  1.00  0.00    -0.390 OA
ATOM     21  H5  UNL     1       8.455  11.470  -1.504  1.00  0.00     0.210 HD
ENDBRANCH  13  20
ENDBRANCH   3   8
BRANCH   1  22
HETATM   22  C11 UNL     1       4.098   7.977   1.546  1.00  0.00     0.012 C 
HETATM   23  C10 UNL     1       4.665   6.819   1.467  1.00  0.00     0.001 C 
BRANCH  23  24
HETATM   24  C9  UNL     1       3.776   5.609   1.400  1.00  0.00     0.002 C 
HETATM   25  C7  UNL     1       4.241   4.400   1.337  1.00  0.00    -0.084 C 
HETATM   26  C8  UNL     1       5.698   4.183   1.331  1.00  0.00     0.043 C 
BRANCH  25  27
HETATM   27  C6  UNL     1       3.255   3.250   1.273  1.00  0.00     0.037 C 
BRANCH  27  28
HETATM   28  C5  UNL     1       4.003   2.100   0.730  1.00  0.00     0.031 C 
BRANCH  28  29
HETATM   29  C4  UNL     1       3.754   1.767  -0.655  1.00  0.00    -0.024 C 
HETATM   30  C2  UNL     1       2.729   1.292  -1.270  1.00  0.00    -0.091 C 
HETATM   31  C1  UNL     1       1.433   0.925  -0.711  1.00  0.00     0.042 C 
HETATM   32  C3  UNL     1       2.864   1.074  -2.783  1.00  0.00     0.042 C 
ENDBRANCH  28  29
ENDBRANCH  27  28
ENDBRANCH  25  27
ENDBRANCH  23  24
ENDBRANCH   1  22
TORSDOF 10
ENDMDL
MODEL 2
REMARK VINA RESULT: -7.133720825      3.671      6.022
REMARK  10 active torsions:
REMARK  status: ('A' for Active; 'I' for Inactive)
REMARK    1  A    between atoms: C4_4  and  C5_5 
REMARK    2  A    between atoms: C5_5  and  C6_6 
REMARK    3  A    between atoms: C6_6  and  C7_7 
REMARK    4  A    between atoms: C9_9  and  C10_10 
REMARK    5  A    between atoms: C11_11  and  C12_12 
REMARK    6  A    between atoms: C14_14  and  C15_15 
REMARK    7  A    between atoms: C16_17  and  O2_18 
REMARK    8  A    between atoms: C17_20  and  O3_21 
REMARK    9  A    between atoms: C18_23  and  O4_24 
REMARK   10  A    between atoms: C19_26  and  O5_27 
ROOT
HETATM    1  C12 UNL     1       7.771  10.485   1.567  1.00  0.00    -0.030 A 
HETATM    2  C13 UNL     1       8.354  11.656   1.082  1.00  0.00     0.021 A 
HETATM    3  C14 UNL     1       9.679  11.804   0.761  1.00  0.00    -0.026 A 
HETATM    4  C20 UNL     1      10.491  10.712   0.933  1.00  0.00     0.010 A 
HETATM    5  C21 UNL     1       9.976   9.535   1.405  1.00  0.00     0.008 A 
HETATM    6  C22 UNL     1       8.611   9.430   1.720  1.00  0.00    -0.052 A 
HETATM    7  C23 UNL     1       8.146   8.124   2.186  1.00  0.00     0.049 C 
ENDROOT
BRANCH   3   8
HETATM    8  C15 UNL     1      10.204  13.094   0.252  1.00  0.00     0.189 C 
HETATM    9  O1  UNL     1      11.585  12.986   0.144  1.00  0.00    -0.346 OA
HETATM   10  C16 UNL     1      12.204  14.211  -0.026  1.00  0.00     0.289 C 
HETATM   11  C17 UNL     1      11.316  15.260  -0.609  1.00  0.00     0.204 C 
HETATM   12  C18 UNL     1      10.276  14.738  -1.541  1.00  0.00     0.183 C 
HETATM   13  C19 UNL     1       9.612  13.460  -1.085  1.00  0.00     0.183 C 
BRANCH  10  14
HETATM   14  O2  UNL     1      13.320  14.054  -0.839  1.00  0.00    -0.368 OA
ATOM     15  H2  UNL     1      14.085  13.899  -0.297  1.00  0.00     0.212 HD
ENDBRANCH  10  14
BRANCH  11  16
HETATM   16  O3  UNL     1      10.777  16.123   0.374  1.00  0.00    -0.388 OA
ATOM     17  H3  UNL     1       9.873  16.356   0.199  1.00  0.00     0.210 HD
ENDBRANCH  11  16
BRANCH  12  18
HETATM   18  O4  UNL     1      10.759  14.627  -2.848  1.00  0.00    -0.390 OA
ATOM     19  H4  UNL     1      10.892  13.721  -3.100  1.00  0.00     0.210 HD
ENDBRANCH  12  18
BRANCH  13  20
HETATM   20  O5  UNL     1       9.836  12.463  -2.037  1.00  0.00    -0.390 OA
ATOM     21  H5  UNL     1       9.257  12.557  -2.784  1.00  0.00     0.210 HD
ENDBRANCH  13  20
ENDBRANCH   3   8
BRANCH   1  22
HETATM   22  C11 UNL     1       6.369  10.513   1.829  1.00  0.00     0.012 C 
HETATM   23  C10 UNL     1       5.377   9.883   1.293  1.00  0.00     0.001 C 
BRANCH  23  24
HETATM   24  C9  UNL     1       4.001  10.162   1.827  1.00  0.00     0.002 C 
HETATM   25  C7  UNL     1       3.151   9.222   2.100  1.00  0.00    -0.084 C 
HETATM   26  C8  UNL     1       3.531   7.815   1.886  1.00  0.00     0.043 C 
BRANCH  25  27
HETATM   27  C6  UNL     1       1.787   9.615   2.635  1.00  0.00     0.037 C 
BRANCH  27  28
HETATM   28  C5  UNL     1       1.623   8.890   3.909  1.00  0.00     0.031 C 
BRANCH  28  29
HETATM   29  C4  UNL     1       0.725   9.481   4.875  1.00  0.00    -0.024 C 
HETATM   30  C2  UNL     1      -0.474   9.197   5.245  1.00  0.00    -0.091 C 
HETATM   31  C1  UNL     1      -1.333   8.122   4.763  1.00  0.00     0.042 C 
HETATM   32  C3  UNL     1      -1.099  10.087   6.326  1.00  0.00     0.042 C 
ENDBRANCH  28  29
ENDBRANCH  27  28
ENDBRANCH  25  27
ENDBRANCH  23  24
ENDBRANCH   1  22
TORSDOF 10
ENDMDL
MODEL 3
REMARK VINA RESULT: -7.095088300      2.843      5.650
REMARK  10 active torsions:
REMARK  status: ('A' for Active; 'I' for Inactive)
REMARK    1  A    between atoms: C4_4  and  C5_5 
REMARK    2  A    between atoms: C5_5  and  C6_6 
REMARK    3  A    between atoms: C6_6  and  C7_7 
REMARK    4  A    between atoms: C9_9  and  C10_10 
REMARK    5  A    between atoms: C11_11  and  C12_12 
REMARK    6  A    between atoms: C14_14  and  C15_15 
REMARK    7  A    between atoms: C16_17  and  O2_18 
REMARK    8  A    between atoms: C17_20  and  O3_21 
REMARK    9  A    between atoms: C18_23  and  O4_24 
REMARK   10  A    between atoms: C19_26  and  O5_27 
ROOT
HETATM    1  C12 UNL     1       8.775  11.337   0.602  1.00  0.00    -0.030 A 
HETATM    2  C13 UNL     1       8.529  12.340  -0.335  1.00  0.00     0.021 A 
HETATM    3  C14 UNL     1       9.428  13.301  -0.718  1.00  0.00    -0.026 A 
HETATM    4  C20 UNL     1      10.667  13.270  -0.129  1.00  0.00     0.010 A 
HETATM    5  C21 UNL     1      10.968  12.308   0.798  1.00  0.00     0.008 A 
HETATM    6  C22 UNL     1      10.014  11.342   1.158  1.00  0.00    -0.052 A 
HETATM    7  C23 UNL     1      10.437  10.336   2.131  1.00  0.00     0.049 C 
ENDROOT
BRANCH   3   8
HETATM    8  C15 UNL     1       9.070  14.328  -1.725  1.00  0.00     0.189 C 
HETATM    9  O1  UNL     1      10.243  14.782  -2.316  1.00  0.00    -0.346 OA
HETATM   10  C16 UNL     1      10.059  15.944  -3.042  1.00  0.00     0.289 C 
HETATM   11  C17 UNL     1       8.656  16.149  -3.510  1.00  0.00     0.204 C 
HETATM   12  C18 UNL     1       7.911  14.888  -3.790  1.00  0.00     0.183 C 
HETATM   13  C19 UNL     1       8.139  13.788  -2.781  1.00  0.00     0.183 C 
BRANCH  10  14
HETATM   14  O2  UNL     1      10.910  15.941  -4.140  1.00  0.00    -0.368 OA
ATOM     15  H2  UNL     1      10.664  16.643  -4.732  1.00  0.00     0.212 HD
ENDBRANCH  10  14
BRANCH  11  16
HETATM   16  O3  UNL     1       7.930  17.033  -2.677  1.00  0.00    -0.388 OA
ATOM     17  H3  UNL     1       7.854  17.904  -3.048  1.00  0.00     0.210 HD
ENDBRANCH  11  16
BRANCH  12  18
HETATM   18  O4  UNL     1       8.126  14.439  -5.097  1.00  0.00    -0.390 OA
ATOM     19  H4  UNL     1       8.380  13.524  -5.117  1.00  0.00     0.210 HD
ENDBRANCH  12  18
BRANCH  13  20
HETATM   20  O5  UNL     1       8.685  12.679  -3.429  1.00  0.00    -0.390 OA
ATOM     21  H5  UNL     1       9.574  12.846  -3.720  1.00  0.00     0.210 HD
ENDBRANCH  13  20
ENDBRANCH   3   8
BRANCH   1  22
HETATM   22  C11 UNL     1       7.722  10.410   0.860  1.00  0.00     0.012 C 
HETATM   23  C10 UNL     1       6.539  10.562   1.358  1.00  0.00     0.001 C 
BRANCH  23  24
HETATM   24  C9  UNL     1       5.675   9.340   1.490  1.00  0.00     0.002 C 
HETATM   25  C7  UNL     1       4.404   9.404   1.743  1.00  0.00    -0.084 C 
HETATM   26  C8  UNL     1       3.763  10.719   1.911  1.00  0.00     0.043 C 
BRANCH  25  27
HETATM   27  C6  UNL     1       3.625   8.108   1.856  1.00  0.00     0.037 C 
BRANCH  27  28
HETATM   28  C5  UNL     1       4.545   7.038   1.424  1.00  0.00     0.031 C 
BRANCH  28  29
HETATM   29  C4  UNL     1       3.970   5.721   1.266  1.00  0.00    -0.024 C 
HETATM   30  C2  UNL     1       4.478   4.540   1.252  1.00  0.00    -0.091 C 
HETATM   31  C1  UNL     1       5.879   4.161   1.402  1.00  0.00     0.042 C 
HETATM   32  C3  UNL     1       3.510   3.367   1.055  1.00  0.00     0.042 C 
ENDBRANCH  28  29
ENDBRANCH  27  28
ENDBRANCH  25  27
ENDBRANCH  23  24
ENDBRANCH   1  22
TORSDOF 10
ENDMDL
MODEL 4
REMARK VINA RESULT: -7.094730886      2.601      5.186
REMARK  10 active torsions:
REMARK  status: ('A' for Active; 'I' for Inactive)
REMARK    1  A    between atoms: C4_4  and  C5_5 
REMARK    2  A    between atoms: C5_5  and  C6_6 
REMARK    3  A    between atoms: C6_6  and  C7_7 
REMARK    4  A    between atoms: C9_9  and  C10_10 
REMARK    5  A    between atoms: C11_11  and  C12_12 
REMARK    6  A    between atoms: C14_14  and  C15_15 
REMARK    7  A    between atoms: C16_17  and  O2_18 
REMARK    8  A    between atoms: C17_20  and  O3_21 
REMARK    9  A    between atoms: C18_23  and  O4_24 
REMARK   10  A    between atoms: C19_26  and  O5_27 
ROOT
HETATM    1  C12 UNL     1       8.561  10.915   0.916  1.00  0.00    -0.030 A 
HETATM    2  C13 UNL     1       8.392  11.892  -0.065  1.00  0.00     0.021 A 
HETATM    3  C14 UNL     1       9.295  12.881  -0.358  1.00  0.00    -0.026 A 
HETATM    4  C20 UNL     1      10.454  12.908   0.374  1.00  0.00     0.010 A 
HETATM    5  C21 UNL     1      10.677  11.976   1.351  1.00  0.00     0.008 A 
HETATM    6  C22 UNL     1       9.723  10.979   1.615  1.00  0.00    -0.052 A 
HETATM    7  C23 UNL     1      10.063  10.006   2.653  1.00  0.00     0.049 C 
ENDROOT
BRANCH   3   8
HETATM    8  C15 UNL     1       9.022  13.876  -1.423  1.00  0.00     0.189 C 
HETATM    9  O1  UNL     1       7.945  13.421  -2.174  1.00  0.00    -0.346 OA
HETATM   10  C16 UNL     1       7.799  14.105  -3.367  1.00  0.00     0.289 C 
HETATM   11  C17 UNL     1       8.399  15.473  -3.356  1.00  0.00     0.204 C 
HETATM   12  C18 UNL     1       8.376  16.143  -2.024  1.00  0.00     0.183 C 
HETATM   13  C19 UNL     1       8.717  15.241  -0.862  1.00  0.00     0.183 C 
BRANCH  10  14
HETATM   14  O2  UNL     1       6.449  14.202  -3.680  1.00  0.00    -0.368 OA
ATOM     15  H2  UNL     1       6.343  14.202  -4.624  1.00  0.00     0.212 HD
ENDBRANCH  10  14
BRANCH  11  16
HETATM   16  O3  UNL     1       9.679  15.509  -3.958  1.00  0.00    -0.388 OA
ATOM     17  H3  UNL     1       9.853  16.334  -4.395  1.00  0.00     0.210 HD
ENDBRANCH  11  16
BRANCH  12  18
HETATM   18  O4  UNL     1       7.176  16.828  -1.808  1.00  0.00    -0.390 OA
ATOM     19  H4  UNL     1       6.961  16.879  -0.884  1.00  0.00     0.210 HD
ENDBRANCH  12  18
BRANCH  13  20
HETATM   20  O5  UNL     1       7.635  15.204   0.020  1.00  0.00    -0.390 OA
ATOM     21  H5  UNL     1       7.804  15.716   0.802  1.00  0.00     0.210 HD
ENDBRANCH  13  20
ENDBRANCH   3   8
BRANCH   1  22
HETATM   22  C11 UNL     1       7.519   9.952   1.066  1.00  0.00     0.012 C 
HETATM   23  C10 UNL     1       6.272  10.070   1.380  1.00  0.00     0.001 C 
BRANCH  23  24
HETATM   24  C9  UNL     1       5.447   8.816   1.448  1.00  0.00     0.002 C 
HETATM   25  C7  UNL     1       4.189   8.820   1.765  1.00  0.00    -0.084 C 
HETATM   26  C8  UNL     1       3.523  10.097   2.074  1.00  0.00     0.043 C 
BRANCH  25  27
HETATM   27  C6  UNL     1       3.450   7.496   1.803  1.00  0.00     0.037 C 
BRANCH  27  28
HETATM   28  C5  UNL     1       4.425   6.471   1.385  1.00  0.00     0.031 C 
BRANCH  28  29
HETATM   29  C4  UNL     1       3.893   5.160   1.090  1.00  0.00    -0.024 C 
HETATM   30  C2  UNL     1       4.408   3.981   1.111  1.00  0.00    -0.091 C 
HETATM   31  C1  UNL     1       5.771   3.601   1.461  1.00  0.00     0.042 C 
HETATM   32  C3  UNL     1       3.491   2.814   0.722  1.00  0.00     0.042 C 
ENDBRANCH  28  29
ENDBRANCH  27  28
ENDBRANCH  25  27
ENDBRANCH  23  24
ENDBRANCH   1  22
TORSDOF 10
ENDMDL
MODEL 5
REMARK VINA RESULT: -7.074821703      3.682      5.768
REMARK  10 active torsions:
REMARK  status: ('A' for Active; 'I' for Inactive)
REMARK    1  A    between atoms: C4_4  and  C5_5 
REMARK    2  A    between atoms: C5_5  and  C6_6 
REMARK    3  A    between atoms: C6_6  and  C7_7 
REMARK    4  A    between atoms: C9_9  and  C10_10 
REMARK    5  A    between atoms: C11_11  and  C12_12 
REMARK    6  A    between atoms: C14_14  and  C15_15 
REMARK    7  A    between atoms: C16_17  and  O2_18 
REMARK    8  A    between atoms: C17_20  and  O3_21 
REMARK    9  A    between atoms: C18_23  and  O4_24 
REMARK   10  A    between atoms: C19_26  and  O5_27 
ROOT
HETATM    1  C12 UNL     1       7.802  10.400   1.548  1.00  0.00    -0.030 A 
HETATM    2  C13 UNL     1       8.374  11.583   1.080  1.00  0.00     0.021 A 
HETATM    3  C14 UNL     1       9.688  11.735   0.716  1.00  0.00    -0.026 A 
HETATM    4  C20 UNL     1      10.498  10.634   0.823  1.00  0.00     0.010 A 
HETATM    5  C21 UNL     1       9.993   9.444   1.276  1.00  0.00     0.008 A 
HETATM    6  C22 UNL     1       8.640   9.336   1.636  1.00  0.00    -0.052 A 
HETATM    7  C23 UNL     1       8.183   8.018   2.075  1.00  0.00     0.049 C 
ENDROOT
BRANCH   3   8
HETATM    8  C15 UNL     1      10.202  13.037   0.230  1.00  0.00     0.189 C 
HETATM    9  O1  UNL     1      11.585  12.943   0.123  1.00  0.00    -0.346 OA
HETATM   10  C16 UNL     1      12.193  14.176  -0.025  1.00  0.00     0.289 C 
HETATM   11  C17 UNL     1      11.297  15.228  -0.591  1.00  0.00     0.204 C 
HETATM   12  C18 UNL     1      10.263  14.713  -1.533  1.00  0.00     0.183 C 
HETATM   13  C19 UNL     1       9.609  13.422  -1.101  1.00  0.00     0.183 C 
BRANCH  10  14
HETATM   14  O2  UNL     1      13.311  14.043  -0.840  1.00  0.00    -0.368 OA
ATOM     15  H2  UNL     1      13.878  14.797  -0.723  1.00  0.00     0.212 HD
ENDBRANCH  10  14
BRANCH  11  16
HETATM   16  O3  UNL     1      10.750  16.069   0.406  1.00  0.00    -0.388 OA
ATOM     17  H3  UNL     1      10.963  16.985   0.268  1.00  0.00     0.210 HD
ENDBRANCH  11  16
BRANCH  12  18
HETATM   18  O4  UNL     1      10.748  14.629  -2.842  1.00  0.00    -0.390 OA
ATOM     19  H4  UNL     1      10.057  14.431  -3.463  1.00  0.00     0.210 HD
ENDBRANCH  12  18
BRANCH  13  20
HETATM   20  O5  UNL     1       9.843  12.444  -2.070  1.00  0.00    -0.390 OA
ATOM     21  H5  UNL     1       9.584  12.740  -2.935  1.00  0.00     0.210 HD
ENDBRANCH  13  20
ENDBRANCH   3   8
BRANCH   1  22
HETATM   22  C11 UNL     1       6.410  10.427   1.860  1.00  0.00     0.012 C 
HETATM   23  C10 UNL     1       5.371  10.015   1.213  1.00  0.00     0.001 C 
BRANCH  23  24
HETATM   24  C9  UNL     1       4.026  10.209   1.855  1.00  0.00     0.002 C 
HETATM   25  C7  UNL     1       3.246   9.219   2.161  1.00  0.00    -0.084 C 
HETATM   26  C8  UNL     1       3.678   7.840   1.876  1.00  0.00     0.043 C 
BRANCH  25  27
HETATM   27  C6  UNL     1       1.908   9.527   2.805  1.00  0.00     0.037 C 
BRANCH  27  28
HETATM   28  C5  UNL     1       1.184  10.390   1.853  1.00  0.00     0.031 C 
BRANCH  28  29
HETATM   29  C4  UNL     1      -0.006   9.830   1.253  1.00  0.00    -0.024 C 
HETATM   30  C2  UNL     1      -0.713  10.165   0.232  1.00  0.00    -0.091 C 
HETATM   31  C1  UNL     1      -0.505  11.285  -0.678  1.00  0.00     0.042 C 
HETATM   32  C3  UNL     1      -1.933   9.291  -0.087  1.00  0.00     0.042 C 
ENDBRANCH  28  29
ENDBRANCH  27  28
ENDBRANCH  25  27
ENDBRANCH  23  24
ENDBRANCH   1  22
TORSDOF 10
ENDMDL
