MODEL 1
REMARK VINA RESULT: -6.598716947      0.000      0.000
REMARK  10 active torsions:
REMARK  status: ('A' for Active; 'I' for Inactive)
REMARK    1  A    between atoms: C2_2  and  C3_4 
REMARK    2  A    between atoms: C3_4  and  O2_5 
REMARK    3  A    between atoms: C3_4  and  O3_7 
REMARK    4  A    between atoms: C3_4  and  C4_9 
REMARK    5  A    between atoms: C6_11  and  C7_12 
REMARK    6  A    between atoms: C7_12  and  C9_14 
REMARK    7  A    between atoms: C10_15  and  C11_16 
REMARK    8  A    between atoms: C12_17  and  C14_19 
REMARK    9  A    between atoms: C16_21  and  O4_22 
REMARK   10  A    between atoms: C18_25  and  O5_27 
ROOT
HETATM    1  C7  UNL     1       1.574   9.609   2.442  1.00  0.00     0.012 C 
HETATM    2  C8  UNL     1       1.547   8.844   3.775  1.00  0.00     0.015 C 
ENDROOT
BRANCH   1   3
HETATM    3  C6  UNL     1       0.597  10.708   2.569  1.00  0.00     0.019 C 
HETATM    4  C5  UNL     1      -0.585  10.229   3.340  1.00  0.00    -0.012 C 
HETATM    5  C4  UNL     1      -1.518   9.549   2.688  1.00  0.00    -0.014 C 
HETATM    6  C23 UNL     1      -1.408   9.250   1.242  1.00  0.00     0.040 C 
HETATM    7  C22 UNL     1      -0.632  10.227   0.443  1.00  0.00     0.009 C 
HETATM    8  C20 UNL     1       0.018  11.259   1.297  1.00  0.00    -0.010 C 
HETATM    9  C21 UNL     1       0.936  12.176   0.545  1.00  0.00     0.010 C 
BRANCH   5  10
HETATM   10  C3  UNL     1      -2.741   9.047   3.451  1.00  0.00     0.248 C 
BRANCH  10  11
HETATM   11  C2  UNL     1      -2.469   7.682   3.950  1.00  0.00     0.189 C 
HETATM   12  C1  UNL     1      -1.788   7.500   5.239  1.00  0.00     0.097 C 
HETATM   13  O1  UNL     1      -2.808   6.717   3.293  1.00  0.00    -0.292 OA
ENDBRANCH  10  11
BRANCH  10  14
HETATM   14  O2  UNL     1      -3.807   9.052   2.555  1.00  0.00    -0.356 OA
ATOM     15  H2  UNL     1      -4.451   9.709   2.792  1.00  0.00     0.214 HD
ENDBRANCH  10  14
BRANCH  10  16
HETATM   16  O3  UNL     1      -3.058   9.929   4.471  1.00  0.00    -0.356 OA
ATOM     17  H3  UNL     1      -2.289  10.344   4.843  1.00  0.00     0.214 HD
ENDBRANCH  10  16
ENDBRANCH   5  10
ENDBRANCH   1   3
BRANCH   1  18
HETATM   18  C9  UNL     1       2.963   9.994   2.200  1.00  0.00    -0.022 C 
HETATM   19  C10 UNL     1       3.923   9.171   1.840  1.00  0.00    -0.003 C 
BRANCH  19  20
HETATM   20  C11 UNL     1       5.278   9.615   1.615  1.00  0.00     0.003 C 
HETATM   21  C12 UNL     1       6.242   8.727   1.425  1.00  0.00    -0.077 C 
HETATM   22  C13 UNL     1       5.914   7.292   1.445  1.00  0.00     0.044 C 
BRANCH  21  23
HETATM   23  C14 UNL     1       7.605   9.260   1.199  1.00  0.00     0.050 C 
HETATM   24  C15 UNL     1       8.208   8.591  -0.020  1.00  0.00     0.044 C 
HETATM   25  C16 UNL     1       9.658   9.030   0.084  1.00  0.00     0.121 C 
HETATM   26  C17 UNL     1       9.925   9.209   1.548  1.00  0.00     0.069 C 
HETATM   27  C18 UNL     1       8.594   8.928   2.262  1.00  0.00     0.064 C 
HETATM   28  C19 UNL     1       8.460   9.806   3.488  1.00  0.00     0.046 C 
BRANCH  25  29
HETATM   29  O4  UNL     1      10.451   8.040  -0.480  1.00  0.00    -0.395 OA
ATOM     30  H4  UNL     1      10.989   7.666   0.207  1.00  0.00     0.210 HD
ENDBRANCH  25  29
BRANCH  27  31
HETATM   31  O5  UNL     1       8.502   7.606   2.625  1.00  0.00    -0.389 OA
ATOM     32  H5  UNL     1       9.131   7.395   3.305  1.00  0.00     0.210 HD
ENDBRANCH  27  31
ENDBRANCH  21  23
ENDBRANCH  19  20
ENDBRANCH   1  18
TORSDOF 10
ENDMDL
MODEL 2
REMARK VINA RESULT: -6.523680468      1.441      1.788
REMARK  10 active torsions:
REMARK  status: ('A' for Active; 'I' for Inactive)
REMARK    1  A    between atoms: C2_2  and  C3_4 
REMARK    2  A    between atoms: C3_4  and  O2_5 
REMARK    3  A    between atoms: C3_4  and  O3_7 
REMARK    4  A    between atoms: C3_4  and  C4_9 
REMARK    5  A    between atoms: C6_11  and  C7_12 
REMARK    6  A    between atoms: C7_12  and  C9_14 
REMARK    7  A    between atoms: C10_15  and  C11_16 
REMARK    8  A    between atoms: C12_17  and  C14_19 
REMARK    9  A    between atoms: C16_21  and  O4_22 
REMARK   10  A    between atoms: C18_25  and  O5_27 
ROOT
HETATM    1  C7  UNL     1       1.883   9.962   2.692  1.00  0.00     0.012 C 
HETATM    2  C8  UNL     1       1.924   8.428   2.758  1.00  0.00     0.015 C 
ENDROOT
BRANCH   1   3
HETATM    3  C6  UNL     1       1.448  10.428   4.024  1.00  0.00     0.019 C 
HETATM    4  C5  UNL     1       0.432   9.482   4.568  1.00  0.00    -0.012 C 
HETATM    5  C4  UNL     1      -0.824   9.624   4.169  1.00  0.00    -0.014 C 
HETATM    6  C23 UNL     1      -1.231  10.671   3.205  1.00  0.00     0.040 C 
HETATM    7  C22 UNL     1      -0.404  11.900   3.206  1.00  0.00     0.009 C 
HETATM    8  C20 UNL     1       0.785  11.774   4.095  1.00  0.00    -0.010 C 
HETATM    9  C21 UNL     1       1.730  12.935   4.009  1.00  0.00     0.010 C 
BRANCH   5  10
HETATM   10  C3  UNL     1      -1.887   8.671   4.710  1.00  0.00     0.248 C 
BRANCH  10  11
HETATM   11  C2  UNL     1      -2.433   7.875   3.591  1.00  0.00     0.189 C 
HETATM   12  C1  UNL     1      -3.885   7.805   3.386  1.00  0.00     0.097 C 
HETATM   13  O1  UNL     1      -1.678   7.281   2.845  1.00  0.00    -0.292 OA
ENDBRANCH  10  11
BRANCH  10  14
HETATM   14  O2  UNL     1      -2.874   9.458   5.297  1.00  0.00    -0.356 OA
ATOM     15  H2  UNL     1      -2.683  10.383   5.193  1.00  0.00     0.214 HD
ENDBRANCH  10  14
BRANCH  10  16
HETATM   16  O3  UNL     1      -1.347   7.878   5.708  1.00  0.00    -0.356 OA
ATOM     17  H3  UNL     1      -0.672   8.327   6.204  1.00  0.00     0.214 HD
ENDBRANCH  10  16
ENDBRANCH   5  10
ENDBRANCH   1   3
BRANCH   1  18
HETATM   18  C9  UNL     1       3.202  10.405   2.245  1.00  0.00    -0.022 C 
HETATM   19  C10 UNL     1       4.160   9.612   1.819  1.00  0.00    -0.003 C 
BRANCH  19  20
HETATM   20  C11 UNL     1       5.444  10.111   1.389  1.00  0.00     0.003 C 
HETATM   21  C12 UNL     1       6.457   9.276   1.218  1.00  0.00    -0.077 C 
HETATM   22  C13 UNL     1       6.255   7.839   1.471  1.00  0.00     0.044 C 
BRANCH  21  23
HETATM   23  C14 UNL     1       7.741   9.864   0.774  1.00  0.00     0.050 C 
HETATM   24  C15 UNL     1       8.475   8.863  -0.095  1.00  0.00     0.044 C 
HETATM   25  C16 UNL     1       9.847   9.508  -0.201  1.00  0.00     0.121 C 
HETATM   26  C17 UNL     1      10.030  10.283   1.068  1.00  0.00     0.069 C 
HETATM   27  C18 UNL     1       8.726  10.119   1.861  1.00  0.00     0.064 C 
HETATM   28  C19 UNL     1       8.426  11.379   2.646  1.00  0.00     0.046 C 
BRANCH  25  29
HETATM   29  O4  UNL     1      10.788   8.499  -0.346  1.00  0.00    -0.395 OA
ATOM     30  H4  UNL     1      11.625   8.831  -0.043  1.00  0.00     0.210 HD
ENDBRANCH  25  29
BRANCH  27  31
HETATM   31  O5  UNL     1       8.803   9.047   2.717  1.00  0.00    -0.389 OA
ATOM     32  H5  UNL     1       9.704   8.873   2.964  1.00  0.00     0.210 HD
ENDBRANCH  27  31
ENDBRANCH  21  23
ENDBRANCH  19  20
ENDBRANCH   1  18
TORSDOF 10
ENDMDL
MODEL 3
REMARK VINA RESULT: -6.486454754      1.839      2.555
REMARK  10 active torsions:
REMARK  status: ('A' for Active; 'I' for Inactive)
REMARK    1  A    between atoms: C2_2  and  C3_4 
REMARK    2  A    between atoms: C3_4  and  O2_5 
REMARK    3  A    between atoms: C3_4  and  O3_7 
REMARK    4  A    between atoms: C3_4  and  C4_9 
REMARK    5  A    between atoms: C6_11  and  C7_12 
REMARK    6  A    between atoms: C7_12  and  C9_14 
REMARK    7  A    between atoms: C10_15  and  C11_16 
REMARK    8  A    between atoms: C12_17  and  C14_19 
REMARK    9  A    between atoms: C16_21  and  O4_22 
REMARK   10  A    between atoms: C18_25  and  O5_27 
ROOT
HETATM    1  C7  UNL     1       2.221   9.504   2.397  1.00  0.00     0.012 C 
HETATM    2  C8  UNL     1       2.504   8.018   2.668  1.00  0.00     0.015 C 
ENDROOT
BRANCH   1   3
HETATM    3  C6  UNL     1       1.589  10.041   3.618  1.00  0.00     0.019 C 
HETATM    4  C5  UNL     1       0.515   9.109   4.066  1.00  0.00    -0.012 C 
HETATM    5  C4  UNL     1      -0.671   9.200   3.479  1.00  0.00    -0.014 C 
HETATM    6  C23 UNL     1      -0.943  10.178   2.402  1.00  0.00     0.040 C 
HETATM    7  C22 UNL     1      -0.138  11.421   2.447  1.00  0.00     0.009 C 
HETATM    8  C20 UNL     1       0.908  11.374   3.506  1.00  0.00    -0.010 C 
HETATM    9  C21 UNL     1       1.841  12.547   3.487  1.00  0.00     0.010 C 
BRANCH   5  10
HETATM   10  C3  UNL     1      -1.791   8.260   3.918  1.00  0.00     0.248 C 
BRANCH  10  11
HETATM   11  C2  UNL     1      -3.012   9.054   4.169  1.00  0.00     0.189 C 
HETATM   12  C1  UNL     1      -3.047  10.005   5.286  1.00  0.00     0.097 C 
HETATM   13  O1  UNL     1      -3.984   8.915   3.450  1.00  0.00    -0.292 OA
ENDBRANCH  10  11
BRANCH  10  14
HETATM   14  O2  UNL     1      -1.355   7.625   5.077  1.00  0.00    -0.356 OA
ATOM     15  H2  UNL     1      -0.501   7.228   4.951  1.00  0.00     0.214 HD
ENDBRANCH  10  14
BRANCH  10  16
HETATM   16  O3  UNL     1      -1.986   7.278   2.961  1.00  0.00    -0.356 OA
ATOM     17  H3  UNL     1      -1.725   6.417   3.266  1.00  0.00     0.214 HD
ENDBRANCH  10  16
ENDBRANCH   5  10
ENDBRANCH   1   3
BRANCH   1  18
HETATM   18  C9  UNL     1       3.487  10.114   1.995  1.00  0.00    -0.022 C 
HETATM   19  C10 UNL     1       4.565   9.450   1.640  1.00  0.00    -0.003 C 
BRANCH  19  20
HETATM   20  C11 UNL     1       5.788  10.111   1.252  1.00  0.00     0.003 C 
HETATM   21  C12 UNL     1       6.936   9.451   1.279  1.00  0.00    -0.077 C 
HETATM   22  C13 UNL     1       6.945   8.041   1.707  1.00  0.00     0.044 C 
BRANCH  21  23
HETATM   23  C14 UNL     1       8.145  10.197   0.866  1.00  0.00     0.050 C 
HETATM   24  C15 UNL     1       7.757  11.616   0.501  1.00  0.00     0.044 C 
HETATM   25  C16 UNL     1       9.032  12.116  -0.157  1.00  0.00     0.121 C 
HETATM   26  C17 UNL     1       9.676  10.907  -0.765  1.00  0.00     0.069 C 
HETATM   27  C18 UNL     1       8.785   9.714  -0.389  1.00  0.00     0.064 C 
HETATM   28  C19 UNL     1       9.628   8.473  -0.182  1.00  0.00     0.046 C 
BRANCH  25  29
HETATM   29  O4  UNL     1       8.683  13.063  -1.109  1.00  0.00    -0.395 OA
ATOM     30  H4  UNL     1       9.061  12.801  -1.940  1.00  0.00     0.210 HD
ENDBRANCH  25  29
BRANCH  27  31
HETATM   31  O5  UNL     1       7.844   9.478  -1.362  1.00  0.00    -0.389 OA
ATOM     32  H5  UNL     1       8.229   9.536  -2.229  1.00  0.00     0.210 HD
ENDBRANCH  27  31
ENDBRANCH  21  23
ENDBRANCH  19  20
ENDBRANCH   1  18
TORSDOF 10
ENDMDL
MODEL 4
REMARK VINA RESULT: -6.468077863      1.265      1.791
REMARK  10 active torsions:
REMARK  status: ('A' for Active; 'I' for Inactive)
REMARK    1  A    between atoms: C2_2  and  C3_4 
REMARK    2  A    between atoms: C3_4  and  O2_5 
REMARK    3  A    between atoms: C3_4  and  O3_7 
REMARK    4  A    between atoms: C3_4  and  C4_9 
REMARK    5  A    between atoms: C6_11  and  C7_12 
REMARK    6  A    between atoms: C7_12  and  C9_14 
REMARK    7  A    between atoms: C10_15  and  C11_16 
REMARK    8  A    between atoms: C12_17  and  C14_19 
REMARK    9  A    between atoms: C16_21  and  O4_22 
REMARK   10  A    between atoms: C18_25  and  O5_27 
ROOT
HETATM    1  C7  UNL     1       1.978   9.637   2.536  1.00  0.00     0.012 C 
HETATM    2  C8  UNL     1       2.062   8.111   2.694  1.00  0.00     0.015 C 
ENDROOT
BRANCH   1   3
HETATM    3  C6  UNL     1       1.437  10.162   3.806  1.00  0.00     0.019 C 
HETATM    4  C5  UNL     1       0.449   9.192   4.358  1.00  0.00    -0.012 C 
HETATM    5  C4  UNL     1      -0.788   9.227   3.881  1.00  0.00    -0.014 C 
HETATM    6  C23 UNL     1      -1.197  10.180   2.824  1.00  0.00     0.040 C 
HETATM    7  C22 UNL     1      -0.446  11.456   2.785  1.00  0.00     0.009 C 
HETATM    8  C20 UNL     1       0.693  11.465   3.745  1.00  0.00    -0.010 C 
HETATM    9  C21 UNL     1       1.571  12.676   3.630  1.00  0.00     0.010 C 
BRANCH   5  10
HETATM   10  C3  UNL     1      -1.822   8.247   4.427  1.00  0.00     0.248 C 
BRANCH  10  11
HETATM   11  C2  UNL     1      -3.038   8.997   4.811  1.00  0.00     0.189 C 
HETATM   12  C1  UNL     1      -2.991   9.932   5.942  1.00  0.00     0.097 C 
HETATM   13  O1  UNL     1      -4.070   8.835   4.189  1.00  0.00    -0.292 OA
ENDBRANCH  10  11
BRANCH  10  14
HETATM   14  O2  UNL     1      -1.245   7.624   5.531  1.00  0.00    -0.356 OA
ATOM     15  H2  UNL     1      -1.509   6.713   5.587  1.00  0.00     0.214 HD
ENDBRANCH  10  14
BRANCH  10  16
HETATM   16  O3  UNL     1      -2.083   7.262   3.490  1.00  0.00    -0.356 OA
ATOM     17  H3  UNL     1      -2.886   6.790   3.674  1.00  0.00     0.214 HD
ENDBRANCH  10  16
ENDBRANCH   5  10
ENDBRANCH   1   3
BRANCH   1  18
HETATM   18  C9  UNL     1       3.311  10.100   2.153  1.00  0.00    -0.022 C 
HETATM   19  C10 UNL     1       4.306   9.319   1.795  1.00  0.00    -0.003 C 
BRANCH  19  20
HETATM   20  C11 UNL     1       5.602   9.838   1.426  1.00  0.00     0.003 C 
HETATM   21  C12 UNL     1       6.630   9.015   1.287  1.00  0.00    -0.077 C 
HETATM   22  C13 UNL     1       6.433   7.573   1.511  1.00  0.00     0.044 C 
BRANCH  21  23
HETATM   23  C14 UNL     1       7.925   9.623   0.906  1.00  0.00     0.050 C 
HETATM   24  C15 UNL     1       8.630   8.717  -0.084  1.00  0.00     0.044 C 
HETATM   25  C16 UNL     1      10.016   9.338  -0.124  1.00  0.00     0.121 C 
HETATM   26  C17 UNL     1      10.226   9.950   1.228  1.00  0.00     0.069 C 
HETATM   27  C18 UNL     1       8.922   9.722   2.007  1.00  0.00     0.064 C 
HETATM   28  C19 UNL     1       8.658  10.884   2.941  1.00  0.00     0.046 C 
BRANCH  25  29
HETATM   29  O4  UNL     1      10.932   8.333  -0.397  1.00  0.00    -0.395 OA
ATOM     30  H4  UNL     1      11.799   8.720  -0.417  1.00  0.00     0.210 HD
ENDBRANCH  25  29
BRANCH  27  31
HETATM   31  O5  UNL     1       8.979   8.552   2.727  1.00  0.00    -0.389 OA
ATOM     32  H5  UNL     1       9.192   8.722   3.637  1.00  0.00     0.210 HD
ENDBRANCH  27  31
ENDBRANCH  21  23
ENDBRANCH  19  20
ENDBRANCH   1  18
TORSDOF 10
ENDMDL
MODEL 5
REMARK VINA RESULT: -6.346657727      1.934      2.554
REMARK  10 active torsions:
REMARK  status: ('A' for Active; 'I' for Inactive)
REMARK    1  A    between atoms: C2_2  and  C3_4 
REMARK    2  A    between atoms: C3_4  and  O2_5 
REMARK    3  A    between atoms: C3_4  and  O3_7 
REMARK    4  A    between atoms: C3_4  and  C4_9 
REMARK    5  A    between atoms: C6_11  and  C7_12 
REMARK    6  A    between atoms: C7_12  and  C9_14 
REMARK    7  A    between atoms: C10_15  and  C11_16 
REMARK    8  A    between atoms: C12_17  and  C14_19 
REMARK    9  A    between atoms: C16_21  and  O4_22 
REMARK   10  A    between atoms: C18_25  and  O5_27 
ROOT
HETATM    1  C7  UNL     1       2.145   9.825   2.528  1.00  0.00     0.012 C 
HETATM    2  C8  UNL     1       2.400   8.331   2.781  1.00  0.00     0.015 C 
ENDROOT
BRANCH   1   3
HETATM    3  C6  UNL     1       1.674  10.394   3.807  1.00  0.00     0.019 C 
HETATM    4  C5  UNL     1       0.616   9.512   4.377  1.00  0.00    -0.012 C 
HETATM    5  C4  UNL     1      -0.621   9.654   3.922  1.00  0.00    -0.014 C 
HETATM    6  C23 UNL     1      -0.966  10.641   2.872  1.00  0.00     0.040 C 
HETATM    7  C22 UNL     1      -0.108  11.847   2.819  1.00  0.00     0.009 C 
HETATM    8  C20 UNL     1       1.045  11.756   3.759  1.00  0.00    -0.010 C 
HETATM    9  C21 UNL     1       2.022  12.886   3.628  1.00  0.00     0.010 C 
BRANCH   5  10
HETATM   10  C3  UNL     1      -1.727   8.767   4.487  1.00  0.00     0.248 C 
BRANCH  10  11
HETATM   11  C2  UNL     1      -2.362   8.025   3.377  1.00  0.00     0.189 C 
HETATM   12  C1  UNL     1      -3.791   8.213   3.098  1.00  0.00     0.097 C 
HETATM   13  O1  UNL     1      -1.699   7.262   2.701  1.00  0.00    -0.292 OA
ENDBRANCH  10  11
BRANCH  10  14
HETATM   14  O2  UNL     1      -2.639   9.610   5.117  1.00  0.00    -0.356 OA
ATOM     15  H2  UNL     1      -2.221  10.114   5.806  1.00  0.00     0.214 HD
ENDBRANCH  10  14
BRANCH  10  16
HETATM   16  O3  UNL     1      -1.208   7.925   5.457  1.00  0.00    -0.356 OA
ATOM     17  H3  UNL     1      -0.279   7.767   5.340  1.00  0.00     0.214 HD
ENDBRANCH  10  16
ENDBRANCH   5  10
ENDBRANCH   1   3
BRANCH   1  18
HETATM   18  C9  UNL     1       3.381  10.382   1.981  1.00  0.00    -0.022 C 
HETATM   19  C10 UNL     1       4.486   9.702   1.769  1.00  0.00    -0.003 C 
BRANCH  19  20
HETATM   20  C11 UNL     1       5.676  10.311   1.224  1.00  0.00     0.003 C 
HETATM   21  C12 UNL     1       6.845   9.700   1.341  1.00  0.00    -0.077 C 
HETATM   22  C13 UNL     1       6.913   8.399   2.028  1.00  0.00     0.044 C 
BRANCH  21  23
HETATM   23  C14 UNL     1       8.019  10.388   0.756  1.00  0.00     0.050 C 
HETATM   24  C15 UNL     1       7.585  11.727   0.195  1.00  0.00     0.044 C 
HETATM   25  C16 UNL     1       8.817  12.133  -0.597  1.00  0.00     0.121 C 
HETATM   26  C17 UNL     1       9.454  10.852  -1.041  1.00  0.00     0.069 C 
HETATM   27  C18 UNL     1       8.606   9.722  -0.440  1.00  0.00     0.064 C 
HETATM   28  C19 UNL     1       9.483   8.539  -0.086  1.00  0.00     0.046 C 
BRANCH  25  29
HETATM   29  O4  UNL     1       8.404  12.917  -1.665  1.00  0.00    -0.395 OA
ATOM     30  H4  UNL     1       9.144  13.438  -1.952  1.00  0.00     0.210 HD
ENDBRANCH  25  29
BRANCH  27  31
HETATM   31  O5  UNL     1       7.624   9.326  -1.316  1.00  0.00    -0.389 OA
ATOM     32  H5  UNL     1       7.913   8.589  -1.840  1.00  0.00     0.210 HD
ENDBRANCH  27  31
ENDBRANCH  21  23
ENDBRANCH  19  20
ENDBRANCH   1  18
TORSDOF 10
ENDMDL
