MODEL 1
REMARK VINA RESULT: -8.085835048      0.000      0.000
REMARK  6 active torsions:
REMARK  status: ('A' for Active; 'I' for Inactive)
REMARK    1  A    between atoms: N1_2  and  C2_4 
REMARK    2  A    between atoms: C3_7  and  O1_8 
REMARK    3  A    between atoms: C5_10  and  C6_11 
REMARK    4  A    between atoms: C6_11  and  N3_12 
REMARK    5  A    between atoms: N3_12  and  C7_14 
REMARK    6  A    between atoms: C10_17  and  C11_18 
ROOT
HETATM    1  C2  UNL     1      -9.741  -7.807  10.289  1.00  0.00     0.680 A 
HETATM    2  N2  UNL     1     -10.084  -6.705   9.610  1.00  0.00    -0.170 N 
ATOM      3  H2  UNL     1     -10.064  -6.750   8.591  1.00  0.00     0.186 HD
HETATM    4  C3  UNL     1     -10.443  -5.571  10.163  1.00  0.00     0.172 A 
HETATM    5  C5  UNL     1     -10.476  -5.479  11.593  1.00  0.00     0.070 A 
HETATM    6  C17 UNL     1     -10.135  -6.594  12.250  1.00  0.00     0.135 A 
HETATM    7 CL1  UNL     1     -10.036  -6.621  14.000  1.00  0.00    -0.063 Cl
HETATM    8  N4  UNL     1      -9.767  -7.760  11.608  1.00  0.00    -0.180 N 
ATOM      9  H4  UNL     1      -9.516  -8.585  12.153  1.00  0.00     0.185 HD
ENDROOT
BRANCH   5  10
HETATM   10  C6  UNL     1     -10.622  -4.118  12.046  1.00  0.00     0.102 C 
BRANCH  10  11
HETATM   11  N3  UNL     1      -9.741  -3.061  11.745  1.00  0.00    -0.393 N 
ATOM     12  H3  UNL     1      -9.921  -2.299  11.090  1.00  0.00     0.159 HD
BRANCH  11  13
HETATM   13  C7  UNL     1      -8.497  -3.248  12.551  1.00  0.00     0.081 C 
HETATM   14  C8  UNL     1      -8.858  -3.263  13.994  1.00  0.00     0.025 C 
HETATM   15  C9  UNL     1      -7.863  -2.810  14.975  1.00  0.00     0.007 C 
HETATM   16  C10 UNL     1      -6.698  -1.988  14.496  1.00  0.00    -0.007 C 
HETATM   17  C15 UNL     1      -6.261  -2.514  13.132  1.00  0.00     0.007 C 
HETATM   18  C16 UNL     1      -7.474  -2.196  12.235  1.00  0.00     0.025 C 
BRANCH  16  19
HETATM   19  C11 UNL     1      -5.503  -2.055  15.423  1.00  0.00    -0.048 C 
HETATM   20  C12 UNL     1      -5.675  -1.199  16.639  1.00  0.00     0.015 C 
HETATM   21  C13 UNL     1      -5.264  -3.479  15.828  1.00  0.00     0.015 C 
HETATM   22  C14 UNL     1      -4.228  -1.555  14.739  1.00  0.00     0.015 C 
ENDBRANCH  16  19
ENDBRANCH  11  13
ENDBRANCH  10  11
ENDBRANCH   5  10
BRANCH   4  23
HETATM   23  O1  UNL     1     -10.801  -4.468   9.425  1.00  0.00    -0.340 OA
HETATM   24  C4  UNL     1     -12.128  -4.108   9.087  1.00  0.00     0.211 C 
ENDBRANCH   4  23
BRANCH   1  25
HETATM   25  N1  UNL     1      -9.352  -8.876   9.630  1.00  0.00    -0.230 N 
HETATM   26  C1  UNL     1      -8.329  -9.674  10.342  1.00  0.00     0.165 C 
ATOM     27  H1  UNL     1      -9.720  -9.132   8.713  1.00  0.00     0.177 HD
ENDBRANCH   1  25
TORSDOF 6
ENDMDL
MODEL 2
REMARK VINA RESULT: -7.197760547      0.462      1.425
REMARK  6 active torsions:
REMARK  status: ('A' for Active; 'I' for Inactive)
REMARK    1  A    between atoms: N1_2  and  C2_4 
REMARK    2  A    between atoms: C3_7  and  O1_8 
REMARK    3  A    between atoms: C5_10  and  C6_11 
REMARK    4  A    between atoms: C6_11  and  N3_12 
REMARK    5  A    between atoms: N3_12  and  C7_14 
REMARK    6  A    between atoms: C10_17  and  C11_18 
ROOT
HETATM    1  C2  UNL     1      -9.819  -7.900  10.368  1.00  0.00     0.680 A 
HETATM    2  N2  UNL     1     -10.146  -6.820   9.646  1.00  0.00    -0.170 N 
ATOM      3  H2  UNL     1     -10.155  -6.912   8.630  1.00  0.00     0.186 HD
HETATM    4  C3  UNL     1     -10.457  -5.651  10.154  1.00  0.00     0.172 A 
HETATM    5  C5  UNL     1     -10.449  -5.492  11.579  1.00  0.00     0.070 A 
HETATM    6  C17 UNL     1     -10.124  -6.585  12.278  1.00  0.00     0.135 A 
HETATM    7 CL1  UNL     1      -9.980  -6.535  14.025  1.00  0.00    -0.063 Cl
HETATM    8  N4  UNL     1      -9.809  -7.791  11.683  1.00  0.00    -0.180 N 
ATOM      9  H4  UNL     1      -9.568  -8.597  12.260  1.00  0.00     0.185 HD
ENDROOT
BRANCH   5  10
HETATM   10  C6  UNL     1     -10.542  -4.107  11.971  1.00  0.00     0.102 C 
BRANCH  10  11
HETATM   11  N3  UNL     1      -9.759  -3.059  11.449  1.00  0.00    -0.393 N 
ATOM     12  H3  UNL     1      -9.796  -2.704  10.493  1.00  0.00     0.159 HD
BRANCH  11  13
HETATM   13  C7  UNL     1      -8.867  -2.558  12.536  1.00  0.00     0.081 C 
HETATM   14  C8  UNL     1      -7.509  -2.326  11.974  1.00  0.00     0.025 C 
HETATM   15  C9  UNL     1      -6.347  -2.450  12.864  1.00  0.00     0.007 C 
HETATM   16  C10 UNL     1      -6.510  -3.179  14.170  1.00  0.00    -0.007 C 
HETATM   17  C15 UNL     1      -7.890  -2.858  14.734  1.00  0.00     0.007 C 
HETATM   18  C16 UNL     1      -8.843  -3.499  13.705  1.00  0.00     0.025 C 
BRANCH  16  19
HETATM   19  C11 UNL     1      -5.481  -2.778  15.205  1.00  0.00    -0.048 C 
HETATM   20  C12 UNL     1      -4.249  -2.193  14.589  1.00  0.00     0.015 C 
HETATM   21  C13 UNL     1      -6.091  -1.799  16.163  1.00  0.00     0.015 C 
HETATM   22  C14 UNL     1      -5.005  -3.982  16.024  1.00  0.00     0.015 C 
ENDBRANCH  16  19
ENDBRANCH  11  13
ENDBRANCH  10  11
ENDBRANCH   5  10
BRANCH   4  23
HETATM   23  O1  UNL     1     -10.800  -4.573   9.374  1.00  0.00    -0.340 OA
HETATM   24  C4  UNL     1     -12.124  -4.205   9.028  1.00  0.00     0.211 C 
ENDBRANCH   4  23
BRANCH   1  25
HETATM   25  N1  UNL     1      -9.479  -9.009   9.750  1.00  0.00    -0.230 N 
HETATM   26  C1  UNL     1      -8.337  -9.711  10.374  1.00  0.00     0.165 C 
ATOM     27  H1  UNL     1      -9.960  -9.355   8.918  1.00  0.00     0.177 HD
ENDBRANCH   1  25
TORSDOF 6
ENDMDL
MODEL 3
REMARK VINA RESULT: -6.888661851      2.283      3.663
REMARK  6 active torsions:
REMARK  status: ('A' for Active; 'I' for Inactive)
REMARK    1  A    between atoms: N1_2  and  C2_4 
REMARK    2  A    between atoms: C3_7  and  O1_8 
REMARK    3  A    between atoms: C5_10  and  C6_11 
REMARK    4  A    between atoms: C6_11  and  N3_12 
REMARK    5  A    between atoms: N3_12  and  C7_14 
REMARK    6  A    between atoms: C10_17  and  C11_18 
ROOT
HETATM    1  C2  UNL     1     -10.488  -5.097  10.364  1.00  0.00     0.680 A 
HETATM    2  N2  UNL     1     -10.612  -5.940  11.397  1.00  0.00    -0.170 N 
ATOM      3  H2  UNL     1     -11.258  -6.723  11.296  1.00  0.00     0.186 HD
HETATM    4  C3  UNL     1      -9.962  -5.829  12.531  1.00  0.00     0.172 A 
HETATM    5  C5  UNL     1      -9.051  -4.735  12.702  1.00  0.00     0.070 A 
HETATM    6  C17 UNL     1      -8.940  -3.909  11.655  1.00  0.00     0.135 A 
HETATM    7 CL1  UNL     1      -7.938  -2.473  11.735  1.00  0.00    -0.063 Cl
HETATM    8  N4  UNL     1      -9.652  -4.082  10.484  1.00  0.00    -0.180 N 
ATOM      9  H4  UNL     1      -9.533  -3.425   9.713  1.00  0.00     0.185 HD
ENDROOT
BRANCH   5  10
HETATM   10  C6  UNL     1      -8.625  -4.592  14.072  1.00  0.00     0.102 C 
BRANCH  10  11
HETATM   11  N3  UNL     1      -8.592  -3.382  14.792  1.00  0.00    -0.393 N 
ATOM     12  H3  UNL     1      -9.311  -2.658  14.780  1.00  0.00     0.159 HD
BRANCH  11  13
HETATM   13  C7  UNL     1      -7.320  -3.341  15.575  1.00  0.00     0.081 C 
HETATM   14  C8  UNL     1      -7.242  -2.041  16.295  1.00  0.00     0.025 C 
HETATM   15  C9  UNL     1      -5.918  -1.482  16.598  1.00  0.00     0.007 C 
HETATM   16  C10 UNL     1      -4.724  -2.003  15.846  1.00  0.00    -0.007 C 
HETATM   17  C15 UNL     1      -4.902  -3.502  15.632  1.00  0.00     0.007 C 
HETATM   18  C16 UNL     1      -6.126  -3.574  14.696  1.00  0.00     0.025 C 
BRANCH  16  19
HETATM   19  C11 UNL     1      -3.420  -1.793  16.586  1.00  0.00    -0.048 C 
HETATM   20  C12 UNL     1      -2.375  -1.148  15.730  1.00  0.00     0.015 C 
HETATM   21  C13 UNL     1      -3.667  -0.959  17.808  1.00  0.00     0.015 C 
HETATM   22  C14 UNL     1      -2.815  -3.120  17.054  1.00  0.00     0.015 C 
ENDBRANCH  16  19
ENDBRANCH  11  13
ENDBRANCH  10  11
ENDBRANCH   5  10
BRANCH   4  23
HETATM   23  O1  UNL     1     -10.111  -6.727  13.561  1.00  0.00    -0.340 OA
HETATM   24  C4  UNL     1     -10.024  -8.135  13.434  1.00  0.00     0.211 C 
ENDBRANCH   4  23
BRANCH   1  25
HETATM   25  N1  UNL     1     -11.226  -5.278   9.291  1.00  0.00    -0.230 N 
HETATM   26  C1  UNL     1     -12.409  -4.394   9.226  1.00  0.00     0.165 C 
ATOM     27  H1  UNL     1     -11.002  -5.965   8.570  1.00  0.00     0.177 HD
ENDBRANCH   1  25
TORSDOF 6
ENDMDL
MODEL 4
REMARK VINA RESULT: -6.875845762      1.758      2.539
REMARK  6 active torsions:
REMARK  status: ('A' for Active; 'I' for Inactive)
REMARK    1  A    between atoms: N1_2  and  C2_4 
REMARK    2  A    between atoms: C3_7  and  O1_8 
REMARK    3  A    between atoms: C5_10  and  C6_11 
REMARK    4  A    between atoms: C6_11  and  N3_12 
REMARK    5  A    between atoms: N3_12  and  C7_14 
REMARK    6  A    between atoms: C10_17  and  C11_18 
ROOT
HETATM    1  C2  UNL     1      -9.218  -7.746   9.905  1.00  0.00     0.680 A 
HETATM    2  N2  UNL     1      -9.431  -7.739  11.228  1.00  0.00    -0.170 N 
ATOM      3  H2  UNL     1      -9.211  -8.588  11.748  1.00  0.00     0.186 HD
HETATM    4  C3  UNL     1      -9.904  -6.717  11.900  1.00  0.00     0.172 A 
HETATM    5  C5  UNL     1     -10.226  -5.512  11.193  1.00  0.00     0.070 A 
HETATM    6  C17 UNL     1     -10.000  -5.541   9.874  1.00  0.00     0.135 A 
HETATM    7 CL1  UNL     1     -10.424  -4.182   8.851  1.00  0.00    -0.063 Cl
HETATM    8  N4  UNL     1      -9.496  -6.651   9.223  1.00  0.00    -0.180 N 
ATOM      9  H4  UNL     1      -9.340  -6.624   8.215  1.00  0.00     0.185 HD
ENDROOT
BRANCH   5  10
HETATM   10  C6  UNL     1     -10.977  -4.588  12.006  1.00  0.00     0.102 C 
BRANCH  10  11
HETATM   11  N3  UNL     1     -10.526  -3.322  12.427  1.00  0.00    -0.393 N 
ATOM     12  H3  UNL     1     -11.087  -2.471  12.471  1.00  0.00     0.159 HD
BRANCH  11  13
HETATM   13  C7  UNL     1      -9.084  -3.441  12.798  1.00  0.00     0.081 C 
HETATM   14  C8  UNL     1      -8.961  -3.355  14.279  1.00  0.00     0.025 C 
HETATM   15  C9  UNL     1      -7.718  -2.825  14.853  1.00  0.00     0.007 C 
HETATM   16  C10 UNL     1      -6.795  -2.030  13.971  1.00  0.00    -0.007 C 
HETATM   17  C15 UNL     1      -6.804  -2.649  12.577  1.00  0.00     0.007 C 
HETATM   18  C16 UNL     1      -8.250  -2.407  12.100  1.00  0.00     0.025 C 
BRANCH  16  19
HETATM   19  C11 UNL     1      -5.364  -2.020  14.465  1.00  0.00    -0.048 C 
HETATM   20  C12 UNL     1      -4.373  -1.954  13.344  1.00  0.00     0.015 C 
HETATM   21  C13 UNL     1      -5.164  -0.861  15.396  1.00  0.00     0.015 C 
HETATM   22  C14 UNL     1      -5.026  -3.295  15.243  1.00  0.00     0.015 C 
ENDBRANCH  16  19
ENDBRANCH  11  13
ENDBRANCH  10  11
ENDBRANCH   5  10
BRANCH   4  23
HETATM   23  O1  UNL     1     -10.094  -6.750  13.261  1.00  0.00    -0.340 OA
HETATM   24  C4  UNL     1     -10.180  -7.927  14.044  1.00  0.00     0.211 C 
ENDBRANCH   4  23
BRANCH   1  25
HETATM   25  N1  UNL     1      -8.784  -8.844   9.327  1.00  0.00    -0.230 N 
HETATM   26  C1  UNL     1      -8.295  -9.864  10.281  1.00  0.00     0.165 C 
ATOM     27  H1  UNL     1      -8.785  -8.981   8.316  1.00  0.00     0.177 HD
ENDBRANCH   1  25
TORSDOF 6
ENDMDL
MODEL 5
REMARK VINA RESULT: -6.860737292      2.515      3.921
REMARK  6 active torsions:
REMARK  status: ('A' for Active; 'I' for Inactive)
REMARK    1  A    between atoms: N1_2  and  C2_4 
REMARK    2  A    between atoms: C3_7  and  O1_8 
REMARK    3  A    between atoms: C5_10  and  C6_11 
REMARK    4  A    between atoms: C6_11  and  N3_12 
REMARK    5  A    between atoms: N3_12  and  C7_14 
REMARK    6  A    between atoms: C10_17  and  C11_18 
ROOT
HETATM    1  C2  UNL     1     -11.286  -4.733  10.994  1.00  0.00     0.680 A 
HETATM    2  N2  UNL     1     -11.120  -5.672  11.934  1.00  0.00    -0.170 N 
ATOM      3  H2  UNL     1     -11.827  -6.404  12.004  1.00  0.00     0.186 HD
HETATM    4  C3  UNL     1     -10.111  -5.717  12.772  1.00  0.00     0.172 A 
HETATM    5  C5  UNL     1      -9.105  -4.698  12.698  1.00  0.00     0.070 A 
HETATM    6  C17 UNL     1      -9.290  -3.774  11.748  1.00  0.00     0.135 A 
HETATM    7 CL1  UNL     1      -8.200  -2.410  11.585  1.00  0.00    -0.063 Cl
HETATM    8  N4  UNL     1     -10.375  -3.783  10.893  1.00  0.00    -0.180 N 
ATOM      9  H4  UNL     1     -10.472  -3.056  10.184  1.00  0.00     0.185 HD
ENDROOT
BRANCH   5  10
HETATM   10  C6  UNL     1      -8.221  -4.725  13.837  1.00  0.00     0.102 C 
BRANCH  10  11
HETATM   11  N3  UNL     1      -8.123  -3.714  14.813  1.00  0.00    -0.393 N 
ATOM     12  H3  UNL     1      -8.883  -3.377  15.405  1.00  0.00     0.159 HD
BRANCH  11  13
HETATM   13  C7  UNL     1      -6.713  -3.221  14.833  1.00  0.00     0.081 C 
HETATM   14  C8  UNL     1      -6.715  -1.752  14.597  1.00  0.00     0.025 C 
HETATM   15  C9  UNL     1      -5.544  -1.138  13.960  1.00  0.00     0.007 C 
HETATM   16  C10 UNL     1      -4.580  -2.020  13.215  1.00  0.00    -0.007 C 
HETATM   17  C15 UNL     1      -4.452  -3.341  13.967  1.00  0.00     0.007 C 
HETATM   18  C16 UNL     1      -5.862  -3.952  13.836  1.00  0.00     0.025 C 
BRANCH  16  19
HETATM   19  C11 UNL     1      -3.196  -1.419  13.095  1.00  0.00    -0.048 C 
HETATM   20  C12 UNL     1      -3.006  -0.675  11.810  1.00  0.00     0.015 C 
HETATM   21  C13 UNL     1      -2.945  -0.506  14.259  1.00  0.00     0.015 C 
HETATM   22  C14 UNL     1      -2.108  -2.496  13.117  1.00  0.00     0.015 C 
ENDBRANCH  16  19
ENDBRANCH  11  13
ENDBRANCH  10  11
ENDBRANCH   5  10
BRANCH   4  23
HETATM   23  O1  UNL     1      -9.974  -6.710  13.712  1.00  0.00    -0.340 OA
HETATM   24  C4  UNL     1     -10.113  -8.097  13.461  1.00  0.00     0.211 C 
ENDBRANCH   4  23
BRANCH   1  25
HETATM   25  N1  UNL     1     -12.362  -4.760  10.239  1.00  0.00    -0.230 N 
HETATM   26  C1  UNL     1     -12.207  -4.037   8.958  1.00  0.00     0.165 C 
ATOM     27  H1  UNL     1     -13.224  -5.235  10.511  1.00  0.00     0.177 HD
ENDBRANCH   1  25
TORSDOF 6
ENDMDL
