MODEL 1
REMARK VINA RESULT: -7.104204303      0.000      0.000
REMARK  14 active torsions:
REMARK  status: ('A' for Active; 'I' for Inactive)
REMARK       I    between atoms: N1_2  and  C2_4 
REMARK    1  A    between atoms: C2_4  and  C3_6 
REMARK    2  A    between atoms: C3_6  and  N2_7 
REMARK    3  A    between atoms: C3_6  and  C4_11 
REMARK    4  A    between atoms: C4_11  and  O2_12 
REMARK    5  A    between atoms: C4_11  and  C5_14 
REMARK    6  A    between atoms: C6_18  and  N4_19 
REMARK    7  A    between atoms: N4_19  and  C7_21 
REMARK    8  A    between atoms: C8_22  and  O4_23 
REMARK    9  A    between atoms: C9_25  and  C10_26 
REMARK   10  A    between atoms: C10_26  and  O5_27 
REMARK   11  A    between atoms: C10_26  and  N5_29 
REMARK   12  A    between atoms: N5_29  and  N6_31 
REMARK   13  A    between atoms: C11_34  and  O6_35 
REMARK   14  A    between atoms: C15_43  and  O9_44 
ROOT
HETATM    1  C5  UNL     1     -47.475  78.448 152.672  1.00  0.00     0.144 A 
HETATM    2  O3  UNL     1     -46.215  78.601 152.341  1.00  0.00    -0.235 OA
HETATM    3  N3  UNL     1     -45.822  79.274 151.358  1.00  0.00    -0.241 N 
ATOM      4  H3  UNL     1     -44.817  79.330 151.190  1.00  0.00     0.196 HD
HETATM    5  C6  UNL     1     -46.635  79.925 150.513  1.00  0.00     0.181 A 
HETATM    6  C14 UNL     1     -47.984  79.803 150.789  1.00  0.00     0.253 A 
HETATM    7  O8  UNL     1     -48.796  80.385 150.040  1.00  0.00    -0.281 OA
HETATM    8  C15 UNL     1     -48.396  79.075 151.847  1.00  0.00     0.155 A 
ENDROOT
BRANCH   5   9
HETATM    9  N4  UNL     1     -46.198  80.645 149.402  1.00  0.00    -0.321 N 
ATOM     10  H4  UNL     1     -46.822  80.619 148.595  1.00  0.00     0.169 HD
BRANCH   9  11
HETATM   11  C7  UNL     1     -45.013  81.410 149.223  1.00  0.00     0.146 A 
HETATM   12  C8  UNL     1     -43.830  80.789 148.960  1.00  0.00     0.128 A 
HETATM   13  C9  UNL     1     -42.641  81.455 148.624  1.00  0.00     0.092 A 
HETATM   14  C11 UNL     1     -42.697  82.834 148.559  1.00  0.00     0.152 A 
HETATM   15  C12 UNL     1     -43.893  83.448 148.822  1.00  0.00     0.283 A 
HETATM   16  O7  UNL     1     -43.978  84.712 148.778  1.00  0.00    -0.265 OA
HETATM   17  N7  UNL     1     -45.032  82.760 149.145  1.00  0.00    -0.300 N 
HETATM   18  C13 UNL     1     -46.240  83.558 149.203  1.00  0.00     0.161 C 
BRANCH  12  19
HETATM   19  O4  UNL     1     -43.729  79.402 149.020  1.00  0.00    -0.356 OA
ATOM     20  H4  UNL     1     -42.970  78.956 148.662  1.00  0.00     0.218 HD
ENDBRANCH  12  19
BRANCH  13  21
HETATM   21  C10 UNL     1     -41.419  80.745 148.411  1.00  0.00     0.170 C 
BRANCH  21  22
HETATM   22  O5  UNL     1     -41.114  79.910 149.420  1.00  0.00    -0.344 OA
ATOM     23  H5  UNL     1     -40.516  79.219 149.162  1.00  0.00     0.219 HD
ENDBRANCH  21  22
BRANCH  21  24
HETATM   24  N5  UNL     1     -40.481  80.749 147.390  1.00  0.00    -0.286 N 
ATOM     25  H5  UNL     1     -39.580  80.325 147.611  1.00  0.00     0.188 HD
BRANCH  24  26
HETATM   26  N6  UNL     1     -40.614  81.260 146.103  1.00  0.00    -0.343 N 
ATOM     27  H62 UNL     1     -40.823  80.565 145.387  1.00  0.00     0.176 HD
ATOM     28  H61 UNL     1     -40.529  82.229 145.799  1.00  0.00     0.176 HD
ENDBRANCH  24  26
ENDBRANCH  21  24
ENDBRANCH  13  21
BRANCH  14  29
HETATM   29  O6  UNL     1     -41.586  83.608 148.219  1.00  0.00    -0.355 OA
ATOM     30  H6  UNL     1     -41.666  84.426 147.743  1.00  0.00     0.218 HD
ENDBRANCH  14  29
ENDBRANCH   9  11
ENDBRANCH   5   9
BRANCH   8  31
HETATM   31  O9  UNL     1     -49.772  78.930 152.134  1.00  0.00    -0.355 OA
ATOM     32  H9  UNL     1     -50.085  79.169 152.999  1.00  0.00     0.218 HD
ENDBRANCH   8  31
BRANCH   1  33
HETATM   33  C4  UNL     1     -47.932  77.717 153.844  1.00  0.00     0.220 C 
BRANCH  33  34
HETATM   34  C3  UNL     1     -48.535  76.382 153.839  1.00  0.00     0.309 C 
BRANCH  34  35
HETATM   35  C2  UNL     1     -47.881  75.290 154.572  1.00  0.00     0.251 C 
HETATM   36  N1  UNL     1     -47.981  75.331 156.004  1.00  0.00    -0.364 N 
HETATM   37  C1  UNL     1     -47.436  74.381 156.923  1.00  0.00     0.149 C 
ATOM     38  H1  UNL     1     -48.493  76.117 156.407  1.00  0.00     0.161 HD
HETATM   39  O1  UNL     1     -47.269  74.386 154.027  1.00  0.00    -0.271 OA
ENDBRANCH  34  35
BRANCH  34  40
HETATM   40  N2  UNL     1     -48.553  75.834 152.414  1.00  0.00    -0.064 N 
ATOM     41  H23 UNL     1     -48.192  76.468 151.701  1.00  0.00     0.275 HD
ATOM     42  H22 UNL     1     -47.880  75.089 152.228  1.00  0.00     0.275 HD
ATOM     43  H21 UNL     1     -49.532  75.570 152.304  1.00  0.00     0.275 HD
ENDBRANCH  34  40
ENDBRANCH  33  34
BRANCH  33  44
HETATM   44  O2  UNL     1     -46.535  77.294 154.399  1.00  0.00    -0.386 OA
ATOM     45  H2  UNL     1     -46.155  78.164 154.433  1.00  0.00     0.210 HD
ENDBRANCH  33  44
ENDBRANCH   1  33
TORSDOF 14
ENDMDL
MODEL 2
REMARK VINA RESULT: -6.953781935      1.600      1.719
REMARK  14 active torsions:
REMARK  status: ('A' for Active; 'I' for Inactive)
REMARK       I    between atoms: N1_2  and  C2_4 
REMARK    1  A    between atoms: C2_4  and  C3_6 
REMARK    2  A    between atoms: C3_6  and  N2_7 
REMARK    3  A    between atoms: C3_6  and  C4_11 
REMARK    4  A    between atoms: C4_11  and  O2_12 
REMARK    5  A    between atoms: C4_11  and  C5_14 
REMARK    6  A    between atoms: C6_18  and  N4_19 
REMARK    7  A    between atoms: N4_19  and  C7_21 
REMARK    8  A    between atoms: C8_22  and  O4_23 
REMARK    9  A    between atoms: C9_25  and  C10_26 
REMARK   10  A    between atoms: C10_26  and  O5_27 
REMARK   11  A    between atoms: C10_26  and  N5_29 
REMARK   12  A    between atoms: N5_29  and  N6_31 
REMARK   13  A    between atoms: C11_34  and  O6_35 
REMARK   14  A    between atoms: C15_43  and  O9_44 
ROOT
HETATM    1  C5  UNL     1     -47.465  78.432 152.582  1.00  0.00     0.144 A 
HETATM    2  O3  UNL     1     -46.176  78.642 152.459  1.00  0.00    -0.235 OA
HETATM    3  N3  UNL     1     -45.677  79.639 151.882  1.00  0.00    -0.241 N 
ATOM      4  H3  UNL     1     -44.660  79.707 151.844  1.00  0.00     0.196 HD
HETATM    5  C6  UNL     1     -46.392  80.620 151.313  1.00  0.00     0.181 A 
HETATM    6  C14 UNL     1     -47.763  80.465 151.390  1.00  0.00     0.253 A 
HETATM    7  O8  UNL     1     -48.488  81.344 150.879  1.00  0.00    -0.281 OA
HETATM    8  C15 UNL     1     -48.290  79.389 152.010  1.00  0.00     0.155 A 
ENDROOT
BRANCH   5   9
HETATM    9  N4  UNL     1     -45.835  81.710 150.643  1.00  0.00    -0.321 N 
ATOM     10  H4  UNL     1     -45.951  82.610 151.109  1.00  0.00     0.169 HD
BRANCH   9  11
HETATM   11  C7  UNL     1     -45.131  81.755 149.410  1.00  0.00     0.146 A 
HETATM   12  C8  UNL     1     -43.924  81.134 149.287  1.00  0.00     0.128 A 
HETATM   13  C9  UNL     1     -43.222  80.995 148.080  1.00  0.00     0.092 A 
HETATM   14  C11 UNL     1     -43.813  81.529 146.951  1.00  0.00     0.152 A 
HETATM   15  C12 UNL     1     -45.027  82.149 147.085  1.00  0.00     0.283 A 
HETATM   16  O7  UNL     1     -45.595  82.656 146.071  1.00  0.00    -0.265 OA
HETATM   17  N7  UNL     1     -45.680  82.261 148.284  1.00  0.00    -0.300 N 
HETATM   18  C13 UNL     1     -47.033  82.776 148.203  1.00  0.00     0.161 C 
BRANCH  12  19
HETATM   19  O4  UNL     1     -43.292  80.587 150.400  1.00  0.00    -0.356 OA
ATOM     20  H4  UNL     1     -42.412  80.236 150.333  1.00  0.00     0.218 HD
ENDBRANCH  12  19
BRANCH  13  21
HETATM   21  C10 UNL     1     -41.935  80.377 148.029  1.00  0.00     0.170 C 
BRANCH  21  22
HETATM   22  O5  UNL     1     -41.952  79.095 148.436  1.00  0.00    -0.344 OA
ATOM     23  H5  UNL     1     -41.293  78.560 148.008  1.00  0.00     0.219 HD
ENDBRANCH  21  22
BRANCH  21  24
HETATM   24  N5  UNL     1     -40.676  80.826 147.662  1.00  0.00    -0.286 N 
ATOM     25  H5  UNL     1     -39.987  80.884 148.412  1.00  0.00     0.188 HD
BRANCH  24  26
HETATM   26  N6  UNL     1     -40.235  81.210 146.400  1.00  0.00    -0.343 N 
ATOM     27  H62 UNL     1     -40.928  81.116 145.658  1.00  0.00     0.176 HD
ATOM     28  H61 UNL     1     -39.318  81.568 146.135  1.00  0.00     0.176 HD
ENDBRANCH  24  26
ENDBRANCH  21  24
ENDBRANCH  13  21
BRANCH  14  29
HETATM   29  O6  UNL     1     -43.221  81.440 145.689  1.00  0.00    -0.355 OA
ATOM     30  H6  UNL     1     -42.562  82.057 145.395  1.00  0.00     0.218 HD
ENDBRANCH  14  29
ENDBRANCH   9  11
ENDBRANCH   5   9
BRANCH   8  31
HETATM   31  O9  UNL     1     -49.689  79.209 152.085  1.00  0.00    -0.355 OA
ATOM     32  H9  UNL     1     -50.177  79.698 152.738  1.00  0.00     0.218 HD
ENDBRANCH   8  31
BRANCH   1  33
HETATM   33  C4  UNL     1     -48.047  77.308 153.299  1.00  0.00     0.220 C 
BRANCH  33  34
HETATM   34  C3  UNL     1     -47.302  76.215 153.927  1.00  0.00     0.309 C 
BRANCH  34  35
HETATM   35  C2  UNL     1     -48.030  75.059 154.467  1.00  0.00     0.251 C 
HETATM   36  N1  UNL     1     -49.401  75.282 154.833  1.00  0.00    -0.364 N 
HETATM   37  C1  UNL     1     -50.306  74.313 155.368  1.00  0.00     0.149 C 
ATOM     38  H1  UNL     1     -49.766  76.225 154.697  1.00  0.00     0.161 HD
HETATM   39  O1  UNL     1     -47.527  73.958 154.618  1.00  0.00    -0.271 OA
ENDBRANCH  34  35
BRANCH  34  40
HETATM   40  N2  UNL     1     -46.579  76.734 155.168  1.00  0.00    -0.064 N 
ATOM     41  H23 UNL     1     -47.173  76.887 155.983  1.00  0.00     0.275 HD
ATOM     42  H22 UNL     1     -45.963  76.061 155.624  1.00  0.00     0.275 HD
ATOM     43  H21 UNL     1     -46.117  77.569 154.806  1.00  0.00     0.275 HD
ENDBRANCH  34  40
ENDBRANCH  33  34
BRANCH  33  44
HETATM   44  O2  UNL     1     -48.430  78.060 154.613  1.00  0.00    -0.386 OA
ATOM     45  H2  UNL     1     -49.369  78.079 154.467  1.00  0.00     0.210 HD
ENDBRANCH  33  44
ENDBRANCH   1  33
TORSDOF 14
ENDMDL
MODEL 3
REMARK VINA RESULT: -6.851916226      6.334     11.890
REMARK  14 active torsions:
REMARK  status: ('A' for Active; 'I' for Inactive)
REMARK       I    between atoms: N1_2  and  C2_4 
REMARK    1  A    between atoms: C2_4  and  C3_6 
REMARK    2  A    between atoms: C3_6  and  N2_7 
REMARK    3  A    between atoms: C3_6  and  C4_11 
REMARK    4  A    between atoms: C4_11  and  O2_12 
REMARK    5  A    between atoms: C4_11  and  C5_14 
REMARK    6  A    between atoms: C6_18  and  N4_19 
REMARK    7  A    between atoms: N4_19  and  C7_21 
REMARK    8  A    between atoms: C8_22  and  O4_23 
REMARK    9  A    between atoms: C9_25  and  C10_26 
REMARK   10  A    between atoms: C10_26  and  O5_27 
REMARK   11  A    between atoms: C10_26  and  N5_29 
REMARK   12  A    between atoms: N5_29  and  N6_31 
REMARK   13  A    between atoms: C11_34  and  O6_35 
REMARK   14  A    between atoms: C15_43  and  O9_44 
ROOT
HETATM    1  C5  UNL     1     -45.180  86.900 142.514  1.00  0.00     0.144 A 
HETATM    2  O3  UNL     1     -45.870  85.977 143.142  1.00  0.00    -0.235 OA
HETATM    3  N3  UNL     1     -45.576  85.529 144.277  1.00  0.00    -0.241 N 
ATOM      4  H3  UNL     1     -46.182  84.812 144.677  1.00  0.00     0.196 HD
HETATM    5  C6  UNL     1     -44.519  85.930 144.999  1.00  0.00     0.181 A 
HETATM    6  C14 UNL     1     -43.733  86.895 144.398  1.00  0.00     0.253 A 
HETATM    7  O8  UNL     1     -42.732  87.312 145.017  1.00  0.00    -0.281 OA
HETATM    8  C15 UNL     1     -44.056  87.369 143.177  1.00  0.00     0.155 A 
ENDROOT
BRANCH   5   9
HETATM    9  N4  UNL     1     -44.176  85.406 146.245  1.00  0.00    -0.321 N 
ATOM     10  H4  UNL     1     -43.910  86.097 146.947  1.00  0.00     0.169 HD
BRANCH   9  11
HETATM   11  C7  UNL     1     -44.140  84.055 146.684  1.00  0.00     0.146 A 
HETATM   12  C8  UNL     1     -42.989  83.333 146.588  1.00  0.00     0.128 A 
HETATM   13  C9  UNL     1     -42.810  82.049 147.124  1.00  0.00     0.092 A 
HETATM   14  C11 UNL     1     -43.885  81.497 147.793  1.00  0.00     0.152 A 
HETATM   15  C12 UNL     1     -45.037  82.233 147.886  1.00  0.00     0.283 A 
HETATM   16  O7  UNL     1     -46.046  81.755 148.488  1.00  0.00    -0.265 OA
HETATM   17  N7  UNL     1     -45.170  83.486 147.349  1.00  0.00    -0.300 N 
HETATM   18  C13 UNL     1     -46.388  84.185 147.709  1.00  0.00     0.161 C 
BRANCH  12  19
HETATM   19  O4  UNL     1     -41.883  83.849 145.917  1.00  0.00    -0.356 OA
ATOM     20  H4  UNL     1     -41.083  84.051 146.389  1.00  0.00     0.218 HD
ENDBRANCH  12  19
BRANCH  13  21
HETATM   21  C10 UNL     1     -41.591  81.324 146.942  1.00  0.00     0.170 C 
BRANCH  21  22
HETATM   22  O5  UNL     1     -41.290  81.120 145.647  1.00  0.00    -0.344 OA
ATOM     23  H5  UNL     1     -40.738  80.359 145.510  1.00  0.00     0.219 HD
ENDBRANCH  21  22
BRANCH  21  24
HETATM   24  N5  UNL     1     -40.667  80.780 147.820  1.00  0.00    -0.286 N 
ATOM     25  H5  UNL     1     -39.687  80.972 147.612  1.00  0.00     0.188 HD
BRANCH  24  26
HETATM   26  N6  UNL     1     -40.908  80.003 148.949  1.00  0.00    -0.343 N 
ATOM     27  H62 UNL     1     -40.661  79.019 148.852  1.00  0.00     0.176 HD
ATOM     28  H61 UNL     1     -41.296  80.299 149.845  1.00  0.00     0.176 HD
ENDBRANCH  24  26
ENDBRANCH  21  24
ENDBRANCH  13  21
BRANCH  14  29
HETATM   29  O6  UNL     1     -43.825  80.234 148.384  1.00  0.00    -0.355 OA
ATOM     30  H6  UNL     1     -44.114  79.450 147.932  1.00  0.00     0.218 HD
ENDBRANCH  14  29
ENDBRANCH   9  11
ENDBRANCH   5   9
BRANCH   8  31
HETATM   31  O9  UNL     1     -43.255  88.346 142.545  1.00  0.00    -0.355 OA
ATOM     32  H9  UNL     1     -42.766  88.955 143.086  1.00  0.00     0.218 HD
ENDBRANCH   8  31
BRANCH   1  33
HETATM   33  C4  UNL     1     -45.549  87.464 141.225  1.00  0.00     0.220 C 
BRANCH  33  34
HETATM   34  C3  UNL     1     -45.025  87.041 139.924  1.00  0.00     0.309 C 
BRANCH  34  35
HETATM   35  C2  UNL     1     -44.225  87.980 139.126  1.00  0.00     0.251 C 
HETATM   36  N1  UNL     1     -44.328  87.854 137.699  1.00  0.00    -0.364 N 
HETATM   37  C1  UNL     1     -43.655  88.656 136.725  1.00  0.00     0.149 C 
ATOM     38  H1  UNL     1     -44.943  87.121 137.345  1.00  0.00     0.161 HD
HETATM   39  O1  UNL     1     -43.496  88.826 139.615  1.00  0.00    -0.271 OA
ENDBRANCH  34  35
BRANCH  34  40
HETATM   40  N2  UNL     1     -46.185  86.738 138.979  1.00  0.00    -0.064 N 
ATOM     41  H23 UNL     1     -46.067  87.080 138.025  1.00  0.00     0.275 HD
ATOM     42  H22 UNL     1     -46.284  85.757 138.716  1.00  0.00     0.275 HD
ATOM     43  H21 UNL     1     -46.976  87.133 139.487  1.00  0.00     0.275 HD
ENDBRANCH  34  40
ENDBRANCH  33  34
BRANCH  33  44
HETATM   44  O2  UNL     1     -46.957  86.803 141.089  1.00  0.00    -0.386 OA
ATOM     45  H2  UNL     1     -46.701  85.928 141.358  1.00  0.00     0.210 HD
ENDBRANCH  33  44
ENDBRANCH   1  33
TORSDOF 14
ENDMDL
MODEL 4
REMARK VINA RESULT: -6.795044865      1.571      1.799
REMARK  14 active torsions:
REMARK  status: ('A' for Active; 'I' for Inactive)
REMARK       I    between atoms: N1_2  and  C2_4 
REMARK    1  A    between atoms: C2_4  and  C3_6 
REMARK    2  A    between atoms: C3_6  and  N2_7 
REMARK    3  A    between atoms: C3_6  and  C4_11 
REMARK    4  A    between atoms: C4_11  and  O2_12 
REMARK    5  A    between atoms: C4_11  and  C5_14 
REMARK    6  A    between atoms: C6_18  and  N4_19 
REMARK    7  A    between atoms: N4_19  and  C7_21 
REMARK    8  A    between atoms: C8_22  and  O4_23 
REMARK    9  A    between atoms: C9_25  and  C10_26 
REMARK   10  A    between atoms: C10_26  and  O5_27 
REMARK   11  A    between atoms: C10_26  and  N5_29 
REMARK   12  A    between atoms: N5_29  and  N6_31 
REMARK   13  A    between atoms: C11_34  and  O6_35 
REMARK   14  A    between atoms: C15_43  and  O9_44 
ROOT
HETATM    1  C5  UNL     1     -47.073  78.955 152.343  1.00  0.00     0.144 A 
HETATM    2  O3  UNL     1     -45.869  79.184 151.873  1.00  0.00    -0.235 OA
HETATM    3  N3  UNL     1     -45.635  79.833 150.825  1.00  0.00    -0.241 N 
ATOM      4  H3  UNL     1     -44.660  79.956 150.549  1.00  0.00     0.196 HD
HETATM    5  C6  UNL     1     -46.580  80.378 150.045  1.00  0.00     0.181 A 
HETATM    6  C14 UNL     1     -47.879  80.170 150.468  1.00  0.00     0.253 A 
HETATM    7  O8  UNL     1     -48.807  80.650 149.786  1.00  0.00    -0.281 OA
HETATM    8  C15 UNL     1     -48.121  79.468 151.595  1.00  0.00     0.155 A 
ENDROOT
BRANCH   5   9
HETATM    9  N4  UNL     1     -46.318  81.071 148.863  1.00  0.00    -0.321 N 
ATOM     10  H4  UNL     1     -46.843  80.752 148.048  1.00  0.00     0.169 HD
BRANCH   9  11
HETATM   11  C7  UNL     1     -45.430  82.154 148.623  1.00  0.00     0.146 A 
HETATM   12  C8  UNL     1     -44.147  81.916 148.233  1.00  0.00     0.128 A 
HETATM   13  C9  UNL     1     -43.241  82.909 147.830  1.00  0.00     0.092 A 
HETATM   14  C11 UNL     1     -43.702  84.211 147.836  1.00  0.00     0.152 A 
HETATM   15  C12 UNL     1     -44.995  84.440 148.227  1.00  0.00     0.283 A 
HETATM   16  O7  UNL     1     -45.449  85.623 148.250  1.00  0.00    -0.265 OA
HETATM   17  N7  UNL     1     -45.848  83.440 148.611  1.00  0.00    -0.300 N 
HETATM   18  C13 UNL     1     -47.226  83.846 148.808  1.00  0.00     0.161 C 
BRANCH  12  19
HETATM   19  O4  UNL     1     -43.641  80.618 148.218  1.00  0.00    -0.356 OA
ATOM     20  H4  UNL     1     -43.459  80.180 147.394  1.00  0.00     0.218 HD
ENDBRANCH  12  19
BRANCH  13  21
HETATM   21  C10 UNL     1     -41.891  82.594 147.482  1.00  0.00     0.170 C 
BRANCH  21  22
HETATM   22  O5  UNL     1     -41.498  83.170 146.332  1.00  0.00    -0.344 OA
ATOM     23  H5  UNL     1     -41.255  82.539 145.664  1.00  0.00     0.219 HD
ENDBRANCH  21  22
BRANCH  21  24
HETATM   24  N5  UNL     1     -40.912  81.812 148.074  1.00  0.00    -0.286 N 
ATOM     25  H5  UNL     1     -40.287  82.293 148.720  1.00  0.00     0.188 HD
BRANCH  24  26
HETATM   26  N6  UNL     1     -40.675  80.452 147.897  1.00  0.00    -0.343 N 
ATOM     27  H62 UNL     1     -41.387  79.962 147.356  1.00  0.00     0.176 HD
ATOM     28  H61 UNL     1     -39.889  79.901 148.238  1.00  0.00     0.176 HD
ENDBRANCH  24  26
ENDBRANCH  21  24
ENDBRANCH  13  21
BRANCH  14  29
HETATM   29  O6  UNL     1     -42.902  85.285 147.441  1.00  0.00    -0.355 OA
ATOM     30  H6  UNL     1     -43.220  86.180 147.443  1.00  0.00     0.218 HD
ENDBRANCH  14  29
ENDBRANCH   9  11
ENDBRANCH   5   9
BRANCH   8  31
HETATM   31  O9  UNL     1     -49.443  79.235 152.033  1.00  0.00    -0.355 OA
ATOM     32  H9  UNL     1     -50.110  79.881 151.832  1.00  0.00     0.218 HD
ENDBRANCH   8  31
BRANCH   1  33
HETATM   33  C4  UNL     1     -47.346  78.252 153.587  1.00  0.00     0.220 C 
BRANCH  33  34
HETATM   34  C3  UNL     1     -47.467  76.800 153.742  1.00  0.00     0.309 C 
BRANCH  34  35
HETATM   35  C2  UNL     1     -48.801  76.188 153.802  1.00  0.00     0.251 C 
HETATM   36  N1  UNL     1     -49.006  75.203 154.828  1.00  0.00    -0.364 N 
HETATM   37  C1  UNL     1     -50.214  74.483 155.085  1.00  0.00     0.149 C 
ATOM     38  H1  UNL     1     -48.211  74.997 155.433  1.00  0.00     0.161 HD
HETATM   39  O1  UNL     1     -49.705  76.470 153.034  1.00  0.00    -0.271 OA
ENDBRANCH  34  35
BRANCH  34  40
HETATM   40  N2  UNL     1     -46.868  76.376 155.080  1.00  0.00    -0.064 N 
ATOM     41  H23 UNL     1     -46.676  75.379 155.173  1.00  0.00     0.275 HD
ATOM     42  H22 UNL     1     -45.905  76.673 155.238  1.00  0.00     0.275 HD
ATOM     43  H21 UNL     1     -47.551  76.749 155.741  1.00  0.00     0.275 HD
ENDBRANCH  34  40
ENDBRANCH  33  34
BRANCH  33  44
HETATM   44  O2  UNL     1     -45.934  78.398 154.238  1.00  0.00    -0.386 OA
ATOM     45  H2  UNL     1     -45.919  79.347 154.274  1.00  0.00     0.210 HD
ENDBRANCH  33  44
ENDBRANCH   1  33
TORSDOF 14
ENDMDL
MODEL 5
REMARK VINA RESULT: -6.792161542      6.746      9.648
REMARK  14 active torsions:
REMARK  status: ('A' for Active; 'I' for Inactive)
REMARK       I    between atoms: N1_2  and  C2_4 
REMARK    1  A    between atoms: C2_4  and  C3_6 
REMARK    2  A    between atoms: C3_6  and  N2_7 
REMARK    3  A    between atoms: C3_6  and  C4_11 
REMARK    4  A    between atoms: C4_11  and  O2_12 
REMARK    5  A    between atoms: C4_11  and  C5_14 
REMARK    6  A    between atoms: C6_18  and  N4_19 
REMARK    7  A    between atoms: N4_19  and  C7_21 
REMARK    8  A    between atoms: C8_22  and  O4_23 
REMARK    9  A    between atoms: C9_25  and  C10_26 
REMARK   10  A    between atoms: C10_26  and  O5_27 
REMARK   11  A    between atoms: C10_26  and  N5_29 
REMARK   12  A    between atoms: N5_29  and  N6_31 
REMARK   13  A    between atoms: C11_34  and  O6_35 
REMARK   14  A    between atoms: C15_43  and  O9_44 
ROOT
HETATM    1  C5  UNL     1     -43.594  82.897 146.502  1.00  0.00     0.144 A 
HETATM    2  O3  UNL     1     -42.758  83.844 146.143  1.00  0.00    -0.235 OA
HETATM    3  N3  UNL     1     -43.111  84.976 145.734  1.00  0.00    -0.241 N 
ATOM      4  H3  UNL     1     -42.379  85.641 145.482  1.00  0.00     0.196 HD
HETATM    5  C6  UNL     1     -44.386  85.372 145.607  1.00  0.00     0.181 A 
HETATM    6  C14 UNL     1     -45.330  84.424 145.955  1.00  0.00     0.253 A 
HETATM    7  O8  UNL     1     -46.537  84.728 145.859  1.00  0.00    -0.281 OA
HETATM    8  C15 UNL     1     -44.940  83.208 146.392  1.00  0.00     0.155 A 
ENDROOT
BRANCH   5   9
HETATM    9  N4  UNL     1     -44.776  86.619 145.120  1.00  0.00    -0.321 N 
ATOM     10  H4  UNL     1     -45.248  87.220 145.797  1.00  0.00     0.169 HD
BRANCH   9  11
HETATM   11  C7  UNL     1     -44.615  87.180 143.824  1.00  0.00     0.146 A 
HETATM   12  C8  UNL     1     -45.514  86.900 142.840  1.00  0.00     0.128 A 
HETATM   13  C9  UNL     1     -45.527  87.515 141.579  1.00  0.00     0.092 A 
HETATM   14  C11 UNL     1     -44.555  88.467 141.339  1.00  0.00     0.152 A 
HETATM   15  C12 UNL     1     -43.658  88.743 142.337  1.00  0.00     0.283 A 
HETATM   16  O7  UNL     1     -42.749  89.606 142.149  1.00  0.00    -0.265 OA
HETATM   17  N7  UNL     1     -43.681  88.120 143.557  1.00  0.00    -0.300 N 
HETATM   18  C13 UNL     1     -42.779  88.672 144.548  1.00  0.00     0.161 C 
BRANCH  12  19
HETATM   19  O4  UNL     1     -46.506  85.944 143.038  1.00  0.00    -0.356 OA
ATOM     20  H4  UNL     1     -46.446  85.092 142.620  1.00  0.00     0.218 HD
ENDBRANCH  12  19
BRANCH  13  21
HETATM   21  C10 UNL     1     -46.468  87.137 140.571  1.00  0.00     0.170 C 
BRANCH  21  22
HETATM   22  O5  UNL     1     -47.725  87.523 140.856  1.00  0.00    -0.344 OA
ATOM     23  H5  UNL     1     -48.337  86.797 140.891  1.00  0.00     0.219 HD
ENDBRANCH  21  22
BRANCH  21  24
HETATM   24  N5  UNL     1     -46.357  86.447 139.374  1.00  0.00    -0.286 N 
ATOM     25  H5  UNL     1     -46.957  85.629 139.274  1.00  0.00     0.188 HD
BRANCH  24  26
HETATM   26  N6  UNL     1     -45.529  86.731 138.293  1.00  0.00    -0.343 N 
ATOM     27  H62 UNL     1     -45.960  87.295 137.561  1.00  0.00     0.176 HD
ATOM     28  H61 UNL     1     -44.560  86.447 138.151  1.00  0.00     0.176 HD
ENDBRANCH  24  26
ENDBRANCH  21  24
ENDBRANCH  13  21
BRANCH  14  29
HETATM   29  O6  UNL     1     -44.475  89.160 140.130  1.00  0.00    -0.355 OA
ATOM     30  H6  UNL     1     -43.684  89.168 139.604  1.00  0.00     0.218 HD
ENDBRANCH  14  29
ENDBRANCH   9  11
ENDBRANCH   5   9
BRANCH   8  31
HETATM   31  O9  UNL     1     -45.893  82.224 146.739  1.00  0.00    -0.355 OA
ATOM     32  H9  UNL     1     -46.308  82.272 147.592  1.00  0.00     0.218 HD
ENDBRANCH   8  31
BRANCH   1  33
HETATM   33  C4  UNL     1     -43.189  81.604 147.032  1.00  0.00     0.220 C 
BRANCH  33  34
HETATM   34  C3  UNL     1     -41.813  81.184 147.304  1.00  0.00     0.309 C 
BRANCH  34  35
HETATM   35  C2  UNL     1     -41.056  81.839 148.379  1.00  0.00     0.251 C 
HETATM   36  N1  UNL     1     -40.603  83.177 148.119  1.00  0.00    -0.364 N 
HETATM   37  C1  UNL     1     -39.861  84.012 149.011  1.00  0.00     0.149 C 
ATOM     38  H1  UNL     1     -40.835  83.571 147.206  1.00  0.00     0.161 HD
HETATM   39  O1  UNL     1     -40.800  81.302 149.444  1.00  0.00    -0.271 OA
ENDBRANCH  34  35
BRANCH  34  40
HETATM   40  N2  UNL     1     -40.938  81.474 146.087  1.00  0.00    -0.064 N 
ATOM     41  H23 UNL     1     -40.655  80.653 145.551  1.00  0.00     0.275 HD
ATOM     42  H22 UNL     1     -41.414  81.934 145.311  1.00  0.00     0.275 HD
ATOM     43  H21 UNL     1     -40.172  82.005 146.502  1.00  0.00     0.275 HD
ENDBRANCH  34  40
ENDBRANCH  33  34
BRANCH  33  44
HETATM   44  O2  UNL     1     -43.619  81.828 148.516  1.00  0.00    -0.386 OA
ATOM     45  H2  UNL     1     -44.511  82.103 148.338  1.00  0.00     0.210 HD
ENDBRANCH  33  44
ENDBRANCH   1  33
TORSDOF 14
ENDMDL
