MODEL 1
REMARK VINA RESULT: -6.573530417      0.000      0.000
REMARK  19 active torsions:
REMARK  status: ('A' for Active; 'I' for Inactive)
REMARK    1  A    between atoms: C1_2  and  C2_4 
REMARK    2  A    between atoms: C2_4  and  O3_5 
REMARK    3  A    between atoms: C3_7  and  C4_8 
REMARK    4  A    between atoms: C4_8  and  O4_9 
REMARK    5  A    between atoms: C5_12  and  O6_13 
REMARK    6  A    between atoms: O6_13  and  C6_14 
REMARK    7  A    between atoms: C7_15  and  C8_16 
REMARK    8  A    between atoms: C8_16  and  O7_17 
REMARK    9  A    between atoms: C9_20  and  S1_21 
REMARK   10  A    between atoms: S1_21  and  C10_22 
REMARK   11  A    between atoms: C11_24  and  C12_25 
REMARK   12  A    between atoms: C12_25  and  O10_26 
REMARK   13  A    between atoms: C13_28  and  O11_29 
REMARK   14  A    between atoms: C14_31  and  S2_32 
REMARK   15  A    between atoms: C15_35  and  O13_36 
REMARK   16  A    between atoms: C16_38  and  O14_39 
REMARK   17  A    between atoms: C17_41  and  O15_42 
REMARK   18  A    between atoms: C18_44  and  N1_45 
REMARK   19  A    between atoms: N1_45  and  O16_46 
ROOT
HETATM    1  C6  UNL     1     -47.511 -35.608 146.679  1.00  0.00     0.187 C 
HETATM    2  C7  UNL     1     -46.156 -35.133 146.999  1.00  0.00     0.178 C 
HETATM    3  O8  UNL     1     -45.484 -34.827 145.839  1.00  0.00    -0.363 OA
HETATM    4  C9  UNL     1     -46.152 -34.098 144.916  1.00  0.00     0.219 C 
HETATM    5  C15 UNL     1     -47.536 -33.663 145.205  1.00  0.00     0.188 C 
HETATM    6  C16 UNL     1     -48.393 -34.607 145.970  1.00  0.00     0.181 C 
ENDROOT
BRANCH   1   7
HETATM    7  O6  UNL     1     -48.222 -36.220 147.667  1.00  0.00    -0.348 OA
BRANCH   7   8
HETATM    8  C5  UNL     1     -47.707 -37.356 148.223  1.00  0.00     0.291 C 
HETATM    9  O5  UNL     1     -47.260 -37.021 149.493  1.00  0.00    -0.347 OA
HETATM   10  C3  UNL     1     -48.263 -37.037 150.448  1.00  0.00     0.195 C 
HETATM   11  C2  UNL     1     -48.655 -38.471 150.732  1.00  0.00     0.196 C 
HETATM   12  C18 UNL     1     -48.776 -39.273 149.462  1.00  0.00     0.187 C 
HETATM   13  C17 UNL     1     -48.804 -38.405 148.229  1.00  0.00     0.198 C 
BRANCH  10  14
HETATM   14  C4  UNL     1     -47.902 -36.277 151.687  1.00  0.00     0.199 C 
BRANCH  14  15
HETATM   15  O4  UNL     1     -46.622 -35.772 151.601  1.00  0.00    -0.398 OA
ATOM     16  H4  UNL     1     -46.406 -35.262 152.372  1.00  0.00     0.209 HD
ENDBRANCH  14  15
ENDBRANCH  10  14
BRANCH  11  17
HETATM   17  C1  UNL     1     -47.724 -39.098 151.722  1.00  0.00     0.213 C 
HETATM   18  O1  UNL     1     -48.148 -39.801 152.691  1.00  0.00    -0.646 OA
HETATM   19  O2  UNL     1     -46.345 -38.954 151.648  1.00  0.00    -0.646 OA
ENDBRANCH  11  17
BRANCH  11  20
HETATM   20  O3  UNL     1     -49.930 -38.495 151.320  1.00  0.00    -0.375 OA
ATOM     21  H3  UNL     1     -50.512 -38.051 150.714  1.00  0.00     0.211 HD
ENDBRANCH  11  20
BRANCH  12  22
HETATM   22  N1  UNL     1     -47.655 -40.177 149.404  1.00  0.00    -0.092 NA
BRANCH  22  23
HETATM   23  O16 UNL     1     -47.862 -41.305 150.119  1.00  0.00    -0.295 OA
ATOM     24  H16 UNL     1     -48.162 -41.126 151.002  1.00  0.00     0.238 HD
ENDBRANCH  22  23
ENDBRANCH  12  22
BRANCH  13  25
HETATM   25  O15 UNL     1     -48.800 -39.171 147.065  1.00  0.00    -0.389 OA
ATOM     26  H15 UNL     1     -48.361 -40.005 147.189  1.00  0.00     0.210 HD
ENDBRANCH  13  25
ENDBRANCH   7   8
ENDBRANCH   1   7
BRANCH   2  27
HETATM   27  C8  UNL     1     -46.009 -34.019 147.958  1.00  0.00     0.198 C 
BRANCH  27  28
HETATM   28  O7  UNL     1     -46.966 -34.106 148.991  1.00  0.00    -0.398 OA
ATOM     29  H7  UNL     1     -47.282 -33.244 149.239  1.00  0.00     0.209 HD
ENDBRANCH  27  28
ENDBRANCH   2  27
BRANCH   6  30
HETATM   30  O14 UNL     1     -49.273 -33.971 146.844  1.00  0.00    -0.390 OA
ATOM     31  H14 UNL     1     -50.182 -34.127 146.614  1.00  0.00     0.210 HD
ENDBRANCH   6  30
BRANCH   5  32
HETATM   32  O13 UNL     1     -48.170 -33.464 143.949  1.00  0.00    -0.389 OA
ATOM     33  H13 UNL     1     -48.090 -34.282 143.472  1.00  0.00     0.210 HD
ENDBRANCH   5  32
BRANCH   4  34
HETATM   34  S1  UNL     1     -45.133 -32.651 144.521  1.00  0.00    -0.075 SA
BRANCH  34  35
HETATM   35  C10 UNL     1     -43.370 -33.035 144.521  1.00  0.00     0.329 C 
HETATM   36  O9  UNL     1     -43.012 -33.204 143.162  1.00  0.00    -0.342 OA
HETATM   37  C11 UNL     1     -43.081 -31.982 142.489  1.00  0.00     0.181 C 
HETATM   38  C13 UNL     1     -41.891 -31.152 142.951  1.00  0.00     0.189 C 
HETATM   39  C14 UNL     1     -41.427 -31.809 144.258  1.00  0.00     0.229 C 
HETATM   40  O12 UNL     1     -42.582 -32.006 145.017  1.00  0.00    -0.333 OA
BRANCH  37  41
HETATM   41  C12 UNL     1     -42.902 -32.247 141.018  1.00  0.00     0.199 C 
BRANCH  41  42
HETATM   42  O10 UNL     1     -42.036 -33.309 140.782  1.00  0.00    -0.398 OA
ATOM     43  H10 UNL     1     -42.447 -33.996 140.269  1.00  0.00     0.209 HD
ENDBRANCH  41  42
ENDBRANCH  37  41
BRANCH  38  44
HETATM   44  O11 UNL     1     -40.893 -31.108 142.008  1.00  0.00    -0.389 OA
ATOM     45  H11 UNL     1     -40.072 -30.796 142.370  1.00  0.00     0.210 HD
ENDBRANCH  38  44
BRANCH  39  46
HETATM   46  S2  UNL     1     -40.304 -30.713 145.138  1.00  0.00    -0.050 SA
HETATM   47  S3  UNL     1     -38.308 -31.163 144.589  1.00  0.00    -0.011 SA
ENDBRANCH  39  46
ENDBRANCH  34  35
ENDBRANCH   4  34
TORSDOF 19
ENDMDL
MODEL 2
REMARK VINA RESULT: -6.553918943      3.390      4.588
REMARK  19 active torsions:
REMARK  status: ('A' for Active; 'I' for Inactive)
REMARK    1  A    between atoms: C1_2  and  C2_4 
REMARK    2  A    between atoms: C2_4  and  O3_5 
REMARK    3  A    between atoms: C3_7  and  C4_8 
REMARK    4  A    between atoms: C4_8  and  O4_9 
REMARK    5  A    between atoms: C5_12  and  O6_13 
REMARK    6  A    between atoms: O6_13  and  C6_14 
REMARK    7  A    between atoms: C7_15  and  C8_16 
REMARK    8  A    between atoms: C8_16  and  O7_17 
REMARK    9  A    between atoms: C9_20  and  S1_21 
REMARK   10  A    between atoms: S1_21  and  C10_22 
REMARK   11  A    between atoms: C11_24  and  C12_25 
REMARK   12  A    between atoms: C12_25  and  O10_26 
REMARK   13  A    between atoms: C13_28  and  O11_29 
REMARK   14  A    between atoms: C14_31  and  S2_32 
REMARK   15  A    between atoms: C15_35  and  O13_36 
REMARK   16  A    between atoms: C16_38  and  O14_39 
REMARK   17  A    between atoms: C17_41  and  O15_42 
REMARK   18  A    between atoms: C18_44  and  N1_45 
REMARK   19  A    between atoms: N1_45  and  O16_46 
ROOT
HETATM    1  C6  UNL     1     -48.434 -35.074 148.582  1.00  0.00     0.187 C 
HETATM    2  C7  UNL     1     -48.410 -33.605 148.657  1.00  0.00     0.178 C 
HETATM    3  O8  UNL     1     -47.581 -33.103 147.680  1.00  0.00    -0.363 OA
HETATM    4  C9  UNL     1     -47.712 -33.620 146.438  1.00  0.00     0.219 C 
HETATM    5  C15 UNL     1     -48.732 -34.664 146.194  1.00  0.00     0.188 C 
HETATM    6  C16 UNL     1     -48.965 -35.644 147.288  1.00  0.00     0.181 C 
ENDROOT
BRANCH   1   7
HETATM    7  O6  UNL     1     -48.969 -35.758 149.632  1.00  0.00    -0.348 OA
BRANCH   7   8
HETATM    8  C5  UNL     1     -48.123 -36.459 150.443  1.00  0.00     0.291 C 
HETATM    9  O5  UNL     1     -48.878 -37.438 151.071  1.00  0.00    -0.347 OA
HETATM   10  C3  UNL     1     -49.045 -38.577 150.302  1.00  0.00     0.195 C 
HETATM   11  C2  UNL     1     -47.734 -39.330 150.237  1.00  0.00     0.196 C 
HETATM   12  C18 UNL     1     -46.572 -38.397 150.006  1.00  0.00     0.187 C 
HETATM   13  C17 UNL     1     -47.012 -37.021 149.575  1.00  0.00     0.198 C 
BRANCH  10  14
HETATM   14  C4  UNL     1     -50.183 -39.434 150.764  1.00  0.00     0.199 C 
BRANCH  14  15
HETATM   15  O4  UNL     1     -50.855 -39.982 149.692  1.00  0.00    -0.398 OA
ATOM     16  H4  UNL     1     -51.579 -40.521 149.986  1.00  0.00     0.209 HD
ENDBRANCH  14  15
ENDBRANCH  10  14
BRANCH  11  17
HETATM   17  C1  UNL     1     -47.547 -40.192 151.445  1.00  0.00     0.213 C 
HETATM   18  O1  UNL     1     -47.036 -41.352 151.370  1.00  0.00    -0.646 OA
HETATM   19  O2  UNL     1     -47.917 -39.786 152.720  1.00  0.00    -0.646 OA
ENDBRANCH  11  17
BRANCH  11  20
HETATM   20  O3  UNL     1     -47.750 -40.197 149.133  1.00  0.00    -0.375 OA
ATOM     21  H3  UNL     1     -47.917 -39.655 148.370  1.00  0.00     0.211 HD
ENDBRANCH  11  20
BRANCH  12  22
HETATM   22  N1  UNL     1     -45.824 -38.314 151.234  1.00  0.00    -0.092 NA
BRANCH  22  23
HETATM   23  O16 UNL     1     -44.488 -38.293 151.027  1.00  0.00    -0.295 OA
ATOM     24  H16 UNL     1     -43.995 -38.539 151.801  1.00  0.00     0.238 HD
ENDBRANCH  22  23
ENDBRANCH  12  22
BRANCH  13  25
HETATM   25  O15 UNL     1     -45.930 -36.146 149.479  1.00  0.00    -0.389 OA
ATOM     26  H15 UNL     1     -45.153 -36.495 149.899  1.00  0.00     0.210 HD
ENDBRANCH  13  25
ENDBRANCH   7   8
ENDBRANCH   1   7
BRANCH   2  27
HETATM   27  C8  UNL     1     -49.695 -32.878 148.628  1.00  0.00     0.198 C 
BRANCH  27  28
HETATM   28  O7  UNL     1     -50.746 -33.681 149.119  1.00  0.00    -0.398 OA
ATOM     29  H7  UNL     1     -51.289 -33.198 149.732  1.00  0.00     0.209 HD
ENDBRANCH  27  28
ENDBRANCH   2  27
BRANCH   6  30
HETATM   30  O14 UNL     1     -50.296 -36.044 147.397  1.00  0.00    -0.390 OA
ATOM     31  H14 UNL     1     -50.680 -36.249 146.553  1.00  0.00     0.210 HD
ENDBRANCH   6  30
BRANCH   5  32
HETATM   32  O13 UNL     1     -48.290 -35.408 145.067  1.00  0.00    -0.389 OA
ATOM     33  H13 UNL     1     -48.784 -36.219 145.067  1.00  0.00     0.210 HD
ENDBRANCH   5  32
BRANCH   4  34
HETATM   34  S1  UNL     1     -47.980 -32.236 145.297  1.00  0.00    -0.075 SA
BRANCH  34  35
HETATM   35  C10 UNL     1     -47.167 -32.492 143.707  1.00  0.00     0.329 C 
HETATM   36  O9  UNL     1     -47.953 -33.449 143.021  1.00  0.00    -0.342 OA
HETATM   37  C11 UNL     1     -49.188 -32.898 142.672  1.00  0.00     0.181 C 
HETATM   38  C13 UNL     1     -48.934 -31.927 141.527  1.00  0.00     0.189 C 
HETATM   39  C14 UNL     1     -47.428 -31.634 141.576  1.00  0.00     0.229 C 
HETATM   40  O12 UNL     1     -47.138 -31.355 142.913  1.00  0.00    -0.333 OA
BRANCH  37  41
HETATM   41  C12 UNL     1     -50.061 -34.003 142.141  1.00  0.00     0.199 C 
BRANCH  41  42
HETATM   42  O10 UNL     1     -51.351 -33.561 141.867  1.00  0.00    -0.398 OA
ATOM     43  H10 UNL     1     -51.883 -33.508 142.653  1.00  0.00     0.209 HD
ENDBRANCH  41  42
ENDBRANCH  37  41
BRANCH  38  44
HETATM   44  O11 UNL     1     -49.323 -32.444 140.314  1.00  0.00    -0.389 OA
ATOM     45  H11 UNL     1     -48.654 -32.338 139.648  1.00  0.00     0.210 HD
ENDBRANCH  38  44
BRANCH  39  46
HETATM   46  S2  UNL     1     -47.043 -30.199 140.561  1.00  0.00    -0.050 SA
HETATM   47  S3  UNL     1     -45.073 -29.544 140.987  1.00  0.00    -0.011 SA
ENDBRANCH  39  46
ENDBRANCH  34  35
ENDBRANCH   4  34
TORSDOF 19
ENDMDL
MODEL 3
REMARK VINA RESULT: -6.505555680      3.455      4.981
REMARK  19 active torsions:
REMARK  status: ('A' for Active; 'I' for Inactive)
REMARK    1  A    between atoms: C1_2  and  C2_4 
REMARK    2  A    between atoms: C2_4  and  O3_5 
REMARK    3  A    between atoms: C3_7  and  C4_8 
REMARK    4  A    between atoms: C4_8  and  O4_9 
REMARK    5  A    between atoms: C5_12  and  O6_13 
REMARK    6  A    between atoms: O6_13  and  C6_14 
REMARK    7  A    between atoms: C7_15  and  C8_16 
REMARK    8  A    between atoms: C8_16  and  O7_17 
REMARK    9  A    between atoms: C9_20  and  S1_21 
REMARK   10  A    between atoms: S1_21  and  C10_22 
REMARK   11  A    between atoms: C11_24  and  C12_25 
REMARK   12  A    between atoms: C12_25  and  O10_26 
REMARK   13  A    between atoms: C13_28  and  O11_29 
REMARK   14  A    between atoms: C14_31  and  S2_32 
REMARK   15  A    between atoms: C15_35  and  O13_36 
REMARK   16  A    between atoms: C16_38  and  O14_39 
REMARK   17  A    between atoms: C17_41  and  O15_42 
REMARK   18  A    between atoms: C18_44  and  N1_45 
REMARK   19  A    between atoms: N1_45  and  O16_46 
ROOT
HETATM    1  C6  UNL     1     -47.709 -34.063 147.085  1.00  0.00     0.187 C 
HETATM    2  C7  UNL     1     -48.460 -34.469 145.886  1.00  0.00     0.178 C 
HETATM    3  O8  UNL     1     -49.369 -33.491 145.554  1.00  0.00    -0.363 OA
HETATM    4  C9  UNL     1     -48.926 -32.213 145.559  1.00  0.00     0.219 C 
HETATM    5  C15 UNL     1     -47.511 -31.941 145.896  1.00  0.00     0.188 C 
HETATM    6  C16 UNL     1     -46.890 -32.804 146.935  1.00  0.00     0.181 C 
ENDROOT
BRANCH   1   7
HETATM    7  O6  UNL     1     -46.970 -35.012 147.725  1.00  0.00    -0.348 OA
BRANCH   7   8
HETATM    8  C5  UNL     1     -47.360 -35.399 148.975  1.00  0.00     0.291 C 
HETATM    9  O5  UNL     1     -48.449 -36.243 148.820  1.00  0.00    -0.347 OA
HETATM   10  C3  UNL     1     -48.092 -37.554 148.554  1.00  0.00     0.195 C 
HETATM   11  C2  UNL     1     -47.517 -38.177 149.807  1.00  0.00     0.196 C 
HETATM   12  C18 UNL     1     -46.568 -37.237 150.506  1.00  0.00     0.187 C 
HETATM   13  C17 UNL     1     -46.172 -36.067 149.643  1.00  0.00     0.198 C 
BRANCH  10  14
HETATM   14  C4  UNL     1     -49.211 -38.358 147.967  1.00  0.00     0.199 C 
BRANCH  14  15
HETATM   15  O4  UNL     1     -48.728 -39.315 147.100  1.00  0.00    -0.398 OA
ATOM     16  H4  UNL     1     -48.467 -40.097 147.570  1.00  0.00     0.209 HD
ENDBRANCH  14  15
ENDBRANCH  10  14
BRANCH  11  17
HETATM   17  C1  UNL     1     -48.603 -38.673 150.709  1.00  0.00     0.213 C 
HETATM   18  O1  UNL     1     -48.631 -39.871 151.132  1.00  0.00    -0.646 OA
HETATM   19  O2  UNL     1     -49.646 -37.864 151.141  1.00  0.00    -0.646 OA
ENDBRANCH  11  17
BRANCH  11  20
HETATM   20  O3  UNL     1     -46.751 -39.301 149.458  1.00  0.00    -0.375 OA
ATOM     21  H3  UNL     1     -46.141 -39.440 150.173  1.00  0.00     0.211 HD
ENDBRANCH  11  20
BRANCH  12  22
HETATM   22  N1  UNL     1     -47.216 -36.770 151.706  1.00  0.00    -0.092 NA
BRANCH  22  23
HETATM   23  O16 UNL     1     -46.365 -36.680 152.753  1.00  0.00    -0.295 OA
ATOM     24  H16 UNL     1     -46.783 -36.336 153.533  1.00  0.00     0.238 HD
ENDBRANCH  22  23
ENDBRANCH  12  22
BRANCH  13  25
HETATM   25  O15 UNL     1     -45.388 -35.155 150.348  1.00  0.00    -0.389 OA
ATOM     26  H15 UNL     1     -45.047 -34.469 149.786  1.00  0.00     0.210 HD
ENDBRANCH  13  25
ENDBRANCH   7   8
ENDBRANCH   1   7
BRANCH   2  27
HETATM   27  C8  UNL     1     -47.702 -34.861 144.680  1.00  0.00     0.198 C 
BRANCH  27  28
HETATM   28  O7  UNL     1     -46.401 -35.292 145.014  1.00  0.00    -0.398 OA
ATOM     29  H7  UNL     1     -46.089 -35.949 144.401  1.00  0.00     0.209 HD
ENDBRANCH  27  28
ENDBRANCH   2  27
BRANCH   6  30
HETATM   30  O14 UNL     1     -45.544 -33.077 146.695  1.00  0.00    -0.390 OA
ATOM     31  H14 UNL     1     -45.170 -32.494 146.046  1.00  0.00     0.210 HD
ENDBRANCH   6  30
BRANCH   5  32
HETATM   32  O13 UNL     1     -47.460 -30.609 146.387  1.00  0.00    -0.389 OA
ATOM     33  H13 UNL     1     -47.388 -30.043 145.628  1.00  0.00     0.210 HD
ENDBRANCH   5  32
BRANCH   4  34
HETATM   34  S1  UNL     1     -49.309 -31.497 143.937  1.00  0.00    -0.075 SA
BRANCH  34  35
HETATM   35  C10 UNL     1     -47.999 -31.791 142.732  1.00  0.00     0.329 C 
HETATM   36  O9  UNL     1     -48.513 -32.753 141.830  1.00  0.00    -0.342 OA
HETATM   37  C11 UNL     1     -49.540 -32.196 141.065  1.00  0.00     0.181 C 
HETATM   38  C13 UNL     1     -48.890 -31.249 140.066  1.00  0.00     0.189 C 
HETATM   39  C14 UNL     1     -47.491 -30.969 140.631  1.00  0.00     0.229 C 
HETATM   40  O12 UNL     1     -47.678 -30.669 141.982  1.00  0.00    -0.333 OA
BRANCH  37  41
HETATM   41  C12 UNL     1     -50.192 -33.303 140.279  1.00  0.00     0.199 C 
BRANCH  41  42
HETATM   42  O10 UNL     1     -51.408 -32.908 139.733  1.00  0.00    -0.398 OA
ATOM     43  H10 UNL     1     -51.758 -33.559 139.137  1.00  0.00     0.209 HD
ENDBRANCH  41  42
ENDBRANCH  37  41
BRANCH  38  44
HETATM   44  O11 UNL     1     -48.842 -31.784 138.801  1.00  0.00    -0.389 OA
ATOM     45  H11 UNL     1     -49.678 -32.148 138.534  1.00  0.00     0.210 HD
ENDBRANCH  38  44
BRANCH  39  46
HETATM   46  S2  UNL     1     -46.755 -29.557 139.793  1.00  0.00    -0.050 SA
HETATM   47  S3  UNL     1     -44.893 -29.097 140.693  1.00  0.00    -0.011 SA
ENDBRANCH  39  46
ENDBRANCH  34  35
ENDBRANCH   4  34
TORSDOF 19
ENDMDL
MODEL 4
REMARK VINA RESULT: -6.463982607      3.379      4.914
REMARK  19 active torsions:
REMARK  status: ('A' for Active; 'I' for Inactive)
REMARK    1  A    between atoms: C1_2  and  C2_4 
REMARK    2  A    between atoms: C2_4  and  O3_5 
REMARK    3  A    between atoms: C3_7  and  C4_8 
REMARK    4  A    between atoms: C4_8  and  O4_9 
REMARK    5  A    between atoms: C5_12  and  O6_13 
REMARK    6  A    between atoms: O6_13  and  C6_14 
REMARK    7  A    between atoms: C7_15  and  C8_16 
REMARK    8  A    between atoms: C8_16  and  O7_17 
REMARK    9  A    between atoms: C9_20  and  S1_21 
REMARK   10  A    between atoms: S1_21  and  C10_22 
REMARK   11  A    between atoms: C11_24  and  C12_25 
REMARK   12  A    between atoms: C12_25  and  O10_26 
REMARK   13  A    between atoms: C13_28  and  O11_29 
REMARK   14  A    between atoms: C14_31  and  S2_32 
REMARK   15  A    between atoms: C15_35  and  O13_36 
REMARK   16  A    between atoms: C16_38  and  O14_39 
REMARK   17  A    between atoms: C17_41  and  O15_42 
REMARK   18  A    between atoms: C18_44  and  N1_45 
REMARK   19  A    between atoms: N1_45  and  O16_46 
ROOT
HETATM    1  C6  UNL     1     -47.216 -34.561 147.909  1.00  0.00     0.187 C 
HETATM    2  C7  UNL     1     -48.464 -34.488 147.134  1.00  0.00     0.178 C 
HETATM    3  O8  UNL     1     -48.852 -33.175 146.999  1.00  0.00    -0.363 OA
HETATM    4  C9  UNL     1     -47.897 -32.285 146.648  1.00  0.00     0.219 C 
HETATM    5  C15 UNL     1     -46.516 -32.763 146.414  1.00  0.00     0.188 C 
HETATM    6  C16 UNL     1     -46.029 -33.866 147.285  1.00  0.00     0.181 C 
ENDROOT
BRANCH   1   7
HETATM    7  O6  UNL     1     -46.830 -35.779 148.383  1.00  0.00    -0.348 OA
BRANCH   7   8
HETATM    8  C5  UNL     1     -47.483 -36.283 149.472  1.00  0.00     0.291 C 
HETATM    9  O5  UNL     1     -48.592 -36.969 149.002  1.00  0.00    -0.347 OA
HETATM   10  C3  UNL     1     -48.306 -38.265 148.605  1.00  0.00     0.195 C 
HETATM   11  C2  UNL     1     -48.036 -39.112 149.829  1.00  0.00     0.196 C 
HETATM   12  C18 UNL     1     -47.158 -38.388 150.818  1.00  0.00     0.187 C 
HETATM   13  C17 UNL     1     -46.505 -37.165 150.227  1.00  0.00     0.198 C 
BRANCH  10  14
HETATM   14  C4  UNL     1     -49.359 -38.849 147.715  1.00  0.00     0.199 C 
BRANCH  14  15
HETATM   15  O4  UNL     1     -48.804 -39.718 146.799  1.00  0.00    -0.398 OA
ATOM     16  H4  UNL     1     -49.463 -40.303 146.445  1.00  0.00     0.209 HD
ENDBRANCH  14  15
ENDBRANCH  10  14
BRANCH  11  17
HETATM   17  C1  UNL     1     -49.312 -39.597 150.440  1.00  0.00     0.213 C 
HETATM   18  O1  UNL     1     -49.575 -40.835 150.552  1.00  0.00    -0.646 OA
HETATM   19  O2  UNL     1     -50.288 -38.735 150.923  1.00  0.00    -0.646 OA
ENDBRANCH  11  17
BRANCH  11  20
HETATM   20  O3  UNL     1     -47.319 -40.258 149.451  1.00  0.00    -0.375 OA
ATOM     21  H3  UNL     1     -46.563 -40.301 150.027  1.00  0.00     0.211 HD
ENDBRANCH  11  20
BRANCH  12  22
HETATM   22  N1  UNL     1     -47.978 -38.015 151.943  1.00  0.00    -0.092 NA
BRANCH  22  23
HETATM   23  O16 UNL     1     -47.303 -38.060 153.114  1.00  0.00    -0.295 OA
ATOM     24  H16 UNL     1     -47.820 -37.742 153.844  1.00  0.00     0.238 HD
ENDBRANCH  22  23
ENDBRANCH  12  22
BRANCH  13  25
HETATM   25  O15 UNL     1     -45.792 -36.451 151.190  1.00  0.00    -0.389 OA
ATOM     26  H15 UNL     1     -45.585 -35.571 150.899  1.00  0.00     0.210 HD
ENDBRANCH  13  25
ENDBRANCH   7   8
ENDBRANCH   1   7
BRANCH   2  27
HETATM   27  C8  UNL     1     -48.513 -35.149 145.814  1.00  0.00     0.198 C 
BRANCH  27  28
HETATM   28  O7  UNL     1     -47.762 -36.344 145.814  1.00  0.00    -0.398 OA
ATOM     29  H7  UNL     1     -47.068 -36.314 145.166  1.00  0.00     0.209 HD
ENDBRANCH  27  28
ENDBRANCH   2  27
BRANCH   6  30
HETATM   30  O14 UNL     1     -45.184 -34.758 146.627  1.00  0.00    -0.390 OA
ATOM     31  H14 UNL     1     -45.422 -35.663 146.788  1.00  0.00     0.210 HD
ENDBRANCH   6  30
BRANCH   5  32
HETATM   32  O13 UNL     1     -45.658 -31.654 146.642  1.00  0.00    -0.389 OA
ATOM     33  H13 UNL     1     -44.789 -31.923 146.370  1.00  0.00     0.210 HD
ENDBRANCH   5  32
BRANCH   4  34
HETATM   34  S1  UNL     1     -48.488 -31.401 145.179  1.00  0.00    -0.075 SA
BRANCH  34  35
HETATM   35  C10 UNL     1     -47.532 -31.810 143.704  1.00  0.00     0.329 C 
HETATM   36  O9  UNL     1     -48.147 -32.960 143.152  1.00  0.00    -0.342 OA
HETATM   37  C11 UNL     1     -49.408 -32.637 142.646  1.00  0.00     0.181 C 
HETATM   38  C13 UNL     1     -49.184 -31.844 141.365  1.00  0.00     0.189 C 
HETATM   39  C14 UNL     1     -47.731 -31.355 141.445  1.00  0.00     0.229 C 
HETATM   40  O12 UNL     1     -47.577 -30.825 142.728  1.00  0.00    -0.333 OA
BRANCH  37  41
HETATM   41  C12 UNL     1     -50.102 -33.917 142.267  1.00  0.00     0.199 C 
BRANCH  41  42
HETATM   42  O10 UNL     1     -51.427 -33.703 141.901  1.00  0.00    -0.398 OA
ATOM     43  H10 UNL     1     -51.990 -33.586 142.657  1.00  0.00     0.209 HD
ENDBRANCH  41  42
ENDBRANCH  37  41
BRANCH  38  44
HETATM   44  O11 UNL     1     -49.417 -32.599 140.241  1.00  0.00    -0.389 OA
ATOM     45  H11 UNL     1     -49.256 -32.111 139.442  1.00  0.00     0.210 HD
ENDBRANCH  38  44
BRANCH  39  46
HETATM   46  S2  UNL     1     -47.441 -30.069 140.220  1.00  0.00    -0.050 SA
HETATM   47  S3  UNL     1     -45.527 -29.217 140.535  1.00  0.00    -0.011 SA
ENDBRANCH  39  46
ENDBRANCH  34  35
ENDBRANCH   4  34
TORSDOF 19
ENDMDL
MODEL 5
REMARK VINA RESULT: -6.360534547      1.484      2.831
REMARK  19 active torsions:
REMARK  status: ('A' for Active; 'I' for Inactive)
REMARK    1  A    between atoms: C1_2  and  C2_4 
REMARK    2  A    between atoms: C2_4  and  O3_5 
REMARK    3  A    between atoms: C3_7  and  C4_8 
REMARK    4  A    between atoms: C4_8  and  O4_9 
REMARK    5  A    between atoms: C5_12  and  O6_13 
REMARK    6  A    between atoms: O6_13  and  C6_14 
REMARK    7  A    between atoms: C7_15  and  C8_16 
REMARK    8  A    between atoms: C8_16  and  O7_17 
REMARK    9  A    between atoms: C9_20  and  S1_21 
REMARK   10  A    between atoms: S1_21  and  C10_22 
REMARK   11  A    between atoms: C11_24  and  C12_25 
REMARK   12  A    between atoms: C12_25  and  O10_26 
REMARK   13  A    between atoms: C13_28  and  O11_29 
REMARK   14  A    between atoms: C14_31  and  S2_32 
REMARK   15  A    between atoms: C15_35  and  O13_36 
REMARK   16  A    between atoms: C16_38  and  O14_39 
REMARK   17  A    between atoms: C17_41  and  O15_42 
REMARK   18  A    between atoms: C18_44  and  N1_45 
REMARK   19  A    between atoms: N1_45  and  O16_46 
ROOT
HETATM    1  C6  UNL     1     -47.143 -34.543 147.149  1.00  0.00     0.187 C 
HETATM    2  C7  UNL     1     -47.011 -33.078 147.131  1.00  0.00     0.178 C 
HETATM    3  O8  UNL     1     -45.686 -32.732 147.011  1.00  0.00    -0.363 OA
HETATM    4  C9  UNL     1     -44.960 -33.392 146.081  1.00  0.00     0.219 C 
HETATM    5  C15 UNL     1     -45.620 -34.420 145.246  1.00  0.00     0.188 C 
HETATM    6  C16 UNL     1     -46.667 -35.248 145.901  1.00  0.00     0.181 C 
ENDROOT
BRANCH   1   7
HETATM    7  O6  UNL     1     -48.336 -35.071 147.541  1.00  0.00    -0.348 OA
BRANCH   7   8
HETATM    8  C5  UNL     1     -48.467 -35.476 148.839  1.00  0.00     0.291 C 
HETATM    9  O5  UNL     1     -49.181 -36.664 148.826  1.00  0.00    -0.347 OA
HETATM   10  C3  UNL     1     -48.391 -37.776 148.585  1.00  0.00     0.195 C 
HETATM   11  C2  UNL     1     -47.539 -38.054 149.805  1.00  0.00     0.196 C 
HETATM   12  C18 UNL     1     -46.950 -36.785 150.368  1.00  0.00     0.187 C 
HETATM   13  C17 UNL     1     -47.072 -35.620 149.420  1.00  0.00     0.198 C 
BRANCH  10  14
HETATM   14  C4  UNL     1     -49.179 -38.970 148.143  1.00  0.00     0.199 C 
BRANCH  14  15
HETATM   15  O4  UNL     1     -48.779 -39.389 146.893  1.00  0.00    -0.398 OA
ATOM     16  H4  UNL     1     -49.399 -39.115 146.228  1.00  0.00     0.209 HD
ENDBRANCH  14  15
ENDBRANCH  10  14
BRANCH  11  17
HETATM   17  C1  UNL     1     -48.302 -38.837 150.827  1.00  0.00     0.213 C 
HETATM   18  O1  UNL     1     -47.797 -39.842 151.417  1.00  0.00    -0.646 OA
HETATM   19  O2  UNL     1     -49.602 -38.521 151.196  1.00  0.00    -0.646 OA
ENDBRANCH  11  17
BRANCH  11  20
HETATM   20  O3  UNL     1     -46.444 -38.850 149.435  1.00  0.00    -0.375 OA
ATOM     21  H3  UNL     1     -45.944 -38.340 148.807  1.00  0.00     0.211 HD
ENDBRANCH  11  20
BRANCH  12  22
HETATM   22  N1  UNL     1     -47.636 -36.492 151.602  1.00  0.00    -0.092 NA
BRANCH  22  23
HETATM   23  O16 UNL     1     -46.825 -35.922 152.522  1.00  0.00    -0.295 OA
ATOM     24  H16 UNL     1     -45.961 -35.731 152.177  1.00  0.00     0.238 HD
ENDBRANCH  22  23
ENDBRANCH  12  22
BRANCH  13  25
HETATM   25  O15 UNL     1     -46.626 -34.436 150.007  1.00  0.00    -0.389 OA
ATOM     26  H15 UNL     1     -47.113 -34.224 150.794  1.00  0.00     0.210 HD
ENDBRANCH  13  25
ENDBRANCH   7   8
ENDBRANCH   1   7
BRANCH   2  27
HETATM   27  C8  UNL     1     -47.807 -32.312 146.150  1.00  0.00     0.198 C 
BRANCH  27  28
HETATM   28  O7  UNL     1     -49.071 -32.905 145.945  1.00  0.00    -0.398 OA
ATOM     29  H7  UNL     1     -49.361 -32.793 145.047  1.00  0.00     0.209 HD
ENDBRANCH  27  28
ENDBRANCH   2  27
BRANCH   6  30
HETATM   30  O14 UNL     1     -47.720 -35.581 145.052  1.00  0.00    -0.390 OA
ATOM     31  H14 UNL     1     -48.547 -35.216 145.345  1.00  0.00     0.210 HD
ENDBRANCH   6  30
BRANCH   5  32
HETATM   32  O13 UNL     1     -44.601 -35.313 144.820  1.00  0.00    -0.389 OA
ATOM     33  H13 UNL     1     -43.808 -35.058 145.276  1.00  0.00     0.210 HD
ENDBRANCH   5  32
BRANCH   4  34
HETATM   34  S1  UNL     1     -44.184 -32.150 145.011  1.00  0.00    -0.075 SA
BRANCH  34  35
HETATM   35  C10 UNL     1     -42.455 -32.530 144.664  1.00  0.00     0.329 C 
HETATM   36  O9  UNL     1     -42.411 -32.923 143.305  1.00  0.00    -0.342 OA
HETATM   37  C11 UNL     1     -42.678 -31.829 142.478  1.00  0.00     0.181 C 
HETATM   38  C13 UNL     1     -41.447 -30.935 142.511  1.00  0.00     0.189 C 
HETATM   39  C14 UNL     1     -40.671 -31.367 143.763  1.00  0.00     0.229 C 
HETATM   40  O12 UNL     1     -41.613 -31.435 144.791  1.00  0.00    -0.333 OA
BRANCH  37  41
HETATM   41  C12 UNL     1     -42.830 -32.334 141.068  1.00  0.00     0.199 C 
BRANCH  41  42
HETATM   42  O10 UNL     1     -41.949 -33.373 140.788  1.00  0.00    -0.398 OA
ATOM     43  H10 UNL     1     -42.233 -34.194 141.174  1.00  0.00     0.209 HD
ENDBRANCH  41  42
ENDBRANCH  37  41
BRANCH  38  44
HETATM   44  O11 UNL     1     -40.693 -31.049 141.368  1.00  0.00    -0.389 OA
ATOM     45  H11 UNL     1     -41.054 -31.686 140.762  1.00  0.00     0.210 HD
ENDBRANCH  38  44
BRANCH  39  46
HETATM   46  S2  UNL     1     -39.418 -30.140 144.170  1.00  0.00    -0.050 SA
HETATM   47  S3  UNL     1     -38.728 -30.469 146.146  1.00  0.00    -0.011 SA
ENDBRANCH  39  46
ENDBRANCH  34  35
ENDBRANCH   4  34
TORSDOF 19
ENDMDL
