MODEL 1
REMARK VINA RESULT: -9.945410828      0.000      0.000
REMARK  10 active torsions:
REMARK  status: ('A' for Active; 'I' for Inactive)
REMARK    1  A    between atoms: O1_2  and  C2_3 
REMARK    2  A    between atoms: N1_7  and  C5_9 
REMARK    3  A    between atoms: C7_15  and  N4_16 
REMARK    4  A    between atoms: C8_19  and  C9_20 
REMARK    5  A    between atoms: C9_20  and  N5_21 
REMARK    6  A    between atoms: N5_21  and  N6_22 
REMARK       I    between atoms: N6_22  and  C10_24 
REMARK    7  A    between atoms: C13_28  and  C14_29 
REMARK    8  A    between atoms: C15_30  and  N7_31 
REMARK    9  A    between atoms: C16_32  and  N8_33 
REMARK   10  A    between atoms: C22_44  and  N11_45 
ROOT
HETATM    1  C2  UNL     1      -3.777  23.320  29.383  1.00  0.00     0.101 A 
HETATM    2  C3  UNL     1      -3.182  22.739  28.287  1.00  0.00     0.181 A 
HETATM    3  O2  UNL     1      -3.006  23.412  27.192  1.00  0.00    -0.303 OA
HETATM    4  C4  UNL     1      -3.387  24.669  27.091  1.00  0.00     0.149 A 
HETATM    5  N1  UNL     1      -3.189  25.282  25.985  1.00  0.00    -0.322 N 
ATOM      6  H1  UNL     1      -3.491  26.255  25.925  1.00  0.00     0.169 HD
HETATM    7  C12 UNL     1      -3.987  25.316  28.141  1.00  0.00     0.070 A 
HETATM    8  C13 UNL     1      -4.195  24.621  29.341  1.00  0.00     0.004 A 
ENDROOT
BRANCH   8   9
HETATM    9  C14 UNL     1      -4.843  25.325  30.436  1.00  0.00     0.032 C 
HETATM   10  C15 UNL     1      -4.417  26.359  31.114  1.00  0.00     0.118 C 
BRANCH  10  11
HETATM   11  N7  UNL     1      -5.138  26.981  32.185  1.00  0.00    -0.141 N 
HETATM   12  C16 UNL     1      -4.505  27.514  33.275  1.00  0.00     0.689 A 
HETATM   13  N10 UNL     1      -5.493  28.002  34.050  1.00  0.00    -0.184 N 
HETATM   14  C21 UNL     1      -6.687  27.796  33.495  1.00  0.00     0.137 A 
ATOM     15  H10 UNL     1      -5.347  28.468  34.945  1.00  0.00     0.184 HD
HETATM   16  C22 UNL     1      -7.992  28.079  33.839  1.00  0.00     0.131 A 
HETATM   17  C24 UNL     1      -6.466  27.134  32.283  1.00  0.00     0.160 A 
HETATM   18  N12 UNL     1      -9.049  27.750  33.067  1.00  0.00    -0.337 N 
HETATM   19  C23 UNL     1      -8.819  27.111  31.899  1.00  0.00     0.183 A 
ATOM     20  H12 UNL     1      -9.999  27.977  33.358  1.00  0.00     0.168 HD
HETATM   21  N13 UNL     1      -7.558  26.833  31.560  1.00  0.00    -0.336 N 
ATOM     22  H13 UNL     1      -7.411  26.349  30.674  1.00  0.00     0.168 HD
BRANCH  12  23
HETATM   23  N8  UNL     1      -3.111  27.553  33.545  1.00  0.00    -0.214 N 
HETATM   24  C17 UNL     1      -2.298  28.673  33.164  1.00  0.00     0.168 C 
HETATM   25  C18 UNL     1      -1.036  28.235  32.501  1.00  0.00     0.252 C 
HETATM   26  N9  UNL     1      -0.436  27.064  33.071  1.00  0.00    -0.072 N 
HETATM   27  C19 UNL     1      -1.355  25.987  33.288  1.00  0.00     0.252 C 
ATOM     28  H92 UNL     1       0.353  26.754  32.504  1.00  0.00     0.277 HD
ATOM     29  H91 UNL     1       0.053  27.297  33.935  1.00  0.00     0.277 HD
HETATM   30  C20 UNL     1      -2.494  26.443  34.214  1.00  0.00     0.168 C 
ENDBRANCH  12  23
BRANCH  16  31
HETATM   31  N11 UNL     1      -8.210  28.695  34.965  1.00  0.00    -0.383 N 
ATOM     32 2H11 UNL     1      -7.529  28.594  35.717  1.00  0.00     0.157 HD
ATOM     33 1H11 UNL     1      -9.057  29.256  35.049  1.00  0.00     0.157 HD
ENDBRANCH  16  31
ENDBRANCH  10  11
ENDBRANCH   8   9
BRANCH   1  34
HETATM   34  O1  UNL     1      -3.943  22.546  30.549  1.00  0.00    -0.353 OA
HETATM   35  C1  UNL     1      -3.035  21.527  30.818  1.00  0.00     0.210 C 
ENDBRANCH   1  34
BRANCH   5  36
HETATM   36  C5  UNL     1      -2.586  24.717  24.845  1.00  0.00     0.124 A 
HETATM   37  N2  UNL     1      -2.878  23.453  24.426  1.00  0.00    -0.338 N 
HETATM   38  C6  UNL     1      -2.323  22.902  23.338  1.00  0.00     0.183 A 
ATOM     39  H2  UNL     1      -3.548  22.903  24.964  1.00  0.00     0.168 HD
HETATM   40  N3  UNL     1      -1.434  23.588  22.595  1.00  0.00    -0.338 N 
HETATM   41  C7  UNL     1      -1.121  24.854  22.986  1.00  0.00     0.116 A 
ATOM     42  H3  UNL     1      -1.009  23.172  21.765  1.00  0.00     0.168 HD
HETATM   43  C8  UNL     1      -1.682  25.425  24.098  1.00  0.00     0.082 A 
BRANCH  41  44
HETATM   44  N4  UNL     1      -0.270  25.499  22.266  1.00  0.00    -0.385 N 
ATOM     45  H42 UNL     1       0.711  25.219  22.233  1.00  0.00     0.157 HD
ATOM     46  H41 UNL     1      -0.621  26.295  21.733  1.00  0.00     0.157 HD
ENDBRANCH  41  44
BRANCH  43  47
HETATM   47  C9  UNL     1      -1.308  26.797  24.501  1.00  0.00     0.228 C 
BRANCH  47  48
HETATM   48  N5  UNL     1      -1.142  27.228  25.577  1.00  0.00    -0.335 NA
BRANCH  48  49
HETATM   49  N6  UNL     1      -0.946  27.696  26.779  1.00  0.00    -0.204 N 
HETATM   50  C10 UNL     1      -2.013  28.334  27.498  1.00  0.00     0.242 C 
HETATM   51  C11 UNL     1      -1.771  28.856  28.846  1.00  0.00     0.119 C 
HETATM   52  O3  UNL     1      -3.127  28.433  26.967  1.00  0.00    -0.271 OA
ATOM     53  H6  UNL     1      -0.026  27.609  27.213  1.00  0.00     0.205 HD
ENDBRANCH  48  49
ENDBRANCH  47  48
ENDBRANCH  43  47
ENDBRANCH   5  36
TORSDOF 10
ENDMDL
MODEL 2
REMARK VINA RESULT: -9.899609789      2.916      5.068
REMARK  10 active torsions:
REMARK  status: ('A' for Active; 'I' for Inactive)
REMARK    1  A    between atoms: O1_2  and  C2_3 
REMARK    2  A    between atoms: N1_7  and  C5_9 
REMARK    3  A    between atoms: C7_15  and  N4_16 
REMARK    4  A    between atoms: C8_19  and  C9_20 
REMARK    5  A    between atoms: C9_20  and  N5_21 
REMARK    6  A    between atoms: N5_21  and  N6_22 
REMARK       I    between atoms: N6_22  and  C10_24 
REMARK    7  A    between atoms: C13_28  and  C14_29 
REMARK    8  A    between atoms: C15_30  and  N7_31 
REMARK    9  A    between atoms: C16_32  and  N8_33 
REMARK   10  A    between atoms: C22_44  and  N11_45 
ROOT
HETATM    1  C2  UNL     1      -3.036  26.192  26.945  1.00  0.00     0.101 A 
HETATM    2  C3  UNL     1      -2.678  25.402  25.877  1.00  0.00     0.181 A 
HETATM    3  O2  UNL     1      -2.889  24.122  25.898  1.00  0.00    -0.303 OA
HETATM    4  C4  UNL     1      -3.449  23.536  26.936  1.00  0.00     0.149 A 
HETATM    5  N1  UNL     1      -3.631  22.269  26.900  1.00  0.00    -0.322 N 
ATOM      6  H1  UNL     1      -4.066  21.833  27.713  1.00  0.00     0.169 HD
HETATM    7  C12 UNL     1      -3.833  24.257  28.038  1.00  0.00     0.070 A 
HETATM    8  C13 UNL     1      -3.621  25.643  28.053  1.00  0.00     0.004 A 
ENDROOT
BRANCH   8   9
HETATM    9  C14 UNL     1      -4.026  26.385  29.236  1.00  0.00     0.032 C 
HETATM   10  C15 UNL     1      -3.959  26.029  30.492  1.00  0.00     0.118 C 
BRANCH  10  11
HETATM   11  N7  UNL     1      -4.390  26.841  31.591  1.00  0.00    -0.141 N 
HETATM   12  C16 UNL     1      -3.506  27.400  32.474  1.00  0.00     0.689 A 
HETATM   13  N10 UNL     1      -4.269  28.082  33.350  1.00  0.00    -0.184 N 
HETATM   14  C21 UNL     1      -5.562  27.970  33.051  1.00  0.00     0.137 A 
ATOM     15  H10 UNL     1      -3.904  28.615  34.139  1.00  0.00     0.184 HD
HETATM   16  C22 UNL     1      -6.740  28.445  33.589  1.00  0.00     0.131 A 
HETATM   17  C24 UNL     1      -5.650  27.166  31.909  1.00  0.00     0.160 A 
HETATM   18  N12 UNL     1      -7.955  28.172  33.069  1.00  0.00    -0.337 N 
HETATM   19  C23 UNL     1      -8.023  27.395  31.966  1.00  0.00     0.183 A 
ATOM     20  H12 UNL     1      -8.802  28.544  33.498  1.00  0.00     0.168 HD
HETATM   21  N13 UNL     1      -6.888  26.930  31.440  1.00  0.00    -0.336 N 
ATOM     22  H13 UNL     1      -6.966  26.344  30.608  1.00  0.00     0.168 HD
BRANCH  12  23
HETATM   23  N8  UNL     1      -2.089  27.294  32.479  1.00  0.00    -0.214 N 
HETATM   24  C17 UNL     1      -1.417  26.169  33.065  1.00  0.00     0.168 C 
HETATM   25  C18 UNL     1      -0.284  26.599  33.935  1.00  0.00     0.252 C 
HETATM   26  N9  UNL     1       0.468  27.711  33.431  1.00  0.00    -0.072 N 
HETATM   27  C19 UNL     1      -0.341  28.807  32.986  1.00  0.00     0.252 C 
ATOM     28  H92 UNL     1       1.149  28.026  34.122  1.00  0.00     0.277 HD
ATOM     29  H91 UNL     1       1.101  27.409  32.690  1.00  0.00     0.277 HD
HETATM   30  C20 UNL     1      -1.304  28.339  31.884  1.00  0.00     0.168 C 
ENDBRANCH  12  23
BRANCH  16  31
HETATM   31  N11 UNL     1      -6.670  29.194  34.651  1.00  0.00    -0.383 N 
ATOM     32 2H11 UNL     1      -5.818  29.730  34.817  1.00  0.00     0.157 HD
ATOM     33 1H11 UNL     1      -7.474  29.214  35.278  1.00  0.00     0.157 HD
ENDBRANCH  16  31
ENDBRANCH  10  11
ENDBRANCH   8   9
BRANCH   1  34
HETATM   34  O1  UNL     1      -2.787  27.577  26.872  1.00  0.00    -0.353 OA
HETATM   35  C1  UNL     1      -1.567  28.018  26.369  1.00  0.00     0.210 C 
ENDBRANCH   1  34
BRANCH   5  36
HETATM   36  C5  UNL     1      -3.275  21.432  25.825  1.00  0.00     0.124 A 
HETATM   37  N2  UNL     1      -3.760  21.629  24.566  1.00  0.00    -0.338 N 
HETATM   38  C6  UNL     1      -3.424  20.851  23.528  1.00  0.00     0.183 A 
ATOM     39  H2  UNL     1      -4.405  22.403  24.408  1.00  0.00     0.168 HD
HETATM   40  N3  UNL     1      -2.575  19.818  23.687  1.00  0.00    -0.338 N 
HETATM   41  C7  UNL     1      -2.073  19.594  24.933  1.00  0.00     0.116 A 
ATOM     42  H3  UNL     1      -2.317  19.223  22.900  1.00  0.00     0.168 HD
HETATM   43  C8  UNL     1      -2.411  20.384  26.001  1.00  0.00     0.082 A 
BRANCH  41  44
HETATM   44  N4  UNL     1      -1.261  18.604  25.071  1.00  0.00    -0.385 N 
ATOM     45  H42 UNL     1      -1.360  17.760  24.505  1.00  0.00     0.157 HD
ATOM     46  H41 UNL     1      -0.520  18.702  25.766  1.00  0.00     0.157 HD
ENDBRANCH  41  44
BRANCH  43  47
HETATM   47  C9  UNL     1      -1.857  20.103  27.341  1.00  0.00     0.228 C 
BRANCH  47  48
HETATM   48  N5  UNL     1      -1.784  19.081  27.909  1.00  0.00    -0.335 NA
BRANCH  48  49
HETATM   49  N6  UNL     1      -1.706  17.935  28.527  1.00  0.00    -0.204 N 
HETATM   50  C10 UNL     1      -0.745  16.948  28.120  1.00  0.00     0.242 C 
HETATM   51  C11 UNL     1      -0.678  15.666  28.826  1.00  0.00     0.119 C 
HETATM   52  O3  UNL     1       0.015  17.197  27.175  1.00  0.00    -0.271 OA
ATOM     53  H6  UNL     1      -2.334  17.738  29.307  1.00  0.00     0.205 HD
ENDBRANCH  48  49
ENDBRANCH  47  48
ENDBRANCH  43  47
ENDBRANCH   5  36
TORSDOF 10
ENDMDL
MODEL 3
REMARK VINA RESULT: -9.761787472      3.164      5.084
REMARK  10 active torsions:
REMARK  status: ('A' for Active; 'I' for Inactive)
REMARK    1  A    between atoms: O1_2  and  C2_3 
REMARK    2  A    between atoms: N1_7  and  C5_9 
REMARK    3  A    between atoms: C7_15  and  N4_16 
REMARK    4  A    between atoms: C8_19  and  C9_20 
REMARK    5  A    between atoms: C9_20  and  N5_21 
REMARK    6  A    between atoms: N5_21  and  N6_22 
REMARK       I    between atoms: N6_22  and  C10_24 
REMARK    7  A    between atoms: C13_28  and  C14_29 
REMARK    8  A    between atoms: C15_30  and  N7_31 
REMARK    9  A    between atoms: C16_32  and  N8_33 
REMARK   10  A    between atoms: C22_44  and  N11_45 
ROOT
HETATM    1  C2  UNL     1      -3.885  25.137  28.331  1.00  0.00     0.101 A 
HETATM    2  C3  UNL     1      -3.335  24.658  27.165  1.00  0.00     0.181 A 
HETATM    3  O2  UNL     1      -3.471  23.411  26.831  1.00  0.00    -0.303 OA
HETATM    4  C4  UNL     1      -4.137  22.566  27.591  1.00  0.00     0.149 A 
HETATM    5  N1  UNL     1      -4.237  21.348  27.210  1.00  0.00    -0.322 N 
ATOM      6  H1  UNL     1      -4.756  20.707  27.811  1.00  0.00     0.169 HD
HETATM    7  C12 UNL     1      -4.714  22.970  28.767  1.00  0.00     0.070 A 
HETATM    8  C13 UNL     1      -4.588  24.310  29.163  1.00  0.00     0.004 A 
ENDROOT
BRANCH   8   9
HETATM    9  C14 UNL     1      -5.199  24.713  30.420  1.00  0.00     0.032 C 
HETATM   10  C15 UNL     1      -4.770  25.576  31.302  1.00  0.00     0.118 C 
BRANCH  10  11
HETATM   11  N7  UNL     1      -5.454  25.903  32.519  1.00  0.00    -0.141 N 
HETATM   12  C16 UNL     1      -4.844  25.816  33.741  1.00  0.00     0.689 A 
HETATM   13  N10 UNL     1      -5.783  26.198  34.628  1.00  0.00    -0.184 N 
HETATM   14  C21 UNL     1      -6.925  26.511  34.016  1.00  0.00     0.137 A 
ATOM     15  H10 UNL     1      -5.639  26.242  35.637  1.00  0.00     0.184 HD
HETATM   16  C22 UNL     1      -8.169  26.948  34.421  1.00  0.00     0.131 A 
HETATM   17  C24 UNL     1      -6.720  26.322  32.646  1.00  0.00     0.160 A 
HETATM   18  N12 UNL     1      -9.180  27.199  33.564  1.00  0.00    -0.337 N 
HETATM   19  C23 UNL     1      -8.966  27.012  32.244  1.00  0.00     0.183 A 
ATOM     20  H12 UNL     1     -10.086  27.521  33.905  1.00  0.00     0.168 HD
HETATM   21  N13 UNL     1      -7.765  26.588  31.844  1.00  0.00    -0.336 N 
ATOM     22  H13 UNL     1      -7.629  26.454  30.842  1.00  0.00     0.168 HD
BRANCH  12  23
HETATM   23  N8  UNL     1      -3.512  25.414  34.029  1.00  0.00    -0.214 N 
HETATM   24  C17 UNL     1      -2.436  26.361  34.107  1.00  0.00     0.168 C 
HETATM   25  C18 UNL     1      -1.239  25.896  33.349  1.00  0.00     0.252 C 
HETATM   26  N9  UNL     1      -0.977  24.490  33.450  1.00  0.00    -0.072 N 
HETATM   27  C19 UNL     1      -2.128  23.666  33.234  1.00  0.00     0.252 C 
ATOM     28  H92 UNL     1      -0.220  24.221  32.820  1.00  0.00     0.277 HD
ATOM     29  H91 UNL     1      -0.542  24.270  34.346  1.00  0.00     0.277 HD
HETATM   30  C20 UNL     1      -3.230  24.023  34.244  1.00  0.00     0.168 C 
ENDBRANCH  12  23
BRANCH  16  31
HETATM   31  N11 UNL     1      -8.371  27.126  35.695  1.00  0.00    -0.383 N 
ATOM     32 2H11 UNL     1      -8.002  27.968  36.136  1.00  0.00     0.157 HD
ATOM     33 1H11 UNL     1      -8.894  26.412  36.202  1.00  0.00     0.157 HD
ENDBRANCH  16  31
ENDBRANCH  10  11
ENDBRANCH   8   9
BRANCH   1  34
HETATM   34  O1  UNL     1      -3.710  26.499  28.648  1.00  0.00    -0.353 OA
HETATM   35  C1  UNL     1      -4.349  27.461  27.870  1.00  0.00     0.210 C 
ENDBRANCH   1  34
BRANCH   5  36
HETATM   36  C5  UNL     1      -3.685  20.824  26.025  1.00  0.00     0.124 A 
HETATM   37  N2  UNL     1      -4.249  21.050  24.805  1.00  0.00    -0.338 N 
HETATM   38  C6  UNL     1      -3.732  20.569  23.666  1.00  0.00     0.183 A 
ATOM     39  H2  UNL     1      -5.100  21.609  24.757  1.00  0.00     0.168 HD
HETATM   40  N3  UNL     1      -2.609  19.827  23.677  1.00  0.00    -0.338 N 
HETATM   41  C7  UNL     1      -2.021  19.582  24.881  1.00  0.00     0.116 A 
ATOM     42  H3  UNL     1      -2.212  19.459  22.813  1.00  0.00     0.168 HD
HETATM   43  C8  UNL     1      -2.542  20.068  26.051  1.00  0.00     0.082 A 
BRANCH  41  44
HETATM   44  N4  UNL     1      -0.946  18.872  24.877  1.00  0.00    -0.385 N 
ATOM     45  H42 UNL     1      -0.916  17.967  24.408  1.00  0.00     0.157 HD
ATOM     46  H41 UNL     1      -0.134  19.254  25.362  1.00  0.00     0.157 HD
ENDBRANCH  41  44
BRANCH  43  47
HETATM   47  C9  UNL     1      -1.885  19.772  27.341  1.00  0.00     0.228 C 
BRANCH  47  48
HETATM   48  N5  UNL     1      -1.708  18.736  27.856  1.00  0.00    -0.335 NA
BRANCH  48  49
HETATM   49  N6  UNL     1      -1.512  17.588  28.445  1.00  0.00    -0.204 N 
HETATM   50  C10 UNL     1      -0.620  16.617  27.876  1.00  0.00     0.242 C 
HETATM   51  C11 UNL     1      -0.417  15.333  28.552  1.00  0.00     0.119 C 
HETATM   52  O3  UNL     1      -0.032  16.881  26.819  1.00  0.00    -0.271 OA
ATOM     53  H6  UNL     1      -1.998  17.378  29.317  1.00  0.00     0.205 HD
ENDBRANCH  48  49
ENDBRANCH  47  48
ENDBRANCH  43  47
ENDBRANCH   5  36
TORSDOF 10
ENDMDL
MODEL 4
REMARK VINA RESULT: -9.626729540      2.566      4.656
REMARK  10 active torsions:
REMARK  status: ('A' for Active; 'I' for Inactive)
REMARK    1  A    between atoms: O1_2  and  C2_3 
REMARK    2  A    between atoms: N1_7  and  C5_9 
REMARK    3  A    between atoms: C7_15  and  N4_16 
REMARK    4  A    between atoms: C8_19  and  C9_20 
REMARK    5  A    between atoms: C9_20  and  N5_21 
REMARK    6  A    between atoms: N5_21  and  N6_22 
REMARK       I    between atoms: N6_22  and  C10_24 
REMARK    7  A    between atoms: C13_28  and  C14_29 
REMARK    8  A    between atoms: C15_30  and  N7_31 
REMARK    9  A    between atoms: C16_32  and  N8_33 
REMARK   10  A    between atoms: C22_44  and  N11_45 
ROOT
HETATM    1  C2  UNL     1      -3.154  26.119  27.074  1.00  0.00     0.101 A 
HETATM    2  C3  UNL     1      -2.864  25.284  26.021  1.00  0.00     0.181 A 
HETATM    3  O2  UNL     1      -3.189  24.028  26.060  1.00  0.00    -0.303 OA
HETATM    4  C4  UNL     1      -3.806  23.511  27.104  1.00  0.00     0.149 A 
HETATM    5  N1  UNL     1      -4.100  22.265  27.086  1.00  0.00    -0.322 N 
ATOM      6  H1  UNL     1      -4.577  21.883  27.903  1.00  0.00     0.169 HD
HETATM    7  C12 UNL     1      -4.128  24.281  28.192  1.00  0.00     0.070 A 
HETATM    8  C13 UNL     1      -3.792  25.642  28.187  1.00  0.00     0.004 A 
ENDROOT
BRANCH   8   9
HETATM    9  C14 UNL     1      -4.134  26.436  29.356  1.00  0.00     0.032 C 
HETATM   10  C15 UNL     1      -4.032  26.122  30.621  1.00  0.00     0.118 C 
BRANCH  10  11
HETATM   11  N7  UNL     1      -4.402  26.985  31.705  1.00  0.00    -0.141 N 
HETATM   12  C16 UNL     1      -3.472  27.545  32.538  1.00  0.00     0.689 A 
HETATM   13  N10 UNL     1      -4.184  28.279  33.414  1.00  0.00    -0.184 N 
HETATM   14  C21 UNL     1      -5.490  28.198  33.161  1.00  0.00     0.137 A 
ATOM     15  H10 UNL     1      -3.777  28.827  34.172  1.00  0.00     0.184 HD
HETATM   16  C22 UNL     1      -6.634  28.728  33.721  1.00  0.00     0.131 A 
HETATM   17  C24 UNL     1      -5.640  27.359  32.052  1.00  0.00     0.160 A 
HETATM   18  N12 UNL     1      -7.873  28.475  33.250  1.00  0.00    -0.337 N 
HETATM   19  C23 UNL     1      -8.002  27.663  32.179  1.00  0.00     0.183 A 
ATOM     20  H12 UNL     1      -8.693  28.888  33.694  1.00  0.00     0.168 HD
HETATM   21  N13 UNL     1      -6.899  27.146  31.632  1.00  0.00    -0.336 N 
ATOM     22  H13 UNL     1      -7.023  26.535  30.824  1.00  0.00     0.168 HD
BRANCH  12  23
HETATM   23  N8  UNL     1      -2.059  27.394  32.500  1.00  0.00    -0.214 N 
HETATM   24  C17 UNL     1      -1.406  26.244  33.058  1.00  0.00     0.168 C 
HETATM   25  C18 UNL     1      -0.235  26.631  33.897  1.00  0.00     0.252 C 
HETATM   26  N9  UNL     1       0.536  27.723  33.380  1.00  0.00    -0.072 N 
HETATM   27  C19 UNL     1      -0.251  28.848  32.969  1.00  0.00     0.252 C 
ATOM     28  H92 UNL     1       1.247  28.010  34.054  1.00  0.00     0.277 HD
ATOM     29  H91 UNL     1       1.137  27.408  32.618  1.00  0.00     0.277 HD
HETATM   30  C20 UNL     1      -1.260  28.419  31.892  1.00  0.00     0.168 C 
ENDBRANCH  12  23
BRANCH  16  31
HETATM   31  N11 UNL     1      -6.505  29.509  34.754  1.00  0.00    -0.383 N 
ATOM     32 2H11 UNL     1      -6.507  29.094  35.685  1.00  0.00     0.157 HD
ATOM     33 1H11 UNL     1      -6.408  30.511  34.588  1.00  0.00     0.157 HD
ENDBRANCH  16  31
ENDBRANCH  10  11
ENDBRANCH   8   9
BRANCH   1  34
HETATM   34  O1  UNL     1      -2.781  27.474  26.982  1.00  0.00    -0.353 OA
HETATM   35  C1  UNL     1      -1.598  27.806  26.328  1.00  0.00     0.210 C 
ENDBRANCH   1  34
BRANCH   5  36
HETATM   36  C5  UNL     1      -3.816  21.383  26.026  1.00  0.00     0.124 A 
HETATM   37  N2  UNL     1      -4.598  21.319  24.911  1.00  0.00    -0.338 N 
HETATM   38  C6  UNL     1      -4.338  20.495  23.887  1.00  0.00     0.183 A 
ATOM     39  H2  UNL     1      -5.416  21.926  24.853  1.00  0.00     0.168 HD
HETATM   40  N3  UNL     1      -3.270  19.676  23.916  1.00  0.00    -0.338 N 
HETATM   41  C7  UNL     1      -2.468  19.715  25.017  1.00  0.00     0.116 A 
ATOM     42  H3  UNL     1      -3.067  19.046  23.140  1.00  0.00     0.168 HD
HETATM   43  C8  UNL     1      -2.726  20.554  26.069  1.00  0.00     0.082 A 
BRANCH  41  44
HETATM   44  N4  UNL     1      -1.449  18.927  25.030  1.00  0.00    -0.385 N 
ATOM     45  H42 UNL     1      -1.031  18.623  25.910  1.00  0.00     0.157 HD
ATOM     46  H41 UNL     1      -1.082  18.625  24.128  1.00  0.00     0.157 HD
ENDBRANCH  41  44
BRANCH  43  47
HETATM   47  C9  UNL     1      -1.843  20.560  27.252  1.00  0.00     0.228 C 
BRANCH  47  48
HETATM   48  N5  UNL     1      -2.112  20.354  28.373  1.00  0.00    -0.335 NA
BRANCH  48  49
HETATM   49  N6  UNL     1      -2.428  20.120  29.618  1.00  0.00    -0.204 N 
HETATM   50  C10 UNL     1      -2.485  18.774  30.117  1.00  0.00     0.242 C 
HETATM   51  C11 UNL     1      -2.845  18.534  31.517  1.00  0.00     0.119 C 
HETATM   52  O3  UNL     1      -2.228  17.834  29.353  1.00  0.00    -0.271 OA
ATOM     53  H6  UNL     1      -2.635  20.899  30.242  1.00  0.00     0.205 HD
ENDBRANCH  48  49
ENDBRANCH  47  48
ENDBRANCH  43  47
ENDBRANCH   5  36
TORSDOF 10
ENDMDL
MODEL 5
REMARK VINA RESULT: -9.580012915      3.143      5.174
REMARK  10 active torsions:
REMARK  status: ('A' for Active; 'I' for Inactive)
REMARK    1  A    between atoms: O1_2  and  C2_3 
REMARK    2  A    between atoms: N1_7  and  C5_9 
REMARK    3  A    between atoms: C7_15  and  N4_16 
REMARK    4  A    between atoms: C8_19  and  C9_20 
REMARK    5  A    between atoms: C9_20  and  N5_21 
REMARK    6  A    between atoms: N5_21  and  N6_22 
REMARK       I    between atoms: N6_22  and  C10_24 
REMARK    7  A    between atoms: C13_28  and  C14_29 
REMARK    8  A    between atoms: C15_30  and  N7_31 
REMARK    9  A    between atoms: C16_32  and  N8_33 
REMARK   10  A    between atoms: C22_44  and  N11_45 
ROOT
HETATM    1  C2  UNL     1      -4.205  25.687  27.589  1.00  0.00     0.101 A 
HETATM    2  C3  UNL     1      -3.841  25.097  26.401  1.00  0.00     0.181 A 
HETATM    3  O2  UNL     1      -3.709  23.809  26.313  1.00  0.00    -0.303 OA
HETATM    4  C4  UNL     1      -3.918  23.026  27.351  1.00  0.00     0.149 A 
HETATM    5  N1  UNL     1      -3.771  21.762  27.204  1.00  0.00    -0.322 N 
ATOM      6  H1  UNL     1      -3.937  21.171  28.019  1.00  0.00     0.169 HD
HETATM    7  C12 UNL     1      -4.283  23.541  28.568  1.00  0.00     0.070 A 
HETATM    8  C13 UNL     1      -4.435  24.928  28.703  1.00  0.00     0.004 A 
ENDROOT
BRANCH   8   9
HETATM    9  C14 UNL     1      -4.813  25.452  30.006  1.00  0.00     0.032 C 
HETATM   10  C15 UNL     1      -5.382  24.833  31.007  1.00  0.00     0.118 C 
BRANCH  10  11
HETATM   11  N7  UNL     1      -5.716  25.447  32.258  1.00  0.00    -0.141 N 
HETATM   12  C16 UNL     1      -4.824  25.522  33.293  1.00  0.00     0.689 A 
HETATM   13  N10 UNL     1      -5.485  26.156  34.280  1.00  0.00    -0.184 N 
HETATM   14  C21 UNL     1      -6.725  26.470  33.906  1.00  0.00     0.137 A 
ATOM     15  H10 UNL     1      -5.088  26.369  35.195  1.00  0.00     0.184 HD
HETATM   16  C22 UNL     1      -7.799  27.102  34.497  1.00  0.00     0.131 A 
HETATM   17  C24 UNL     1      -6.883  26.013  32.594  1.00  0.00     0.160 A 
HETATM   18  N12 UNL     1      -8.978  27.296  33.871  1.00  0.00    -0.337 N 
HETATM   19  C23 UNL     1      -9.116  26.849  32.604  1.00  0.00     0.183 A 
ATOM     20  H12 UNL     1      -9.749  27.768  34.344  1.00  0.00     0.168 HD
HETATM   21  N13 UNL     1      -8.081  26.235  32.026  1.00  0.00    -0.336 N 
ATOM     22  H13 UNL     1      -8.211  25.906  31.069  1.00  0.00     0.168 HD
BRANCH  12  23
HETATM   23  N8  UNL     1      -3.487  25.042  33.332  1.00  0.00    -0.214 N 
HETATM   24  C17 UNL     1      -3.164  23.747  33.860  1.00  0.00     0.168 C 
HETATM   25  C18 UNL     1      -2.000  23.807  34.790  1.00  0.00     0.252 C 
HETATM   26  N9  UNL     1      -0.958  24.706  34.385  1.00  0.00    -0.072 N 
HETATM   27  C19 UNL     1      -1.427  26.001  33.993  1.00  0.00     0.252 C 
ATOM     28  H92 UNL     1      -0.251  24.787  35.116  1.00  0.00     0.277 HD
ATOM     29  H91 UNL     1      -0.394  24.290  33.645  1.00  0.00     0.277 HD
HETATM   30  C20 UNL     1      -2.427  25.872  32.834  1.00  0.00     0.168 C 
ENDBRANCH  12  23
BRANCH  16  31
HETATM   31  N11 UNL     1      -7.662  27.531  35.718  1.00  0.00    -0.383 N 
ATOM     32 2H11 UNL     1      -8.329  27.220  36.423  1.00  0.00     0.157 HD
ATOM     33 1H11 UNL     1      -6.888  28.164  35.920  1.00  0.00     0.157 HD
ENDBRANCH  16  31
ENDBRANCH  10  11
ENDBRANCH   8   9
BRANCH   1  34
HETATM   34  O1  UNL     1      -4.336  27.089  27.632  1.00  0.00    -0.353 OA
HETATM   35  C1  UNL     1      -3.190  27.877  27.583  1.00  0.00     0.210 C 
ENDBRANCH   1  34
BRANCH   5  36
HETATM   36  C5  UNL     1      -3.397  21.126  26.004  1.00  0.00     0.124 A 
HETATM   37  N2  UNL     1      -4.019  21.395  24.821  1.00  0.00    -0.338 N 
HETATM   38  C6  UNL     1      -3.671  20.809  23.668  1.00  0.00     0.183 A 
ATOM     39  H2  UNL     1      -4.782  22.072  24.814  1.00  0.00     0.168 HD
HETATM   40  N3  UNL     1      -2.670  19.910  23.627  1.00  0.00    -0.338 N 
HETATM   41  C7  UNL     1      -2.028  19.619  24.792  1.00  0.00     0.116 A 
ATOM     42  H3  UNL     1      -2.401  19.461  22.751  1.00  0.00     0.168 HD
HETATM   43  C8  UNL     1      -2.378  20.212  25.977  1.00  0.00     0.082 A 
BRANCH  41  44
HETATM   44  N4  UNL     1      -1.072  18.758  24.737  1.00  0.00    -0.385 N 
ATOM     45  H42 UNL     1      -0.132  19.033  24.448  1.00  0.00     0.157 HD
ATOM     46  H41 UNL     1      -1.295  17.796  24.994  1.00  0.00     0.157 HD
ENDBRANCH  41  44
BRANCH  43  47
HETATM   47  C9  UNL     1      -1.668  19.862  27.224  1.00  0.00     0.228 C 
BRANCH  47  48
HETATM   48  N5  UNL     1      -1.595  18.825  27.764  1.00  0.00    -0.335 NA
BRANCH  48  49
HETATM   49  N6  UNL     1      -1.503  17.665  28.354  1.00  0.00    -0.204 N 
HETATM   50  C10 UNL     1      -0.627  16.650  27.838  1.00  0.00     0.242 C 
HETATM   51  C11 UNL     1      -0.541  15.353  28.514  1.00  0.00     0.119 C 
HETATM   52  O3  UNL     1       0.044  16.887  26.825  1.00  0.00    -0.271 OA
ATOM     53  H6  UNL     1      -2.057  17.477  29.190  1.00  0.00     0.205 HD
ENDBRANCH  48  49
ENDBRANCH  47  48
ENDBRANCH  43  47
ENDBRANCH   5  36
TORSDOF 10
ENDMDL
