MODEL 1
REMARK VINA RESULT: -8.885900159      0.000      0.000
REMARK  9 active torsions:
REMARK  status: ('A' for Active; 'I' for Inactive)
REMARK    1  A    between atoms: O1_2  and  C2_3 
REMARK    2  A    between atoms: C2_3  and  C3_5 
REMARK    3  A    between atoms: C4_6  and  C5_7 
REMARK       I    between atoms: C5_7  and  N1_9 
REMARK    4  A    between atoms: N1_9  and  C6_11 
REMARK    5  A    between atoms: C11_19  and  O5_20 
REMARK    6  A    between atoms: C12_22  and  O6_23 
REMARK    7  A    between atoms: O6_23  and  C13_24 
REMARK    8  A    between atoms: C14_25  and  S1_26 
REMARK    9  A    between atoms: C21_40  and  O9_41 
ROOT
HETATM    1  C13 UNL     1      -3.610  27.479  33.207  1.00  0.00     0.118 C 
HETATM    2  C14 UNL     1      -4.742  27.777  33.906  1.00  0.00     0.101 C 
HETATM    3  C16 UNL     1      -5.227  27.123  35.159  1.00  0.00     0.268 C 
HETATM    4  O7  UNL     1      -6.481  27.041  35.323  1.00  0.00    -0.267 OA
HETATM    5  N3  UNL     1      -4.419  26.582  36.194  1.00  0.00    -0.275 N 
ATOM      6  H3  UNL     1      -4.903  26.228  37.019  1.00  0.00     0.173 HD
HETATM    7  C17 UNL     1      -2.976  26.485  36.191  1.00  0.00     0.324 C 
HETATM    8  O8  UNL     1      -2.394  26.333  37.292  1.00  0.00    -0.247 OA
HETATM    9  N4  UNL     1      -2.195  26.556  34.997  1.00  0.00    -0.315 N 
ATOM     10  H4  UNL     1      -1.196  26.731  35.106  1.00  0.00     0.166 HD
HETATM   11  C18 UNL     1      -2.698  26.399  33.621  1.00  0.00     0.171 C 
HETATM   12  C19 UNL     1      -1.528  26.147  32.764  1.00  0.00     0.063 C 
HETATM   13  C20 UNL     1      -3.447  25.105  33.681  1.00  0.00     0.098 C 
HETATM   14  N5  UNL     1      -4.036  24.111  33.711  1.00  0.00    -0.194 NA
ENDROOT
BRANCH   1  15
HETATM   15  O6  UNL     1      -3.454  28.262  32.148  1.00  0.00    -0.304 OA
BRANCH  15  16
HETATM   16  C12 UNL     1      -3.169  28.186  30.838  1.00  0.00     0.143 A 
HETATM   17  C11 UNL     1      -2.047  28.725  30.237  1.00  0.00     0.103 A 
HETATM   18  C10 UNL     1      -1.847  28.598  28.896  1.00  0.00     0.057 A 
HETATM   19  C4  UNL     1      -2.759  27.920  28.078  1.00  0.00     0.053 A 
HETATM   20  C3  UNL     1      -3.876  27.379  28.631  1.00  0.00     0.091 A 
HETATM   21  C21 UNL     1      -4.058  27.523  30.015  1.00  0.00     0.119 A 
BRANCH  17  22
HETATM   22  O5  UNL     1      -1.130  29.404  31.048  1.00  0.00    -0.358 OA
ATOM     23  H5  UNL     1      -0.752  28.993  31.816  1.00  0.00     0.217 HD
ENDBRANCH  17  22
BRANCH  19  24
HETATM   24  C5  UNL     1      -2.371  27.756  26.703  1.00  0.00     0.254 C 
HETATM   25  O3  UNL     1      -1.966  28.834  26.118  1.00  0.00    -0.268 OA
HETATM   26  N1  UNL     1      -2.366  26.594  25.931  1.00  0.00    -0.336 N 
ATOM     27  H1  UNL     1      -2.668  25.714  26.350  1.00  0.00     0.164 HD
BRANCH  26  28
HETATM   28  C6  UNL     1      -1.944  26.610  24.552  1.00  0.00     0.187 C 
HETATM   29  C7  UNL     1      -2.393  25.390  23.806  1.00  0.00     0.056 C 
HETATM   30  C8  UNL     1      -1.376  25.219  22.721  1.00  0.00     0.106 C 
HETATM   31  C9  UNL     1      -0.216  26.024  23.137  1.00  0.00     0.219 C 
HETATM   32  O4  UNL     1       0.843  26.263  22.496  1.00  0.00    -0.274 OA
HETATM   33  N2  UNL     1      -0.488  26.515  24.448  1.00  0.00    -0.340 N 
ATOM     34  H2  UNL     1       0.194  26.752  25.167  1.00  0.00     0.164 HD
ENDBRANCH  26  28
ENDBRANCH  19  24
BRANCH  20  35
HETATM   35  C2  UNL     1      -4.934  26.708  27.864  1.00  0.00     0.296 C 
HETATM   36  O2  UNL     1      -5.882  27.284  27.362  1.00  0.00    -0.259 OA
BRANCH  35  37
HETATM   37  O1  UNL     1      -4.860  25.325  27.689  1.00  0.00    -0.322 OA
HETATM   38  C1  UNL     1      -5.080  24.789  26.403  1.00  0.00     0.213 C 
ENDBRANCH  35  37
ENDBRANCH  20  35
BRANCH  21  39
HETATM   39  O9  UNL     1      -5.215  26.949  30.541  1.00  0.00    -0.357 OA
ATOM     40  H9  UNL     1      -5.971  27.521  30.606  1.00  0.00     0.218 HD
ENDBRANCH  21  39
ENDBRANCH  15  16
ENDBRANCH   1  15
BRANCH   2  41
HETATM   41  S1  UNL     1      -5.811  29.061  33.385  1.00  0.00    -0.126 SA
HETATM   42  C15 UNL     1      -7.356  28.697  32.654  1.00  0.00     0.096 C 
ENDBRANCH   2  41
TORSDOF 9
ENDMDL
MODEL 2
REMARK VINA RESULT: -8.705975012      2.353      3.079
REMARK  9 active torsions:
REMARK  status: ('A' for Active; 'I' for Inactive)
REMARK    1  A    between atoms: O1_2  and  C2_3 
REMARK    2  A    between atoms: C2_3  and  C3_5 
REMARK    3  A    between atoms: C4_6  and  C5_7 
REMARK       I    between atoms: C5_7  and  N1_9 
REMARK    4  A    between atoms: N1_9  and  C6_11 
REMARK    5  A    between atoms: C11_19  and  O5_20 
REMARK    6  A    between atoms: C12_22  and  O6_23 
REMARK    7  A    between atoms: O6_23  and  C13_24 
REMARK    8  A    between atoms: C14_25  and  S1_26 
REMARK    9  A    between atoms: C21_40  and  O9_41 
ROOT
HETATM    1  C13 UNL     1      -4.853  26.056  32.713  1.00  0.00     0.118 C 
HETATM    2  C14 UNL     1      -6.005  26.561  33.238  1.00  0.00     0.101 C 
HETATM    3  C16 UNL     1      -6.136  27.478  34.410  1.00  0.00     0.268 C 
HETATM    4  O7  UNL     1      -7.172  27.355  35.130  1.00  0.00    -0.267 OA
HETATM    5  N3  UNL     1      -5.212  28.483  34.801  1.00  0.00    -0.275 N 
ATOM      6  H3  UNL     1      -5.479  29.073  35.589  1.00  0.00     0.173 HD
HETATM    7  C17 UNL     1      -3.929  28.751  34.189  1.00  0.00     0.324 C 
HETATM    8  O8  UNL     1      -3.403  29.872  34.391  1.00  0.00    -0.247 OA
HETATM    9  N4  UNL     1      -3.245  27.800  33.370  1.00  0.00    -0.315 N 
ATOM     10  H4  UNL     1      -2.488  28.153  32.785  1.00  0.00     0.166 HD
HETATM   11  C18 UNL     1      -3.532  26.358  33.292  1.00  0.00     0.171 C 
HETATM   12  C19 UNL     1      -2.364  25.723  32.660  1.00  0.00     0.063 C 
HETATM   13  C20 UNL     1      -3.503  25.930  34.726  1.00  0.00     0.098 C 
HETATM   14  N5  UNL     1      -3.493  25.584  35.829  1.00  0.00    -0.194 NA
ENDROOT
BRANCH   1  15
HETATM   15  O6  UNL     1      -5.078  25.287  31.656  1.00  0.00    -0.304 OA
BRANCH  15  16
HETATM   16  C12 UNL     1      -4.882  25.272  30.327  1.00  0.00     0.143 A 
HETATM   17  C11 UNL     1      -5.011  26.366  29.493  1.00  0.00     0.103 A 
HETATM   18  C10 UNL     1      -4.794  26.249  28.154  1.00  0.00     0.057 A 
HETATM   19  C4  UNL     1      -4.433  25.028  27.571  1.00  0.00     0.053 A 
HETATM   20  C3  UNL     1      -4.300  23.929  28.358  1.00  0.00     0.091 A 
HETATM   21  C21 UNL     1      -4.528  24.075  29.734  1.00  0.00     0.119 A 
BRANCH  17  22
HETATM   22  O5  UNL     1      -5.371  27.591  30.067  1.00  0.00    -0.358 OA
ATOM     23  H5  UNL     1      -4.744  28.109  30.557  1.00  0.00     0.217 HD
ENDBRANCH  17  22
BRANCH  19  24
HETATM   24  C5  UNL     1      -4.120  25.068  26.168  1.00  0.00     0.254 C 
HETATM   25  O3  UNL     1      -5.116  24.835  25.380  1.00  0.00    -0.268 OA
HETATM   26  N1  UNL     1      -2.894  25.330  25.555  1.00  0.00    -0.336 N 
ATOM     27  H1  UNL     1      -2.079  25.529  26.134  1.00  0.00     0.164 HD
BRANCH  26  28
HETATM   28  C6  UNL     1      -2.756  25.327  24.119  1.00  0.00     0.187 C 
HETATM   29  C7  UNL     1      -2.492  23.954  23.578  1.00  0.00     0.056 C 
HETATM   30  C8  UNL     1      -1.731  24.192  22.311  1.00  0.00     0.106 C 
HETATM   31  C9  UNL     1      -1.231  25.573  22.405  1.00  0.00     0.219 C 
HETATM   32  O4  UNL     1      -0.619  26.247  21.531  1.00  0.00    -0.274 OA
HETATM   33  N2  UNL     1      -1.559  26.056  23.705  1.00  0.00    -0.340 N 
ATOM     34  H2  UNL     1      -1.060  26.768  24.239  1.00  0.00     0.164 HD
ENDBRANCH  26  28
ENDBRANCH  19  24
BRANCH  20  35
HETATM   35  C2  UNL     1      -3.995  22.584  27.851  1.00  0.00     0.296 C 
HETATM   36  O2  UNL     1      -4.720  21.618  28.000  1.00  0.00    -0.259 OA
BRANCH  35  37
HETATM   37  O1  UNL     1      -2.803  22.387  27.150  1.00  0.00    -0.322 OA
HETATM   38  C1  UNL     1      -2.738  21.349  26.197  1.00  0.00     0.213 C 
ENDBRANCH  35  37
ENDBRANCH  20  35
BRANCH  21  39
HETATM   39  O9  UNL     1      -4.375  22.923  30.505  1.00  0.00    -0.357 OA
ATOM     40  H9  UNL     1      -4.495  23.029  31.441  1.00  0.00     0.218 HD
ENDBRANCH  21  39
ENDBRANCH  15  16
ENDBRANCH   1  15
BRANCH   2  41
HETATM   41  S1  UNL     1      -7.559  26.178  32.533  1.00  0.00    -0.126 SA
HETATM   42  C15 UNL     1      -8.508  27.410  31.735  1.00  0.00     0.096 C 
ENDBRANCH   2  41
TORSDOF 9
ENDMDL
MODEL 3
REMARK VINA RESULT: -8.691538100      3.295      4.689
REMARK  9 active torsions:
REMARK  status: ('A' for Active; 'I' for Inactive)
REMARK    1  A    between atoms: O1_2  and  C2_3 
REMARK    2  A    between atoms: C2_3  and  C3_5 
REMARK    3  A    between atoms: C4_6  and  C5_7 
REMARK       I    between atoms: C5_7  and  N1_9 
REMARK    4  A    between atoms: N1_9  and  C6_11 
REMARK    5  A    between atoms: C11_19  and  O5_20 
REMARK    6  A    between atoms: C12_22  and  O6_23 
REMARK    7  A    between atoms: O6_23  and  C13_24 
REMARK    8  A    between atoms: C14_25  and  S1_26 
REMARK    9  A    between atoms: C21_40  and  O9_41 
ROOT
HETATM    1  C13 UNL     1      -5.099  27.493  32.234  1.00  0.00     0.118 C 
HETATM    2  C14 UNL     1      -4.082  28.268  32.705  1.00  0.00     0.101 C 
HETATM    3  C16 UNL     1      -3.971  28.882  34.063  1.00  0.00     0.268 C 
HETATM    4  O7  UNL     1      -3.377  29.999  34.148  1.00  0.00    -0.267 OA
HETATM    5  N3  UNL     1      -4.465  28.336  35.278  1.00  0.00    -0.275 N 
ATOM      6  H3  UNL     1      -4.250  28.847  36.134  1.00  0.00     0.173 HD
HETATM    7  C17 UNL     1      -5.243  27.125  35.418  1.00  0.00     0.324 C 
HETATM    8  O8  UNL     1      -5.290  26.583  36.548  1.00  0.00    -0.247 OA
HETATM    9  N4  UNL     1      -5.953  26.527  34.331  1.00  0.00    -0.315 N 
ATOM     10  H4  UNL     1      -6.258  25.562  34.452  1.00  0.00     0.166 HD
HETATM   11  C18 UNL     1      -6.283  27.175  33.050  1.00  0.00     0.171 C 
HETATM   12  C19 UNL     1      -7.333  26.361  32.417  1.00  0.00     0.063 C 
HETATM   13  C20 UNL     1      -6.953  28.444  33.477  1.00  0.00     0.098 C 
HETATM   14  N5  UNL     1      -7.465  29.432  33.790  1.00  0.00    -0.194 NA
ENDROOT
BRANCH   1  15
HETATM   15  O6  UNL     1      -4.883  27.085  30.990  1.00  0.00    -0.304 OA
BRANCH  15  16
HETATM   16  C12 UNL     1      -4.638  25.960  30.299  1.00  0.00     0.143 A 
HETATM   17  C11 UNL     1      -4.279  24.747  30.856  1.00  0.00     0.103 A 
HETATM   18  C10 UNL     1      -4.047  23.661  30.068  1.00  0.00     0.057 A 
HETATM   19  C4  UNL     1      -4.162  23.726  28.675  1.00  0.00     0.053 A 
HETATM   20  C3  UNL     1      -4.509  24.901  28.089  1.00  0.00     0.091 A 
HETATM   21  C21 UNL     1      -4.744  26.005  28.922  1.00  0.00     0.119 A 
BRANCH  17  22
HETATM   22  O5  UNL     1      -4.162  24.674  32.249  1.00  0.00    -0.358 OA
ATOM     23  H5  UNL     1      -4.824  24.245  32.778  1.00  0.00     0.217 HD
ENDBRANCH  17  22
BRANCH  19  24
HETATM   24  C5  UNL     1      -4.006  22.480  27.971  1.00  0.00     0.254 C 
HETATM   25  O3  UNL     1      -5.018  21.681  28.045  1.00  0.00    -0.268 OA
HETATM   26  N1  UNL     1      -2.919  22.035  27.219  1.00  0.00    -0.336 N 
ATOM     27  H1  UNL     1      -2.099  22.634  27.122  1.00  0.00     0.164 HD
BRANCH  26  28
HETATM   28  C6  UNL     1      -2.930  20.744  26.575  1.00  0.00     0.187 C 
HETATM   29  C7  UNL     1      -1.655  20.466  25.839  1.00  0.00     0.056 C 
HETATM   30  C8  UNL     1      -2.053  19.525  24.744  1.00  0.00     0.106 C 
HETATM   31  C9  UNL     1      -3.514  19.650  24.628  1.00  0.00     0.219 C 
HETATM   32  O4  UNL     1      -4.304  18.981  23.907  1.00  0.00    -0.274 OA
HETATM   33  N2  UNL     1      -3.921  20.701  25.501  1.00  0.00    -0.340 N 
ATOM     34  H2  UNL     1      -4.739  21.302  25.397  1.00  0.00     0.164 HD
ENDBRANCH  26  28
ENDBRANCH  19  24
BRANCH  20  35
HETATM   35  C2  UNL     1      -4.593  25.105  26.636  1.00  0.00     0.296 C 
HETATM   36  O2  UNL     1      -5.575  24.842  25.966  1.00  0.00    -0.259 OA
BRANCH  35  37
HETATM   37  O1  UNL     1      -3.486  25.634  25.970  1.00  0.00    -0.322 OA
HETATM   38  C1  UNL     1      -3.036  25.002  24.792  1.00  0.00     0.213 C 
ENDBRANCH  35  37
ENDBRANCH  20  35
BRANCH  21  39
HETATM   39  O9  UNL     1      -5.103  27.190  28.279  1.00  0.00    -0.357 OA
ATOM     40  H9  UNL     1      -5.950  27.551  28.514  1.00  0.00     0.218 HD
ENDBRANCH  21  39
ENDBRANCH  15  16
ENDBRANCH   1  15
BRANCH   2  41
HETATM   41  S1  UNL     1      -2.692  28.634  31.709  1.00  0.00    -0.126 SA
HETATM   42  C15 UNL     1      -1.078  28.223  32.239  1.00  0.00     0.096 C 
ENDBRANCH   2  41
TORSDOF 9
ENDMDL
MODEL 4
REMARK VINA RESULT: -8.635217138      3.310      4.435
REMARK  9 active torsions:
REMARK  status: ('A' for Active; 'I' for Inactive)
REMARK    1  A    between atoms: O1_2  and  C2_3 
REMARK    2  A    between atoms: C2_3  and  C3_5 
REMARK    3  A    between atoms: C4_6  and  C5_7 
REMARK       I    between atoms: C5_7  and  N1_9 
REMARK    4  A    between atoms: N1_9  and  C6_11 
REMARK    5  A    between atoms: C11_19  and  O5_20 
REMARK    6  A    between atoms: C12_22  and  O6_23 
REMARK    7  A    between atoms: O6_23  and  C13_24 
REMARK    8  A    between atoms: C14_25  and  S1_26 
REMARK    9  A    between atoms: C21_40  and  O9_41 
ROOT
HETATM    1  C13 UNL     1      -4.417  27.719  32.375  1.00  0.00     0.118 C 
HETATM    2  C14 UNL     1      -5.432  28.250  33.115  1.00  0.00     0.101 C 
HETATM    3  C16 UNL     1      -5.309  29.061  34.364  1.00  0.00     0.268 C 
HETATM    4  O7  UNL     1      -6.231  28.942  35.225  1.00  0.00    -0.267 OA
HETATM    5  N3  UNL     1      -4.258  29.959  34.686  1.00  0.00    -0.275 N 
ATOM      6  H3  UNL     1      -4.353  30.490  35.551  1.00  0.00     0.173 HD
HETATM    7  C17 UNL     1      -3.064  30.195  33.903  1.00  0.00     0.324 C 
HETATM    8  O8  UNL     1      -2.423  31.253  34.111  1.00  0.00    -0.247 OA
HETATM    9  N4  UNL     1      -2.592  29.281  32.912  1.00  0.00    -0.315 N 
ATOM     10  H4  UNL     1      -1.905  29.634  32.245  1.00  0.00     0.166 HD
HETATM   11  C18 UNL     1      -3.004  27.875  32.762  1.00  0.00     0.171 C 
HETATM   12  C19 UNL     1      -2.001  27.224  31.904  1.00  0.00     0.063 C 
HETATM   13  C20 UNL     1      -2.795  27.314  34.134  1.00  0.00     0.098 C 
HETATM   14  N5  UNL     1      -2.646  26.866  35.189  1.00  0.00    -0.194 NA
ENDROOT
BRANCH   1  15
HETATM   15  O6  UNL     1      -4.861  27.070  31.307  1.00  0.00    -0.304 OA
BRANCH  15  16
HETATM   16  C12 UNL     1      -4.645  25.935  30.623  1.00  0.00     0.143 A 
HETATM   17  C11 UNL     1      -4.594  24.671  31.178  1.00  0.00     0.103 A 
HETATM   18  C10 UNL     1      -4.365  23.577  30.399  1.00  0.00     0.057 A 
HETATM   19  C4  UNL     1      -4.175  23.687  29.017  1.00  0.00     0.053 A 
HETATM   20  C3  UNL     1      -4.214  24.914  28.434  1.00  0.00     0.091 A 
HETATM   21  C21 UNL     1      -4.453  26.024  29.258  1.00  0.00     0.119 A 
BRANCH  17  22
HETATM   22  O5  UNL     1      -4.783  24.552  32.560  1.00  0.00    -0.358 OA
ATOM     23  H5  UNL     1      -4.655  25.292  33.141  1.00  0.00     0.217 HD
ENDBRANCH  17  22
BRANCH  19  24
HETATM   24  C5  UNL     1      -4.060  22.447  28.295  1.00  0.00     0.254 C 
HETATM   25  O3  UNL     1      -5.070  21.651  28.415  1.00  0.00    -0.268 OA
HETATM   26  N1  UNL     1      -3.015  22.003  27.485  1.00  0.00    -0.336 N 
ATOM     27  H1  UNL     1      -2.198  22.600  27.351  1.00  0.00     0.164 HD
BRANCH  26  28
HETATM   28  C6  UNL     1      -3.064  20.718  26.833  1.00  0.00     0.187 C 
HETATM   29  C7  UNL     1      -1.734  20.315  26.271  1.00  0.00     0.056 C 
HETATM   30  C8  UNL     1      -2.071  19.414  25.124  1.00  0.00     0.106 C 
HETATM   31  C9  UNL     1      -3.484  19.681  24.814  1.00  0.00     0.219 C 
HETATM   32  O4  UNL     1      -4.231  19.089  23.987  1.00  0.00    -0.274 OA
HETATM   33  N2  UNL     1      -3.901  20.769  25.636  1.00  0.00    -0.340 N 
ATOM     34  H2  UNL     1      -4.636  21.446  25.429  1.00  0.00     0.164 HD
ENDBRANCH  26  28
ENDBRANCH  19  24
BRANCH  20  35
HETATM   35  C2  UNL     1      -3.961  25.158  27.007  1.00  0.00     0.296 C 
HETATM   36  O2  UNL     1      -4.830  25.411  26.194  1.00  0.00    -0.259 OA
BRANCH  35  37
HETATM   37  O1  UNL     1      -2.646  25.100  26.541  1.00  0.00    -0.322 OA
HETATM   38  C1  UNL     1      -1.967  26.307  26.272  1.00  0.00     0.213 C 
ENDBRANCH  35  37
ENDBRANCH  20  35
BRANCH  21  39
HETATM   39  O9  UNL     1      -4.490  27.263  28.618  1.00  0.00    -0.357 OA
ATOM     40  H9  UNL     1      -4.766  27.998  29.152  1.00  0.00     0.218 HD
ENDBRANCH  21  39
ENDBRANCH  15  16
ENDBRANCH   1  15
BRANCH   2  41
HETATM   41  S1  UNL     1      -7.101  28.042  32.634  1.00  0.00    -0.126 SA
HETATM   42  C15 UNL     1      -7.931  26.530  32.914  1.00  0.00     0.096 C 
ENDBRANCH   2  41
TORSDOF 9
ENDMDL
MODEL 5
REMARK VINA RESULT: -8.596233848      2.409      3.796
REMARK  9 active torsions:
REMARK  status: ('A' for Active; 'I' for Inactive)
REMARK    1  A    between atoms: O1_2  and  C2_3 
REMARK    2  A    between atoms: C2_3  and  C3_5 
REMARK    3  A    between atoms: C4_6  and  C5_7 
REMARK       I    between atoms: C5_7  and  N1_9 
REMARK    4  A    between atoms: N1_9  and  C6_11 
REMARK    5  A    between atoms: C11_19  and  O5_20 
REMARK    6  A    between atoms: C12_22  and  O6_23 
REMARK    7  A    between atoms: O6_23  and  C13_24 
REMARK    8  A    between atoms: C14_25  and  S1_26 
REMARK    9  A    between atoms: C21_40  and  O9_41 
ROOT
HETATM    1  C13 UNL     1      -5.131  26.262  32.466  1.00  0.00     0.118 C 
HETATM    2  C14 UNL     1      -4.008  26.756  33.059  1.00  0.00     0.101 C 
HETATM    3  C16 UNL     1      -3.939  27.737  34.185  1.00  0.00     0.268 C 
HETATM    4  O7  UNL     1      -2.954  28.534  34.199  1.00  0.00    -0.267 OA
HETATM    5  N3  UNL     1      -4.871  27.866  35.248  1.00  0.00    -0.275 N 
ATOM      6  H3  UNL     1      -4.647  28.542  35.977  1.00  0.00     0.173 HD
HETATM    7  C17 UNL     1      -6.108  27.130  35.396  1.00  0.00     0.324 C 
HETATM    8  O8  UNL     1      -6.629  27.079  36.536  1.00  0.00    -0.247 OA
HETATM    9  N4  UNL     1      -6.751  26.465  34.307  1.00  0.00    -0.315 N 
ATOM     10  H4  UNL     1      -7.464  25.774  34.543  1.00  0.00     0.166 HD
HETATM   11  C18 UNL     1      -6.482  26.684  32.876  1.00  0.00     0.171 C 
HETATM   12  C19 UNL     1      -7.616  26.109  32.134  1.00  0.00     0.063 C 
HETATM   13  C20 UNL     1      -6.610  28.168  32.732  1.00  0.00     0.098 C 
HETATM   14  N5  UNL     1      -6.696  29.314  32.604  1.00  0.00    -0.194 NA
ENDROOT
BRANCH   1  15
HETATM   15  O6  UNL     1      -4.850  25.389  31.508  1.00  0.00    -0.304 OA
BRANCH  15  16
HETATM   16  C12 UNL     1      -4.695  25.330  30.175  1.00  0.00     0.143 A 
HETATM   17  C11 UNL     1      -4.803  26.406  29.314  1.00  0.00     0.103 A 
HETATM   18  C10 UNL     1      -4.631  26.244  27.973  1.00  0.00     0.057 A 
HETATM   19  C4  UNL     1      -4.340  24.994  27.415  1.00  0.00     0.053 A 
HETATM   20  C3  UNL     1      -4.230  23.911  28.228  1.00  0.00     0.091 A 
HETATM   21  C21 UNL     1      -4.410  24.104  29.606  1.00  0.00     0.119 A 
BRANCH  17  22
HETATM   22  O5  UNL     1      -5.093  27.660  29.864  1.00  0.00    -0.358 OA
ATOM     23  H5  UNL     1      -5.755  27.763  30.537  1.00  0.00     0.217 HD
ENDBRANCH  17  22
BRANCH  19  24
HETATM   24  C5  UNL     1      -4.067  24.982  26.002  1.00  0.00     0.254 C 
HETATM   25  O3  UNL     1      -5.071  24.658  25.257  1.00  0.00    -0.268 OA
HETATM   26  N1  UNL     1      -2.876  25.280  25.342  1.00  0.00    -0.336 N 
ATOM     27  H1  UNL     1      -2.057  25.551  25.886  1.00  0.00     0.164 HD
BRANCH  26  28
HETATM   28  C6  UNL     1      -2.777  25.215  23.905  1.00  0.00     0.187 C 
HETATM   29  C7  UNL     1      -2.384  23.850  23.424  1.00  0.00     0.056 C 
HETATM   30  C8  UNL     1      -1.687  24.098  22.123  1.00  0.00     0.106 C 
HETATM   31  C9  UNL     1      -1.332  25.526  22.131  1.00  0.00     0.219 C 
HETATM   32  O4  UNL     1      -0.819  26.212  21.205  1.00  0.00    -0.274 OA
HETATM   33  N2  UNL     1      -1.675  26.042  23.416  1.00  0.00    -0.340 N 
ATOM     34  H2  UNL     1      -1.239  26.828  23.896  1.00  0.00     0.164 HD
ENDBRANCH  26  28
ENDBRANCH  19  24
BRANCH  20  35
HETATM   35  C2  UNL     1      -3.997  22.541  27.750  1.00  0.00     0.296 C 
HETATM   36  O2  UNL     1      -4.724  21.598  28.003  1.00  0.00    -0.259 OA
BRANCH  35  37
HETATM   37  O1  UNL     1      -2.878  22.291  26.954  1.00  0.00    -0.322 OA
HETATM   38  C1  UNL     1      -2.955  21.283  25.970  1.00  0.00     0.213 C 
ENDBRANCH  35  37
ENDBRANCH  20  35
BRANCH  21  39
HETATM   39  O9  UNL     1      -4.283  22.967  30.403  1.00  0.00    -0.357 OA
ATOM     40  H9  UNL     1      -3.891  22.208  29.987  1.00  0.00     0.218 HD
ENDBRANCH  21  39
ENDBRANCH  15  16
ENDBRANCH   1  15
BRANCH   2  41
HETATM   41  S1  UNL     1      -2.417  26.242  32.544  1.00  0.00    -0.126 SA
HETATM   42  C15 UNL     1      -1.634  24.872  33.294  1.00  0.00     0.096 C 
ENDBRANCH   2  41
TORSDOF 9
ENDMDL
