MODEL 1
REMARK VINA RESULT: -9.022105364      0.000      0.000
REMARK  5 active torsions:
REMARK  status: ('A' for Active; 'I' for Inactive)
REMARK       I    between atoms: C2_2  and  N1_4 
REMARK    1  A    between atoms: C3_5  and  N2_6 
REMARK       I    between atoms: N2_6  and  C4_8 
REMARK    2  A    between atoms: C4_8  and  C5_10 
REMARK    3  A    between atoms: C5_10  and  N3_12 
REMARK    4  A    between atoms: C7_16  and  C8_17 
REMARK       I    between atoms: C8_17  and  N4_19 
REMARK    5  A    between atoms: N4_19  and  C9_21 
ROOT
HETATM    1  C1  UNL     1      10.250  13.502  11.714  1.00  0.00     0.118 C 
HETATM    2  C2  UNL     1      11.350  12.513  11.662  1.00  0.00     0.229 C 
HETATM    3  O1  UNL     1      12.307  12.743  12.461  1.00  0.00    -0.273 OA
HETATM    4  N1  UNL     1      11.380  11.378  10.806  1.00  0.00    -0.217 N 
HETATM    5  C3  UNL     1      12.412  10.461  10.856  1.00  0.00     0.142 A 
HETATM    6  C7  UNL     1      12.461   9.408   9.984  1.00  0.00     0.145 A 
HETATM    7  C12 UNL     1      11.456   9.247   8.999  1.00  0.00     0.269 A 
HETATM    8  O4  UNL     1      11.483   8.287   8.176  1.00  0.00    -0.267 OA
HETATM    9  N6  UNL     1      10.480  10.148   8.979  1.00  0.00    -0.274 N 
ATOM     10  H6  UNL     1       9.737  10.065   8.285  1.00  0.00     0.173 HD
HETATM   11  C13 UNL     1      10.455  11.173   9.860  1.00  0.00     0.337 A 
HETATM   12  O5  UNL     1       9.493  11.989   9.780  1.00  0.00    -0.246 OA
ENDROOT
BRANCH   6  13
HETATM   13  C8  UNL     1      13.321   8.242  10.108  1.00  0.00     0.267 C 
HETATM   14  O3  UNL     1      14.546   8.287   9.996  1.00  0.00    -0.267 OA
HETATM   15  N4  UNL     1      12.744   6.934  10.377  1.00  0.00    -0.303 N 
ATOM     16  H4  UNL     1      11.965   6.540   9.850  1.00  0.00     0.171 HD
BRANCH  15  17
HETATM   17  C9  UNL     1      13.339   6.314  11.376  1.00  0.00     0.152 A 
HETATM   18  N5  UNL     1      13.767   6.889  12.498  1.00  0.00    -0.344 N 
HETATM   19  C10 UNL     1      14.337   6.146  13.401  1.00  0.00     0.121 A 
ATOM     20  H5  UNL     1      13.650   7.891  12.646  1.00  0.00     0.167 HD
HETATM   21  C11 UNL     1      14.465   4.807  13.142  1.00  0.00     0.093 A 
HETATM   22 CL1  UNL     1      15.190   3.567  14.173  1.00  0.00    -0.075 Cl
HETATM   23  S1  UNL     1      13.752   4.674  11.596  1.00  0.00    -0.040 SA
ENDBRANCH  15  17
ENDBRANCH   6  13
BRANCH   5  24
HETATM   24  N2  UNL     1      13.349  10.663  11.896  1.00  0.00    -0.310 N 
HETATM   25  C4  UNL     1      13.362  10.123  13.188  1.00  0.00     0.253 C 
HETATM   26  O2  UNL     1      12.548   9.206  13.498  1.00  0.00    -0.271 OA
ATOM     27  H2  UNL     1      14.124  11.289  11.674  1.00  0.00     0.170 HD
BRANCH  25  28
HETATM   28  C5  UNL     1      14.319  10.590  14.255  1.00  0.00     0.271 C 
HETATM   29  C6  UNL     1      13.541  10.626  15.547  1.00  0.00     0.050 C 
BRANCH  28  30
HETATM   30  N3  UNL     1      15.431   9.691  14.337  1.00  0.00    -0.067 N 
ATOM     31  H33 UNL     1      15.294   8.976  15.051  1.00  0.00     0.275 HD
ATOM     32  H32 UNL     1      15.490   9.079  13.523  1.00  0.00     0.275 HD
ATOM     33  H31 UNL     1      16.292  10.219  14.483  1.00  0.00     0.275 HD
ENDBRANCH  28  30
ENDBRANCH  25  28
ENDBRANCH   5  24
TORSDOF 5
ENDMDL
MODEL 2
REMARK VINA RESULT: -8.598838922      1.102      1.172
REMARK  5 active torsions:
REMARK  status: ('A' for Active; 'I' for Inactive)
REMARK       I    between atoms: C2_2  and  N1_4 
REMARK    1  A    between atoms: C3_5  and  N2_6 
REMARK       I    between atoms: N2_6  and  C4_8 
REMARK    2  A    between atoms: C4_8  and  C5_10 
REMARK    3  A    between atoms: C5_10  and  N3_12 
REMARK    4  A    between atoms: C7_16  and  C8_17 
REMARK       I    between atoms: C8_17  and  N4_19 
REMARK    5  A    between atoms: N4_19  and  C9_21 
ROOT
HETATM    1  C1  UNL     1       9.822  13.591  12.732  1.00  0.00     0.118 C 
HETATM    2  C2  UNL     1      11.020  12.722  12.706  1.00  0.00     0.229 C 
HETATM    3  O1  UNL     1      11.802  12.866  13.694  1.00  0.00    -0.273 OA
HETATM    4  N1  UNL     1      11.319  11.782  11.681  1.00  0.00    -0.217 N 
HETATM    5  C3  UNL     1      12.425  10.959  11.754  1.00  0.00     0.142 A 
HETATM    6  C7  UNL     1      12.735  10.104  10.731  1.00  0.00     0.145 A 
HETATM    7  C12 UNL     1      11.930  10.059   9.567  1.00  0.00     0.269 A 
HETATM    8  O4  UNL     1      12.200   9.284   8.605  1.00  0.00    -0.267 OA
HETATM    9  N6  UNL     1      10.876  10.866   9.530  1.00  0.00    -0.274 N 
ATOM     10  H6  UNL     1      10.271  10.861   8.709  1.00  0.00     0.173 HD
HETATM   11  C13 UNL     1      10.591  11.693  10.561  1.00  0.00     0.337 A 
HETATM   12  O5  UNL     1       9.569  12.430  10.454  1.00  0.00    -0.246 OA
ENDROOT
BRANCH   6  13
HETATM   13  C8  UNL     1      13.689   9.009  10.800  1.00  0.00     0.267 C 
HETATM   14  O3  UNL     1      14.894   9.168  11.000  1.00  0.00    -0.267 OA
HETATM   15  N4  UNL     1      13.240   7.636  10.628  1.00  0.00    -0.303 N 
ATOM     16  H4  UNL     1      12.651   7.327   9.855  1.00  0.00     0.171 HD
BRANCH  15  17
HETATM   17  C9  UNL     1      13.677   6.836  11.579  1.00  0.00     0.152 A 
HETATM   18  N5  UNL     1      14.053   7.218  12.798  1.00  0.00    -0.344 N 
HETATM   19  C10 UNL     1      14.463   6.312  13.636  1.00  0.00     0.121 A 
ATOM     20  H5  UNL     1      14.019   8.201  13.069  1.00  0.00     0.167 HD
HETATM   21  C11 UNL     1      14.485   5.009  13.212  1.00  0.00     0.093 A 
HETATM   22 CL1  UNL     1      14.989   3.580  14.123  1.00  0.00    -0.075 Cl
HETATM   23  S1  UNL     1      13.908   5.147  11.610  1.00  0.00    -0.040 SA
ENDBRANCH  15  17
ENDBRANCH   6  13
BRANCH   5  24
HETATM   24  N2  UNL     1      13.150  11.028  12.967  1.00  0.00    -0.310 N 
HETATM   25  C4  UNL     1      13.075  10.190  14.087  1.00  0.00     0.253 C 
HETATM   26  O2  UNL     1      12.407   9.119  14.032  1.00  0.00    -0.271 OA
ATOM     27  H2  UNL     1      13.821  11.793  13.034  1.00  0.00     0.170 HD
BRANCH  25  28
HETATM   28  C5  UNL     1      13.767  10.509  15.387  1.00  0.00     0.271 C 
HETATM   29  C6  UNL     1      15.247  10.351  15.139  1.00  0.00     0.050 C 
BRANCH  28  30
HETATM   30  N3  UNL     1      13.443  11.843  15.796  1.00  0.00    -0.067 N 
ATOM     31  H33 UNL     1      13.563  12.515  15.038  1.00  0.00     0.275 HD
ATOM     32  H32 UNL     1      12.442  11.965  15.946  1.00  0.00     0.275 HD
ATOM     33  H31 UNL     1      13.988  12.093  16.621  1.00  0.00     0.275 HD
ENDBRANCH  28  30
ENDBRANCH  25  28
ENDBRANCH   5  24
TORSDOF 5
ENDMDL
MODEL 3
REMARK VINA RESULT: -8.348734624      1.258      1.344
REMARK  5 active torsions:
REMARK  status: ('A' for Active; 'I' for Inactive)
REMARK       I    between atoms: C2_2  and  N1_4 
REMARK    1  A    between atoms: C3_5  and  N2_6 
REMARK       I    between atoms: N2_6  and  C4_8 
REMARK    2  A    between atoms: C4_8  and  C5_10 
REMARK    3  A    between atoms: C5_10  and  N3_12 
REMARK    4  A    between atoms: C7_16  and  C8_17 
REMARK       I    between atoms: C8_17  and  N4_19 
REMARK    5  A    between atoms: N4_19  and  C9_21 
ROOT
HETATM    1  C1  UNL     1      10.999  13.603  13.785  1.00  0.00     0.118 C 
HETATM    2  C2  UNL     1      11.995  12.582  13.393  1.00  0.00     0.229 C 
HETATM    3  O1  UNL     1      12.985  12.477  14.180  1.00  0.00    -0.273 OA
HETATM    4  N1  UNL     1      11.899  11.755  12.239  1.00  0.00    -0.217 N 
HETATM    5  C3  UNL     1      12.838  10.777  11.970  1.00  0.00     0.142 A 
HETATM    6  C7  UNL     1      12.768  10.032  10.824  1.00  0.00     0.145 A 
HETATM    7  C12 UNL     1      11.735  10.262   9.883  1.00  0.00     0.269 A 
HETATM    8  O4  UNL     1      11.654   9.593   8.813  1.00  0.00    -0.267 OA
HETATM    9  N6  UNL     1      10.852  11.210  10.173  1.00  0.00    -0.274 N 
ATOM     10  H6  UNL     1      10.093  11.404   9.521  1.00  0.00     0.173 HD
HETATM   11  C13 UNL     1      10.943  11.924  11.319  1.00  0.00     0.337 A 
HETATM   12  O5  UNL     1      10.064  12.808  11.527  1.00  0.00    -0.246 OA
ENDROOT
BRANCH   6  13
HETATM   13  C8  UNL     1      13.512   8.811  10.559  1.00  0.00     0.267 C 
HETATM   14  O3  UNL     1      14.741   8.758  10.529  1.00  0.00    -0.267 OA
HETATM   15  N4  UNL     1      12.805   7.565  10.310  1.00  0.00    -0.303 N 
ATOM     16  H4  UNL     1      12.042   7.472   9.640  1.00  0.00     0.171 HD
BRANCH  15  17
HETATM   17  C9  UNL     1      13.259   6.569  11.044  1.00  0.00     0.152 A 
HETATM   18  N5  UNL     1      13.704   6.672  12.295  1.00  0.00    -0.344 N 
HETATM   19  C10 UNL     1      14.123   5.597  12.898  1.00  0.00     0.121 A 
ATOM     20  H5  UNL     1      13.717   7.574  12.771  1.00  0.00     0.167 HD
HETATM   21  C11 UNL     1      14.080   4.416  12.205  1.00  0.00     0.093 A 
HETATM   22 CL1  UNL     1      14.577   2.813  12.762  1.00  0.00    -0.075 Cl
HETATM   23  S1  UNL     1      13.434   4.908  10.703  1.00  0.00    -0.040 SA
ENDBRANCH  15  17
ENDBRANCH   6  13
BRANCH   5  24
HETATM   24  N2  UNL     1      13.808  10.577  12.979  1.00  0.00    -0.310 N 
HETATM   25  C4  UNL     1      13.806   9.654  14.033  1.00  0.00     0.253 C 
HETATM   26  O2  UNL     1      12.931   8.743  14.073  1.00  0.00    -0.271 OA
ATOM     27  H2  UNL     1      14.623  11.188  12.932  1.00  0.00     0.170 HD
BRANCH  25  28
HETATM   28  C5  UNL     1      14.816   9.694  15.150  1.00  0.00     0.271 C 
HETATM   29  C6  UNL     1      14.033   9.729  16.439  1.00  0.00     0.050 C 
BRANCH  28  30
HETATM   30  N3  UNL     1      15.662   8.541  15.081  1.00  0.00    -0.067 N 
ATOM     31  H33 UNL     1      15.232   7.724  15.514  1.00  0.00     0.275 HD
ATOM     32  H32 UNL     1      15.742   8.180  14.130  1.00  0.00     0.275 HD
ATOM     33  H31 UNL     1      16.573   8.756  15.487  1.00  0.00     0.275 HD
ENDBRANCH  28  30
ENDBRANCH  25  28
ENDBRANCH   5  24
TORSDOF 5
ENDMDL
MODEL 4
REMARK VINA RESULT: -8.016358966      1.824      2.112
REMARK  5 active torsions:
REMARK  status: ('A' for Active; 'I' for Inactive)
REMARK       I    between atoms: C2_2  and  N1_4 
REMARK    1  A    between atoms: C3_5  and  N2_6 
REMARK       I    between atoms: N2_6  and  C4_8 
REMARK    2  A    between atoms: C4_8  and  C5_10 
REMARK    3  A    between atoms: C5_10  and  N3_12 
REMARK    4  A    between atoms: C7_16  and  C8_17 
REMARK       I    between atoms: C8_17  and  N4_19 
REMARK    5  A    between atoms: N4_19  and  C9_21 
ROOT
HETATM    1  C1  UNL     1      11.011  13.149  10.686  1.00  0.00     0.118 C 
HETATM    2  C2  UNL     1      11.887  12.199  11.407  1.00  0.00     0.229 C 
HETATM    3  O1  UNL     1      12.356  12.635  12.502  1.00  0.00    -0.273 OA
HETATM    4  N1  UNL     1      12.209  10.889  10.954  1.00  0.00    -0.217 N 
HETATM    5  C3  UNL     1      12.985  10.033  11.712  1.00  0.00     0.142 A 
HETATM    6  C7  UNL     1      13.340   8.799  11.237  1.00  0.00     0.145 A 
HETATM    7  C12 UNL     1      12.927   8.383   9.947  1.00  0.00     0.269 A 
HETATM    8  O4  UNL     1      13.249   7.252   9.483  1.00  0.00    -0.267 OA
HETATM    9  N6  UNL     1      12.185   9.232   9.247  1.00  0.00    -0.274 N 
ATOM     10  H6  UNL     1      11.867   8.968   8.315  1.00  0.00     0.173 HD
HETATM   11  C13 UNL     1      11.843  10.441   9.748  1.00  0.00     0.337 A 
HETATM   12  O5  UNL     1      11.132  11.194   9.023  1.00  0.00    -0.246 OA
ENDROOT
BRANCH   6  13
HETATM   13  C8  UNL     1      13.904   7.716  12.026  1.00  0.00     0.267 C 
HETATM   14  O3  UNL     1      13.272   7.102  12.886  1.00  0.00    -0.267 OA
HETATM   15  N4  UNL     1      15.283   7.305  11.822  1.00  0.00    -0.303 N 
ATOM     16  H4  UNL     1      16.070   7.954  11.801  1.00  0.00     0.171 HD
BRANCH  15  17
HETATM   17  C9  UNL     1      15.407   6.002  11.668  1.00  0.00     0.152 A 
HETATM   18  N5  UNL     1      14.707   5.255  10.816  1.00  0.00    -0.344 N 
HETATM   19  C10 UNL     1      14.940   3.976  10.773  1.00  0.00     0.121 A 
ATOM     20  H5  UNL     1      14.004   5.677  10.209  1.00  0.00     0.167 HD
HETATM   21  C11 UNL     1      15.896   3.469  11.612  1.00  0.00     0.093 A 
HETATM   22 CL1  UNL     1      16.420   1.788  11.772  1.00  0.00    -0.075 Cl
HETATM   23  S1  UNL     1      16.425   4.870  12.435  1.00  0.00    -0.040 SA
ENDBRANCH  15  17
ENDBRANCH   6  13
BRANCH   5  24
HETATM   24  N2  UNL     1      13.316  10.501  13.005  1.00  0.00    -0.310 N 
HETATM   25  C4  UNL     1      14.572  10.572  13.621  1.00  0.00     0.253 C 
HETATM   26  O2  UNL     1      15.619  10.351  12.949  1.00  0.00    -0.271 OA
ATOM     27  H2  UNL     1      12.531  10.833  13.566  1.00  0.00     0.170 HD
BRANCH  25  28
HETATM   28  C5  UNL     1      14.743  10.907  15.080  1.00  0.00     0.271 C 
HETATM   29  C6  UNL     1      13.440  10.561  15.758  1.00  0.00     0.050 C 
BRANCH  28  30
HETATM   30  N3  UNL     1      15.834  10.158  15.626  1.00  0.00    -0.067 N 
ATOM     31  H33 UNL     1      16.177   9.452  14.975  1.00  0.00     0.275 HD
ATOM     32  H32 UNL     1      16.684  10.717  15.700  1.00  0.00     0.275 HD
ATOM     33  H31 UNL     1      15.561   9.754  16.522  1.00  0.00     0.275 HD
ENDBRANCH  28  30
ENDBRANCH  25  28
ENDBRANCH   5  24
TORSDOF 5
ENDMDL
MODEL 5
REMARK VINA RESULT: -7.996510373      3.865      7.539
REMARK  5 active torsions:
REMARK  status: ('A' for Active; 'I' for Inactive)
REMARK       I    between atoms: C2_2  and  N1_4 
REMARK    1  A    between atoms: C3_5  and  N2_6 
REMARK       I    between atoms: N2_6  and  C4_8 
REMARK    2  A    between atoms: C4_8  and  C5_10 
REMARK    3  A    between atoms: C5_10  and  N3_12 
REMARK    4  A    between atoms: C7_16  and  C8_17 
REMARK       I    between atoms: C8_17  and  N4_19 
REMARK    5  A    between atoms: N4_19  and  C9_21 
ROOT
HETATM    1  C1  UNL     1      18.251   3.785  13.510  1.00  0.00     0.118 C 
HETATM    2  C2  UNL     1      17.257   4.513  12.691  1.00  0.00     0.229 C 
HETATM    3  O1  UNL     1      16.990   3.971  11.575  1.00  0.00    -0.273 OA
HETATM    4  N1  UNL     1      16.619   5.725  13.076  1.00  0.00    -0.217 N 
HETATM    5  C3  UNL     1      15.653   6.316  12.286  1.00  0.00     0.142 A 
HETATM    6  C7  UNL     1      15.093   7.515  12.638  1.00  0.00     0.145 A 
HETATM    7  C12 UNL     1      15.508   8.180  13.817  1.00  0.00     0.269 A 
HETATM    8  O4  UNL     1      15.013   9.292  14.159  1.00  0.00    -0.267 OA
HETATM    9  N6  UNL     1      16.440   7.583  14.551  1.00  0.00    -0.274 N 
ATOM     10  H6  UNL     1      16.765   8.030  15.408  1.00  0.00     0.173 HD
HETATM   11  C13 UNL     1      16.968   6.394  14.181  1.00  0.00     0.337 A 
HETATM   12  O5  UNL     1      17.849   5.887  14.932  1.00  0.00    -0.246 OA
ENDROOT
BRANCH   6  13
HETATM   13  C8  UNL     1      13.894   8.096  12.055  1.00  0.00     0.267 C 
HETATM   14  O3  UNL     1      12.768   7.619  12.203  1.00  0.00    -0.267 OA
HETATM   15  N4  UNL     1      13.984   9.300  11.246  1.00  0.00    -0.303 N 
ATOM     16  H4  UNL     1      14.645   9.418  10.478  1.00  0.00     0.171 HD
BRANCH  15  17
HETATM   17  C9  UNL     1      13.119  10.224  11.614  1.00  0.00     0.152 A 
HETATM   18  N5  UNL     1      12.922  10.645  12.862  1.00  0.00    -0.344 N 
HETATM   19  C10 UNL     1      12.030  11.568  13.074  1.00  0.00     0.121 A 
ATOM     20  H5  UNL     1      13.458  10.251  13.635  1.00  0.00     0.167 HD
HETATM   21  C11 UNL     1      11.342  12.055  11.995  1.00  0.00     0.093 A 
HETATM   22 CL1  UNL     1      10.085  13.299  11.981  1.00  0.00    -0.075 Cl
HETATM   23  S1  UNL     1      12.015  11.156  10.708  1.00  0.00    -0.040 SA
ENDBRANCH  15  17
ENDBRANCH   6  13
BRANCH   5  24
HETATM   24  N2  UNL     1      15.258   5.569  11.152  1.00  0.00    -0.310 N 
HETATM   25  C4  UNL     1      14.210   4.648  11.024  1.00  0.00     0.253 C 
HETATM   26  O2  UNL     1      13.363   4.523  11.953  1.00  0.00    -0.271 OA
ATOM     27  H2  UNL     1      15.814   5.722  10.310  1.00  0.00     0.170 HD
BRANCH  25  28
HETATM   28  C5  UNL     1      14.038   3.778   9.806  1.00  0.00     0.271 C 
HETATM   29  C6  UNL     1      13.129   4.529   8.864  1.00  0.00     0.050 C 
BRANCH  28  30
HETATM   30  N3  UNL     1      15.313   3.518   9.209  1.00  0.00    -0.067 N 
ATOM     31  H33 UNL     1      15.724   4.359   8.803  1.00  0.00     0.275 HD
ATOM     32  H32 UNL     1      16.031   3.325   9.908  1.00  0.00     0.275 HD
ATOM     33  H31 UNL     1      15.229   2.765   8.527  1.00  0.00     0.275 HD
ENDBRANCH  28  30
ENDBRANCH  25  28
ENDBRANCH   5  24
TORSDOF 5
ENDMDL
