MODEL 1
REMARK VINA RESULT: -9.022191712      0.000      0.000
REMARK  4 active torsions:
REMARK  status: ('A' for Active; 'I' for Inactive)
REMARK    1  A    between atoms: C3_3  and  O1_5 
REMARK    2  A    between atoms: O1_5  and  C4_6 
REMARK    3  A    between atoms: C6_11  and  O2_12 
REMARK    4  A    between atoms: C11_20  and  N4_21 
ROOT
HETATM    1  C1  UNL     1      11.442   8.594   8.399  1.00  0.00     0.017 C 
HETATM    2  C2  UNL     1      10.772   9.542   8.721  1.00  0.00    -0.052 C 
HETATM    3  C3  UNL     1       9.936  10.701   9.140  1.00  0.00     0.395 C 
HETATM    4  F1  UNL     1       9.257  11.185   8.010  1.00  0.00    -0.205 F 
ENDROOT
BRANCH   3   5
HETATM    5  O1  UNL     1      10.757  11.660   9.699  1.00  0.00    -0.284 OA
BRANCH   5   6
HETATM    6  C4  UNL     1      11.291  11.709  10.966  1.00  0.00     0.213 A 
HETATM    7  N1  UNL     1      12.226  10.845  11.466  1.00  0.00    -0.164 N 
HETATM    8  C5  UNL     1      12.518  11.178  12.717  1.00  0.00     0.717 A 
ATOM      9  H1  UNL     1      12.636  10.063  10.955  1.00  0.00     0.186 HD
HETATM   10  N2  UNL     1      11.807  12.246  13.081  1.00  0.00    -0.087 N 
HETATM   11  N6  UNL     1      13.433  10.586  13.664  1.00  0.00    -0.086 N 
HETATM   12  C6  UNL     1      11.053  12.574  12.008  1.00  0.00     0.218 A 
HETATM   13  C7  UNL     1      11.927  12.809  14.367  1.00  0.00     0.251 A 
HETATM   14  O3  UNL     1      11.213  13.827  14.632  1.00  0.00    -0.272 OA
HETATM   15  C8  UNL     1      12.825  12.277  15.388  1.00  0.00     0.166 A 
HETATM   16  C9  UNL     1      13.569  11.094  14.888  1.00  0.00     0.089 A 
HETATM   17  C10 UNL     1      14.519  10.299  15.546  1.00  0.00     0.116 A 
HETATM   18  N3  UNL     1      14.957  10.507  16.888  1.00  0.00    -0.096 NA
HETATM   19  C11 UNL     1      14.904   9.338  14.653  1.00  0.00     0.141 A 
HETATM   20  N5  UNL     1      14.236   9.520  13.506  1.00  0.00    -0.263 N 
ATOM     21  H5  UNL     1      14.322   8.952  12.663  1.00  0.00     0.190 HD
BRANCH  12  22
HETATM   22  O2  UNL     1      10.178  13.642  12.009  1.00  0.00    -0.342 OA
ATOM     23  H2  UNL     1       9.454  13.781  12.609  1.00  0.00     0.219 HD
ENDBRANCH  12  22
BRANCH  19  24
HETATM   24  N4  UNL     1      15.785   8.402  14.902  1.00  0.00    -0.383 N 
ATOM     25  H42 UNL     1      16.776   8.422  14.662  1.00  0.00     0.157 HD
ATOM     26  H41 UNL     1      15.578   7.522  15.375  1.00  0.00     0.157 HD
ENDBRANCH  19  24
ENDBRANCH   5   6
ENDBRANCH   3   5
TORSDOF 4
ENDMDL
MODEL 2
REMARK VINA RESULT: -8.835108085      2.833      4.767
REMARK  4 active torsions:
REMARK  status: ('A' for Active; 'I' for Inactive)
REMARK    1  A    between atoms: C3_3  and  O1_5 
REMARK    2  A    between atoms: O1_5  and  C4_6 
REMARK    3  A    between atoms: C6_11  and  O2_12 
REMARK    4  A    between atoms: C11_20  and  N4_21 
ROOT
HETATM    1  C1  UNL     1       9.596  12.866  11.600  1.00  0.00     0.017 C 
HETATM    2  C2  UNL     1       9.721  12.257  10.568  1.00  0.00    -0.052 C 
HETATM    3  C3  UNL     1       9.873  11.526   9.280  1.00  0.00     0.395 C 
HETATM    4  F1  UNL     1       9.030  10.404   9.308  1.00  0.00    -0.205 F 
ENDROOT
BRANCH   3   5
HETATM    5  O1  UNL     1      11.199  11.171   9.126  1.00  0.00    -0.284 OA
BRANCH   5   6
HETATM    6  C4  UNL     1      11.857  10.060   9.600  1.00  0.00     0.213 A 
HETATM    7  N1  UNL     1      12.637  10.019  10.722  1.00  0.00    -0.164 N 
HETATM    8  C5  UNL     1      13.118   8.794  10.887  1.00  0.00     0.717 A 
ATOM      9  H1  UNL     1      12.820  10.811  11.339  1.00  0.00     0.186 HD
HETATM   10  N2  UNL     1      12.685   8.000   9.908  1.00  0.00    -0.087 N 
HETATM   11  N6  UNL     1      13.980   8.246  11.908  1.00  0.00    -0.086 N 
HETATM   12  C6  UNL     1      11.911   8.774   9.116  1.00  0.00     0.218 A 
HETATM   13  C7  UNL     1      13.050   6.640   9.845  1.00  0.00     0.251 A 
HETATM   14  O3  UNL     1      12.594   5.953   8.877  1.00  0.00    -0.272 OA
HETATM   15  C8  UNL     1      13.917   6.002  10.831  1.00  0.00     0.166 A 
HETATM   16  C9  UNL     1      14.343   6.964  11.877  1.00  0.00     0.089 A 
HETATM   17  C10 UNL     1      15.168   6.757  12.992  1.00  0.00     0.116 A 
HETATM   18  N3  UNL     1      15.773   5.510  13.330  1.00  0.00    -0.096 NA
HETATM   19  C11 UNL     1      15.251   7.958  13.641  1.00  0.00     0.141 A 
HETATM   20  N5  UNL     1      14.523   8.863  12.973  1.00  0.00    -0.263 N 
ATOM     21  H5  UNL     1      14.401   9.843  13.226  1.00  0.00     0.190 HD
BRANCH  12  22
HETATM   22  O2  UNL     1      11.282   8.292   7.985  1.00  0.00    -0.342 OA
ATOM     23  H2  UNL     1      11.393   8.608   7.096  1.00  0.00     0.219 HD
ENDBRANCH  12  22
BRANCH  19  24
HETATM   24  N4  UNL     1      15.938   8.166  14.736  1.00  0.00    -0.383 N 
ATOM     25  H42 UNL     1      15.636   7.964  15.689  1.00  0.00     0.157 HD
ATOM     26  H41 UNL     1      16.877   8.564  14.765  1.00  0.00     0.157 HD
ENDBRANCH  19  24
ENDBRANCH   5   6
ENDBRANCH   3   5
TORSDOF 4
ENDMDL
MODEL 3
REMARK VINA RESULT: -8.540257533      3.007      4.934
REMARK  4 active torsions:
REMARK  status: ('A' for Active; 'I' for Inactive)
REMARK    1  A    between atoms: C3_3  and  O1_5 
REMARK    2  A    between atoms: O1_5  and  C4_6 
REMARK    3  A    between atoms: C6_11  and  O2_12 
REMARK    4  A    between atoms: C11_20  and  N4_21 
ROOT
HETATM    1  C1  UNL     1       9.561  13.357  12.062  1.00  0.00     0.017 C 
HETATM    2  C2  UNL     1      10.429  13.102  12.856  1.00  0.00    -0.052 C 
HETATM    3  C3  UNL     1      11.493  12.764  13.842  1.00  0.00     0.395 C 
HETATM    4  F1  UNL     1      11.662  13.863  14.701  1.00  0.00    -0.205 F 
ENDROOT
BRANCH   3   5
HETATM    5  O1  UNL     1      12.653  12.462  13.157  1.00  0.00    -0.284 OA
BRANCH   5   6
HETATM    6  C4  UNL     1      13.095  11.240  12.704  1.00  0.00     0.213 A 
HETATM    7  N1  UNL     1      13.951  10.409  13.373  1.00  0.00    -0.164 N 
HETATM    8  C5  UNL     1      14.167   9.317  12.651  1.00  0.00     0.717 A 
ATOM      9  H1  UNL     1      14.361  10.600  14.287  1.00  0.00     0.186 HD
HETATM   10  N2  UNL     1      13.480   9.381  11.511  1.00  0.00    -0.087 N 
HETATM   11  N6  UNL     1      14.982   8.155  12.917  1.00  0.00    -0.086 N 
HETATM   12  C6  UNL     1      12.822  10.561  11.540  1.00  0.00     0.218 A 
HETATM   13  C7  UNL     1      13.532   8.345  10.558  1.00  0.00     0.251 A 
HETATM   14  O3  UNL     1      12.847   8.486   9.496  1.00  0.00    -0.272 OA
HETATM   15  C8  UNL     1      14.330   7.135  10.740  1.00  0.00     0.166 A 
HETATM   16  C9  UNL     1      15.054   7.157  12.036  1.00  0.00     0.089 A 
HETATM   17  C10 UNL     1      15.916   6.199  12.588  1.00  0.00     0.116 A 
HETATM   18  N3  UNL     1      16.264   4.967  11.959  1.00  0.00    -0.096 NA
HETATM   19  C11 UNL     1      16.320   6.693  13.797  1.00  0.00     0.141 A 
HETATM   20  N5  UNL     1      15.746   7.888  13.991  1.00  0.00    -0.263 N 
ATOM     21  H5  UNL     1      15.865   8.488  14.807  1.00  0.00     0.190 HD
BRANCH  12  22
HETATM   22  O2  UNL     1      11.998  10.982  10.515  1.00  0.00    -0.342 OA
ATOM     23  H2  UNL     1      11.264  10.505  10.145  1.00  0.00     0.219 HD
ENDBRANCH  12  22
BRANCH  19  24
HETATM   24  N4  UNL     1      17.137   6.080  14.616  1.00  0.00    -0.383 N 
ATOM     25  H42 UNL     1      17.261   6.276  15.610  1.00  0.00     0.157 HD
ATOM     26  H41 UNL     1      17.759   5.317  14.350  1.00  0.00     0.157 HD
ENDBRANCH  19  24
ENDBRANCH   5   6
ENDBRANCH   3   5
TORSDOF 4
ENDMDL
MODEL 4
REMARK VINA RESULT: -8.460323653      3.392      5.338
REMARK  4 active torsions:
REMARK  status: ('A' for Active; 'I' for Inactive)
REMARK    1  A    between atoms: C3_3  and  O1_5 
REMARK    2  A    between atoms: O1_5  and  C4_6 
REMARK    3  A    between atoms: C6_11  and  O2_12 
REMARK    4  A    between atoms: C11_20  and  N4_21 
ROOT
HETATM    1  C1  UNL     1       9.803  13.466  12.380  1.00  0.00     0.017 C 
HETATM    2  C2  UNL     1      10.724  13.103  13.066  1.00  0.00    -0.052 C 
HETATM    3  C3  UNL     1      11.849  12.634  13.921  1.00  0.00     0.395 C 
HETATM    4  F1  UNL     1      12.315  13.724  14.674  1.00  0.00    -0.205 F 
ENDROOT
BRANCH   3   5
HETATM    5  O1  UNL     1      12.835  12.110  13.108  1.00  0.00    -0.284 OA
BRANCH   5   6
HETATM    6  C4  UNL     1      12.889  10.877  12.500  1.00  0.00     0.213 A 
HETATM    7  N1  UNL     1      13.326   9.722  13.088  1.00  0.00    -0.164 N 
HETATM    8  C5  UNL     1      13.245   8.721  12.220  1.00  0.00     0.717 A 
ATOM      9  H1  UNL     1      13.664   9.642  14.047  1.00  0.00     0.186 HD
HETATM   10  N2  UNL     1      12.763   9.164  11.059  1.00  0.00    -0.087 N 
HETATM   11  N6  UNL     1      13.581   7.324  12.355  1.00  0.00    -0.086 N 
HETATM   12  C6  UNL     1      12.544  10.487  11.228  1.00  0.00     0.218 A 
HETATM   13  C7  UNL     1      12.575   8.301   9.960  1.00  0.00     0.251 A 
HETATM   14  O3  UNL     1      12.111   8.805   8.889  1.00  0.00    -0.272 OA
HETATM   15  C8  UNL     1      12.888   6.876  10.005  1.00  0.00     0.166 A 
HETATM   16  C9  UNL     1      13.416   6.481  11.335  1.00  0.00     0.089 A 
HETATM   17  C10 UNL     1      13.831   5.221  11.788  1.00  0.00     0.116 A 
HETATM   18  N3  UNL     1      13.814   4.033  10.999  1.00  0.00    -0.096 NA
HETATM   19  C11 UNL     1      14.230   5.388  13.086  1.00  0.00     0.141 A 
HETATM   20  N5  UNL     1      14.075   6.675  13.424  1.00  0.00    -0.263 N 
ATOM     21  H5  UNL     1      14.291   7.088  14.331  1.00  0.00     0.190 HD
BRANCH  12  22
HETATM   22  O2  UNL     1      12.040  11.294  10.226  1.00  0.00    -0.342 OA
ATOM     23  H2  UNL     1      12.299  12.187  10.034  1.00  0.00     0.219 HD
ENDBRANCH  12  22
BRANCH  19  24
HETATM   24  N4  UNL     1      14.687   4.430  13.852  1.00  0.00    -0.383 N 
ATOM     25  H42 UNL     1      14.252   3.521  14.012  1.00  0.00     0.157 HD
ATOM     26  H41 UNL     1      15.550   4.482  14.392  1.00  0.00     0.157 HD
ENDBRANCH  19  24
ENDBRANCH   5   6
ENDBRANCH   3   5
TORSDOF 4
ENDMDL
MODEL 5
REMARK VINA RESULT: -8.427521447      2.485      4.574
REMARK  4 active torsions:
REMARK  status: ('A' for Active; 'I' for Inactive)
REMARK    1  A    between atoms: C3_3  and  O1_5 
REMARK    2  A    between atoms: O1_5  and  C4_6 
REMARK    3  A    between atoms: C6_11  and  O2_12 
REMARK    4  A    between atoms: C11_20  and  N4_21 
ROOT
HETATM    1  C1  UNL     1       9.966  13.388  13.138  1.00  0.00     0.017 C 
HETATM    2  C2  UNL     1       9.999  13.056  11.981  1.00  0.00    -0.052 C 
HETATM    3  C3  UNL     1      10.039  12.670  10.543  1.00  0.00     0.395 C 
HETATM    4  F1  UNL     1       9.100  11.646  10.336  1.00  0.00    -0.205 F 
ENDROOT
BRANCH   3   5
HETATM    5  O1  UNL     1      11.321  12.265  10.228  1.00  0.00    -0.284 OA
BRANCH   5   6
HETATM    6  C4  UNL     1      11.901  11.029  10.391  1.00  0.00     0.213 A 
HETATM    7  N1  UNL     1      12.754  10.680  11.402  1.00  0.00    -0.164 N 
HETATM    8  C5  UNL     1      13.125   9.415  11.256  1.00  0.00     0.717 A 
ATOM      9  H1  UNL     1      13.059  11.299  12.153  1.00  0.00     0.186 HD
HETATM   10  N2  UNL     1      12.547   8.892  10.174  1.00  0.00    -0.087 N 
HETATM   11  N6  UNL     1      14.003   8.589  12.052  1.00  0.00    -0.086 N 
HETATM   12  C6  UNL     1      11.795   9.881   9.641  1.00  0.00     0.218 A 
HETATM   13  C7  UNL     1      12.772   7.556   9.789  1.00  0.00     0.251 A 
HETATM   14  O3  UNL     1      12.182   7.138   8.744  1.00  0.00    -0.272 OA
HETATM   15  C8  UNL     1      13.644   6.650  10.531  1.00  0.00     0.166 A 
HETATM   16  C9  UNL     1      14.237   7.321  11.714  1.00  0.00     0.089 A 
HETATM   17  C10 UNL     1      15.118   6.809  12.678  1.00  0.00     0.116 A 
HETATM   18  N3  UNL     1      15.622   5.475  12.684  1.00  0.00    -0.096 NA
HETATM   19  C11 UNL     1      15.365   7.827  13.557  1.00  0.00     0.141 A 
HETATM   20  N5  UNL     1      14.680   8.911  13.168  1.00  0.00    -0.263 N 
ATOM     21  H5  UNL     1      14.673   9.817  13.635  1.00  0.00     0.190 HD
BRANCH  12  22
HETATM   22  O2  UNL     1      11.041   9.711   8.497  1.00  0.00    -0.342 OA
ATOM     23  H2  UNL     1      11.132   9.016   7.856  1.00  0.00     0.219 HD
ENDBRANCH  12  22
BRANCH  19  24
HETATM   24  N4  UNL     1      16.147   7.734  14.602  1.00  0.00    -0.383 N 
ATOM     25  H42 UNL     1      15.940   7.246  15.474  1.00  0.00     0.157 HD
ATOM     26  H41 UNL     1      17.077   8.148  14.669  1.00  0.00     0.157 HD
ENDBRANCH  19  24
ENDBRANCH   5   6
ENDBRANCH   3   5
TORSDOF 4
ENDMDL
