MODEL 1
REMARK VINA RESULT: -8.856634749      0.000      0.000
REMARK  4 active torsions:
REMARK  status: ('A' for Active; 'I' for Inactive)
REMARK    1  A    between atoms: C3_4  and  N2_5 
REMARK    2  A    between atoms: C4_12  and  N6_13 
REMARK    3  A    between atoms: C5_18  and  N8_19 
REMARK    4  A    between atoms: C10_26  and  N10_27 
ROOT
HETATM    1  N1  UNL     1      14.863   9.783  17.345  1.00  0.00    -0.191 NA
HETATM    2  C1  UNL     1      14.434  10.031  16.299  1.00  0.00     0.107 C 
HETATM    3  C2  UNL     1      13.887  10.325  14.989  1.00  0.00     0.135 A 
HETATM    4  C3  UNL     1      14.189   9.515  13.920  1.00  0.00     0.186 A 
HETATM    5  N7  UNL     1      13.657   9.833  12.737  1.00  0.00    -0.172 N 
ATOM      6  H7  UNL     1      13.871   9.242  11.933  1.00  0.00     0.186 HD
HETATM    7  C5  UNL     1      12.841  10.910  12.553  1.00  0.00     0.683 A 
HETATM    8  N9  UNL     1      12.571  11.674  13.617  1.00  0.00    -0.175 N 
ATOM      9  H9  UNL     1      11.961  12.481  13.491  1.00  0.00     0.186 HD
HETATM   10  C10 UNL     1      13.057  11.432  14.835  1.00  0.00     0.139 A 
ENDROOT
BRANCH   4  11
HETATM   11  N2  UNL     1      15.029   8.398  14.083  1.00  0.00    -0.051 N 
HETATM   12  N3  UNL     1      16.166   8.270  14.744  1.00  0.00    -0.205 N 
HETATM   13  N4  UNL     1      16.656   7.061  14.663  1.00  0.00    -0.213 N 
ATOM     14  H3  UNL     1      16.612   9.028  15.260  1.00  0.00     0.211 HD
HETATM   15  N5  UNL     1      15.788   6.381  13.911  1.00  0.00    -0.115 N 
ATOM     16  H4  UNL     1      17.517   6.712  15.084  1.00  0.00     0.210 HD
HETATM   17  C4  UNL     1      14.780   7.192  13.547  1.00  0.00     0.716 A 
ATOM     18  H5  UNL     1      15.876   5.398  13.652  1.00  0.00     0.207 HD
BRANCH  17  19
HETATM   19  N6  UNL     1      13.787   6.815  12.813  1.00  0.00    -0.231 N 
ATOM     20  H62 UNL     1      12.931   7.356  12.699  1.00  0.00     0.174 HD
ATOM     21  H61 UNL     1      13.684   5.968  12.255  1.00  0.00     0.174 HD
ENDBRANCH  17  19
ENDBRANCH   4  11
BRANCH  10  22
HETATM   22  N10 UNL     1      12.775  12.198  15.858  1.00  0.00    -0.384 N 
ATOM     23 2H10 UNL     1      13.493  12.731  16.349  1.00  0.00     0.157 HD
ATOM     24 1H10 UNL     1      11.815  12.280  16.193  1.00  0.00     0.157 HD
ENDBRANCH  10  22
BRANCH   7  25
HETATM   25  N8  UNL     1      12.298  11.212  11.280  1.00  0.00    -0.217 N 
HETATM   26  C6  UNL     1      11.741  12.492  10.914  1.00  0.00     0.141 C 
HETATM   27  C7  UNL     1      11.586  12.495   9.423  1.00  0.00     0.022 C 
HETATM   28  C8  UNL     1      11.456  11.034   9.078  1.00  0.00     0.022 C 
HETATM   29  C9  UNL     1      12.214  10.304  10.164  1.00  0.00     0.141 C 
ENDBRANCH   7  25
TORSDOF 4
ENDMDL
MODEL 2
REMARK VINA RESULT: -8.312361644      2.035      4.263
REMARK  4 active torsions:
REMARK  status: ('A' for Active; 'I' for Inactive)
REMARK    1  A    between atoms: C3_4  and  N2_5 
REMARK    2  A    between atoms: C4_12  and  N6_13 
REMARK    3  A    between atoms: C5_18  and  N8_19 
REMARK    4  A    between atoms: C10_26  and  N10_27 
ROOT
HETATM    1  N1  UNL     1      16.060   5.256  12.974  1.00  0.00    -0.191 NA
HETATM    2  C1  UNL     1      15.544   6.283  13.112  1.00  0.00     0.107 C 
HETATM    3  C2  UNL     1      14.880   7.559  13.291  1.00  0.00     0.135 A 
HETATM    4  C3  UNL     1      13.822   7.903  12.482  1.00  0.00     0.186 A 
HETATM    5  N7  UNL     1      13.248   9.090  12.692  1.00  0.00    -0.172 N 
ATOM      6  H7  UNL     1      12.461   9.361  12.101  1.00  0.00     0.186 HD
HETATM    7  C5  UNL     1      13.664   9.958  13.658  1.00  0.00     0.683 A 
HETATM    8  N9  UNL     1      14.696   9.587  14.423  1.00  0.00    -0.175 N 
ATOM      9  H9  UNL     1      15.015  10.229  15.149  1.00  0.00     0.186 HD
HETATM   10  C10 UNL     1      15.329   8.422  14.286  1.00  0.00     0.139 A 
ENDROOT
BRANCH   4  11
HETATM   11  N2  UNL     1      13.373   7.025  11.478  1.00  0.00    -0.051 N 
HETATM   12  N3  UNL     1      12.403   6.127  11.494  1.00  0.00    -0.205 N 
HETATM   13  N4  UNL     1      12.287   5.499  10.354  1.00  0.00    -0.213 N 
ATOM     14  H3  UNL     1      11.811   5.946  12.305  1.00  0.00     0.211 HD
HETATM   15  N5  UNL     1      13.232   6.020   9.569  1.00  0.00    -0.115 N 
ATOM     16  H4  UNL     1      11.618   4.767  10.117  1.00  0.00     0.210 HD
HETATM   17  C4  UNL     1      13.908   6.962  10.248  1.00  0.00     0.716 A 
ATOM     18  H5  UNL     1      13.412   5.746   8.603  1.00  0.00     0.207 HD
BRANCH  17  19
HETATM   19  N6  UNL     1      14.885   7.643   9.747  1.00  0.00    -0.231 N 
ATOM     20  H62 UNL     1      15.858   7.339   9.775  1.00  0.00     0.174 HD
ATOM     21  H61 UNL     1      14.864   8.543   9.270  1.00  0.00     0.174 HD
ENDBRANCH  17  19
ENDBRANCH   4  11
BRANCH  10  22
HETATM   22  N10 UNL     1      16.337   8.087  15.050  1.00  0.00    -0.384 N 
ATOM     23 2H10 UNL     1      16.283   7.305  15.704  1.00  0.00     0.157 HD
ATOM     24 1H10 UNL     1      17.214   8.607  15.008  1.00  0.00     0.157 HD
ENDBRANCH  10  22
BRANCH   7  25
HETATM   25  N8  UNL     1      13.026  11.209  13.846  1.00  0.00    -0.217 N 
HETATM   26  C6  UNL     1      12.303  11.917  12.817  1.00  0.00     0.141 C 
HETATM   27  C7  UNL     1      11.525  13.004  13.495  1.00  0.00     0.022 C 
HETATM   28  C8  UNL     1      12.312  13.273  14.751  1.00  0.00     0.022 C 
HETATM   29  C9  UNL     1      12.998  11.964  15.073  1.00  0.00     0.141 C 
ENDBRANCH   7  25
TORSDOF 4
ENDMDL
MODEL 3
REMARK VINA RESULT: -8.170470181      1.694      3.822
REMARK  4 active torsions:
REMARK  status: ('A' for Active; 'I' for Inactive)
REMARK    1  A    between atoms: C3_4  and  N2_5 
REMARK    2  A    between atoms: C4_12  and  N6_13 
REMARK    3  A    between atoms: C5_18  and  N8_19 
REMARK    4  A    between atoms: C10_26  and  N10_27 
ROOT
HETATM    1  N1  UNL     1      14.755   4.642  13.268  1.00  0.00    -0.191 NA
HETATM    2  C1  UNL     1      14.306   5.581  12.763  1.00  0.00     0.107 C 
HETATM    3  C2  UNL     1      13.763   6.764  12.125  1.00  0.00     0.135 A 
HETATM    4  C3  UNL     1      14.081   8.013  12.606  1.00  0.00     0.186 A 
HETATM    5  N7  UNL     1      13.553   9.067  11.979  1.00  0.00    -0.172 N 
ATOM      6  H7  UNL     1      13.779  10.000  12.323  1.00  0.00     0.186 HD
HETATM    7  C5  UNL     1      12.724   8.953  10.902  1.00  0.00     0.683 A 
HETATM    8  N9  UNL     1      12.438   7.723  10.464  1.00  0.00    -0.175 N 
ATOM      9  H9  UNL     1      11.820   7.627   9.659  1.00  0.00     0.186 HD
HETATM   10  C10 UNL     1      12.920   6.615  11.027  1.00  0.00     0.139 A 
ENDROOT
BRANCH   4  11
HETATM   11  N2  UNL     1      14.934   8.156  13.716  1.00  0.00    -0.051 N 
HETATM   12  N3  UNL     1      16.080   7.562  14.000  1.00  0.00    -0.205 N 
HETATM   13  N4  UNL     1      16.580   7.964  15.138  1.00  0.00    -0.213 N 
ATOM     14  H3  UNL     1      16.524   6.869  13.398  1.00  0.00     0.211 HD
HETATM   15  N5  UNL     1      15.710   8.860  15.608  1.00  0.00    -0.115 N 
ATOM     16  H4  UNL     1      17.450   7.657  15.574  1.00  0.00     0.210 HD
HETATM   17  C4  UNL     1      14.691   8.988  14.741  1.00  0.00     0.716 A 
ATOM     18  H5  UNL     1      15.804   9.367  16.488  1.00  0.00     0.207 HD
BRANCH  17  19
HETATM   19  N6  UNL     1      13.691   9.785  14.926  1.00  0.00    -0.231 N 
ATOM     20  H62 UNL     1      12.913   9.580  15.552  1.00  0.00     0.174 HD
ATOM     21  H61 UNL     1      13.509  10.698  14.509  1.00  0.00     0.174 HD
ENDBRANCH  17  19
ENDBRANCH   4  11
BRANCH  10  22
HETATM   22  N10 UNL     1      12.622   5.422  10.577  1.00  0.00    -0.384 N 
ATOM     23 2H10 UNL     1      13.229   4.923   9.926  1.00  0.00     0.157 HD
ATOM     24 1H10 UNL     1      11.763   4.958  10.872  1.00  0.00     0.157 HD
ENDBRANCH  10  22
BRANCH   7  25
HETATM   25  N8  UNL     1      12.184  10.099  10.267  1.00  0.00    -0.217 N 
HETATM   26  C6  UNL     1      11.547  10.089   8.972  1.00  0.00     0.141 C 
HETATM   27  C7  UNL     1      10.841  11.401   8.819  1.00  0.00     0.022 C 
HETATM   28  C8  UNL     1      11.614  12.328   9.721  1.00  0.00     0.022 C 
HETATM   29  C9  UNL     1      12.184  11.437  10.802  1.00  0.00     0.141 C 
ENDBRANCH   7  25
TORSDOF 4
ENDMDL
MODEL 4
REMARK VINA RESULT: -8.144373378      2.932      4.997
REMARK  4 active torsions:
REMARK  status: ('A' for Active; 'I' for Inactive)
REMARK    1  A    between atoms: C3_4  and  N2_5 
REMARK    2  A    between atoms: C4_12  and  N6_13 
REMARK    3  A    between atoms: C5_18  and  N8_19 
REMARK    4  A    between atoms: C10_26  and  N10_27 
ROOT
HETATM    1  N1  UNL     1      14.471   3.255  10.774  1.00  0.00    -0.191 NA
HETATM    2  C1  UNL     1      14.007   4.298  10.587  1.00  0.00     0.107 C 
HETATM    3  C2  UNL     1      13.443   5.611  10.344  1.00  0.00     0.135 A 
HETATM    4  C3  UNL     1      13.936   6.706  11.014  1.00  0.00     0.186 A 
HETATM    5  N7  UNL     1      13.379   7.891  10.751  1.00  0.00    -0.172 N 
ATOM      6  H7  UNL     1      13.733   8.714  11.240  1.00  0.00     0.186 HD
HETATM    7  C5  UNL     1      12.359   8.052   9.860  1.00  0.00     0.683 A 
HETATM    8  N9  UNL     1      11.907   6.964   9.228  1.00  0.00    -0.175 N 
ATOM      9  H9  UNL     1      11.145   7.074   8.560  1.00  0.00     0.186 HD
HETATM   10  C10 UNL     1      12.402   5.742   9.428  1.00  0.00     0.139 A 
ENDROOT
BRANCH   4  11
HETATM   11  N2  UNL     1      14.987   6.566  11.939  1.00  0.00    -0.051 N 
HETATM   12  N3  UNL     1      16.240   6.182  11.761  1.00  0.00    -0.205 N 
HETATM   13  N4  UNL     1      16.922   6.179  12.875  1.00  0.00    -0.213 N 
ATOM     14  H3  UNL     1      16.629   5.918  10.857  1.00  0.00     0.211 HD
HETATM   15  N5  UNL     1      16.063   6.580  13.814  1.00  0.00    -0.115 N 
ATOM     16  H4  UNL     1      17.901   5.923  13.001  1.00  0.00     0.210 HD
HETATM   17  C4  UNL     1      14.867   6.823  13.251  1.00  0.00     0.716 A 
ATOM     18  H5  UNL     1      16.280   6.686  14.805  1.00  0.00     0.207 HD
BRANCH  17  19
HETATM   19  N6  UNL     1      13.833   7.226  13.912  1.00  0.00    -0.231 N 
ATOM     20  H62 UNL     1      13.032   6.632  14.125  1.00  0.00     0.174 HD
ATOM     21  H61 UNL     1      13.642   8.144  14.311  1.00  0.00     0.174 HD
ENDBRANCH  17  19
ENDBRANCH   4  11
BRANCH  10  22
HETATM   22  N10 UNL     1      11.940   4.695   8.795  1.00  0.00    -0.384 N 
ATOM     23 2H10 UNL     1      12.552   4.059   8.282  1.00  0.00     0.157 HD
ATOM     24 1H10 UNL     1      10.941   4.486   8.801  1.00  0.00     0.157 HD
ENDBRANCH  10  22
BRANCH   7  25
HETATM   25  N8  UNL     1      11.796   9.329   9.611  1.00  0.00    -0.217 N 
HETATM   26  C6  UNL     1      10.671   9.567   8.740  1.00  0.00     0.141 C 
HETATM   27  C7  UNL     1      10.197  10.963   9.005  1.00  0.00     0.022 C 
HETATM   28  C8  UNL     1      11.425  11.662   9.527  1.00  0.00     0.022 C 
HETATM   29  C9  UNL     1      12.249  10.574  10.178  1.00  0.00     0.141 C 
ENDBRANCH   7  25
TORSDOF 4
ENDMDL
MODEL 5
REMARK VINA RESULT: -8.019244515      1.815      3.118
REMARK  4 active torsions:
REMARK  status: ('A' for Active; 'I' for Inactive)
REMARK    1  A    between atoms: C3_4  and  N2_5 
REMARK    2  A    between atoms: C4_12  and  N6_13 
REMARK    3  A    between atoms: C5_18  and  N8_19 
REMARK    4  A    between atoms: C10_26  and  N10_27 
ROOT
HETATM    1  N1  UNL     1      16.487   7.061  14.014  1.00  0.00    -0.191 NA
HETATM    2  C1  UNL     1      15.706   7.852  13.694  1.00  0.00     0.107 C 
HETATM    3  C2  UNL     1      14.712   8.832  13.299  1.00  0.00     0.135 A 
HETATM    4  C3  UNL     1      13.789   8.523  12.328  1.00  0.00     0.186 A 
HETATM    5  N7  UNL     1      12.898   9.463  12.005  1.00  0.00    -0.172 N 
ATOM      6  H7  UNL     1      12.205   9.250  11.287  1.00  0.00     0.186 HD
HETATM    7  C5  UNL     1      12.869  10.695  12.591  1.00  0.00     0.683 A 
HETATM    8  N9  UNL     1      13.783  10.957  13.531  1.00  0.00    -0.175 N 
ATOM      9  H9  UNL     1      13.771  11.875  13.975  1.00  0.00     0.186 HD
HETATM   10  C10 UNL     1      14.710  10.080  13.917  1.00  0.00     0.139 A 
ENDROOT
BRANCH   4  11
HETATM   11  N2  UNL     1      13.798   7.260  11.709  1.00  0.00    -0.051 N 
HETATM   12  N3  UNL     1      13.254   6.116  12.086  1.00  0.00    -0.205 N 
HETATM   13  N4  UNL     1      13.482   5.151  11.235  1.00  0.00    -0.213 N 
ATOM     14  H3  UNL     1      12.717   5.999  12.945  1.00  0.00     0.211 HD
HETATM   15  N5  UNL     1      14.209   5.705  10.263  1.00  0.00    -0.115 N 
ATOM     16  H4  UNL     1      13.170   4.182  11.300  1.00  0.00     0.210 HD
HETATM   17  C4  UNL     1      14.411   7.005  10.542  1.00  0.00     0.716 A 
ATOM     18  H5  UNL     1      14.558   5.218   9.437  1.00  0.00     0.207 HD
BRANCH  17  19
HETATM   19  N6  UNL     1      15.083   7.803   9.782  1.00  0.00    -0.231 N 
ATOM     20  H62 UNL     1      15.583   8.623  10.125  1.00  0.00     0.174 HD
ATOM     21  H61 UNL     1      15.226   7.765   8.773  1.00  0.00     0.174 HD
ENDBRANCH  17  19
ENDBRANCH   4  11
BRANCH  10  22
HETATM   22  N10 UNL     1      15.593  10.365  14.840  1.00  0.00    -0.384 N 
ATOM     23 2H10 UNL     1      16.368  11.006  14.667  1.00  0.00     0.157 HD
ATOM     24 1H10 UNL     1      15.524   9.947  15.768  1.00  0.00     0.157 HD
ENDBRANCH  10  22
BRANCH   7  25
HETATM   25  N8  UNL     1      11.905  11.664  12.217  1.00  0.00    -0.217 N 
HETATM   26  C6  UNL     1      11.374  11.813  10.884  1.00  0.00     0.141 C 
HETATM   27  C7  UNL     1      10.174  12.704  10.985  1.00  0.00     0.022 C 
HETATM   28  C8  UNL     1      10.443  13.521  12.222  1.00  0.00     0.022 C 
HETATM   29  C9  UNL     1      11.310  12.640  13.094  1.00  0.00     0.141 C 
ENDBRANCH   7  25
TORSDOF 4
ENDMDL
