MODEL 1
REMARK VINA RESULT: -7.695156544      0.000      0.000
REMARK  4 active torsions:
REMARK  status: ('A' for Active; 'I' for Inactive)
REMARK    1  A    between atoms: C2_2  and  C3_8 
REMARK    2  A    between atoms: N1_3  and  N2_5 
REMARK    3  A    between atoms: C4_12  and  N5_13 
REMARK    4  A    between atoms: C5_18  and  N7_19 
ROOT
HETATM    1  C3  UNL     1      14.575   7.676  13.011  1.00  0.00     0.141 A 
HETATM    2  N3  UNL     1      14.657   8.167  14.240  1.00  0.00    -0.271 N 
ATOM      3  H3  UNL     1      15.122   7.635  14.976  1.00  0.00     0.188 HD
HETATM    4  N4  UNL     1      14.131   9.354  14.502  1.00  0.00    -0.067 N 
HETATM    5  C4  UNL     1      14.258   9.782  15.778  1.00  0.00     0.700 A 
HETATM    6  N6  UNL     1      13.751  10.973  16.124  1.00  0.00    -0.174 N 
ATOM      7  H6  UNL     1      13.847  11.294  17.087  1.00  0.00     0.186 HD
HETATM    8  C5  UNL     1      13.122  11.756  15.233  1.00  0.00     0.140 A 
HETATM    9  C6  UNL     1      12.994  11.313  13.920  1.00  0.00     0.124 A 
HETATM   10 CL1  UNL     1      12.176  12.322  12.755  1.00  0.00    -0.076 Cl
HETATM   11  C7  UNL     1      13.502  10.097  13.542  1.00  0.00     0.175 A 
HETATM   12  N8  UNL     1      13.393   9.645  12.282  1.00  0.00    -0.299 N 
HETATM   13  C8  UNL     1      12.748  10.393  11.267  1.00  0.00     0.161 C 
HETATM   14  C9  UNL     1      13.949   8.411  12.044  1.00  0.00     0.279 A 
HETATM   15  O1  UNL     1      13.854   7.963  10.843  1.00  0.00    -0.265 OA
ENDROOT
BRANCH   1  16
HETATM   16  C2  UNL     1      15.150   6.377  12.722  1.00  0.00     0.055 C 
HETATM   17  C1  UNL     1      14.531   5.145  13.243  1.00  0.00     0.072 C 
HETATM   18  N1  UNL     1      16.200   6.311  12.009  1.00  0.00    -0.309 N 
ATOM     19  H1  UNL     1      16.580   7.198  11.678  1.00  0.00     0.186 HD
BRANCH  18  20
HETATM   20  N2  UNL     1      16.878   5.174  11.636  1.00  0.00    -0.345 N 
ATOM     21  H22 UNL     1      16.468   4.297  11.956  1.00  0.00     0.176 HD
ATOM     22  H21 UNL     1      17.733   5.123  11.081  1.00  0.00     0.176 HD
ENDBRANCH  18  20
ENDBRANCH   1  16
BRANCH   5  23
HETATM   23  N5  UNL     1      14.863   9.043  16.660  1.00  0.00    -0.233 N 
ATOM     24  H52 UNL     1      15.202   9.452  17.531  1.00  0.00     0.174 HD
ATOM     25  H51 UNL     1      15.002   8.048  16.487  1.00  0.00     0.174 HD
ENDBRANCH   5  23
BRANCH   8  26
HETATM   26  N7  UNL     1      12.633  12.889  15.534  1.00  0.00    -0.384 N 
ATOM     27  H72 UNL     1      12.931  13.325  16.407  1.00  0.00     0.157 HD
ATOM     28  H71 UNL     1      11.961  13.378  14.942  1.00  0.00     0.157 HD
ENDBRANCH   8  26
TORSDOF 4
ENDMDL
MODEL 2
REMARK VINA RESULT: -7.606617701      0.960      1.024
REMARK  4 active torsions:
REMARK  status: ('A' for Active; 'I' for Inactive)
REMARK    1  A    between atoms: C2_2  and  C3_8 
REMARK    2  A    between atoms: N1_3  and  N2_5 
REMARK    3  A    between atoms: C4_12  and  N5_13 
REMARK    4  A    between atoms: C5_18  and  N7_19 
ROOT
HETATM    1  C3  UNL     1      14.276   7.734  13.063  1.00  0.00     0.141 A 
HETATM    2  N3  UNL     1      14.381   8.223  14.291  1.00  0.00    -0.271 N 
ATOM      3  H3  UNL     1      14.813   7.669  15.030  1.00  0.00     0.188 HD
HETATM    4  N4  UNL     1      13.921   9.438  14.547  1.00  0.00    -0.067 N 
HETATM    5  C4  UNL     1      14.067   9.863  15.823  1.00  0.00     0.700 A 
HETATM    6  N6  UNL     1      13.626  11.081  16.164  1.00  0.00    -0.174 N 
ATOM      7  H6  UNL     1      13.736  11.399  17.127  1.00  0.00     0.186 HD
HETATM    8  C5  UNL     1      13.044  11.894  15.269  1.00  0.00     0.140 A 
HETATM    9  C6  UNL     1      12.895  11.455  13.957  1.00  0.00     0.124 A 
HETATM   10 CL1  UNL     1      12.138  12.504  12.787  1.00  0.00    -0.076 Cl
HETATM   11  C7  UNL     1      13.336  10.212  13.584  1.00  0.00     0.175 A 
HETATM   12  N8  UNL     1      13.206   9.763  12.324  1.00  0.00    -0.299 N 
HETATM   13  C8  UNL     1      12.606  10.543  11.306  1.00  0.00     0.161 C 
HETATM   14  C9  UNL     1      13.694   8.499  12.092  1.00  0.00     0.279 A 
HETATM   15  O1  UNL     1      13.578   8.054  10.892  1.00  0.00    -0.265 OA
ENDROOT
BRANCH   1  16
HETATM   16  C2  UNL     1      14.779   6.404  12.779  1.00  0.00     0.055 C 
HETATM   17  C1  UNL     1      16.227   6.157  12.651  1.00  0.00     0.072 C 
HETATM   18  N1  UNL     1      13.954   5.448  12.642  1.00  0.00    -0.309 N 
ATOM     19  H1  UNL     1      12.967   5.682  12.743  1.00  0.00     0.186 HD
BRANCH  18  20
HETATM   20  N2  UNL     1      14.249   4.132  12.373  1.00  0.00    -0.345 N 
ATOM     21  H22 UNL     1      13.700   3.447  12.892  1.00  0.00     0.176 HD
ATOM     22  H21 UNL     1      14.948   3.780  11.718  1.00  0.00     0.176 HD
ENDBRANCH  18  20
ENDBRANCH   1  16
BRANCH   5  23
HETATM   23  N5  UNL     1      14.628   9.094  16.709  1.00  0.00    -0.233 N 
ATOM     24  H52 UNL     1      14.553   8.080  16.634  1.00  0.00     0.174 HD
ATOM     25  H51 UNL     1      15.148   9.501  17.486  1.00  0.00     0.174 HD
ENDBRANCH   5  23
BRANCH   8  26
HETATM   26  N7  UNL     1      12.617  13.054  15.565  1.00  0.00    -0.384 N 
ATOM     27  H72 UNL     1      11.666  13.302  15.289  1.00  0.00     0.157 HD
ATOM     28  H71 UNL     1      13.181  13.742  16.065  1.00  0.00     0.157 HD
ENDBRANCH   8  26
TORSDOF 4
ENDMDL
MODEL 3
REMARK VINA RESULT: -7.554286540      2.777      5.432
REMARK  4 active torsions:
REMARK  status: ('A' for Active; 'I' for Inactive)
REMARK    1  A    between atoms: C2_2  and  C3_8 
REMARK    2  A    between atoms: N1_3  and  N2_5 
REMARK    3  A    between atoms: C4_12  and  N5_13 
REMARK    4  A    between atoms: C5_18  and  N7_19 
ROOT
HETATM    1  C3  UNL     1      12.095  11.413  11.569  1.00  0.00     0.141 A 
HETATM    2  N3  UNL     1      12.899  10.372  11.405  1.00  0.00    -0.271 N 
ATOM      3  H3  UNL     1      12.930   9.881  10.512  1.00  0.00     0.188 HD
HETATM    4  N4  UNL     1      13.662   9.976  12.413  1.00  0.00    -0.067 N 
HETATM    5  C4  UNL     1      14.454   8.908  12.164  1.00  0.00     0.700 A 
HETATM    6  N6  UNL     1      15.255   8.446  13.133  1.00  0.00    -0.174 N 
ATOM      7  H6  UNL     1      15.850   7.639  12.944  1.00  0.00     0.186 HD
HETATM    8  C5  UNL     1      15.296   9.018  14.346  1.00  0.00     0.140 A 
HETATM    9  C6  UNL     1      14.481  10.119  14.599  1.00  0.00     0.124 A 
HETATM   10 CL1  UNL     1      14.526  10.869  16.173  1.00  0.00    -0.076 Cl
HETATM   11  C7  UNL     1      13.651  10.609  13.625  1.00  0.00     0.175 A 
HETATM   12  N8  UNL     1      12.855  11.669  13.841  1.00  0.00    -0.299 N 
HETATM   13  C8  UNL     1      12.823  12.344  15.085  1.00  0.00     0.161 C 
HETATM   14  C9  UNL     1      12.076  12.054  12.775  1.00  0.00     0.279 A 
HETATM   15  O1  UNL     1      11.308  13.066  12.965  1.00  0.00    -0.265 OA
ENDROOT
BRANCH   1  16
HETATM   16  C2  UNL     1      11.258  11.848  10.467  1.00  0.00     0.055 C 
HETATM   17  C1  UNL     1      11.831  12.602   9.337  1.00  0.00     0.072 C 
HETATM   18  N1  UNL     1      10.019  11.571  10.487  1.00  0.00    -0.309 N 
ATOM     19  H1  UNL     1       9.683  11.048  11.295  1.00  0.00     0.186 HD
BRANCH  18  20
HETATM   20  N2  UNL     1       9.081  11.901   9.536  1.00  0.00    -0.345 N 
ATOM     21  H22 UNL     1       8.940  12.900   9.390  1.00  0.00     0.176 HD
ATOM     22  H21 UNL     1       8.524  11.257   8.973  1.00  0.00     0.176 HD
ENDBRANCH  18  20
ENDBRANCH   1  16
BRANCH   5  23
HETATM   23  N5  UNL     1      14.433   8.335  10.997  1.00  0.00    -0.233 N 
ATOM     24  H52 UNL     1      13.640   8.468  10.371  1.00  0.00     0.174 HD
ATOM     25  H51 UNL     1      15.213   7.749  10.700  1.00  0.00     0.174 HD
ENDBRANCH   5  23
BRANCH   8  26
HETATM   26  N7  UNL     1      16.047   8.601  15.282  1.00  0.00    -0.384 N 
ATOM     27  H72 UNL     1      17.027   8.417  15.067  1.00  0.00     0.157 HD
ATOM     28  H71 UNL     1      15.712   8.444  16.233  1.00  0.00     0.157 HD
ENDBRANCH   8  26
TORSDOF 4
ENDMDL
MODEL 4
REMARK VINA RESULT: -7.478419198      2.583      4.898
REMARK  4 active torsions:
REMARK  status: ('A' for Active; 'I' for Inactive)
REMARK    1  A    between atoms: C2_2  and  C3_8 
REMARK    2  A    between atoms: N1_3  and  N2_5 
REMARK    3  A    between atoms: C4_12  and  N5_13 
REMARK    4  A    between atoms: C5_18  and  N7_19 
ROOT
HETATM    1  C3  UNL     1      12.314  10.517  10.740  1.00  0.00     0.141 A 
HETATM    2  N3  UNL     1      12.532  11.078  11.921  1.00  0.00    -0.271 N 
ATOM      3  H3  UNL     1      12.078  11.958  12.165  1.00  0.00     0.188 HD
HETATM    4  N4  UNL     1      13.345  10.484  12.782  1.00  0.00    -0.067 N 
HETATM    5  C4  UNL     1      13.514  11.120  13.963  1.00  0.00     0.700 A 
HETATM    6  N6  UNL     1      14.322  10.584  14.888  1.00  0.00    -0.174 N 
ATOM      7  H6  UNL     1      14.449  11.066  15.778  1.00  0.00     0.186 HD
HETATM    8  C5  UNL     1      14.967   9.427  14.672  1.00  0.00     0.140 A 
HETATM    9  C6  UNL     1      14.791   8.774  13.456  1.00  0.00     0.124 A 
HETATM   10 CL1  UNL     1      15.628   7.271  13.166  1.00  0.00    -0.076 Cl
HETATM   11  C7  UNL     1      13.971   9.303  12.493  1.00  0.00     0.175 A 
HETATM   12  N8  UNL     1      13.783   8.694  11.311  1.00  0.00    -0.299 N 
HETATM   13  C8  UNL     1      14.418   7.471  10.985  1.00  0.00     0.161 C 
HETATM   14  C9  UNL     1      12.934   9.337  10.441  1.00  0.00     0.279 A 
HETATM   15  O1  UNL     1      12.742   8.768   9.305  1.00  0.00    -0.265 OA
ENDROOT
BRANCH   1  16
HETATM   16  C2  UNL     1      11.424  11.165   9.796  1.00  0.00     0.055 C 
HETATM   17  C1  UNL     1      11.674  12.548   9.351  1.00  0.00     0.072 C 
HETATM   18  N1  UNL     1      10.421  10.524   9.353  1.00  0.00    -0.309 N 
ATOM     19  H1  UNL     1      10.303   9.572   9.698  1.00  0.00     0.186 HD
BRANCH  18  20
HETATM   20  N2  UNL     1       9.479  10.975   8.459  1.00  0.00    -0.345 N 
ATOM     21  H22 UNL     1       8.847  10.262   8.094  1.00  0.00     0.176 HD
ATOM     22  H21 UNL     1       9.351  11.933   8.130  1.00  0.00     0.176 HD
ENDBRANCH  18  20
ENDBRANCH   1  16
BRANCH   5  23
HETATM   23  N5  UNL     1      12.899  12.242  14.197  1.00  0.00    -0.233 N 
ATOM     24  H52 UNL     1      12.061  12.490  13.673  1.00  0.00     0.174 HD
ATOM     25  H51 UNL     1      13.252  12.882  14.909  1.00  0.00     0.174 HD
ENDBRANCH   5  23
BRANCH   8  26
HETATM   26  N7  UNL     1      15.739   8.897  15.531  1.00  0.00    -0.384 N 
ATOM     27  H72 UNL     1      15.714   7.882  15.638  1.00  0.00     0.157 HD
ATOM     28  H71 UNL     1      16.377   9.439  16.114  1.00  0.00     0.157 HD
ENDBRANCH   8  26
TORSDOF 4
ENDMDL
MODEL 5
REMARK VINA RESULT: -7.441315166      2.421      4.913
REMARK  4 active torsions:
REMARK  status: ('A' for Active; 'I' for Inactive)
REMARK    1  A    between atoms: C2_2  and  C3_8 
REMARK    2  A    between atoms: N1_3  and  N2_5 
REMARK    3  A    between atoms: C4_12  and  N5_13 
REMARK    4  A    between atoms: C5_18  and  N7_19 
ROOT
HETATM    1  C3  UNL     1      14.179   9.212  14.154  1.00  0.00     0.141 A 
HETATM    2  N3  UNL     1      14.176   7.907  13.924  1.00  0.00    -0.271 N 
ATOM      3  H3  UNL     1      14.529   7.260  14.629  1.00  0.00     0.188 HD
HETATM    4  N4  UNL     1      13.710   7.452  12.771  1.00  0.00    -0.067 N 
HETATM    5  C4  UNL     1      13.742   6.109  12.615  1.00  0.00     0.700 A 
HETATM    6  N6  UNL     1      13.289   5.570  11.475  1.00  0.00    -0.174 N 
ATOM      7  H6  UNL     1      13.315   4.557  11.359  1.00  0.00     0.186 HD
HETATM    8  C5  UNL     1      12.801   6.330  10.483  1.00  0.00     0.140 A 
HETATM    9  C6  UNL     1      12.768   7.712  10.646  1.00  0.00     0.124 A 
HETATM   10 CL1  UNL     1      12.137   8.708   9.361  1.00  0.00    -0.076 Cl
HETATM   11  C7  UNL     1      13.227   8.288  11.802  1.00  0.00     0.175 A 
HETATM   12  N8  UNL     1      13.208   9.618  11.987  1.00  0.00    -0.299 N 
HETATM   13  C8  UNL     1      12.713  10.507  11.002  1.00  0.00     0.161 C 
HETATM   14  C9  UNL     1      13.698  10.057  13.194  1.00  0.00     0.279 A 
HETATM   15  O1  UNL     1      13.687  11.327  13.388  1.00  0.00    -0.265 OA
ENDROOT
BRANCH   1  16
HETATM   16  C2  UNL     1      14.688   9.714  15.416  1.00  0.00     0.055 C 
HETATM   17  C1  UNL     1      13.838   9.729  16.621  1.00  0.00     0.072 C 
HETATM   18  N1  UNL     1      15.883  10.141  15.474  1.00  0.00    -0.309 N 
ATOM     19  H1  UNL     1      16.421  10.104  14.608  1.00  0.00     0.186 HD
BRANCH  18  20
HETATM   20  N2  UNL     1      16.530  10.648  16.577  1.00  0.00    -0.345 N 
ATOM     21  H22 UNL     1      16.396  11.646  16.740  1.00  0.00     0.176 HD
ATOM     22  H21 UNL     1      17.118  10.136  17.234  1.00  0.00     0.176 HD
ENDBRANCH  18  20
ENDBRANCH   1  16
BRANCH   5  23
HETATM   23  N5  UNL     1      14.211   5.351  13.561  1.00  0.00    -0.233 N 
ATOM     24  H52 UNL     1      14.459   5.749  14.466  1.00  0.00     0.174 HD
ATOM     25  H51 UNL     1      14.331   4.350  13.405  1.00  0.00     0.174 HD
ENDBRANCH   5  23
BRANCH   8  26
HETATM   26  N7  UNL     1      12.364   5.845   9.392  1.00  0.00    -0.384 N 
ATOM     27  H72 UNL     1      12.982   5.235   8.856  1.00  0.00     0.157 HD
ATOM     28  H71 UNL     1      11.429   6.039   9.034  1.00  0.00     0.157 HD
ENDBRANCH   8  26
TORSDOF 4
ENDMDL
