MODEL 1
REMARK VINA RESULT: -8.247465594      0.000      0.000
REMARK  4 active torsions:
REMARK  status: ('A' for Active; 'I' for Inactive)
REMARK    1  A    between atoms: C2_2  and  C3_3 
REMARK       I    between atoms: C3_3  and  N1_5 
REMARK    2  A    between atoms: N1_5  and  O2_7 
REMARK    3  A    between atoms: O2_7  and  C4_8 
REMARK       I    between atoms: C4_8  and  N2_10 
REMARK    4  A    between atoms: C7_20  and  N6_21 
ROOT
HETATM    1  C4  UNL     1      47.614  46.384   7.544  1.00  0.00     0.411 C 
HETATM    2  O3  UNL     1      48.452  45.998   8.394  1.00  0.00    -0.234 OA
HETATM    3  N2  UNL     1      47.652  45.895   6.209  1.00  0.00    -0.164 N 
HETATM    4  N3  UNL     1      46.813  46.236   5.231  1.00  0.00    -0.229 N 
ATOM      5  H3  UNL     1      46.040  46.893   5.336  1.00  0.00     0.209 HD
HETATM    6  N4  UNL     1      47.115  45.611   4.110  1.00  0.00    -0.277 N 
ATOM      7  H4  UNL     1      46.632  45.696   3.216  1.00  0.00     0.189 HD
HETATM    8  C5  UNL     1      48.182  44.843   4.374  1.00  0.00     0.165 A 
HETATM    9  C6  UNL     1      48.948  43.977   3.637  1.00  0.00     0.291 A 
HETATM   10  O4  UNL     1      48.656  43.795   2.412  1.00  0.00    -0.265 OA
HETATM   11  N5  UNL     1      49.980  43.329   4.171  1.00  0.00    -0.154 N 
ATOM     12  H5  UNL     1      50.525  42.692   3.590  1.00  0.00     0.187 HD
HETATM   13  C7  UNL     1      50.319  43.496   5.462  1.00  0.00     0.680 A 
HETATM   14  N7  UNL     1      49.570  44.350   6.207  1.00  0.00    -0.172 N 
ATOM     15  H7  UNL     1      49.817  44.485   7.187  1.00  0.00     0.186 HD
HETATM   16  C8  UNL     1      48.519  45.027   5.712  1.00  0.00     0.183 A 
ENDROOT
BRANCH   1  17
HETATM   17  O2  UNL     1      46.667  47.300   7.976  1.00  0.00    -0.177 OA
BRANCH  17  18
HETATM   18  N1  UNL     1      46.984  48.220   8.938  1.00  0.00    -0.224 N 
HETATM   19  C3  UNL     1      46.323  49.478   9.023  1.00  0.00     0.241 C 
HETATM   20  O1  UNL     1      45.429  49.775   8.218  1.00  0.00    -0.271 OA
ATOM     21  H1  UNL     1      47.715  47.999   9.615  1.00  0.00     0.198 HD
BRANCH  19  22
HETATM   22  C2  UNL     1      46.728  50.418  10.094  1.00  0.00     0.100 C 
HETATM   23  C1  UNL     1      47.752  49.744  10.986  1.00  0.00     0.014 C 
ENDBRANCH  19  22
ENDBRANCH  17  18
ENDBRANCH   1  17
BRANCH  13  24
HETATM   24  N6  UNL     1      51.317  42.851   5.927  1.00  0.00    -0.234 N 
ATOM     25  H62 UNL     1      51.820  42.139   5.397  1.00  0.00     0.174 HD
ATOM     26  H61 UNL     1      51.635  43.051   6.875  1.00  0.00     0.174 HD
ENDBRANCH  13  24
TORSDOF 4
ENDMDL
MODEL 2
REMARK VINA RESULT: -8.054212824      3.974      4.901
REMARK  4 active torsions:
REMARK  status: ('A' for Active; 'I' for Inactive)
REMARK    1  A    between atoms: C2_2  and  C3_3 
REMARK       I    between atoms: C3_3  and  N1_5 
REMARK    2  A    between atoms: N1_5  and  O2_7 
REMARK    3  A    between atoms: O2_7  and  C4_8 
REMARK       I    between atoms: C4_8  and  N2_10 
REMARK    4  A    between atoms: C7_20  and  N6_21 
ROOT
HETATM    1  C4  UNL     1      49.107  47.168  10.878  1.00  0.00     0.411 C 
HETATM    2  O3  UNL     1      49.665  47.755  11.836  1.00  0.00    -0.234 OA
HETATM    3  N2  UNL     1      49.877  46.547   9.856  1.00  0.00    -0.164 N 
HETATM    4  N3  UNL     1      49.389  45.899   8.799  1.00  0.00    -0.229 N 
ATOM      5  H3  UNL     1      48.394  45.773   8.607  1.00  0.00     0.209 HD
HETATM    6  N4  UNL     1      50.361  45.441   8.034  1.00  0.00    -0.277 N 
ATOM      7  H4  UNL     1      50.258  44.912   7.168  1.00  0.00     0.189 HD
HETATM    8  C5  UNL     1      51.511  45.805   8.618  1.00  0.00     0.165 A 
HETATM    9  C6  UNL     1      52.838  45.633   8.316  1.00  0.00     0.291 A 
HETATM   10  O4  UNL     1      53.146  44.992   7.261  1.00  0.00    -0.265 OA
HETATM   11  N5  UNL     1      53.801  46.116   9.097  1.00  0.00    -0.154 N 
ATOM     12  H5  UNL     1      54.776  45.966   8.839  1.00  0.00     0.187 HD
HETATM   13  C7  UNL     1      53.515  46.798  10.220  1.00  0.00     0.680 A 
HETATM   14  N7  UNL     1      52.205  46.978  10.534  1.00  0.00    -0.172 N 
ATOM     15  H7  UNL     1      51.975  47.493  11.384  1.00  0.00     0.186 HD
HETATM   16  C8  UNL     1      51.198  46.509   9.777  1.00  0.00     0.183 A 
ENDROOT
BRANCH   1  17
HETATM   17  O2  UNL     1      47.721  47.161  10.875  1.00  0.00    -0.177 OA
BRANCH  17  18
HETATM   18  N1  UNL     1      47.026  48.250  10.421  1.00  0.00    -0.224 N 
HETATM   19  C3  UNL     1      46.561  48.338   9.079  1.00  0.00     0.241 C 
HETATM   20  O1  UNL     1      46.774  47.418   8.276  1.00  0.00    -0.271 OA
ATOM     21  H1  UNL     1      46.835  49.020  11.063  1.00  0.00     0.198 HD
BRANCH  19  22
HETATM   22  C2  UNL     1      45.818  49.552   8.668  1.00  0.00     0.100 C 
HETATM   23  C1  UNL     1      45.421  49.423   7.210  1.00  0.00     0.014 C 
ENDBRANCH  19  22
ENDBRANCH  17  18
ENDBRANCH   1  17
BRANCH  13  24
HETATM   24  N6  UNL     1      54.473  47.241  10.936  1.00  0.00    -0.234 N 
ATOM     25  H62 UNL     1      55.351  47.584  10.545  1.00  0.00     0.174 HD
ATOM     26  H61 UNL     1      54.365  47.258  11.950  1.00  0.00     0.174 HD
ENDBRANCH  13  24
TORSDOF 4
ENDMDL
MODEL 3
REMARK VINA RESULT: -8.047662916      1.900      2.752
REMARK  4 active torsions:
REMARK  status: ('A' for Active; 'I' for Inactive)
REMARK    1  A    between atoms: C2_2  and  C3_3 
REMARK       I    between atoms: C3_3  and  N1_5 
REMARK    2  A    between atoms: N1_5  and  O2_7 
REMARK    3  A    between atoms: O2_7  and  C4_8 
REMARK       I    between atoms: C4_8  and  N2_10 
REMARK    4  A    between atoms: C7_20  and  N6_21 
ROOT
HETATM    1  C4  UNL     1      45.714  47.157   5.542  1.00  0.00     0.411 C 
HETATM    2  O3  UNL     1      45.500  47.167   4.307  1.00  0.00    -0.234 OA
HETATM    3  N2  UNL     1      46.798  46.414   6.087  1.00  0.00    -0.164 N 
HETATM    4  N3  UNL     1      47.116  46.335   7.379  1.00  0.00    -0.229 N 
ATOM      5  H3  UNL     1      46.610  46.807   8.129  1.00  0.00     0.209 HD
HETATM    6  N4  UNL     1      48.171  45.565   7.561  1.00  0.00    -0.277 N 
ATOM      7  H4  UNL     1      48.616  45.341   8.450  1.00  0.00     0.189 HD
HETATM    8  C5  UNL     1      48.545  45.136   6.347  1.00  0.00     0.165 A 
HETATM    9  C6  UNL     1      49.549  44.324   5.883  1.00  0.00     0.291 A 
HETATM   10  O4  UNL     1      50.361  43.818   6.721  1.00  0.00    -0.265 OA
HETATM   11  N5  UNL     1      49.690  44.060   4.586  1.00  0.00    -0.154 N 
ATOM     12  H5  UNL     1      50.450  43.452   4.281  1.00  0.00     0.187 HD
HETATM   13  C7  UNL     1      48.851  44.577   3.671  1.00  0.00     0.680 A 
HETATM   14  N7  UNL     1      47.851  45.383   4.114  1.00  0.00    -0.172 N 
ATOM     15  H7  UNL     1      47.209  45.781   3.430  1.00  0.00     0.186 HD
HETATM   16  C8  UNL     1      47.669  45.679   5.413  1.00  0.00     0.183 A 
ENDROOT
BRANCH   1  17
HETATM   17  O2  UNL     1      44.847  47.897   6.331  1.00  0.00    -0.177 OA
BRANCH  17  18
HETATM   18  N1  UNL     1      45.269  49.061   6.916  1.00  0.00    -0.224 N 
HETATM   19  C3  UNL     1      45.530  49.147   8.313  1.00  0.00     0.241 C 
HETATM   20  O1  UNL     1      45.384  48.157   9.044  1.00  0.00    -0.271 OA
ATOM     21  H1  UNL     1      45.400  49.889   6.336  1.00  0.00     0.198 HD
BRANCH  19  22
HETATM   22  C2  UNL     1      45.982  50.445   8.867  1.00  0.00     0.100 C 
HETATM   23  C1  UNL     1      46.837  50.192  10.092  1.00  0.00     0.014 C 
ENDBRANCH  19  22
ENDBRANCH  17  18
ENDBRANCH   1  17
BRANCH  13  24
HETATM   24  N6  UNL     1      49.029  44.293   2.440  1.00  0.00    -0.234 N 
ATOM     25  H62 UNL     1      48.698  43.429   2.011  1.00  0.00     0.174 HD
ATOM     26  H61 UNL     1      49.524  44.959   1.847  1.00  0.00     0.174 HD
ENDBRANCH  13  24
TORSDOF 4
ENDMDL
MODEL 4
REMARK VINA RESULT: -8.015817758      1.595      1.786
REMARK  4 active torsions:
REMARK  status: ('A' for Active; 'I' for Inactive)
REMARK    1  A    between atoms: C2_2  and  C3_3 
REMARK       I    between atoms: C3_3  and  N1_5 
REMARK    2  A    between atoms: N1_5  and  O2_7 
REMARK    3  A    between atoms: O2_7  and  C4_8 
REMARK       I    between atoms: C4_8  and  N2_10 
REMARK    4  A    between atoms: C7_20  and  N6_21 
ROOT
HETATM    1  C4  UNL     1      48.344  46.704   9.325  1.00  0.00     0.411 C 
HETATM    2  O3  UNL     1      49.469  46.612   9.870  1.00  0.00    -0.234 OA
HETATM    3  N2  UNL     1      48.167  46.360   7.956  1.00  0.00    -0.164 N 
HETATM    4  N3  UNL     1      47.020  46.420   7.280  1.00  0.00    -0.229 N 
ATOM      5  H3  UNL     1      46.130  46.722   7.678  1.00  0.00     0.209 HD
HETATM    6  N4  UNL     1      47.187  46.038   6.030  1.00  0.00    -0.277 N 
ATOM      7  H4  UNL     1      46.471  45.991   5.305  1.00  0.00     0.189 HD
HETATM    8  C5  UNL     1      48.483  45.721   5.896  1.00  0.00     0.165 A 
HETATM    9  C6  UNL     1      49.259  45.267   4.859  1.00  0.00     0.291 A 
HETATM   10  O4  UNL     1      48.712  45.072   3.728  1.00  0.00    -0.265 OA
HETATM   11  N5  UNL     1      50.559  45.029   5.012  1.00  0.00    -0.154 N 
ATOM     12  H5  UNL     1      51.102  44.691   4.218  1.00  0.00     0.187 HD
HETATM   13  C7  UNL     1      51.172  45.224   6.194  1.00  0.00     0.680 A 
HETATM   14  N7  UNL     1      50.418  45.673   7.231  1.00  0.00    -0.172 N 
ATOM     15  H7  UNL     1      50.871  45.824   8.132  1.00  0.00     0.186 HD
HETATM   16  C8  UNL     1      49.102  45.928   7.125  1.00  0.00     0.183 A 
ENDROOT
BRANCH   1  17
HETATM   17  O2  UNL     1      47.302  47.156  10.120  1.00  0.00    -0.177 OA
BRANCH  17  18
HETATM   18  N1  UNL     1      47.206  48.482  10.446  1.00  0.00    -0.224 N 
HETATM   19  C3  UNL     1      46.652  49.438   9.550  1.00  0.00     0.241 C 
HETATM   20  O1  UNL     1      46.234  49.089   8.436  1.00  0.00    -0.271 OA
ATOM     21  H1  UNL     1      47.540  48.794  11.358  1.00  0.00     0.198 HD
BRANCH  19  22
HETATM   22  C2  UNL     1      46.587  50.854   9.980  1.00  0.00     0.100 C 
HETATM   23  C1  UNL     1      47.475  51.047  11.192  1.00  0.00     0.014 C 
ENDBRANCH  19  22
ENDBRANCH  17  18
ENDBRANCH   1  17
BRANCH  13  24
HETATM   24  N6  UNL     1      52.420  44.980   6.289  1.00  0.00    -0.234 N 
ATOM     25  H62 UNL     1      53.139  45.700   6.210  1.00  0.00     0.174 HD
ATOM     26  H61 UNL     1      52.725  44.021   6.456  1.00  0.00     0.174 HD
ENDBRANCH  13  24
TORSDOF 4
ENDMDL
MODEL 5
REMARK VINA RESULT: -8.012316157      1.999      2.988
REMARK  4 active torsions:
REMARK  status: ('A' for Active; 'I' for Inactive)
REMARK    1  A    between atoms: C2_2  and  C3_3 
REMARK       I    between atoms: C3_3  and  N1_5 
REMARK    2  A    between atoms: N1_5  and  O2_7 
REMARK    3  A    between atoms: O2_7  and  C4_8 
REMARK       I    between atoms: C4_8  and  N2_10 
REMARK    4  A    between atoms: C7_20  and  N6_21 
ROOT
HETATM    1  C4  UNL     1      46.719  47.001   7.827  1.00  0.00     0.411 C 
HETATM    2  O3  UNL     1      46.050  47.169   6.780  1.00  0.00    -0.234 OA
HETATM    3  N2  UNL     1      47.998  46.379   7.783  1.00  0.00    -0.164 N 
HETATM    4  N3  UNL     1      48.790  46.152   8.830  1.00  0.00    -0.229 N 
ATOM      5  H3  UNL     1      48.563  46.406   9.792  1.00  0.00     0.209 HD
HETATM    6  N4  UNL     1      49.906  45.556   8.459  1.00  0.00    -0.277 N 
ATOM      7  H4  UNL     1      50.677  45.274   9.064  1.00  0.00     0.189 HD
HETATM    8  C5  UNL     1      49.830  45.395   7.130  1.00  0.00     0.165 A 
HETATM    9  C6  UNL     1      50.658  44.851   6.180  1.00  0.00     0.291 A 
HETATM   10  O4  UNL     1      51.774  44.366   6.548  1.00  0.00    -0.265 OA
HETATM   11  N5  UNL     1      50.319  44.823   4.893  1.00  0.00    -0.154 N 
ATOM     12  H5  UNL     1      50.962  44.411   4.217  1.00  0.00     0.187 HD
HETATM   13  C7  UNL     1      49.147  45.327   4.466  1.00  0.00     0.680 A 
HETATM   14  N7  UNL     1      48.316  45.869   5.395  1.00  0.00    -0.172 N 
ATOM     15  H7  UNL     1      47.425  46.254   5.084  1.00  0.00     0.186 HD
HETATM   16  C8  UNL     1      48.614  45.920   6.705  1.00  0.00     0.183 A 
ENDROOT
BRANCH   1  17
HETATM   17  O2  UNL     1      46.149  47.448   9.010  1.00  0.00    -0.177 OA
BRANCH  17  18
HETATM   18  N1  UNL     1      46.497  48.666   9.528  1.00  0.00    -0.224 N 
HETATM   19  C3  UNL     1      47.383  48.787  10.635  1.00  0.00     0.241 C 
HETATM   20  O1  UNL     1      47.870  47.778  11.164  1.00  0.00    -0.271 OA
ATOM     21  H1  UNL     1      46.111  49.512   9.108  1.00  0.00     0.198 HD
BRANCH  19  22
HETATM   22  C2  UNL     1      47.706  50.143  11.135  1.00  0.00     0.100 C 
HETATM   23  C1  UNL     1      46.931  51.168  10.331  1.00  0.00     0.014 C 
ENDBRANCH  19  22
ENDBRANCH  17  18
ENDBRANCH   1  17
BRANCH  13  24
HETATM   24  N6  UNL     1      48.870  45.276   3.223  1.00  0.00    -0.234 N 
ATOM     25  H62 UNL     1      49.248  45.930   2.537  1.00  0.00     0.174 HD
ATOM     26  H61 UNL     1      48.240  44.547   2.887  1.00  0.00     0.174 HD
ENDBRANCH  13  24
TORSDOF 4
ENDMDL
