MODEL 1
REMARK VINA RESULT: -8.139494962      0.000      0.000
REMARK  1 active torsions:
REMARK  status: ('A' for Active; 'I' for Inactive)
REMARK    1  A    between atoms: O1_2  and  C2_3 
ROOT
HETATM    1  C2  UNL     1      48.430  45.059   7.231  1.00  0.00     0.149 C 
HETATM    2  C3  UNL     1      49.363  45.118   8.239  1.00  0.00     0.233 C 
HETATM    3  O2  UNL     1      50.217  44.211   8.306  1.00  0.00    -0.283 OA
HETATM    4  C4  UNL     1      49.506  46.084   9.244  1.00  0.00     0.122 C 
HETATM    5  N1  UNL     1      50.708  46.067   9.990  1.00  0.00    -0.096 NA
HETATM    6  C5  UNL     1      48.630  47.066   9.616  1.00  0.00     0.099 C 
HETATM    7  C6  UNL     1      48.958  47.926  10.722  1.00  0.00     0.103 C 
HETATM    8  N2  UNL     1      49.223  48.631  11.599  1.00  0.00    -0.191 NA
HETATM    9  C7  UNL     1      47.405  47.346   9.029  1.00  0.00     0.098 C 
HETATM   10  N3  UNL     1      46.438  48.026   9.795  1.00  0.00    -0.098 NA
HETATM   11  C8  UNL     1      46.988  47.032   7.743  1.00  0.00     0.094 A 
HETATM   12  C9  UNL     1      47.463  45.986   6.938  1.00  0.00     0.103 A 
HETATM   13  N4  UNL     1      46.777  46.062   5.786  1.00  0.00    -0.304 N 
ATOM     14  H4  UNL     1      46.888  45.438   4.986  1.00  0.00     0.171 HD
HETATM   15  C10 UNL     1      45.920  47.094   5.859  1.00  0.00     0.327 A 
HETATM   16  O3  UNL     1      45.099  47.507   4.997  1.00  0.00    -0.246 OA
HETATM   17  N5  UNL     1      46.040  47.709   7.075  1.00  0.00    -0.300 N 
HETATM   18  C11 UNL     1      45.319  48.848   7.564  1.00  0.00     0.161 C 
ENDROOT
BRANCH   1  19
HETATM   19  O1  UNL     1      48.474  43.946   6.432  1.00  0.00    -0.350 OA
HETATM   20  C1  UNL     1      49.111  43.858   5.194  1.00  0.00     0.210 C 
ENDBRANCH   1  19
TORSDOF 1
ENDMDL
MODEL 2
REMARK VINA RESULT: -7.837326719      1.998      5.406
REMARK  1 active torsions:
REMARK  status: ('A' for Active; 'I' for Inactive)
REMARK    1  A    between atoms: O1_2  and  C2_3 
ROOT
HETATM    1  C2  UNL     1      46.713  47.422   8.016  1.00  0.00     0.149 C 
HETATM    2  C3  UNL     1      46.572  46.945   6.735  1.00  0.00     0.233 C 
HETATM    3  O2  UNL     1      45.576  47.307   6.077  1.00  0.00    -0.283 OA
HETATM    4  C4  UNL     1      47.415  46.078   6.026  1.00  0.00     0.122 C 
HETATM    5  N1  UNL     1      47.195  45.959   4.634  1.00  0.00    -0.096 NA
HETATM    6  C5  UNL     1      48.445  45.312   6.498  1.00  0.00     0.099 C 
HETATM    7  C6  UNL     1      49.153  44.443   5.596  1.00  0.00     0.103 C 
HETATM    8  N2  UNL     1      49.737  43.755   4.872  1.00  0.00    -0.191 NA
HETATM    9  C7  UNL     1      48.912  45.270   7.803  1.00  0.00     0.098 C 
HETATM   10  N3  UNL     1      49.615  44.124   8.224  1.00  0.00    -0.098 NA
HETATM   11  C8  UNL     1      48.771  46.238   8.787  1.00  0.00     0.094 A 
HETATM   12  C9  UNL     1      47.763  47.210   8.872  1.00  0.00     0.103 A 
HETATM   13  N4  UNL     1      48.025  47.922   9.980  1.00  0.00    -0.304 N 
ATOM     14  H4  UNL     1      47.474  48.709  10.324  1.00  0.00     0.171 HD
HETATM   15  C10 UNL     1      49.132  47.430  10.561  1.00  0.00     0.327 A 
HETATM   16  O3  UNL     1      49.713  47.810  11.612  1.00  0.00    -0.246 OA
HETATM   17  N5  UNL     1      49.609  46.378   9.828  1.00  0.00    -0.300 N 
HETATM   18  C11 UNL     1      50.766  45.573  10.089  1.00  0.00     0.161 C 
ENDROOT
BRANCH   1  19
HETATM   19  O1  UNL     1      45.685  48.196   8.489  1.00  0.00    -0.350 OA
HETATM   20  C1  UNL     1      45.552  49.572   8.306  1.00  0.00     0.210 C 
ENDBRANCH   1  19
TORSDOF 1
ENDMDL
MODEL 3
REMARK VINA RESULT: -7.785348883      2.297      5.718
REMARK  1 active torsions:
REMARK  status: ('A' for Active; 'I' for Inactive)
REMARK    1  A    between atoms: O1_2  and  C2_3 
ROOT
HETATM    1  C2  UNL     1      47.488  47.946   9.788  1.00  0.00     0.149 C 
HETATM    2  C3  UNL     1      46.545  48.265   8.841  1.00  0.00     0.233 C 
HETATM    3  O2  UNL     1      45.664  49.096   9.141  1.00  0.00    -0.283 OA
HETATM    4  C4  UNL     1      46.418  47.778   7.533  1.00  0.00     0.122 C 
HETATM    5  N1  UNL     1      45.533  48.466   6.670  1.00  0.00    -0.096 NA
HETATM    6  C5  UNL     1      47.044  46.707   6.955  1.00  0.00     0.099 C 
HETATM    7  C6  UNL     1      46.724  46.347   5.600  1.00  0.00     0.103 C 
HETATM    8  N2  UNL     1      46.484  46.062   4.504  1.00  0.00    -0.191 NA
HETATM    9  C7  UNL     1      47.993  45.888   7.547  1.00  0.00     0.098 C 
HETATM   10  N3  UNL     1      48.172  44.591   7.028  1.00  0.00    -0.098 NA
HETATM   11  C8  UNL     1      48.818  46.184   8.622  1.00  0.00     0.094 A 
HETATM   12  C9  UNL     1      48.574  47.122   9.636  1.00  0.00     0.103 A 
HETATM   13  N4  UNL     1      49.635  47.068  10.458  1.00  0.00    -0.304 N 
ATOM     14  H4  UNL     1      49.764  47.631  11.299  1.00  0.00     0.171 HD
HETATM   15  C10 UNL     1      50.498  46.151   9.991  1.00  0.00     0.327 A 
HETATM   16  O3  UNL     1      51.611  45.795  10.463  1.00  0.00    -0.246 OA
HETATM   17  N5  UNL     1      50.003  45.590   8.846  1.00  0.00    -0.300 N 
HETATM   18  C11 UNL     1      50.602  44.577   8.027  1.00  0.00     0.161 C 
ENDROOT
BRANCH   1  19
HETATM   19  O1  UNL     1      47.320  48.516  11.024  1.00  0.00    -0.350 OA
HETATM   20  C1  UNL     1      47.840  49.745  11.430  1.00  0.00     0.210 C 
ENDBRANCH   1  19
TORSDOF 1
ENDMDL
MODEL 4
REMARK VINA RESULT: -7.779838834      1.826      3.196
REMARK  1 active torsions:
REMARK  status: ('A' for Active; 'I' for Inactive)
REMARK    1  A    between atoms: O1_2  and  C2_3 
ROOT
HETATM    1  C2  UNL     1      47.156  46.354   7.371  1.00  0.00     0.149 C 
HETATM    2  C3  UNL     1      48.170  45.434   7.250  1.00  0.00     0.233 C 
HETATM    3  O2  UNL     1      48.064  44.551   6.375  1.00  0.00    -0.283 OA
HETATM    4  C4  UNL     1      49.354  45.335   7.993  1.00  0.00     0.122 C 
HETATM    5  N1  UNL     1      50.359  44.472   7.494  1.00  0.00    -0.096 NA
HETATM    6  C5  UNL     1      49.688  45.968   9.159  1.00  0.00     0.099 C 
HETATM    7  C6  UNL     1      50.949  45.676   9.787  1.00  0.00     0.103 C 
HETATM    8  N2  UNL     1      51.969  45.459  10.288  1.00  0.00    -0.191 NA
HETATM    9  C7  UNL     1      48.921  46.900   9.841  1.00  0.00     0.098 C 
HETATM   10  N3  UNL     1      49.162  47.084  11.217  1.00  0.00    -0.098 NA
HETATM   11  C8  UNL     1      47.909  47.702   9.333  1.00  0.00     0.094 A 
HETATM   12  C9  UNL     1      47.113  47.440   8.208  1.00  0.00     0.103 A 
HETATM   13  N4  UNL     1      46.274  48.482   8.094  1.00  0.00    -0.304 N 
ATOM     14  H4  UNL     1      45.562  48.595   7.372  1.00  0.00     0.171 HD
HETATM   15  C10 UNL     1      46.525  49.351   9.088  1.00  0.00     0.327 A 
HETATM   16  O3  UNL     1      45.965  50.452   9.340  1.00  0.00    -0.246 OA
HETATM   17  N5  UNL     1      47.543  48.879   9.869  1.00  0.00    -0.300 N 
HETATM   18  C11 UNL     1      48.125  49.491  11.027  1.00  0.00     0.161 C 
ENDROOT
BRANCH   1  19
HETATM   19  O1  UNL     1      46.066  46.162   6.562  1.00  0.00    -0.350 OA
HETATM   20  C1  UNL     1      45.931  46.630   5.254  1.00  0.00     0.210 C 
ENDBRANCH   1  19
TORSDOF 1
ENDMDL
MODEL 5
REMARK VINA RESULT: -7.656578984      2.201      4.830
REMARK  1 active torsions:
REMARK  status: ('A' for Active; 'I' for Inactive)
REMARK    1  A    between atoms: O1_2  and  C2_3 
ROOT
HETATM    1  C2  UNL     1      48.403  47.177  10.037  1.00  0.00     0.149 C 
HETATM    2  C3  UNL     1      47.549  48.254  10.053  1.00  0.00     0.233 C 
HETATM    3  O2  UNL     1      47.434  48.900  11.114  1.00  0.00    -0.283 OA
HETATM    4  C4  UNL     1      46.755  48.757   9.014  1.00  0.00     0.122 C 
HETATM    5  N1  UNL     1      46.176  50.034   9.203  1.00  0.00    -0.096 NA
HETATM    6  C5  UNL     1      46.451  48.177   7.812  1.00  0.00     0.099 C 
HETATM    7  C6  UNL     1      45.563  48.853   6.904  1.00  0.00     0.103 C 
HETATM    8  N2  UNL     1      44.863  49.399   6.162  1.00  0.00    -0.191 NA
HETATM    9  C7  UNL     1      46.917  46.958   7.343  1.00  0.00     0.098 C 
HETATM   10  N3  UNL     1      46.164  46.292   6.356  1.00  0.00    -0.098 NA
HETATM   11  C8  UNL     1      48.064  46.281   7.731  1.00  0.00     0.094 A 
HETATM   12  C9  UNL     1      48.728  46.389   8.962  1.00  0.00     0.103 A 
HETATM   13  N4  UNL     1      49.779  45.556   8.893  1.00  0.00    -0.304 N 
ATOM     14  H4  UNL     1      50.465  45.403   9.633  1.00  0.00     0.171 HD
HETATM   15  C10 UNL     1      49.778  44.956   7.691  1.00  0.00     0.327 A 
HETATM   16  O3  UNL     1      50.587  44.109   7.226  1.00  0.00    -0.246 OA
HETATM   17  N5  UNL     1      48.714  45.398   6.954  1.00  0.00    -0.300 N 
HETATM   18  C11 UNL     1      48.344  45.020   5.622  1.00  0.00     0.161 C 
ENDROOT
BRANCH   1  19
HETATM   19  O1  UNL     1      48.994  46.857  11.231  1.00  0.00    -0.350 OA
HETATM   20  C1  UNL     1      50.287  47.211  11.620  1.00  0.00     0.210 C 
ENDBRANCH   1  19
TORSDOF 1
ENDMDL
