MODEL 1
REMARK VINA RESULT: -7.608557241      0.000      0.000
REMARK  5 active torsions:
REMARK  status: ('A' for Active; 'I' for Inactive)
REMARK    1  A    between atoms: O1_2  and  C2_3 
REMARK    2  A    between atoms: C5_8  and  N2_9 
REMARK    3  A    between atoms: N2_9  and  N3_11 
REMARK    4  A    between atoms: C6_16  and  N5_17 
REMARK    5  A    between atoms: N5_17  and  C7_19 
ROOT
HETATM    1  C7  UNL     1      16.251   4.814  13.485  1.00  0.00     0.192 C 
HETATM    2  C8  UNL     1      16.735   3.752  12.507  1.00  0.00     0.045 C 
HETATM    3  C9  UNL     1      17.744   4.265  11.538  1.00  0.00     0.025 C 
HETATM    4  C10 UNL     1      19.106   3.709  11.969  1.00  0.00     0.155 C 
HETATM    5  N6  UNL     1      19.340   3.894  13.377  1.00  0.00    -0.198 N 
HETATM    6  C11 UNL     1      20.199   2.972  13.981  1.00  0.00     0.195 C 
HETATM    7  N7  UNL     1      20.927   2.204  14.475  1.00  0.00    -0.171 NA
HETATM    8  S1  UNL     1      18.702   5.101  14.420  1.00  0.00     0.329 S 
HETATM    9  O2  UNL     1      18.862   6.478  13.850  1.00  0.00    -0.186 OA
HETATM   10  O3  UNL     1      19.410   5.090  15.746  1.00  0.00    -0.186 OA
HETATM   11  N8  UNL     1      17.052   4.744  14.720  1.00  0.00    -0.076 NA
HETATM   12 CL1  UNL     1      16.917   3.169  15.433  1.00  0.00    -0.002 Cl
ENDROOT
BRANCH   1  13
HETATM   13  N5  UNL     1      16.192   6.094  12.967  1.00  0.00    -0.355 N 
ATOM     14  H5  UNL     1      16.811   6.136  12.158  1.00  0.00     0.162 HD
BRANCH  13  15
HETATM   15  C6  UNL     1      15.677   7.202  13.111  1.00  0.00     0.147 A 
HETATM   16  N4  UNL     1      15.960   7.930  14.250  1.00  0.00    -0.173 N 
HETATM   17  C5  UNL     1      15.454   9.128  14.494  1.00  0.00     0.698 A 
ATOM     18  H4  UNL     1      16.592   7.524  14.939  1.00  0.00     0.186 HD
HETATM   19  N1  UNL     1      14.622   9.710  13.629  1.00  0.00    -0.188 N 
HETATM   20  C4  UNL     1      14.282   9.084  12.488  1.00  0.00     0.084 A 
ATOM     21  H1  UNL     1      14.242  10.635  13.834  1.00  0.00     0.184 HD
HETATM   22  C3  UNL     1      13.450   9.464  11.439  1.00  0.00     0.088 A 
HETATM   23  C12 UNL     1      14.819   7.817  12.235  1.00  0.00     0.106 A 
HETATM   24  C2  UNL     1      13.486   8.427  10.555  1.00  0.00     0.144 A 
HETATM   25  N9  UNL     1      14.305   7.473  11.060  1.00  0.00    -0.332 N 
ATOM     26  H9  UNL     1      14.505   6.590  10.589  1.00  0.00     0.168 HD
BRANCH  17  27
HETATM   27  N2  UNL     1      15.725   9.812  15.571  1.00  0.00    -0.138 N 
ATOM     28  H2  UNL     1      16.614   9.660  16.047  1.00  0.00     0.205 HD
BRANCH  27  29
HETATM   29  N3  UNL     1      14.830  10.747  16.090  1.00  0.00    -0.331 N 
ATOM     30  H32 UNL     1      14.429  10.570  17.011  1.00  0.00     0.177 HD
ATOM     31  H31 UNL     1      14.574  11.588  15.573  1.00  0.00     0.177 HD
ENDBRANCH  27  29
ENDBRANCH  17  27
BRANCH  24  32
HETATM   32  O1  UNL     1      12.802   8.354   9.341  1.00  0.00    -0.341 OA
HETATM   33  C1  UNL     1      12.012   9.433   8.951  1.00  0.00     0.211 C 
ENDBRANCH  24  32
ENDBRANCH  13  15
ENDBRANCH   1  13
TORSDOF 5
ENDMDL
MODEL 2
REMARK VINA RESULT: -7.571255671      2.311      4.105
REMARK  5 active torsions:
REMARK  status: ('A' for Active; 'I' for Inactive)
REMARK    1  A    between atoms: O1_2  and  C2_3 
REMARK    2  A    between atoms: C5_8  and  N2_9 
REMARK    3  A    between atoms: N2_9  and  N3_11 
REMARK    4  A    between atoms: C6_16  and  N5_17 
REMARK    5  A    between atoms: N5_17  and  C7_19 
ROOT
HETATM    1  C7  UNL     1      15.833   3.641  12.376  1.00  0.00     0.192 C 
HETATM    2  C8  UNL     1      16.809   2.518  12.055  1.00  0.00     0.045 C 
HETATM    3  C9  UNL     1      17.836   2.905  11.047  1.00  0.00     0.025 C 
HETATM    4  C10 UNL     1      19.157   3.100  11.801  1.00  0.00     0.155 C 
HETATM    5  N6  UNL     1      18.990   3.920  12.972  1.00  0.00    -0.198 N 
HETATM    6  C11 UNL     1      19.903   3.702  14.007  1.00  0.00     0.195 C 
HETATM    7  N7  UNL     1      20.677   3.520  14.863  1.00  0.00    -0.171 NA
HETATM    8  S1  UNL     1      17.815   5.138  13.269  1.00  0.00     0.329 S 
HETATM    9  O2  UNL     1      17.716   6.113  12.135  1.00  0.00    -0.186 OA
HETATM   10  O3  UNL     1      18.163   5.928  14.500  1.00  0.00    -0.186 OA
HETATM   11  N8  UNL     1      16.306   4.377  13.563  1.00  0.00    -0.076 NA
HETATM   12 CL1  UNL     1      16.449   3.303  14.917  1.00  0.00    -0.002 Cl
ENDROOT
BRANCH   1  13
HETATM   13  N5  UNL     1      15.545   4.480  11.316  1.00  0.00    -0.355 N 
ATOM     14  H5  UNL     1      16.403   4.618  10.782  1.00  0.00     0.162 HD
BRANCH  13  15
HETATM   15  C6  UNL     1      14.649   5.123  10.772  1.00  0.00     0.147 A 
HETATM   16  N4  UNL     1      13.732   4.458   9.982  1.00  0.00    -0.173 N 
HETATM   17  C5  UNL     1      12.735   5.062   9.356  1.00  0.00     0.698 A 
ATOM     18  H4  UNL     1      13.827   3.448   9.875  1.00  0.00     0.186 HD
HETATM   19  N1  UNL     1      12.560   6.380   9.459  1.00  0.00    -0.188 N 
HETATM   20  C4  UNL     1      13.399   7.121  10.205  1.00  0.00     0.084 A 
ATOM     21  H1  UNL     1      11.784   6.829   8.969  1.00  0.00     0.184 HD
HETATM   22  C3  UNL     1      13.436   8.486  10.472  1.00  0.00     0.088 A 
HETATM   23  C12 UNL     1      14.452   6.477  10.865  1.00  0.00     0.106 A 
HETATM   24  C2  UNL     1      14.511   8.665  11.291  1.00  0.00     0.144 A 
HETATM   25  N9  UNL     1      15.085   7.455  11.501  1.00  0.00    -0.332 N 
ATOM     26  H9  UNL     1      15.911   7.312  12.083  1.00  0.00     0.168 HD
BRANCH  17  27
HETATM   27  N2  UNL     1      11.870   4.429   8.611  1.00  0.00    -0.138 N 
ATOM     28  H2  UNL     1      10.915   4.311   8.948  1.00  0.00     0.205 HD
BRANCH  27  29
HETATM   29  N3  UNL     1      12.219   3.910   7.364  1.00  0.00    -0.331 N 
ATOM     30  H32 UNL     1      12.696   3.009   7.335  1.00  0.00     0.177 HD
ATOM     31  H31 UNL     1      12.008   4.407   6.499  1.00  0.00     0.177 HD
ENDBRANCH  27  29
ENDBRANCH  17  27
BRANCH  24  32
HETATM   32  O1  UNL     1      14.948   9.877  11.825  1.00  0.00    -0.341 OA
HETATM   33  C1  UNL     1      14.996  10.022  13.209  1.00  0.00     0.211 C 
ENDBRANCH  24  32
ENDBRANCH  13  15
ENDBRANCH   1  13
TORSDOF 5
ENDMDL
MODEL 3
REMARK VINA RESULT: -7.526884310      2.518      2.755
REMARK  5 active torsions:
REMARK  status: ('A' for Active; 'I' for Inactive)
REMARK    1  A    between atoms: O1_2  and  C2_3 
REMARK    2  A    between atoms: C5_8  and  N2_9 
REMARK    3  A    between atoms: N2_9  and  N3_11 
REMARK    4  A    between atoms: C6_16  and  N5_17 
REMARK    5  A    between atoms: N5_17  and  C7_19 
ROOT
HETATM    1  C7  UNL     1      17.468   6.107  13.309  1.00  0.00     0.192 C 
HETATM    2  C8  UNL     1      18.108   5.067  14.218  1.00  0.00     0.045 C 
HETATM    3  C9  UNL     1      17.124   4.371  15.095  1.00  0.00     0.025 C 
HETATM    4  C10 UNL     1      16.932   2.960  14.526  1.00  0.00     0.155 C 
HETATM    5  N6  UNL     1      16.701   2.981  13.106  1.00  0.00    -0.198 N 
HETATM    6  C11 UNL     1      17.083   1.833  12.406  1.00  0.00     0.195 C 
HETATM    7  N7  UNL     1      17.395   0.866  11.831  1.00  0.00    -0.171 NA
HETATM    8  S1  UNL     1      16.015   4.233  12.150  1.00  0.00     0.329 S 
HETATM    9  O2  UNL     1      14.728   4.739  12.726  1.00  0.00    -0.186 OA
HETATM   10  O3  UNL     1      15.712   3.741  10.762  1.00  0.00    -0.186 OA
HETATM   11  N8  UNL     1      17.165   5.497  12.002  1.00  0.00    -0.076 NA
HETATM   12 CL1  UNL     1      18.616   4.882  11.277  1.00  0.00    -0.002 Cl
ENDROOT
BRANCH   1  13
HETATM   13  N5  UNL     1      16.376   6.757  13.852  1.00  0.00    -0.355 N 
ATOM     14  H5  UNL     1      15.970   6.151  14.566  1.00  0.00     0.162 HD
BRANCH  13  15
HETATM   15  C6  UNL     1      15.706   7.788  13.803  1.00  0.00     0.147 A 
HETATM   16  N4  UNL     1      15.710   8.642  14.888  1.00  0.00    -0.173 N 
HETATM   17  C5  UNL     1      15.023   9.772  14.928  1.00  0.00     0.698 A 
ATOM     18  H4  UNL     1      16.273   8.390  15.700  1.00  0.00     0.186 HD
HETATM   19  N1  UNL     1      14.271  10.154  13.896  1.00  0.00    -0.188 N 
HETATM   20  C4  UNL     1      14.198   9.393  12.790  1.00  0.00     0.084 A 
ATOM     21  H1  UNL     1      13.748  11.030  13.945  1.00  0.00     0.184 HD
HETATM   22  C3  UNL     1      13.501   9.560  11.597  1.00  0.00     0.088 A 
HETATM   23  C12 UNL     1      14.927   8.198  12.752  1.00  0.00     0.106 A 
HETATM   24  C2  UNL     1      13.808   8.469  10.842  1.00  0.00     0.144 A 
HETATM   25  N9  UNL     1      14.653   7.687  11.557  1.00  0.00    -0.332 N 
ATOM     26  H9  UNL     1      15.037   6.805  11.216  1.00  0.00     0.168 HD
BRANCH  17  27
HETATM   27  N2  UNL     1      15.030  10.576  15.956  1.00  0.00    -0.138 N 
ATOM     28  H2  UNL     1      14.787  11.558  15.821  1.00  0.00     0.205 HD
BRANCH  27  29
HETATM   29  N3  UNL     1      15.362  10.129  17.235  1.00  0.00    -0.331 N 
ATOM     30  H32 UNL     1      14.609  10.003  17.911  1.00  0.00     0.177 HD
ATOM     31  H31 UNL     1      16.327   9.930  17.499  1.00  0.00     0.177 HD
ENDBRANCH  27  29
ENDBRANCH  17  27
BRANCH  24  32
HETATM   32  O1  UNL     1      13.340   8.197   9.556  1.00  0.00    -0.341 OA
HETATM   33  C1  UNL     1      12.358   7.223   9.392  1.00  0.00     0.211 C 
ENDBRANCH  24  32
ENDBRANCH  13  15
ENDBRANCH   1  13
TORSDOF 5
ENDMDL
MODEL 4
REMARK VINA RESULT: -7.474561184      3.865      5.952
REMARK  5 active torsions:
REMARK  status: ('A' for Active; 'I' for Inactive)
REMARK    1  A    between atoms: O1_2  and  C2_3 
REMARK    2  A    between atoms: C5_8  and  N2_9 
REMARK    3  A    between atoms: N2_9  and  N3_11 
REMARK    4  A    between atoms: C6_16  and  N5_17 
REMARK    5  A    between atoms: N5_17  and  C7_19 
ROOT
HETATM    1  C7  UNL     1      13.851   9.799  11.202  1.00  0.00     0.192 C 
HETATM    2  C8  UNL     1      15.125  10.001  12.010  1.00  0.00     0.045 C 
HETATM    3  C9  UNL     1      14.899   9.947  13.482  1.00  0.00     0.025 C 
HETATM    4  C10 UNL     1      15.451   8.603  13.974  1.00  0.00     0.155 C 
HETATM    5  N6  UNL     1      14.994   7.506  13.162  1.00  0.00    -0.198 N 
HETATM    6  C11 UNL     1      15.830   6.387  13.119  1.00  0.00     0.195 C 
HETATM    7  N7  UNL     1      16.528   5.451  13.098  1.00  0.00    -0.171 NA
HETATM    8  S1  UNL     1      13.553   7.387  12.234  1.00  0.00     0.329 S 
HETATM    9  O2  UNL     1      12.341   7.771  13.026  1.00  0.00    -0.186 OA
HETATM   10  O3  UNL     1      13.339   5.978  11.758  1.00  0.00    -0.186 OA
HETATM   11  N8  UNL     1      13.719   8.375  10.841  1.00  0.00    -0.076 NA
HETATM   12 CL1  UNL     1      15.098   7.860   9.923  1.00  0.00    -0.002 Cl
ENDROOT
BRANCH   1  13
HETATM   13  N5  UNL     1      12.706  10.300  11.791  1.00  0.00    -0.355 N 
ATOM     14  H5  UNL     1      12.469   9.701  12.583  1.00  0.00     0.162 HD
BRANCH  13  15
HETATM   15  C6  UNL     1      11.863  11.194  11.725  1.00  0.00     0.147 A 
HETATM   16  N4  UNL     1      11.781  12.115  12.750  1.00  0.00    -0.173 N 
HETATM   17  C5  UNL     1      10.908  13.109  12.768  1.00  0.00     0.698 A 
ATOM     18  H4  UNL     1      12.427  12.025  13.534  1.00  0.00     0.186 HD
HETATM   19  N1  UNL     1      10.039  13.278  11.771  1.00  0.00    -0.188 N 
HETATM   20  C4  UNL     1      10.036  12.434  10.723  1.00  0.00     0.084 A 
ATOM     21  H1  UNL     1       9.374  14.051  11.802  1.00  0.00     0.184 HD
HETATM   22  C3  UNL     1       9.250  12.389   9.576  1.00  0.00     0.088 A 
HETATM   23  C12 UNL     1      10.961  11.384  10.709  1.00  0.00     0.106 A 
HETATM   24  C2  UNL     1       9.700  11.313   8.872  1.00  0.00     0.144 A 
HETATM   25  N9  UNL     1      10.711  10.744   9.572  1.00  0.00    -0.332 N 
ATOM     26  H9  UNL     1      11.223   9.918   9.261  1.00  0.00     0.168 HD
BRANCH  17  27
HETATM   27  N2  UNL     1      10.835  13.978  13.740  1.00  0.00    -0.138 N 
ATOM     28  H2  UNL     1      10.034  14.608  13.784  1.00  0.00     0.205 HD
BRANCH  27  29
HETATM   29  N3  UNL     1      11.824  14.068  14.719  1.00  0.00    -0.331 N 
ATOM     30  H32 UNL     1      12.765  14.334  14.429  1.00  0.00     0.177 HD
ATOM     31  H31 UNL     1      11.625  13.875  15.700  1.00  0.00     0.177 HD
ENDBRANCH  27  29
ENDBRANCH  17  27
BRANCH  24  32
HETATM   32  O1  UNL     1       9.210  10.869   7.643  1.00  0.00    -0.341 OA
HETATM   33  C1  UNL     1       8.104  11.509   7.091  1.00  0.00     0.211 C 
ENDBRANCH  24  32
ENDBRANCH  13  15
ENDBRANCH   1  13
TORSDOF 5
ENDMDL
MODEL 5
REMARK VINA RESULT: -7.409775305      2.026      3.684
REMARK  5 active torsions:
REMARK  status: ('A' for Active; 'I' for Inactive)
REMARK    1  A    between atoms: O1_2  and  C2_3 
REMARK    2  A    between atoms: C5_8  and  N2_9 
REMARK    3  A    between atoms: N2_9  and  N3_11 
REMARK    4  A    between atoms: C6_16  and  N5_17 
REMARK    5  A    between atoms: N5_17  and  C7_19 
ROOT
HETATM    1  C7  UNL     1      15.843   4.900  13.201  1.00  0.00     0.192 C 
HETATM    2  C8  UNL     1      15.603   3.551  12.539  1.00  0.00     0.045 C 
HETATM    3  C9  UNL     1      16.080   3.498  11.128  1.00  0.00     0.025 C 
HETATM    4  C10 UNL     1      17.364   2.660  11.118  1.00  0.00     0.155 C 
HETATM    5  N6  UNL     1      18.283   3.074  12.146  1.00  0.00    -0.198 N 
HETATM    6  C11 UNL     1      19.159   2.091  12.615  1.00  0.00     0.195 C 
HETATM    7  N7  UNL     1      19.895   1.268  12.994  1.00  0.00    -0.171 NA
HETATM    8  S1  UNL     1      18.448   4.619  12.877  1.00  0.00     0.329 S 
HETATM    9  O2  UNL     1      18.537   5.716  11.860  1.00  0.00    -0.186 OA
HETATM   10  O3  UNL     1      19.699   4.688  13.707  1.00  0.00    -0.186 OA
HETATM   11  N8  UNL     1      17.121   4.865  13.936  1.00  0.00    -0.076 NA
HETATM   12 CL1  UNL     1      17.090   3.609  15.131  1.00  0.00    -0.002 Cl
ENDROOT
BRANCH   1  13
HETATM   13  N5  UNL     1      15.755   5.987  12.352  1.00  0.00    -0.355 N 
ATOM     14  H5  UNL     1      16.603   6.015  11.785  1.00  0.00     0.162 HD
BRANCH  13  15
HETATM   15  C6  UNL     1      15.042   6.933  12.018  1.00  0.00     0.147 A 
HETATM   16  N4  UNL     1      14.288   6.831  10.866  1.00  0.00    -0.173 N 
HETATM   17  C5  UNL     1      13.495   7.794  10.427  1.00  0.00     0.698 A 
ATOM     18  H4  UNL     1      14.346   5.968  10.325  1.00  0.00     0.186 HD
HETATM   19  N1  UNL     1      13.379   8.944  11.092  1.00  0.00    -0.188 N 
HETATM   20  C4  UNL     1      14.071   9.144  12.228  1.00  0.00     0.084 A 
ATOM     21  H1  UNL     1      12.761   9.675  10.738  1.00  0.00     0.184 HD
HETATM   22  C3  UNL     1      14.128  10.231  13.095  1.00  0.00     0.088 A 
HETATM   23  C12 UNL     1      14.909   8.122  12.688  1.00  0.00     0.106 A 
HETATM   24  C2  UNL     1      14.999   9.865  14.076  1.00  0.00     0.144 A 
HETATM   25  N9  UNL     1      15.440   8.613  13.802  1.00  0.00    -0.332 N 
ATOM     26  H9  UNL     1      16.105   8.104  14.386  1.00  0.00     0.168 HD
BRANCH  17  27
HETATM   27  N2  UNL     1      12.784   7.693   9.337  1.00  0.00    -0.138 N 
ATOM     28  H2  UNL     1      12.975   8.322   8.557  1.00  0.00     0.205 HD
BRANCH  27  29
HETATM   29  N3  UNL     1      11.768   6.745   9.210  1.00  0.00    -0.331 N 
ATOM     30  H32 UNL     1      11.037   6.725   9.922  1.00  0.00     0.177 HD
ATOM     31  H31 UNL     1      11.745   6.085   8.433  1.00  0.00     0.177 HD
ENDBRANCH  27  29
ENDBRANCH  17  27
BRANCH  24  32
HETATM   32  O1  UNL     1      15.376  10.638  15.175  1.00  0.00    -0.341 OA
HETATM   33  C1  UNL     1      15.745   9.994  16.353  1.00  0.00     0.211 C 
ENDBRANCH  24  32
ENDBRANCH  13  15
ENDBRANCH   1  13
TORSDOF 5
ENDMDL
