MODEL 1
REMARK VINA RESULT: -8.774548214      0.000      0.000
REMARK  4 active torsions:
REMARK  status: ('A' for Active; 'I' for Inactive)
REMARK    1  A    between atoms: C1_2  and  C2_4 
REMARK       I    between atoms: C2_4  and  N1_6 
REMARK    2  A    between atoms: N1_6  and  C3_8 
REMARK    3  A    between atoms: C4_11  and  C5_12 
REMARK    4  A    between atoms: C8_19  and  C9_20 
REMARK       I    between atoms: C9_20  and  N4_22 
ROOT
HETATM    1  C3  UNL     1       8.232  12.263   8.879  1.00  0.00     0.152 A 
HETATM    2  N2  UNL     1       9.198  11.423   8.545  1.00  0.00    -0.335 N 
ATOM      3  H2  UNL     1       9.139  10.892   7.676  1.00  0.00     0.168 HD
HETATM    4  C4  UNL     1      10.243  11.275   9.347  1.00  0.00     0.090 A 
HETATM    5  C8  UNL     1      10.268  12.010  10.492  1.00  0.00     0.103 A 
HETATM    6  S2  UNL     1       8.760  12.889  10.357  1.00  0.00    -0.046 SA
ENDROOT
BRANCH   5   7
HETATM    7  C9  UNL     1      11.235  12.185  11.571  1.00  0.00     0.266 C 
HETATM    8  O5  UNL     1      11.235  13.353  12.116  1.00  0.00    -0.267 OA
HETATM    9  N4  UNL     1      12.131  11.288  12.070  1.00  0.00    -0.301 N 
HETATM   10  C10 UNL     1      12.737  11.246  13.205  1.00  0.00     0.169 A 
ATOM     11  H4  UNL     1      12.361  10.522  11.437  1.00  0.00     0.171 HD
HETATM   12  N5  UNL     1      12.718  12.029  14.282  1.00  0.00    -0.278 N 
HETATM   13  S1  UNL     1      13.866  10.032  13.701  1.00  0.00    -0.021 SA
HETATM   14  N6  UNL     1      13.446  11.726  15.280  1.00  0.00    -0.282 N 
ATOM     15  H5  UNL     1      12.128  12.861  14.308  1.00  0.00     0.189 HD
HETATM   16  C11 UNL     1      14.210  10.649  15.255  1.00  0.00     0.163 A 
ATOM     17  H6  UNL     1      13.439  12.320  16.109  1.00  0.00     0.188 HD
HETATM   18 CL1  UNL     1      15.288  10.048  16.520  1.00  0.00    -0.055 Cl
ENDBRANCH   5   7
BRANCH   4  19
HETATM   19  C5  UNL     1      11.284  10.238   8.949  1.00  0.00     0.373 C 
HETATM   20  N3  UNL     1      10.592   9.061   8.395  1.00  0.00    -0.041 N 
HETATM   21  C6  UNL     1      11.694   8.110   8.366  1.00  0.00     0.262 C 
ATOM     22  H32 UNL     1       9.757   8.760   8.898  1.00  0.00     0.280 HD
ATOM     23  H31 UNL     1      10.106   9.207   7.510  1.00  0.00     0.280 HD
HETATM   24  C7  UNL     1      12.688   8.685   9.370  1.00  0.00     0.198 C 
HETATM   25  O4  UNL     1      11.894   9.635  10.012  1.00  0.00    -0.353 OA
ENDBRANCH   4  19
BRANCH   1  26
HETATM   26  N1  UNL     1       7.128  12.526   8.194  1.00  0.00    -0.298 N 
HETATM   27  C2  UNL     1       7.320  12.745   6.813  1.00  0.00     0.324 C 
HETATM   28  O3  UNL     1       7.164  13.910   6.374  1.00  0.00    -0.260 OA
ATOM     29  H1  UNL     1       6.208  12.567   8.632  1.00  0.00     0.171 HD
BRANCH  27  30
HETATM   30  C1  UNL     1       7.689  11.680   5.883  1.00  0.00     0.270 C 
HETATM   31  O1  UNL     1       8.212  11.939   4.768  1.00  0.00    -0.640 OA
HETATM   32  O2  UNL     1       7.483  10.341   6.180  1.00  0.00    -0.640 OA
ENDBRANCH  27  30
ENDBRANCH   1  26
TORSDOF 4
ENDMDL
MODEL 2
REMARK VINA RESULT: -8.750760614      5.204      9.378
REMARK  4 active torsions:
REMARK  status: ('A' for Active; 'I' for Inactive)
REMARK    1  A    between atoms: C1_2  and  C2_4 
REMARK       I    between atoms: C2_4  and  N1_6 
REMARK    2  A    between atoms: N1_6  and  C3_8 
REMARK    3  A    between atoms: C4_11  and  C5_12 
REMARK    4  A    between atoms: C8_19  and  C9_20 
REMARK       I    between atoms: C9_20  and  N4_22 
ROOT
HETATM    1  C3  UNL     1      15.833   6.644  12.576  1.00  0.00     0.152 A 
HETATM    2  N2  UNL     1      15.789   7.378  13.675  1.00  0.00    -0.335 N 
ATOM      3  H2  UNL     1      16.402   7.163  14.462  1.00  0.00     0.168 HD
HETATM    4  C4  UNL     1      14.943   8.395  13.749  1.00  0.00     0.090 A 
HETATM    5  C8  UNL     1      14.150   8.636  12.669  1.00  0.00     0.103 A 
HETATM    6  S2  UNL     1      14.669   7.363  11.585  1.00  0.00    -0.046 SA
ENDROOT
BRANCH   5   7
HETATM    7  C9  UNL     1      13.169   9.662  12.332  1.00  0.00     0.266 C 
HETATM    8  O5  UNL     1      12.706  10.323  13.337  1.00  0.00    -0.267 OA
HETATM    9  N4  UNL     1      12.679  10.007  11.108  1.00  0.00    -0.301 N 
HETATM   10  C10 UNL     1      12.114  11.090  10.702  1.00  0.00     0.169 A 
ATOM     11  H4  UNL     1      12.777   9.286  10.393  1.00  0.00     0.171 HD
HETATM   12  N5  UNL     1      11.806  12.241  11.298  1.00  0.00    -0.278 N 
HETATM   13  S1  UNL     1      11.532  11.384   9.098  1.00  0.00    -0.021 SA
HETATM   14  N6  UNL     1      11.232  13.153  10.622  1.00  0.00    -0.282 N 
ATOM     15  H5  UNL     1      12.028  12.390  12.282  1.00  0.00     0.189 HD
HETATM   16  C11 UNL     1      10.945  12.968   9.347  1.00  0.00     0.163 A 
ATOM     17  H6  UNL     1      10.991  14.037  11.071  1.00  0.00     0.188 HD
HETATM   18 CL1  UNL     1      10.157  14.091   8.233  1.00  0.00    -0.055 Cl
ENDBRANCH   5   7
BRANCH   4  19
HETATM   19  C5  UNL     1      14.882   9.156  15.067  1.00  0.00     0.373 C 
HETATM   20  N3  UNL     1      15.420  10.511  14.855  1.00  0.00    -0.041 N 
HETATM   21  C6  UNL     1      15.554  10.948  16.239  1.00  0.00     0.262 C 
ATOM     22  H32 UNL     1      16.264  10.570  14.287  1.00  0.00     0.280 HD
ATOM     23  H31 UNL     1      14.870  11.118  14.249  1.00  0.00     0.280 HD
HETATM   24  C7  UNL     1      15.585   9.641  17.024  1.00  0.00     0.198 C 
HETATM   25  O4  UNL     1      15.784   8.720  15.996  1.00  0.00    -0.353 OA
ENDBRANCH   4  19
BRANCH   1  26
HETATM   26  N1  UNL     1      16.617   5.600  12.342  1.00  0.00    -0.298 N 
HETATM   27  C2  UNL     1      17.933   5.718  12.837  1.00  0.00     0.324 C 
HETATM   28  O3  UNL     1      18.864   5.856  12.009  1.00  0.00    -0.260 OA
ATOM     29  H1  UNL     1      16.292   4.773  11.840  1.00  0.00     0.171 HD
BRANCH  27  30
HETATM   30  C1  UNL     1      18.250   5.685  14.264  1.00  0.00     0.270 C 
HETATM   31  O1  UNL     1      17.624   4.932  15.054  1.00  0.00    -0.640 OA
HETATM   32  O2  UNL     1      19.249   6.474  14.813  1.00  0.00    -0.640 OA
ENDBRANCH  27  30
ENDBRANCH   1  26
TORSDOF 4
ENDMDL
MODEL 3
REMARK VINA RESULT: -8.666738361      3.453      4.953
REMARK  4 active torsions:
REMARK  status: ('A' for Active; 'I' for Inactive)
REMARK    1  A    between atoms: C1_2  and  C2_4 
REMARK       I    between atoms: C2_4  and  N1_6 
REMARK    2  A    between atoms: N1_6  and  C3_8 
REMARK    3  A    between atoms: C4_11  and  C5_12 
REMARK    4  A    between atoms: C8_19  and  C9_20 
REMARK       I    between atoms: C9_20  and  N4_22 
ROOT
HETATM    1  C3  UNL     1      10.977  10.985   9.932  1.00  0.00     0.152 A 
HETATM    2  N2  UNL     1      11.266  11.678  11.021  1.00  0.00    -0.335 N 
ATOM      3  H2  UNL     1      10.678  12.463  11.301  1.00  0.00     0.168 HD
HETATM    4  C4  UNL     1      12.324  11.346  11.747  1.00  0.00     0.090 A 
HETATM    5  C8  UNL     1      13.071  10.290  11.326  1.00  0.00     0.103 A 
HETATM    6  S2  UNL     1      12.200   9.821   9.881  1.00  0.00    -0.046 SA
ENDROOT
BRANCH   5   7
HETATM    7  C9  UNL     1      14.232   9.584  11.857  1.00  0.00     0.266 C 
HETATM    8  O5  UNL     1      15.119  10.338  12.411  1.00  0.00    -0.267 OA
HETATM    9  N4  UNL     1      14.503   8.249  11.841  1.00  0.00    -0.301 N 
HETATM   10  C10 UNL     1      15.289   7.541  12.573  1.00  0.00     0.169 A 
ATOM     11  H4  UNL     1      13.997   7.722  11.128  1.00  0.00     0.171 HD
HETATM   12  N5  UNL     1      16.105   7.829  13.586  1.00  0.00    -0.278 N 
HETATM   13  S1  UNL     1      15.536   5.833  12.430  1.00  0.00    -0.021 SA
HETATM   14  N6  UNL     1      16.777   6.893  14.125  1.00  0.00    -0.282 N 
ATOM     15  H5  UNL     1      16.189   8.787  13.926  1.00  0.00     0.189 HD
HETATM   16  C11 UNL     1      16.670   5.651  13.692  1.00  0.00     0.163 A 
ATOM     17  H6  UNL     1      17.405   7.105  14.900  1.00  0.00     0.188 HD
HETATM   18 CL1  UNL     1      17.503   4.212  14.292  1.00  0.00    -0.055 Cl
ENDBRANCH   5   7
BRANCH   4  19
HETATM   19  C5  UNL     1      12.650  12.227  12.945  1.00  0.00     0.373 C 
HETATM   20  N3  UNL     1      12.802  11.369  14.134  1.00  0.00    -0.041 N 
HETATM   21  C6  UNL     1      12.804  12.384  15.179  1.00  0.00     0.262 C 
ATOM     22  H32 UNL     1      12.111  10.626  14.237  1.00  0.00     0.280 HD
ATOM     23  H31 UNL     1      13.602  10.737  14.127  1.00  0.00     0.280 HD
HETATM   24  C7  UNL     1      12.136  13.583  14.513  1.00  0.00     0.198 C 
HETATM   25  O4  UNL     1      11.598  12.985  13.373  1.00  0.00    -0.353 OA
ENDBRANCH   4  19
BRANCH   1  26
HETATM   26  N1  UNL     1       9.962  11.185   9.102  1.00  0.00    -0.298 N 
HETATM   27  C2  UNL     1       9.414  12.485   9.130  1.00  0.00     0.324 C 
HETATM   28  O3  UNL     1       8.272  12.632   9.625  1.00  0.00    -0.260 OA
ATOM     29  H1  UNL     1       9.604  10.453   8.489  1.00  0.00     0.171 HD
BRANCH  27  30
HETATM   30  C1  UNL     1      10.119  13.656   8.611  1.00  0.00     0.270 C 
HETATM   31  O1  UNL     1       9.845  14.133   7.480  1.00  0.00    -0.640 OA
HETATM   32  O2  UNL     1      11.116  14.294   9.334  1.00  0.00    -0.640 OA
ENDBRANCH  27  30
ENDBRANCH   1  26
TORSDOF 4
ENDMDL
MODEL 4
REMARK VINA RESULT: -8.611688927      3.340      4.915
REMARK  4 active torsions:
REMARK  status: ('A' for Active; 'I' for Inactive)
REMARK    1  A    between atoms: C1_2  and  C2_4 
REMARK       I    between atoms: C2_4  and  N1_6 
REMARK    2  A    between atoms: N1_6  and  C3_8 
REMARK    3  A    between atoms: C4_11  and  C5_12 
REMARK    4  A    between atoms: C8_19  and  C9_20 
REMARK       I    between atoms: C9_20  and  N4_22 
ROOT
HETATM    1  C3  UNL     1      10.388  12.571  10.082  1.00  0.00     0.152 A 
HETATM    2  N2  UNL     1      10.978  12.722  11.257  1.00  0.00    -0.335 N 
ATOM      3  H2  UNL     1      10.713  13.494  11.869  1.00  0.00     0.168 HD
HETATM    4  C4  UNL     1      11.915  11.864  11.633  1.00  0.00     0.090 A 
HETATM    5  C8  UNL     1      12.227  10.854  10.776  1.00  0.00     0.103 A 
HETATM    6  S2  UNL     1      11.139  11.197   9.448  1.00  0.00    -0.046 SA
ENDROOT
BRANCH   5   7
HETATM    7  C9  UNL     1      13.120   9.702  10.838  1.00  0.00     0.266 C 
HETATM    8  O5  UNL     1      14.162   9.862  11.579  1.00  0.00    -0.267 OA
HETATM    9  N4  UNL     1      13.002   8.495  10.218  1.00  0.00    -0.301 N 
HETATM   10  C10 UNL     1      13.527   7.352  10.493  1.00  0.00     0.169 A 
ATOM     11  H4  UNL     1      12.395   8.496   9.398  1.00  0.00     0.171 HD
HETATM   12  N5  UNL     1      14.352   6.930  11.450  1.00  0.00    -0.278 N 
HETATM   13  S1  UNL     1      13.285   5.889   9.599  1.00  0.00    -0.021 SA
HETATM   14  N6  UNL     1      14.711   5.710  11.464  1.00  0.00    -0.282 N 
ATOM     15  H5  UNL     1      14.692   7.576  12.163  1.00  0.00     0.189 HD
HETATM   16  C11 UNL     1      14.273   4.868  10.546  1.00  0.00     0.163 A 
ATOM     17  H6  UNL     1      15.343   5.378  12.192  1.00  0.00     0.188 HD
HETATM   18 CL1  UNL     1      14.641   3.147  10.381  1.00  0.00    -0.055 Cl
ENDBRANCH   5   7
BRANCH   4  19
HETATM   19  C5  UNL     1      12.612  12.133  12.960  1.00  0.00     0.373 C 
HETATM   20  N3  UNL     1      12.623  10.888  13.748  1.00  0.00    -0.041 N 
HETATM   21  C6  UNL     1      13.036  11.412  15.043  1.00  0.00     0.262 C 
ATOM     22  H32 UNL     1      11.756  10.351  13.742  1.00  0.00     0.280 HD
ATOM     23  H31 UNL     1      13.192  10.129  13.374  1.00  0.00     0.280 HD
HETATM   24  C7  UNL     1      12.692  12.895  14.953  1.00  0.00     0.198 C 
HETATM   25  O4  UNL     1      11.884  12.910  13.816  1.00  0.00    -0.353 OA
ENDBRANCH   4  19
BRANCH   1  26
HETATM   26  N1  UNL     1       9.439  13.336   9.560  1.00  0.00    -0.298 N 
HETATM   27  C2  UNL     1       8.996  12.946   8.278  1.00  0.00     0.324 C 
HETATM   28  O3  UNL     1       9.299  13.675   7.304  1.00  0.00    -0.260 OA
ATOM     29  H1  UNL     1       9.057  14.146  10.048  1.00  0.00     0.171 HD
BRANCH  27  30
HETATM   30  C1  UNL     1       8.206  11.739   8.043  1.00  0.00     0.270 C 
HETATM   31  O1  UNL     1       7.196  11.474   8.746  1.00  0.00    -0.640 OA
HETATM   32  O2  UNL     1       8.527  10.833   7.044  1.00  0.00    -0.640 OA
ENDBRANCH  27  30
ENDBRANCH   1  26
TORSDOF 4
ENDMDL
MODEL 5
REMARK VINA RESULT: -8.587916967      3.876      5.535
REMARK  4 active torsions:
REMARK  status: ('A' for Active; 'I' for Inactive)
REMARK    1  A    between atoms: C1_2  and  C2_4 
REMARK       I    between atoms: C2_4  and  N1_6 
REMARK    2  A    between atoms: N1_6  and  C3_8 
REMARK    3  A    between atoms: C4_11  and  C5_12 
REMARK    4  A    between atoms: C8_19  and  C9_20 
REMARK       I    between atoms: C9_20  and  N4_22 
ROOT
HETATM    1  C3  UNL     1      10.995  11.776  10.245  1.00  0.00     0.152 A 
HETATM    2  N2  UNL     1      11.565  11.550  11.418  1.00  0.00    -0.335 N 
ATOM      3  H2  UNL     1      11.354  12.150  12.215  1.00  0.00     0.168 HD
HETATM    4  C4  UNL     1      12.412  10.539  11.549  1.00  0.00     0.090 A 
HETATM    5  C8  UNL     1      12.654   9.772  10.452  1.00  0.00     0.103 A 
HETATM    6  S2  UNL     1      11.636  10.559   9.265  1.00  0.00    -0.046 SA
ENDROOT
BRANCH   5   7
HETATM    7  C9  UNL     1      13.439   8.568  10.202  1.00  0.00     0.266 C 
HETATM    8  O5  UNL     1      14.686   8.658  10.514  1.00  0.00    -0.267 OA
HETATM    9  N4  UNL     1      13.033   7.376   9.681  1.00  0.00    -0.301 N 
HETATM   10  C10 UNL     1      13.554   6.201   9.763  1.00  0.00     0.169 A 
ATOM     11  H4  UNL     1      12.172   7.421   9.136  1.00  0.00     0.171 HD
HETATM   12  N5  UNL     1      14.642   5.721  10.362  1.00  0.00    -0.278 N 
HETATM   13  S1  UNL     1      12.918   4.764   9.036  1.00  0.00    -0.021 SA
HETATM   14  N6  UNL     1      14.908   4.481  10.261  1.00  0.00    -0.282 N 
ATOM     15  H5  UNL     1      15.254   6.339  10.896  1.00  0.00     0.189 HD
HETATM   16  C11 UNL     1      14.119   3.676   9.575  1.00  0.00     0.163 A 
ATOM     17  H6  UNL     1      15.740   4.106  10.716  1.00  0.00     0.188 HD
HETATM   18 CL1  UNL     1      14.300   1.938   9.310  1.00  0.00    -0.055 Cl
ENDBRANCH   5   7
BRANCH   4  19
HETATM   19  C5  UNL     1      13.095  10.376  12.900  1.00  0.00     0.373 C 
HETATM   20  N3  UNL     1      14.548  10.538  12.717  1.00  0.00    -0.041 N 
HETATM   21  C6  UNL     1      15.020  10.060  14.009  1.00  0.00     0.262 C 
ATOM     22  H32 UNL     1      14.947  10.078  11.899  1.00  0.00     0.280 HD
ATOM     23  H31 UNL     1      14.861  11.470  12.447  1.00  0.00     0.280 HD
HETATM   24  C7  UNL     1      13.858   9.218  14.524  1.00  0.00     0.198 C 
HETATM   25  O4  UNL     1      13.090   9.091  13.367  1.00  0.00    -0.353 OA
ENDBRANCH   4  19
BRANCH   1  26
HETATM   26  N1  UNL     1      10.131  12.737   9.947  1.00  0.00    -0.298 N 
HETATM   27  C2  UNL     1       9.508  12.612   8.687  1.00  0.00     0.324 C 
HETATM   28  O3  UNL     1       9.825  13.428   7.790  1.00  0.00    -0.260 OA
ATOM     29  H1  UNL     1       9.932  13.510  10.582  1.00  0.00     0.171 HD
BRANCH  27  30
HETATM   30  C1  UNL     1       8.519  11.578   8.390  1.00  0.00     0.270 C 
HETATM   31  O1  UNL     1       7.398  11.564   8.962  1.00  0.00    -0.640 OA
HETATM   32  O2  UNL     1       8.762  10.569   7.470  1.00  0.00    -0.640 OA
ENDBRANCH  27  30
ENDBRANCH   1  26
TORSDOF 4
ENDMDL
