MODEL 1
REMARK VINA RESULT: -5.895544148      0.000      0.000
REMARK  8 active torsions:
REMARK  status: ('A' for Active; 'I' for Inactive)
REMARK    1  A    between atoms: O1_2  and  C2_3 
REMARK    2  A    between atoms: C2_3  and  O2_4 
REMARK    3  A    between atoms: C2_3  and  C3_6 
REMARK    4  A    between atoms: C3_6  and  C4_7 
REMARK    5  A    between atoms: C8_14  and  O5_15 
REMARK    6  A    between atoms: C8_14  and  C9_17 
REMARK    7  A    between atoms: C10_20  and  C12_22 
REMARK    8  A    between atoms: N2_24  and  O7_26 
ROOT
HETATM    1  C4  UNL     1      14.632   4.082  10.864  1.00  0.00     0.013 C 
HETATM    2  C5  UNL     1      15.372   3.072  10.157  1.00  0.00     0.173 C 
HETATM    3  O3  UNL     1      15.225   3.107   8.909  1.00  0.00    -0.291 OA
HETATM    4  C6  UNL     1      16.269   2.016  10.646  1.00  0.00     0.156 C 
HETATM    5 BR1  UNL     1      15.372   0.539  11.479  1.00  0.00    -0.081 Br
HETATM    6  C7  UNL     1      17.308   2.535  11.616  1.00  0.00     0.196 C 
HETATM    7  O4  UNL     1      16.733   3.322  12.575  1.00  0.00    -0.345 OA
HETATM    8  C8  UNL     1      16.629   4.675  12.252  1.00  0.00     0.260 C 
HETATM    9  C10 UNL     1      15.189   4.946  11.966  1.00  0.00     0.092 C 
HETATM   10  C11 UNL     1      14.391   4.498  13.203  1.00  0.00     0.033 C 
ENDROOT
BRANCH   9  11
HETATM   11  C12 UNL     1      14.858   6.341  11.642  1.00  0.00     0.025 C 
HETATM   12  C13 UNL     1      13.956   7.181  12.437  1.00  0.00     0.066 C 
HETATM   13  N2  UNL     1      15.384   6.876  10.590  1.00  0.00    -0.277 N 
ATOM     14  H2  UNL     1      16.013   6.308  10.021  1.00  0.00     0.193 HD
BRANCH  13  15
HETATM   15  O7  UNL     1      15.143   8.168  10.195  1.00  0.00    -0.290 OA
ATOM     16  H7  UNL     1      14.340   8.446   9.772  1.00  0.00     0.244 HD
ENDBRANCH  13  15
ENDBRANCH   9  11
BRANCH   1  17
HETATM   17  C3  UNL     1      13.377   4.296  10.615  1.00  0.00     0.075 C 
BRANCH  17  18
HETATM   18  C2  UNL     1      12.702   4.922   9.518  1.00  0.00     0.178 C 
BRANCH  18  19
HETATM   19  O1  UNL     1      12.866   6.148   8.962  1.00  0.00    -0.336 OA
HETATM   20  C1  UNL     1      11.964   7.194   9.220  1.00  0.00     0.212 C 
ENDBRANCH  18  19
BRANCH  18  21
HETATM   21  O2  UNL     1      11.774   4.211   8.946  1.00  0.00    -0.341 OA
ATOM     22  H2  UNL     1      11.264   3.692   9.555  1.00  0.00     0.220 HD
ENDBRANCH  18  21
ENDBRANCH  17  18
ENDBRANCH   1  17
BRANCH   8  23
HETATM   23  O5  UNL     1      17.482   5.020  11.208  1.00  0.00    -0.357 OA
ATOM     24  H5  UNL     1      18.268   5.448  11.526  1.00  0.00     0.213 HD
ENDBRANCH   8  23
BRANCH   8  25
HETATM   25  C9  UNL     1      17.074   5.449  13.434  1.00  0.00     0.295 C 
HETATM   26  N1  UNL     1      17.363   4.850  14.692  1.00  0.00    -0.057 NA
HETATM   27  O6  UNL     1      17.212   6.691  13.357  1.00  0.00    -0.271 OA
ENDBRANCH   8  25
TORSDOF 8
ENDMDL
MODEL 2
REMARK VINA RESULT: -5.560792102      3.036      5.706
REMARK  8 active torsions:
REMARK  status: ('A' for Active; 'I' for Inactive)
REMARK    1  A    between atoms: O1_2  and  C2_3 
REMARK    2  A    between atoms: C2_3  and  O2_4 
REMARK    3  A    between atoms: C2_3  and  C3_6 
REMARK    4  A    between atoms: C3_6  and  C4_7 
REMARK    5  A    between atoms: C8_14  and  O5_15 
REMARK    6  A    between atoms: C8_14  and  C9_17 
REMARK    7  A    between atoms: C10_20  and  C12_22 
REMARK    8  A    between atoms: N2_24  and  O7_26 
ROOT
HETATM    1  C4  UNL     1      17.566   3.898  13.978  1.00  0.00     0.013 C 
HETATM    2  C5  UNL     1      17.776   2.682  14.716  1.00  0.00     0.173 C 
HETATM    3  O3  UNL     1      17.403   2.739  15.914  1.00  0.00    -0.291 OA
HETATM    4  C6  UNL     1      18.344   1.392  14.303  1.00  0.00     0.156 C 
HETATM    5 BR1  UNL     1      20.251   1.397  14.095  1.00  0.00    -0.081 Br
HETATM    6  C7  UNL     1      17.739   0.870  13.018  1.00  0.00     0.196 C 
HETATM    7  O4  UNL     1      17.711   1.845  12.059  1.00  0.00    -0.345 OA
HETATM    8  C8  UNL     1      16.568   2.644  12.055  1.00  0.00     0.260 C 
HETATM    9  C10 UNL     1      16.965   3.977  12.597  1.00  0.00     0.092 C 
HETATM   10  C11 UNL     1      18.132   4.487  11.733  1.00  0.00     0.033 C 
ENDROOT
BRANCH   9  11
HETATM   11  C12 UNL     1      15.901   4.989  12.637  1.00  0.00     0.025 C 
HETATM   12  C13 UNL     1      15.955   6.273  11.930  1.00  0.00     0.066 C 
HETATM   13  N2  UNL     1      14.842   4.750  13.339  1.00  0.00    -0.277 N 
ATOM     14  H2  UNL     1      14.784   3.863  13.840  1.00  0.00     0.193 HD
BRANCH  13  15
HETATM   15  O7  UNL     1      13.790   5.624  13.446  1.00  0.00    -0.290 OA
ATOM     16  H7  UNL     1      13.129   5.569  14.125  1.00  0.00     0.244 HD
ENDBRANCH  13  15
ENDBRANCH   9  11
BRANCH   1  17
HETATM   17  C3  UNL     1      17.930   5.048  14.456  1.00  0.00     0.075 C 
BRANCH  17  18
HETATM   18  C2  UNL     1      19.206   5.579  14.830  1.00  0.00     0.178 C 
BRANCH  18  19
HETATM   19  O1  UNL     1      20.381   4.955  15.098  1.00  0.00    -0.336 OA
HETATM   20  C1  UNL     1      20.675   4.475  16.386  1.00  0.00     0.212 C 
ENDBRANCH  18  19
BRANCH  18  21
HETATM   21  O2  UNL     1      19.270   6.875  14.934  1.00  0.00    -0.341 OA
ATOM     22  H2  UNL     1      19.526   7.308  14.128  1.00  0.00     0.220 HD
ENDBRANCH  18  21
ENDBRANCH  17  18
ENDBRANCH   1  17
BRANCH   8  23
HETATM   23  O5  UNL     1      15.522   2.045  12.750  1.00  0.00    -0.357 OA
ATOM     24  H5  UNL     1      14.773   1.887  12.186  1.00  0.00     0.213 HD
ENDBRANCH   8  23
BRANCH   8  25
HETATM   25  C9  UNL     1      16.122   2.773  10.648  1.00  0.00     0.295 C 
HETATM   26  N1  UNL     1      14.840   3.268  10.281  1.00  0.00    -0.057 NA
HETATM   27  O6  UNL     1      16.884   2.439   9.713  1.00  0.00    -0.271 OA
ENDBRANCH   8  25
TORSDOF 8
ENDMDL
MODEL 3
REMARK VINA RESULT: -5.513750175      0.683      1.131
REMARK  8 active torsions:
REMARK  status: ('A' for Active; 'I' for Inactive)
REMARK    1  A    between atoms: O1_2  and  C2_3 
REMARK    2  A    between atoms: C2_3  and  O2_4 
REMARK    3  A    between atoms: C2_3  and  C3_6 
REMARK    4  A    between atoms: C3_6  and  C4_7 
REMARK    5  A    between atoms: C8_14  and  O5_15 
REMARK    6  A    between atoms: C8_14  and  C9_17 
REMARK    7  A    between atoms: C10_20  and  C12_22 
REMARK    8  A    between atoms: N2_24  and  O7_26 
ROOT
HETATM    1  C4  UNL     1      14.863   3.934  10.914  1.00  0.00     0.013 C 
HETATM    2  C5  UNL     1      15.685   2.968  10.236  1.00  0.00     0.173 C 
HETATM    3  O3  UNL     1      15.563   2.978   8.985  1.00  0.00    -0.291 OA
HETATM    4  C6  UNL     1      16.641   1.983  10.758  1.00  0.00     0.156 C 
HETATM    5 BR1  UNL     1      15.831   0.459  11.593  1.00  0.00    -0.081 Br
HETATM    6  C7  UNL     1      17.622   2.584  11.742  1.00  0.00     0.196 C 
HETATM    7  O4  UNL     1      16.974   3.342  12.678  1.00  0.00    -0.345 OA
HETATM    8  C8  UNL     1      16.784   4.680  12.334  1.00  0.00     0.260 C 
HETATM    9  C10 UNL     1      15.336   4.848  12.016  1.00  0.00     0.092 C 
HETATM   10  C11 UNL     1      14.544   4.362  13.242  1.00  0.00     0.033 C 
ENDROOT
BRANCH   9  11
HETATM   11  C12 UNL     1      14.916   6.212  11.666  1.00  0.00     0.025 C 
HETATM   12  C13 UNL     1      13.952   7.003  12.437  1.00  0.00     0.066 C 
HETATM   13  N2  UNL     1      15.418   6.766  10.610  1.00  0.00    -0.277 N 
ATOM     14  H2  UNL     1      16.090   6.231  10.058  1.00  0.00     0.193 HD
BRANCH  13  15
HETATM   15  O7  UNL     1      15.097   8.032  10.192  1.00  0.00    -0.290 OA
ATOM     16  H7  UNL     1      14.205   8.328  10.054  1.00  0.00     0.244 HD
ENDBRANCH  13  15
ENDBRANCH   9  11
BRANCH   1  17
HETATM   17  C3  UNL     1      13.601   4.058  10.636  1.00  0.00     0.075 C 
BRANCH  17  18
HETATM   18  C2  UNL     1      12.907   4.456   9.449  1.00  0.00     0.178 C 
BRANCH  18  19
HETATM   19  O1  UNL     1      12.164   3.733   8.574  1.00  0.00    -0.336 OA
HETATM   20  C1  UNL     1      12.581   3.543   7.245  1.00  0.00     0.212 C 
ENDBRANCH  18  19
BRANCH  18  21
HETATM   21  O2  UNL     1      12.989   5.718   9.144  1.00  0.00    -0.341 OA
ATOM     22  H2  UNL     1      13.104   5.877   8.214  1.00  0.00     0.220 HD
ENDBRANCH  18  21
ENDBRANCH  17  18
ENDBRANCH   1  17
BRANCH   8  23
HETATM   23  O5  UNL     1      17.634   5.070  11.303  1.00  0.00    -0.357 OA
ATOM     24  H5  UNL     1      17.889   4.331  10.762  1.00  0.00     0.213 HD
ENDBRANCH   8  23
BRANCH   8  25
HETATM   25  C9  UNL     1      17.150   5.498  13.514  1.00  0.00     0.295 C 
HETATM   26  N1  UNL     1      17.471   4.935  14.781  1.00  0.00    -0.057 NA
HETATM   27  O6  UNL     1      17.187   6.746  13.428  1.00  0.00    -0.271 OA
ENDBRANCH   8  25
TORSDOF 8
ENDMDL
MODEL 4
REMARK VINA RESULT: -5.438250107      3.568      6.319
REMARK  8 active torsions:
REMARK  status: ('A' for Active; 'I' for Inactive)
REMARK    1  A    between atoms: O1_2  and  C2_3 
REMARK    2  A    between atoms: C2_3  and  O2_4 
REMARK    3  A    between atoms: C2_3  and  C3_6 
REMARK    4  A    between atoms: C3_6  and  C4_7 
REMARK    5  A    between atoms: C8_14  and  O5_15 
REMARK    6  A    between atoms: C8_14  and  C9_17 
REMARK    7  A    between atoms: C10_20  and  C12_22 
REMARK    8  A    between atoms: N2_24  and  O7_26 
ROOT
HETATM    1  C4  UNL     1      14.864   8.469  13.132  1.00  0.00     0.013 C 
HETATM    2  C5  UNL     1      14.740   9.647  12.316  1.00  0.00     0.173 C 
HETATM    3  O3  UNL     1      15.707  10.443  12.417  1.00  0.00    -0.291 OA
HETATM    4  C6  UNL     1      13.682  10.068  11.389  1.00  0.00     0.156 C 
HETATM    5 BR1  UNL     1      12.083  10.694  12.243  1.00  0.00    -0.081 Br
HETATM    6  C7  UNL     1      13.291   8.978  10.414  1.00  0.00     0.196 C 
HETATM    7  O4  UNL     1      13.078   7.793  11.064  1.00  0.00    -0.345 OA
HETATM    8  C8  UNL     1      14.208   6.990  11.222  1.00  0.00     0.260 C 
HETATM    9  C10 UNL     1      14.597   7.061  12.661  1.00  0.00     0.092 C 
HETATM   10  C11 UNL     1      13.367   6.641  13.483  1.00  0.00     0.033 C 
ENDROOT
BRANCH   9  11
HETATM   11  C12 UNL     1      15.754   6.241  13.048  1.00  0.00     0.025 C 
HETATM   12  C13 UNL     1      17.139   6.534  12.666  1.00  0.00     0.066 C 
HETATM   13  N2  UNL     1      15.554   5.187  13.769  1.00  0.00    -0.277 N 
ATOM     14  H2  UNL     1      14.597   4.963  14.044  1.00  0.00     0.193 HD
BRANCH  13  15
HETATM   15  O7  UNL     1      16.560   4.351  14.185  1.00  0.00    -0.290 OA
ATOM     16  H7  UNL     1      16.535   3.408  14.081  1.00  0.00     0.244 HD
ENDBRANCH  13  15
ENDBRANCH   9  11
BRANCH   1  17
HETATM   17  C3  UNL     1      15.189   8.548  14.386  1.00  0.00     0.075 C 
BRANCH  17  18
HETATM   18  C2  UNL     1      14.758   9.411  15.444  1.00  0.00     0.178 C 
BRANCH  18  19
HETATM   19  O1  UNL     1      15.131  10.676  15.761  1.00  0.00    -0.336 OA
HETATM   20  C1  UNL     1      16.073  10.928  16.774  1.00  0.00     0.212 C 
ENDBRANCH  18  19
BRANCH  18  21
HETATM   21  O2  UNL     1      13.858   8.918  16.243  1.00  0.00    -0.341 OA
ATOM     22  H2  UNL     1      14.223   8.481  17.003  1.00  0.00     0.220 HD
ENDBRANCH  18  21
ENDBRANCH  17  18
ENDBRANCH   1  17
BRANCH   8  23
HETATM   23  O5  UNL     1      15.225   7.359  10.347  1.00  0.00    -0.357 OA
ATOM     24  H5  UNL     1      15.956   6.752  10.385  1.00  0.00     0.213 HD
ENDBRANCH   8  23
BRANCH   8  25
HETATM   25  C9  UNL     1      13.822   5.606  10.861  1.00  0.00     0.295 C 
HETATM   26  N1  UNL     1      14.754   4.534  10.782  1.00  0.00    -0.057 NA
HETATM   27  O6  UNL     1      12.627   5.332  10.607  1.00  0.00    -0.271 OA
ENDBRANCH   8  25
TORSDOF 8
ENDMDL
MODEL 5
REMARK VINA RESULT: -5.401823563      2.727      4.573
REMARK  8 active torsions:
REMARK  status: ('A' for Active; 'I' for Inactive)
REMARK    1  A    between atoms: O1_2  and  C2_3 
REMARK    2  A    between atoms: C2_3  and  O2_4 
REMARK    3  A    between atoms: C2_3  and  C3_6 
REMARK    4  A    between atoms: C3_6  and  C4_7 
REMARK    5  A    between atoms: C8_14  and  O5_15 
REMARK    6  A    between atoms: C8_14  and  C9_17 
REMARK    7  A    between atoms: C10_20  and  C12_22 
REMARK    8  A    between atoms: N2_24  and  O7_26 
ROOT
HETATM    1  C4  UNL     1      16.257   2.928  11.610  1.00  0.00     0.013 C 
HETATM    2  C5  UNL     1      14.832   3.124  11.611  1.00  0.00     0.173 C 
HETATM    3  O3  UNL     1      14.169   2.066  11.472  1.00  0.00    -0.291 OA
HETATM    4  C6  UNL     1      14.029   4.346  11.751  1.00  0.00     0.156 C 
HETATM    5 BR1  UNL     1      14.014   5.467  10.195  1.00  0.00    -0.081 Br
HETATM    6  C7  UNL     1      14.457   5.194  12.930  1.00  0.00     0.196 C 
HETATM    7  O4  UNL     1      15.813   5.367  12.943  1.00  0.00    -0.345 OA
HETATM    8  C8  UNL     1      16.531   4.385  13.626  1.00  0.00     0.260 C 
HETATM    9  C10 UNL     1      17.214   3.547  12.597  1.00  0.00     0.092 C 
HETATM   10  C11 UNL     1      18.055   4.497  11.726  1.00  0.00     0.033 C 
ENDROOT
BRANCH   9  11
HETATM   11  C12 UNL     1      18.066   2.470  13.119  1.00  0.00     0.025 C 
HETATM   12  C13 UNL     1      19.495   2.328  12.818  1.00  0.00     0.066 C 
HETATM   13  N2  UNL     1      17.538   1.578  13.892  1.00  0.00    -0.277 N 
ATOM     14  H2  UNL     1      16.545   1.658  14.113  1.00  0.00     0.193 HD
BRANCH  13  15
HETATM   15  O7  UNL     1      18.241   0.532  14.433  1.00  0.00    -0.290 OA
ATOM     16  H7  UNL     1      17.833  -0.265  14.751  1.00  0.00     0.244 HD
ENDBRANCH  13  15
ENDBRANCH   9  11
BRANCH   1  17
HETATM   17  C3  UNL     1      16.838   2.209  10.699  1.00  0.00     0.075 C 
BRANCH  17  18
HETATM   18  C2  UNL     1      16.750   2.201   9.270  1.00  0.00     0.178 C 
BRANCH  18  19
HETATM   19  O1  UNL     1      15.800   1.693   8.445  1.00  0.00    -0.336 OA
HETATM   20  C1  UNL     1      14.816   2.515   7.870  1.00  0.00     0.212 C 
ENDBRANCH  18  19
BRANCH  18  21
HETATM   21  O2  UNL     1      17.733   2.775   8.641  1.00  0.00    -0.341 OA
ATOM     22  H2  UNL     1      18.377   3.166   9.219  1.00  0.00     0.220 HD
ENDBRANCH  18  21
ENDBRANCH  17  18
ENDBRANCH   1  17
BRANCH   8  23
HETATM   23  O5  UNL     1      15.715   3.660  14.489  1.00  0.00    -0.357 OA
ATOM     24  H5  UNL     1      16.189   2.947  14.902  1.00  0.00     0.213 HD
ENDBRANCH   8  23
BRANCH   8  25
HETATM   25  C9  UNL     1      17.531   5.077  14.473  1.00  0.00     0.295 C 
HETATM   26  N1  UNL     1      17.804   6.470  14.374  1.00  0.00    -0.057 NA
HETATM   27  O6  UNL     1      18.186   4.435  15.325  1.00  0.00    -0.271 OA
ENDBRANCH   8  25
TORSDOF 8
ENDMDL
