MODEL 1
REMARK VINA RESULT: -11.777970064      0.000      0.000
REMARK  3 active torsions:
REMARK  status: ('A' for Active; 'I' for Inactive)
REMARK    1  A    between atoms: N3_9  and  C5_11 
REMARK    2  A    between atoms: C9_16  and  S1_17 
REMARK    3  A    between atoms: S1_17  and  N4_18 
ROOT
HETATM    1  N1  UNL     1      15.635   8.309  14.575  1.00  0.00    -0.388 N 
ATOM      2  H11 UNL     1      15.934   8.804  15.414  1.00  0.00     0.157 HD
ATOM      3  H12 UNL     1      16.117   7.438  14.352  1.00  0.00     0.157 HD
HETATM    4  C1  UNL     1      14.709   8.750  13.832  1.00  0.00     0.089 C 
HETATM    5  C2  UNL     1      14.279   8.038  12.624  1.00  0.00     0.097 C 
HETATM    6  C3  UNL     1      13.812   8.920  11.513  1.00  0.00     0.157 C 
HETATM    7  N2  UNL     1      13.163  10.114  11.935  1.00  0.00    -0.164 N 
HETATM    8  C4  UNL     1      12.346  11.031  11.321  1.00  0.00     0.687 A 
HETATM    9  N3  UNL     1      11.969  10.956  10.122  1.00  0.00    -0.191 N 
ATOM     10  H3  UNL     1      12.307  10.151   9.594  1.00  0.00     0.184 HD
HETATM   11  N5  UNL     1      12.026  11.997  12.196  1.00  0.00    -0.182 N 
ATOM     12  H5  UNL     1      11.430  12.800  11.994  1.00  0.00     0.184 HD
HETATM   13  C11 UNL     1      12.619  11.740  13.391  1.00  0.00     0.162 A 
HETATM   14  C12 UNL     1      12.686  12.304  14.631  1.00  0.00     0.280 A 
HETATM   15  O3  UNL     1      12.065  13.367  14.832  1.00  0.00    -0.265 OA
HETATM   16  N6  UNL     1      13.429  11.683  15.591  1.00  0.00    -0.273 N 
ATOM     17  H6  UNL     1      13.482  12.103  16.519  1.00  0.00     0.173 HD
HETATM   18  C13 UNL     1      14.094  10.535  15.359  1.00  0.00     0.336 A 
HETATM   19  O4  UNL     1      14.769   9.976  16.249  1.00  0.00    -0.246 OA
HETATM   20  N7  UNL     1      14.033   9.971  14.144  1.00  0.00    -0.235 N 
HETATM   21  C14 UNL     1      13.313  10.564  13.183  1.00  0.00     0.168 A 
ENDROOT
BRANCH   9  22
HETATM   22  C5  UNL     1      11.142  11.842   9.431  1.00  0.00     0.053 A 
HETATM   23  C6  UNL     1      11.521  13.161   9.299  1.00  0.00     0.072 A 
HETATM   24  C7  UNL     1      10.719  14.078   8.615  1.00  0.00     0.120 A 
HETATM   25  F1  UNL     1      11.075  15.379   8.475  1.00  0.00    -0.206 F 
HETATM   26  C8  UNL     1       9.530  13.644   8.063  1.00  0.00     0.067 A 
HETATM   27  C9  UNL     1       9.126  12.319   8.182  1.00  0.00     0.084 A 
HETATM   28  C10 UNL     1       9.950  11.449   8.866  1.00  0.00     0.055 A 
BRANCH  27  29
HETATM   29  S1  UNL     1       7.615  11.766   7.481  1.00  0.00     0.256 S 
HETATM   30  O1  UNL     1       7.846  10.613   6.547  1.00  0.00    -0.201 OA
HETATM   31  O2  UNL     1       6.646  11.342   8.554  1.00  0.00    -0.201 OA
BRANCH  29  32
HETATM   32  N4  UNL     1       6.892  13.111   6.647  1.00  0.00    -0.324 N 
ATOM     33  H42 UNL     1       7.139  14.092   6.783  1.00  0.00     0.169 HD
ATOM     34  H41 UNL     1       6.188  12.740   6.009  1.00  0.00     0.169 HD
ENDBRANCH  29  32
ENDBRANCH  27  29
ENDBRANCH   9  22
TORSDOF 3
ENDMDL
MODEL 2
REMARK VINA RESULT: -10.443116793      1.888      2.451
REMARK  3 active torsions:
REMARK  status: ('A' for Active; 'I' for Inactive)
REMARK    1  A    between atoms: N3_9  and  C5_11 
REMARK    2  A    between atoms: C9_16  and  S1_17 
REMARK    3  A    between atoms: S1_17  and  N4_18 
ROOT
HETATM    1  N1  UNL     1      16.098   5.592  11.694  1.00  0.00    -0.388 N 
ATOM      2  H11 UNL     1      16.778   5.876  12.400  1.00  0.00     0.157 HD
ATOM      3  H12 UNL     1      16.250   4.692  11.238  1.00  0.00     0.157 HD
HETATM    4  C1  UNL     1      15.108   6.320  11.388  1.00  0.00     0.089 C 
HETATM    5  C2  UNL     1      14.132   5.912  10.374  1.00  0.00     0.097 C 
HETATM    6  C3  UNL     1      13.537   7.037   9.591  1.00  0.00     0.157 C 
HETATM    7  N2  UNL     1      13.380   8.250  10.320  1.00  0.00    -0.164 N 
HETATM    8  C4  UNL     1      12.648   9.395  10.130  1.00  0.00     0.687 A 
HETATM    9  N3  UNL     1      11.874   9.591   9.156  1.00  0.00    -0.191 N 
ATOM     10  H3  UNL     1      11.806   8.833   8.477  1.00  0.00     0.184 HD
HETATM   11  N5  UNL     1      12.890  10.249  11.137  1.00  0.00    -0.182 N 
ATOM     12  H5  UNL     1      12.473  11.174  11.238  1.00  0.00     0.184 HD
HETATM   13  C11 UNL     1      13.778   9.690  12.000  1.00  0.00     0.162 A 
HETATM   14  C12 UNL     1      14.402  10.020  13.167  1.00  0.00     0.280 A 
HETATM   15  O3  UNL     1      14.163  11.136  13.671  1.00  0.00    -0.265 OA
HETATM   16  N6  UNL     1      15.257   9.118  13.729  1.00  0.00    -0.273 N 
ATOM     17  H6  UNL     1      15.726   9.363  14.601  1.00  0.00     0.173 HD
HETATM   18  C13 UNL     1      15.505   7.917  13.174  1.00  0.00     0.336 A 
HETATM   19  O4  UNL     1      16.290   7.100  13.700  1.00  0.00    -0.246 OA
HETATM   20  N7  UNL     1      14.896   7.582  12.027  1.00  0.00    -0.235 N 
HETATM   21  C14 UNL     1      14.054   8.452  11.455  1.00  0.00     0.168 A 
ENDROOT
BRANCH   9  22
HETATM   22  C5  UNL     1      11.100  10.722   8.897  1.00  0.00     0.053 A 
HETATM   23  C6  UNL     1      11.608  11.972   9.177  1.00  0.00     0.072 A 
HETATM   24  C7  UNL     1      10.862  13.127   8.931  1.00  0.00     0.120 A 
HETATM   25  F1  UNL     1      11.345  14.365   9.200  1.00  0.00    -0.206 F 
HETATM   26  C8  UNL     1       9.594  13.003   8.396  1.00  0.00     0.067 A 
HETATM   27  C9  UNL     1       9.059  11.753   8.105  1.00  0.00     0.084 A 
HETATM   28  C10 UNL     1       9.833  10.640   8.364  1.00  0.00     0.055 A 
BRANCH  27  29
HETATM   29  S1  UNL     1       7.449  11.593   7.425  1.00  0.00     0.256 S 
HETATM   30  O1  UNL     1       7.406  10.497   6.400  1.00  0.00    -0.201 OA
HETATM   31  O2  UNL     1       6.436  11.299   8.501  1.00  0.00    -0.201 OA
BRANCH  29  32
HETATM   32  N4  UNL     1       7.014  13.124   6.723  1.00  0.00    -0.324 N 
ATOM     33  H42 UNL     1       7.660  13.890   6.531  1.00  0.00     0.169 HD
ATOM     34  H41 UNL     1       6.010  13.110   6.542  1.00  0.00     0.169 HD
ENDBRANCH  29  32
ENDBRANCH  27  29
ENDBRANCH   9  22
TORSDOF 3
ENDMDL
MODEL 3
REMARK VINA RESULT: -10.352982914      1.850      2.820
REMARK  3 active torsions:
REMARK  status: ('A' for Active; 'I' for Inactive)
REMARK    1  A    between atoms: N3_9  and  C5_11 
REMARK    2  A    between atoms: C9_16  and  S1_17 
REMARK    3  A    between atoms: S1_17  and  N4_18 
ROOT
HETATM    1  N1  UNL     1      14.757   8.740  15.875  1.00  0.00    -0.388 N 
ATOM      2  H11 UNL     1      15.081   7.793  15.678  1.00  0.00     0.157 HD
ATOM      3  H12 UNL     1      14.753   9.037  16.851  1.00  0.00     0.157 HD
HETATM    4  C1  UNL     1      14.368   9.518  14.955  1.00  0.00     0.089 C 
HETATM    5  C2  UNL     1      13.902  10.879  15.237  1.00  0.00     0.097 C 
HETATM    6  C3  UNL     1      12.835  11.376  14.318  1.00  0.00     0.157 C 
HETATM    7  N2  UNL     1      12.927  10.891  12.983  1.00  0.00    -0.164 N 
HETATM    8  C4  UNL     1      12.388  11.279  11.781  1.00  0.00     0.687 A 
HETATM    9  N3  UNL     1      11.629  12.272  11.630  1.00  0.00    -0.191 N 
ATOM     10  H3  UNL     1      11.416  12.807  12.472  1.00  0.00     0.184 HD
HETATM   11  N5  UNL     1      12.799  10.439  10.819  1.00  0.00    -0.182 N 
ATOM     12  H5  UNL     1      12.544  10.502   9.833  1.00  0.00     0.184 HD
HETATM   13  C11 UNL     1      13.607   9.490  11.360  1.00  0.00     0.162 A 
HETATM   14  C12 UNL     1      14.318   8.404  10.940  1.00  0.00     0.280 A 
HETATM   15  O3  UNL     1      14.280   8.104   9.730  1.00  0.00    -0.265 OA
HETATM   16  N6  UNL     1      15.035   7.698  11.860  1.00  0.00    -0.273 N 
ATOM     17  H6  UNL     1      15.566   6.885  11.549  1.00  0.00     0.173 HD
HETATM   18  C13 UNL     1      15.067   8.035  13.164  1.00  0.00     0.336 A 
HETATM   19  O4  UNL     1      15.729   7.379  13.995  1.00  0.00    -0.246 OA
HETATM   20  N7  UNL     1      14.373   9.101  13.586  1.00  0.00    -0.235 N 
HETATM   21  C14 UNL     1      13.659   9.810  12.703  1.00  0.00     0.168 A 
ENDROOT
BRANCH   9  22
HETATM   22  C5  UNL     1      11.047  12.728  10.448  1.00  0.00     0.053 A 
HETATM   23  C6  UNL     1      11.411  13.957   9.941  1.00  0.00     0.072 A 
HETATM   24  C7  UNL     1      10.849  14.447   8.760  1.00  0.00     0.120 A 
HETATM   25  F1  UNL     1      11.194  15.653   8.246  1.00  0.00    -0.206 F 
HETATM   26  C8  UNL     1       9.914  13.677   8.095  1.00  0.00     0.067 A 
HETATM   27  C9  UNL     1       9.530  12.435   8.586  1.00  0.00     0.084 A 
HETATM   28  C10 UNL     1      10.112  11.991   9.756  1.00  0.00     0.055 A 
BRANCH  27  29
HETATM   29  S1  UNL     1       8.342  11.455   7.744  1.00  0.00     0.256 S 
HETATM   30  O1  UNL     1       8.898  10.099   7.416  1.00  0.00    -0.201 OA
HETATM   31  O2  UNL     1       7.095  11.288   8.573  1.00  0.00    -0.201 OA
BRANCH  29  32
HETATM   32  N4  UNL     1       7.879  12.307   6.298  1.00  0.00    -0.324 N 
ATOM     33  H42 UNL     1       8.087  13.286   6.098  1.00  0.00     0.169 HD
ATOM     34  H41 UNL     1       7.371  11.654   5.701  1.00  0.00     0.169 HD
ENDBRANCH  29  32
ENDBRANCH  27  29
ENDBRANCH   9  22
TORSDOF 3
ENDMDL
MODEL 4
REMARK VINA RESULT: -9.986073831      2.326      3.312
REMARK  3 active torsions:
REMARK  status: ('A' for Active; 'I' for Inactive)
REMARK    1  A    between atoms: N3_9  and  C5_11 
REMARK    2  A    between atoms: C9_16  and  S1_17 
REMARK    3  A    between atoms: S1_17  and  N4_18 
ROOT
HETATM    1  N1  UNL     1      15.181   7.726  14.098  1.00  0.00    -0.388 N 
ATOM      2  H11 UNL     1      15.087   6.720  13.957  1.00  0.00     0.157 HD
ATOM      3  H12 UNL     1      15.645   8.034  14.952  1.00  0.00     0.157 HD
HETATM    4  C1  UNL     1      14.738   8.564  13.258  1.00  0.00     0.089 C 
HETATM    5  C2  UNL     1      14.872  10.009  13.462  1.00  0.00     0.097 C 
HETATM    6  C3  UNL     1      13.751  10.825  12.904  1.00  0.00     0.157 C 
HETATM    7  N2  UNL     1      13.166  10.298  11.718  1.00  0.00    -0.164 N 
HETATM    8  C4  UNL     1      12.362  10.816  10.734  1.00  0.00     0.687 A 
HETATM    9  N3  UNL     1      11.960  12.009  10.698  1.00  0.00    -0.191 N 
ATOM     10  H3  UNL     1      12.266  12.609  11.464  1.00  0.00     0.184 HD
HETATM   11  N5  UNL     1      12.084   9.856   9.837  1.00  0.00    -0.182 N 
ATOM     12  H5  UNL     1      11.505   9.977   9.006  1.00  0.00     0.184 HD
HETATM   13  C11 UNL     1      12.692   8.700  10.208  1.00  0.00     0.162 A 
HETATM   14  C12 UNL     1      12.805   7.421   9.749  1.00  0.00     0.280 A 
HETATM   15  O3  UNL     1      12.213   7.117   8.693  1.00  0.00    -0.265 OA
HETATM   16  N6  UNL     1      13.556   6.534  10.462  1.00  0.00    -0.273 N 
ATOM     17  H6  UNL     1      13.640   5.576  10.122  1.00  0.00     0.173 HD
HETATM   18  C13 UNL     1      14.189   6.876  11.600  1.00  0.00     0.336 A 
HETATM   19  O4  UNL     1      14.874   6.053  12.243  1.00  0.00    -0.246 OA
HETATM   20  N7  UNL     1      14.086   8.132  12.061  1.00  0.00    -0.235 N 
HETATM   21  C14 UNL     1      13.352   9.020  11.379  1.00  0.00     0.168 A 
ENDROOT
BRANCH   9  22
HETATM   22  C5  UNL     1      11.145  12.606   9.735  1.00  0.00     0.053 A 
HETATM   23  C6  UNL     1      11.412  13.894   9.325  1.00  0.00     0.072 A 
HETATM   24  C7  UNL     1      10.618  14.525   8.364  1.00  0.00     0.120 A 
HETATM   25  F1  UNL     1      10.865  15.792   7.948  1.00  0.00    -0.206 F 
HETATM   26  C8  UNL     1       9.552  13.836   7.821  1.00  0.00     0.067 A 
HETATM   27  C9  UNL     1       9.263  12.535   8.218  1.00  0.00     0.084 A 
HETATM   28  C10 UNL     1      10.074  11.952   9.170  1.00  0.00     0.055 A 
BRANCH  27  29
HETATM   29  S1  UNL     1       7.908  11.658   7.529  1.00  0.00     0.256 S 
HETATM   30  O1  UNL     1       8.363  10.370   6.905  1.00  0.00    -0.201 OA
HETATM   31  O2  UNL     1       6.871  11.355   8.580  1.00  0.00    -0.201 OA
BRANCH  29  32
HETATM   32  N4  UNL     1       7.149  12.689   6.351  1.00  0.00    -0.324 N 
ATOM     33  H42 UNL     1       7.453  13.634   6.111  1.00  0.00     0.169 HD
ATOM     34  H41 UNL     1       6.360  12.181   5.954  1.00  0.00     0.169 HD
ENDBRANCH  29  32
ENDBRANCH  27  29
ENDBRANCH   9  22
TORSDOF 3
ENDMDL
MODEL 5
REMARK VINA RESULT: -9.483457549      1.977      2.744
REMARK  3 active torsions:
REMARK  status: ('A' for Active; 'I' for Inactive)
REMARK    1  A    between atoms: N3_9  and  C5_11 
REMARK    2  A    between atoms: C9_16  and  S1_17 
REMARK    3  A    between atoms: S1_17  and  N4_18 
ROOT
HETATM    1  N1  UNL     1      16.896   5.550  11.883  1.00  0.00    -0.388 N 
ATOM      2  H11 UNL     1      17.538   5.765  12.645  1.00  0.00     0.157 HD
ATOM      3  H12 UNL     1      17.140   4.770  11.274  1.00  0.00     0.157 HD
HETATM    4  C1  UNL     1      15.840   6.223  11.690  1.00  0.00     0.089 C 
HETATM    5  C2  UNL     1      14.916   5.915  10.594  1.00  0.00     0.097 C 
HETATM    6  C3  UNL     1      14.216   7.101  10.016  1.00  0.00     0.157 C 
HETATM    7  N2  UNL     1      13.933   8.137  10.950  1.00  0.00    -0.164 N 
HETATM    8  C4  UNL     1      13.090   9.221  10.955  1.00  0.00     0.687 A 
HETATM    9  N3  UNL     1      12.308   9.517  10.013  1.00  0.00    -0.191 N 
ATOM     10  H3  UNL     1      12.321   8.894   9.206  1.00  0.00     0.184 HD
HETATM   11  N5  UNL     1      13.240   9.894  12.106  1.00  0.00    -0.182 N 
ATOM     12  H5  UNL     1      12.731  10.740  12.364  1.00  0.00     0.184 HD
HETATM   13  C11 UNL     1      14.173   9.276  12.875  1.00  0.00     0.162 A 
HETATM   14  C12 UNL     1      14.753   9.444  14.098  1.00  0.00     0.280 A 
HETATM   15  O3  UNL     1      14.400  10.420  14.791  1.00  0.00    -0.265 OA
HETATM   16  N6  UNL     1      15.691   8.542  14.506  1.00  0.00    -0.273 N 
ATOM     17  H6  UNL     1      16.127   8.667  15.419  1.00  0.00     0.173 HD
HETATM   18  C13 UNL     1      16.062   7.493  13.747  1.00  0.00     0.336 A 
HETATM   19  O4  UNL     1      16.921   6.675  14.135  1.00  0.00    -0.246 OA
HETATM   20  N7  UNL     1      15.497   7.318  12.543  1.00  0.00    -0.235 N 
HETATM   21  C14 UNL     1      14.576   8.192  12.119  1.00  0.00     0.168 A 
ENDROOT
BRANCH   9  22
HETATM   22  C5  UNL     1      11.425  10.595   9.946  1.00  0.00     0.053 A 
HETATM   23  C6  UNL     1      11.566  11.645  10.828  1.00  0.00     0.072 A 
HETATM   24  C7  UNL     1      10.701  12.740  10.790  1.00  0.00     0.120 A 
HETATM   25  F1  UNL     1      10.824  13.783  11.650  1.00  0.00    -0.206 F 
HETATM   26  C8  UNL     1       9.691  12.764   9.848  1.00  0.00     0.067 A 
HETATM   27  C9  UNL     1       9.528  11.717   8.948  1.00  0.00     0.084 A 
HETATM   28  C10 UNL     1      10.406  10.655   9.022  1.00  0.00     0.055 A 
BRANCH  27  29
HETATM   29  S1  UNL     1       8.246  11.744   7.750  1.00  0.00     0.256 S 
HETATM   30  O1  UNL     1       8.446  10.666   6.724  1.00  0.00    -0.201 OA
HETATM   31  O2  UNL     1       6.898  11.561   8.398  1.00  0.00    -0.201 OA
BRANCH  29  32
HETATM   32  N4  UNL     1       8.242  13.319   7.010  1.00  0.00    -0.324 N 
ATOM     33  H42 UNL     1       9.073  13.844   6.735  1.00  0.00     0.169 HD
ATOM     34  H41 UNL     1       7.271  13.612   6.905  1.00  0.00     0.169 HD
ENDBRANCH  29  32
ENDBRANCH  27  29
ENDBRANCH   9  22
TORSDOF 3
ENDMDL
