MODEL 1
REMARK VINA RESULT: -6.799214632      0.000      0.000
REMARK  10 active torsions:
REMARK  status: ('A' for Active; 'I' for Inactive)
REMARK    1  A    between atoms: C2_2  and  C5_5 
REMARK    2  A    between atoms: C5_5  and  C6_6 
REMARK    3  A    between atoms: C6_6  and  N1_7 
REMARK    4  A    between atoms: N1_7  and  O1_8 
REMARK    5  A    between atoms: N1_7  and  C7_10 
REMARK    6  A    between atoms: C8_11  and  C9_12 
REMARK    7  A    between atoms: C10_14  and  C11_15 
REMARK    8  A    between atoms: C11_15  and  O3_16 
REMARK    9  A    between atoms: C11_15  and  C12_18 
REMARK   10  A    between atoms: C12_18  and  O4_19 
ROOT
HETATM    1  C9  UNL     1      -3.408   3.617  12.753  1.00  0.00     0.215 C 
HETATM    2  O2  UNL     1      -3.768   2.263  12.857  1.00  0.00    -0.366 OA
HETATM    3  C10 UNL     1      -3.262   1.559  11.813  1.00  0.00     0.160 C 
HETATM    4  C13 UNL     1      -2.462   2.532  10.936  1.00  0.00     0.116 C 
HETATM    5  C14 UNL     1      -2.165   3.539  11.973  1.00  0.00     0.161 C 
HETATM    6  O5  UNL     1      -1.147   4.131  12.119  1.00  0.00    -0.295 OA
ENDROOT
BRANCH   1   7
HETATM    7  C8  UNL     1      -3.260   4.248  14.054  1.00  0.00     0.031 C 
HETATM    8  C7  UNL     1      -4.270   4.556  14.826  1.00  0.00     0.115 C 
BRANCH   8   9
HETATM    9  N1  UNL     1      -5.641   4.361  14.595  1.00  0.00    -0.272 N 
BRANCH   9  10
HETATM   10  C6  UNL     1      -6.240   3.099  14.989  1.00  0.00     0.155 C 
BRANCH  10  11
HETATM   11  C5  UNL     1      -6.550   3.241  16.472  1.00  0.00     0.030 C 
BRANCH  11  12
HETATM   12  C2  UNL     1      -6.336   1.962  17.233  1.00  0.00    -0.050 C 
HETATM   13  C1  UNL     1      -6.189   2.159  18.708  1.00  0.00     0.014 C 
HETATM   14  C3  UNL     1      -5.033   1.360  16.702  1.00  0.00     0.014 C 
HETATM   15  C4  UNL     1      -7.444   1.006  16.941  1.00  0.00     0.014 C 
ENDBRANCH  11  12
ENDBRANCH  10  11
ENDBRANCH   9  10
BRANCH   9  16
HETATM   16  O1  UNL     1      -6.439   5.266  14.035  1.00  0.00    -0.288 OA
ATOM     17  H1  UNL     1      -7.253   5.464  14.481  1.00  0.00     0.244 HD
ENDBRANCH   9  16
ENDBRANCH   8   9
ENDBRANCH   1   7
BRANCH   3  18
HETATM   18  C11 UNL     1      -4.217   0.726  11.028  1.00  0.00     0.171 C 
BRANCH  18  19
HETATM   19  O3  UNL     1      -5.467   1.388  11.074  1.00  0.00    -0.391 OA
ATOM     20  H3  UNL     1      -6.130   0.735  10.880  1.00  0.00     0.210 HD
ENDBRANCH  18  19
BRANCH  18  21
HETATM   21  C12 UNL     1      -4.372  -0.669  11.550  1.00  0.00     0.198 C 
BRANCH  21  22
HETATM   22  O4  UNL     1      -4.391  -0.606  12.957  1.00  0.00    -0.398 OA
ATOM     23  H4  UNL     1      -4.385  -1.496  13.290  1.00  0.00     0.209 HD
ENDBRANCH  21  22
ENDBRANCH  18  21
ENDBRANCH   3  18
TORSDOF 10
ENDMDL
MODEL 2
REMARK VINA RESULT: -6.674196484      0.639      1.144
REMARK  10 active torsions:
REMARK  status: ('A' for Active; 'I' for Inactive)
REMARK    1  A    between atoms: C2_2  and  C5_5 
REMARK    2  A    between atoms: C5_5  and  C6_6 
REMARK    3  A    between atoms: C6_6  and  N1_7 
REMARK    4  A    between atoms: N1_7  and  O1_8 
REMARK    5  A    between atoms: N1_7  and  C7_10 
REMARK    6  A    between atoms: C8_11  and  C9_12 
REMARK    7  A    between atoms: C10_14  and  C11_15 
REMARK    8  A    between atoms: C11_15  and  O3_16 
REMARK    9  A    between atoms: C11_15  and  C12_18 
REMARK   10  A    between atoms: C12_18  and  O4_19 
ROOT
HETATM    1  C9  UNL     1      -3.515   3.217  12.827  1.00  0.00     0.215 C 
HETATM    2  O2  UNL     1      -3.667   1.858  13.151  1.00  0.00    -0.366 OA
HETATM    3  C10 UNL     1      -3.141   1.078  12.171  1.00  0.00     0.160 C 
HETATM    4  C13 UNL     1      -2.556   2.007  11.097  1.00  0.00     0.116 C 
HETATM    5  C14 UNL     1      -2.334   3.188  11.952  1.00  0.00     0.161 C 
HETATM    6  O5  UNL     1      -1.404   3.925  11.920  1.00  0.00    -0.295 OA
ENDROOT
BRANCH   1   7
HETATM    7  C8  UNL     1      -3.365   4.050  14.009  1.00  0.00     0.031 C 
HETATM    8  C7  UNL     1      -4.375   4.510  14.700  1.00  0.00     0.115 C 
BRANCH   8   9
HETATM    9  N1  UNL     1      -5.749   4.319  14.478  1.00  0.00    -0.272 N 
BRANCH   9  10
HETATM   10  C6  UNL     1      -6.363   3.090  14.943  1.00  0.00     0.155 C 
BRANCH  10  11
HETATM   11  C5  UNL     1      -6.502   3.248  16.450  1.00  0.00     0.030 C 
BRANCH  11  12
HETATM   12  C2  UNL     1      -6.295   1.956  17.190  1.00  0.00    -0.050 C 
HETATM   13  C1  UNL     1      -6.156   2.127  18.669  1.00  0.00     0.014 C 
HETATM   14  C3  UNL     1      -4.991   1.360  16.656  1.00  0.00     0.014 C 
HETATM   15  C4  UNL     1      -7.404   1.008  16.876  1.00  0.00     0.014 C 
ENDBRANCH  11  12
ENDBRANCH  10  11
ENDBRANCH   9  10
BRANCH   9  16
HETATM   16  O1  UNL     1      -6.535   5.199  13.866  1.00  0.00    -0.288 OA
ATOM     17  H1  UNL     1      -6.269   6.111  13.889  1.00  0.00     0.244 HD
ENDBRANCH   9  16
ENDBRANCH   8   9
ENDBRANCH   1   7
BRANCH   3  18
HETATM   18  C11 UNL     1      -4.021   0.018  11.602  1.00  0.00     0.171 C 
BRANCH  18  19
HETATM   19  O3  UNL     1      -3.169  -1.004  11.121  1.00  0.00    -0.391 OA
ATOM     20  H3  UNL     1      -2.300  -0.816  11.455  1.00  0.00     0.210 HD
ENDBRANCH  18  19
BRANCH  18  21
HETATM   21  C12 UNL     1      -4.903   0.498  10.491  1.00  0.00     0.198 C 
BRANCH  21  22
HETATM   22  O4  UNL     1      -5.794   1.448  11.024  1.00  0.00    -0.398 OA
ATOM     23  H4  UNL     1      -5.395   2.306  10.934  1.00  0.00     0.209 HD
ENDBRANCH  21  22
ENDBRANCH  18  21
ENDBRANCH   3  18
TORSDOF 10
ENDMDL
MODEL 3
REMARK VINA RESULT: -6.659349387      1.856      5.128
REMARK  10 active torsions:
REMARK  status: ('A' for Active; 'I' for Inactive)
REMARK    1  A    between atoms: C2_2  and  C5_5 
REMARK    2  A    between atoms: C5_5  and  C6_6 
REMARK    3  A    between atoms: C6_6  and  N1_7 
REMARK    4  A    between atoms: N1_7  and  O1_8 
REMARK    5  A    between atoms: N1_7  and  C7_10 
REMARK    6  A    between atoms: C8_11  and  C9_12 
REMARK    7  A    between atoms: C10_14  and  C11_15 
REMARK    8  A    between atoms: C11_15  and  O3_16 
REMARK    9  A    between atoms: C11_15  and  C12_18 
REMARK   10  A    between atoms: C12_18  and  O4_19 
ROOT
HETATM    1  C9  UNL     1      -4.124   4.399  14.811  1.00  0.00     0.215 C 
HETATM    2  O2  UNL     1      -3.806   3.039  14.963  1.00  0.00    -0.366 OA
HETATM    3  C10 UNL     1      -4.886   2.349  15.410  1.00  0.00     0.160 C 
HETATM    4  C13 UNL     1      -6.051   3.341  15.547  1.00  0.00     0.116 C 
HETATM    5  C14 UNL     1      -5.574   4.345  14.578  1.00  0.00     0.161 C 
HETATM    6  O5  UNL     1      -6.233   4.952  13.800  1.00  0.00    -0.295 OA
ENDROOT
BRANCH   1   7
HETATM    7  C8  UNL     1      -3.367   5.025  13.739  1.00  0.00     0.031 C 
HETATM    8  C7  UNL     1      -3.235   4.500  12.549  1.00  0.00     0.115 C 
BRANCH   8   9
HETATM    9  N1  UNL     1      -3.757   3.292  12.059  1.00  0.00    -0.272 N 
BRANCH   9  10
HETATM   10  C6  UNL     1      -2.874   2.146  11.953  1.00  0.00     0.155 C 
BRANCH  10  11
HETATM   11  C5  UNL     1      -3.737   0.935  12.273  1.00  0.00     0.030 C 
BRANCH  11  12
HETATM   12  C2  UNL     1      -3.611  -0.154  11.244  1.00  0.00    -0.050 C 
HETATM   13  C1  UNL     1      -3.742  -1.532  11.809  1.00  0.00     0.014 C 
HETATM   14  C3  UNL     1      -2.211  -0.018  10.644  1.00  0.00     0.014 C 
HETATM   15  C4  UNL     1      -4.608   0.060  10.154  1.00  0.00     0.014 C 
ENDBRANCH  11  12
ENDBRANCH  10  11
ENDBRANCH   9  10
BRANCH   9  16
HETATM   16  O1  UNL     1      -5.021   3.124  11.683  1.00  0.00    -0.288 OA
ATOM     17  H1  UNL     1      -5.635   3.817  11.896  1.00  0.00     0.244 HD
ENDBRANCH   9  16
ENDBRANCH   8   9
ENDBRANCH   1   7
BRANCH   3  18
HETATM   18  C11 UNL     1      -4.699   1.507  16.626  1.00  0.00     0.171 C 
BRANCH  18  19
HETATM   19  O3  UNL     1      -3.713   0.543  16.305  1.00  0.00    -0.391 OA
ATOM     20  H3  UNL     1      -2.872   0.936  16.505  1.00  0.00     0.210 HD
ENDBRANCH  18  19
BRANCH  18  21
HETATM   21  C12 UNL     1      -5.947   0.813  17.077  1.00  0.00     0.198 C 
BRANCH  21  22
HETATM   22  O4  UNL     1      -5.702  -0.573  17.063  1.00  0.00    -0.398 OA
ATOM     23  H4  UNL     1      -6.381  -0.996  17.575  1.00  0.00     0.209 HD
ENDBRANCH  21  22
ENDBRANCH  18  21
ENDBRANCH   3  18
TORSDOF 10
ENDMDL
MODEL 4
REMARK VINA RESULT: -6.649959696      1.435      2.224
REMARK  10 active torsions:
REMARK  status: ('A' for Active; 'I' for Inactive)
REMARK    1  A    between atoms: C2_2  and  C5_5 
REMARK    2  A    between atoms: C5_5  and  C6_6 
REMARK    3  A    between atoms: C6_6  and  N1_7 
REMARK    4  A    between atoms: N1_7  and  O1_8 
REMARK    5  A    between atoms: N1_7  and  C7_10 
REMARK    6  A    between atoms: C8_11  and  C9_12 
REMARK    7  A    between atoms: C10_14  and  C11_15 
REMARK    8  A    between atoms: C11_15  and  O3_16 
REMARK    9  A    between atoms: C11_15  and  C12_18 
REMARK   10  A    between atoms: C12_18  and  O4_19 
ROOT
HETATM    1  C9  UNL     1      -4.058   1.858  12.125  1.00  0.00     0.215 C 
HETATM    2  O2  UNL     1      -3.248   0.712  12.174  1.00  0.00    -0.366 OA
HETATM    3  C10 UNL     1      -3.607  -0.160  11.197  1.00  0.00     0.160 C 
HETATM    4  C13 UNL     1      -4.754   0.476  10.399  1.00  0.00     0.116 C 
HETATM    5  C14 UNL     1      -4.457   1.887  10.711  1.00  0.00     0.161 C 
HETATM    6  O5  UNL     1      -4.530   2.810   9.968  1.00  0.00    -0.295 OA
ENDROOT
BRANCH   1   7
HETATM    7  C8  UNL     1      -3.354   3.049  12.573  1.00  0.00     0.031 C 
HETATM    8  C7  UNL     1      -3.764   3.799  13.562  1.00  0.00     0.115 C 
BRANCH   8   9
HETATM    9  N1  UNL     1      -4.902   3.642  14.370  1.00  0.00    -0.272 N 
BRANCH   9  10
HETATM   10  C6  UNL     1      -4.779   2.890  15.605  1.00  0.00     0.155 C 
BRANCH  10  11
HETATM   11  C5  UNL     1      -6.188   2.804  16.172  1.00  0.00     0.030 C 
BRANCH  11  12
HETATM   12  C2  UNL     1      -6.362   1.648  17.117  1.00  0.00    -0.050 C 
HETATM   13  C1  UNL     1      -6.183   2.017  18.556  1.00  0.00     0.014 C 
HETATM   14  C3  UNL     1      -5.282   0.628  16.751  1.00  0.00     0.014 C 
HETATM   15  C4  UNL     1      -7.695   1.013  16.903  1.00  0.00     0.014 C 
ENDBRANCH  11  12
ENDBRANCH  10  11
ENDBRANCH   9  10
BRANCH   9  16
HETATM   16  O1  UNL     1      -6.099   4.142  14.077  1.00  0.00    -0.288 OA
ATOM     17  H1  UNL     1      -6.479   3.901  13.241  1.00  0.00     0.244 HD
ENDBRANCH   9  16
ENDBRANCH   8   9
ENDBRANCH   1   7
BRANCH   3  18
HETATM   18  C11 UNL     1      -3.899  -1.562  11.612  1.00  0.00     0.171 C 
BRANCH  18  19
HETATM   19  O3  UNL     1      -4.276  -1.513  12.975  1.00  0.00    -0.391 OA
ATOM     20  H3  UNL     1      -4.901  -2.215  13.112  1.00  0.00     0.210 HD
ENDBRANCH  18  19
BRANCH  18  21
HETATM   21  C12 UNL     1      -2.739  -2.495  11.448  1.00  0.00     0.198 C 
BRANCH  21  22
HETATM   22  O4  UNL     1      -3.235  -3.812  11.472  1.00  0.00    -0.398 OA
ATOM     23  H4  UNL     1      -3.845  -3.908  10.750  1.00  0.00     0.209 HD
ENDBRANCH  21  22
ENDBRANCH  18  21
ENDBRANCH   3  18
TORSDOF 10
ENDMDL
MODEL 5
REMARK VINA RESULT: -6.534669684      2.406      5.745
REMARK  10 active torsions:
REMARK  status: ('A' for Active; 'I' for Inactive)
REMARK    1  A    between atoms: C2_2  and  C5_5 
REMARK    2  A    between atoms: C5_5  and  C6_6 
REMARK    3  A    between atoms: C6_6  and  N1_7 
REMARK    4  A    between atoms: N1_7  and  O1_8 
REMARK    5  A    between atoms: N1_7  and  C7_10 
REMARK    6  A    between atoms: C8_11  and  C9_12 
REMARK    7  A    between atoms: C10_14  and  C11_15 
REMARK    8  A    between atoms: C11_15  and  O3_16 
REMARK    9  A    between atoms: C11_15  and  C12_18 
REMARK   10  A    between atoms: C12_18  and  O4_19 
ROOT
HETATM    1  C9  UNL     1      -4.389   2.107  13.294  1.00  0.00     0.215 C 
HETATM    2  O2  UNL     1      -4.949   1.241  14.248  1.00  0.00    -0.366 OA
HETATM    3  C10 UNL     1      -5.283   1.928  15.370  1.00  0.00     0.160 C 
HETATM    4  C13 UNL     1      -4.936   3.405  15.135  1.00  0.00     0.116 C 
HETATM    5  C14 UNL     1      -4.997   3.394  13.662  1.00  0.00     0.161 C 
HETATM    6  O5  UNL     1      -5.442   4.243  12.962  1.00  0.00    -0.295 OA
ENDROOT
BRANCH   1   7
HETATM    7  C8  UNL     1      -4.668   1.680  11.933  1.00  0.00     0.031 C 
HETATM    8  C7  UNL     1      -3.754   1.600  11.001  1.00  0.00     0.115 C 
BRANCH   8   9
HETATM    9  N1  UNL     1      -2.383   1.888  11.090  1.00  0.00    -0.272 N 
BRANCH   9  10
HETATM   10  C6  UNL     1      -1.933   3.230  10.771  1.00  0.00     0.155 C 
BRANCH  10  11
HETATM   11  C5  UNL     1      -0.954   3.605  11.875  1.00  0.00     0.030 C 
BRANCH  11  12
HETATM   12  C2  UNL     1      -1.269   4.935  12.501  1.00  0.00    -0.050 C 
HETATM   13  C1  UNL     1      -1.618   4.847  13.953  1.00  0.00     0.014 C 
HETATM   14  C3  UNL     1      -2.486   5.484  11.753  1.00  0.00     0.014 C 
HETATM   15  C4  UNL     1      -0.130   5.876  12.294  1.00  0.00     0.014 C 
ENDBRANCH  11  12
ENDBRANCH  10  11
ENDBRANCH   9  10
BRANCH   9  16
HETATM   16  O1  UNL     1      -1.457   1.005  11.451  1.00  0.00    -0.288 OA
ATOM     17  H1  UNL     1      -1.200   0.355  10.808  1.00  0.00     0.244 HD
ENDBRANCH   9  16
ENDBRANCH   8   9
ENDBRANCH   1   7
BRANCH   3  18
HETATM   18  C11 UNL     1      -4.757   1.410  16.665  1.00  0.00     0.171 C 
BRANCH  18  19
HETATM   19  O3  UNL     1      -3.636   0.604  16.357  1.00  0.00    -0.391 OA
ATOM     20  H3  UNL     1      -3.190   0.429  17.177  1.00  0.00     0.210 HD
ENDBRANCH  18  19
BRANCH  18  21
HETATM   21  C12 UNL     1      -5.753   0.605  17.442  1.00  0.00     0.198 C 
BRANCH  21  22
HETATM   22  O4  UNL     1      -6.782   0.222  16.561  1.00  0.00    -0.398 OA
ATOM     23  H4  UNL     1      -6.602  -0.664  16.268  1.00  0.00     0.209 HD
ENDBRANCH  21  22
ENDBRANCH  18  21
ENDBRANCH   3  18
TORSDOF 10
ENDMDL
