MODEL 1
REMARK VINA RESULT: -7.331369850      0.000      0.000
REMARK  10 active torsions:
REMARK  status: ('A' for Active; 'I' for Inactive)
REMARK    1  A    between atoms: C3_3  and  C4_4 
REMARK    2  A    between atoms: C3_3  and  C6_12 
REMARK    3  A    between atoms: C4_4  and  N1_5 
REMARK    4  A    between atoms: C4_4  and  C5_9 
REMARK    5  A    between atoms: C6_12  and  O3_13 
REMARK    6  A    between atoms: C6_12  and  C7_15 
REMARK    7  A    between atoms: C7_15  and  O4_16 
REMARK    8  A    between atoms: C7_15  and  C8_18 
REMARK    9  A    between atoms: C12_24  and  C13_25 
REMARK   10  A    between atoms: C13_25  and  N3_27 
REMARK       I    between atoms: N3_27  and  C15_29 
ROOT
HETATM    1  C1  UNL     1     -19.347  37.564  40.340  1.00  0.00     0.012 C 
HETATM    2  C2  UNL     1     -18.499  36.924  40.905  1.00  0.00    -0.107 C 
HETATM    3  C3  UNL     1     -17.501  36.135  41.547  1.00  0.00     0.136 C 
ENDROOT
BRANCH   3   4
HETATM    4  C4  UNL     1     -17.434  34.809  40.730  1.00  0.00     0.301 C 
BRANCH   4   5
HETATM    5  N1  UNL     1     -16.950  35.184  39.415  1.00  0.00    -0.064 N 
ATOM      6  H13 UNL     1     -17.303  36.084  39.089  1.00  0.00     0.275 HD
ATOM      7  H12 UNL     1     -15.960  35.429  39.398  1.00  0.00     0.275 HD
ATOM      8  H11 UNL     1     -17.189  34.405  38.801  1.00  0.00     0.275 HD
ENDBRANCH   4   5
BRANCH   4   9
HETATM    9  C5  UNL     1     -16.475  33.885  41.367  1.00  0.00     0.205 C 
HETATM   10  O1  UNL     1     -16.864  32.935  42.080  1.00  0.00    -0.646 OA
HETATM   11  O2  UNL     1     -15.118  34.054  41.185  1.00  0.00    -0.646 OA
ENDBRANCH   4   9
ENDBRANCH   3   4
BRANCH   3  12
HETATM   12  C6  UNL     1     -17.581  35.753  42.933  1.00  0.00     0.165 C 
BRANCH  12  13
HETATM   13  O3  UNL     1     -16.123  35.690  43.314  1.00  0.00    -0.392 OA
ATOM     14  H3  UNL     1     -16.116  34.956  43.917  1.00  0.00     0.210 HD
ENDBRANCH  12  13
BRANCH  12  15
HETATM   15  C7  UNL     1     -18.184  36.480  44.055  1.00  0.00     0.154 C 
BRANCH  15  16
HETATM   16  O4  UNL     1     -17.593  37.832  43.965  1.00  0.00    -0.393 OA
ATOM     17  H4  UNL     1     -17.998  38.210  43.194  1.00  0.00     0.210 HD
ENDBRANCH  15  16
BRANCH  15  18
HETATM   18  C8  UNL     1     -19.589  36.752  44.272  1.00  0.00     0.041 C 
HETATM   19  C9  UNL     1     -20.277  37.968  43.842  1.00  0.00     0.011 C 
HETATM   20  C10 UNL     1     -21.699  37.537  43.427  1.00  0.00     0.020 C 
HETATM   21  C11 UNL     1     -22.216  36.450  44.282  1.00  0.00     0.114 C 
HETATM   22  N2  UNL     1     -21.598  36.234  45.531  1.00  0.00    -0.415 N 
HETATM   23  C12 UNL     1     -20.165  36.229  45.562  1.00  0.00     0.105 C 
ATOM     24  H2  UNL     1     -22.148  36.086  46.378  1.00  0.00     0.153 HD
BRANCH  23  25
HETATM   25  C13 UNL     1     -19.641  36.749  46.842  1.00  0.00     0.103 C 
HETATM   26  C14 UNL     1     -20.304  35.894  47.979  1.00  0.00     0.034 C 
BRANCH  25  27
HETATM   27  N3  UNL     1     -19.949  38.129  47.165  1.00  0.00    -0.355 N 
HETATM   28  C15 UNL     1     -19.057  39.218  47.041  1.00  0.00     0.213 C 
HETATM   29  C16 UNL     1     -19.394  40.620  47.373  1.00  0.00     0.117 C 
HETATM   30  O5  UNL     1     -17.899  38.987  46.622  1.00  0.00    -0.274 OA
ATOM     31  H3  UNL     1     -20.887  38.330  47.511  1.00  0.00     0.162 HD
ENDBRANCH  25  27
ENDBRANCH  23  25
ENDBRANCH  15  18
ENDBRANCH  12  15
ENDBRANCH   3  12
TORSDOF 10
ENDMDL
MODEL 2
REMARK VINA RESULT: -7.218532109      1.948      3.052
REMARK  10 active torsions:
REMARK  status: ('A' for Active; 'I' for Inactive)
REMARK    1  A    between atoms: C3_3  and  C4_4 
REMARK    2  A    between atoms: C3_3  and  C6_12 
REMARK    3  A    between atoms: C4_4  and  N1_5 
REMARK    4  A    between atoms: C4_4  and  C5_9 
REMARK    5  A    between atoms: C6_12  and  O3_13 
REMARK    6  A    between atoms: C6_12  and  C7_15 
REMARK    7  A    between atoms: C7_15  and  O4_16 
REMARK    8  A    between atoms: C7_15  and  C8_18 
REMARK    9  A    between atoms: C12_24  and  C13_25 
REMARK   10  A    between atoms: C13_25  and  N3_27 
REMARK       I    between atoms: N3_27  and  C15_29 
ROOT
HETATM    1  C1  UNL     1     -19.304  37.675  40.576  1.00  0.00     0.012 C 
HETATM    2  C2  UNL     1     -18.484  37.010  41.154  1.00  0.00    -0.107 C 
HETATM    3  C3  UNL     1     -17.515  36.195  41.808  1.00  0.00     0.136 C 
ENDROOT
BRANCH   3   4
HETATM    4  C4  UNL     1     -17.246  35.010  40.832  1.00  0.00     0.301 C 
BRANCH   4   5
HETATM    5  N1  UNL     1     -16.679  35.608  39.638  1.00  0.00    -0.064 N 
ATOM      6  H13 UNL     1     -16.928  35.119  38.778  1.00  0.00     0.275 HD
ATOM      7  H12 UNL     1     -17.096  36.505  39.392  1.00  0.00     0.275 HD
ATOM      8  H11 UNL     1     -15.674  35.655  39.805  1.00  0.00     0.275 HD
ENDBRANCH   4   5
BRANCH   4   9
HETATM    9  C5  UNL     1     -16.267  34.086  41.437  1.00  0.00     0.205 C 
HETATM   10  O1  UNL     1     -16.566  32.901  41.698  1.00  0.00    -0.646 OA
HETATM   11  O2  UNL     1     -14.989  34.517  41.729  1.00  0.00    -0.646 OA
ENDBRANCH   4   9
ENDBRANCH   3   4
BRANCH   3  12
HETATM   12  C6  UNL     1     -17.737  35.609  43.105  1.00  0.00     0.165 C 
BRANCH  12  13
HETATM   13  O3  UNL     1     -16.593  36.190  43.898  1.00  0.00    -0.392 OA
ATOM     14  H3  UNL     1     -15.843  35.805  43.459  1.00  0.00     0.210 HD
ENDBRANCH  12  13
BRANCH  12  15
HETATM   15  C7  UNL     1     -18.881  35.775  44.008  1.00  0.00     0.154 C 
BRANCH  15  16
HETATM   16  O4  UNL     1     -19.004  34.463  44.677  1.00  0.00    -0.393 OA
ATOM     17  H4  UNL     1     -19.796  34.542  45.195  1.00  0.00     0.210 HD
ENDBRANCH  15  16
BRANCH  15  18
HETATM   18  C8  UNL     1     -19.007  36.713  45.103  1.00  0.00     0.041 C 
HETATM   19  C9  UNL     1     -18.861  36.367  46.515  1.00  0.00     0.011 C 
HETATM   20  C10 UNL     1     -18.185  37.578  47.191  1.00  0.00     0.020 C 
HETATM   21  C11 UNL     1     -18.636  38.857  46.607  1.00  0.00     0.114 C 
HETATM   22  N2  UNL     1     -19.835  38.864  45.865  1.00  0.00    -0.415 N 
HETATM   23  C12 UNL     1     -20.024  37.808  44.914  1.00  0.00     0.105 C 
ATOM     24  H2  UNL     1     -20.539  39.590  45.999  1.00  0.00     0.153 HD
BRANCH  23  25
HETATM   25  C13 UNL     1     -21.449  37.443  44.774  1.00  0.00     0.103 C 
HETATM   26  C14 UNL     1     -21.836  37.710  43.276  1.00  0.00     0.034 C 
BRANCH  25  27
HETATM   27  N3  UNL     1     -22.402  38.202  45.561  1.00  0.00    -0.355 N 
HETATM   28  C15 UNL     1     -23.321  37.656  46.485  1.00  0.00     0.213 C 
HETATM   29  C16 UNL     1     -24.282  38.450  47.282  1.00  0.00     0.117 C 
HETATM   30  O5  UNL     1     -23.328  36.412  46.645  1.00  0.00    -0.274 OA
ATOM     31  H3  UNL     1     -22.409  39.214  45.438  1.00  0.00     0.162 HD
ENDBRANCH  25  27
ENDBRANCH  23  25
ENDBRANCH  15  18
ENDBRANCH  12  15
ENDBRANCH   3  12
TORSDOF 10
ENDMDL
MODEL 3
REMARK VINA RESULT: -7.188389567      1.869      3.341
REMARK  10 active torsions:
REMARK  status: ('A' for Active; 'I' for Inactive)
REMARK    1  A    between atoms: C3_3  and  C4_4 
REMARK    2  A    between atoms: C3_3  and  C6_12 
REMARK    3  A    between atoms: C4_4  and  N1_5 
REMARK    4  A    between atoms: C4_4  and  C5_9 
REMARK    5  A    between atoms: C6_12  and  O3_13 
REMARK    6  A    between atoms: C6_12  and  C7_15 
REMARK    7  A    between atoms: C7_15  and  O4_16 
REMARK    8  A    between atoms: C7_15  and  C8_18 
REMARK    9  A    between atoms: C12_24  and  C13_25 
REMARK   10  A    between atoms: C13_25  and  N3_27 
REMARK       I    between atoms: N3_27  and  C15_29 
ROOT
HETATM    1  C1  UNL     1     -19.336  37.699  40.596  1.00  0.00     0.012 C 
HETATM    2  C2  UNL     1     -18.467  37.048  41.117  1.00  0.00    -0.107 C 
HETATM    3  C3  UNL     1     -17.443  36.249  41.703  1.00  0.00     0.136 C 
ENDROOT
BRANCH   3   4
HETATM    4  C4  UNL     1     -17.286  35.021  40.756  1.00  0.00     0.301 C 
BRANCH   4   5
HETATM    5  N1  UNL     1     -16.760  35.551  39.512  1.00  0.00    -0.064 N 
ATOM      6  H13 UNL     1     -16.098  36.316  39.640  1.00  0.00     0.275 HD
ATOM      7  H12 UNL     1     -16.121  34.916  39.034  1.00  0.00     0.275 HD
ATOM      8  H11 UNL     1     -17.576  35.806  38.955  1.00  0.00     0.275 HD
ENDBRANCH   4   5
BRANCH   4   9
HETATM    9  C5  UNL     1     -16.317  34.071  41.338  1.00  0.00     0.205 C 
HETATM   10  O1  UNL     1     -15.098  34.340  41.397  1.00  0.00    -0.646 OA
HETATM   11  O2  UNL     1     -16.743  32.855  41.832  1.00  0.00    -0.646 OA
ENDBRANCH   4   9
ENDBRANCH   3   4
BRANCH   3  12
HETATM   12  C6  UNL     1     -17.536  35.720  43.039  1.00  0.00     0.165 C 
BRANCH  12  13
HETATM   13  O3  UNL     1     -16.904  36.827  43.846  1.00  0.00    -0.392 OA
ATOM     14  H3  UNL     1     -17.550  36.956  44.530  1.00  0.00     0.210 HD
ENDBRANCH  12  13
BRANCH  12  15
HETATM   15  C7  UNL     1     -18.735  35.388  43.817  1.00  0.00     0.154 C 
BRANCH  15  16
HETATM   16  O4  UNL     1     -18.623  33.932  44.046  1.00  0.00    -0.393 OA
ATOM     17  H4  UNL     1     -18.330  33.590  43.210  1.00  0.00     0.210 HD
ENDBRANCH  15  16
BRANCH  15  18
HETATM   18  C8  UNL     1     -19.103  35.896  45.121  1.00  0.00     0.041 C 
HETATM   19  C9  UNL     1     -19.191  35.086  46.335  1.00  0.00     0.011 C 
HETATM   20  C10 UNL     1     -18.712  35.986  47.493  1.00  0.00     0.020 C 
HETATM   21  C11 UNL     1     -19.122  37.392  47.303  1.00  0.00     0.114 C 
HETATM   22  N2  UNL     1     -20.169  37.664  46.398  1.00  0.00    -0.415 N 
HETATM   23  C12 UNL     1     -20.129  36.999  45.129  1.00  0.00     0.105 C 
ATOM     24  H2  UNL     1     -20.924  38.307  46.637  1.00  0.00     0.153 HD
BRANCH  23  25
HETATM   25  C13 UNL     1     -21.485  36.718  44.612  1.00  0.00     0.103 C 
HETATM   26  C14 UNL     1     -21.728  37.714  43.424  1.00  0.00     0.034 C 
BRANCH  25  27
HETATM   27  N3  UNL     1     -22.591  36.927  45.526  1.00  0.00    -0.355 N 
HETATM   28  C15 UNL     1     -23.344  35.905  46.150  1.00  0.00     0.213 C 
HETATM   29  C16 UNL     1     -24.467  36.141  47.083  1.00  0.00     0.117 C 
HETATM   30  O5  UNL     1     -23.043  34.715  45.898  1.00  0.00    -0.274 OA
ATOM     31  H3  UNL     1     -22.848  37.891  45.737  1.00  0.00     0.162 HD
ENDBRANCH  25  27
ENDBRANCH  23  25
ENDBRANCH  15  18
ENDBRANCH  12  15
ENDBRANCH   3  12
TORSDOF 10
ENDMDL
MODEL 4
REMARK VINA RESULT: -7.119918994      0.962      1.206
REMARK  10 active torsions:
REMARK  status: ('A' for Active; 'I' for Inactive)
REMARK    1  A    between atoms: C3_3  and  C4_4 
REMARK    2  A    between atoms: C3_3  and  C6_12 
REMARK    3  A    between atoms: C4_4  and  N1_5 
REMARK    4  A    between atoms: C4_4  and  C5_9 
REMARK    5  A    between atoms: C6_12  and  O3_13 
REMARK    6  A    between atoms: C6_12  and  C7_15 
REMARK    7  A    between atoms: C7_15  and  O4_16 
REMARK    8  A    between atoms: C7_15  and  C8_18 
REMARK    9  A    between atoms: C12_24  and  C13_25 
REMARK   10  A    between atoms: C13_25  and  N3_27 
REMARK       I    between atoms: N3_27  and  C15_29 
ROOT
HETATM    1  C1  UNL     1     -19.735  37.719  40.271  1.00  0.00     0.012 C 
HETATM    2  C2  UNL     1     -18.844  37.034  40.704  1.00  0.00    -0.107 C 
HETATM    3  C3  UNL     1     -17.796  36.197  41.185  1.00  0.00     0.136 C 
ENDROOT
BRANCH   3   4
HETATM    4  C4  UNL     1     -17.684  35.039  40.147  1.00  0.00     0.301 C 
BRANCH   4   5
HETATM    5  N1  UNL     1     -18.629  35.363  39.095  1.00  0.00    -0.064 N 
ATOM      6  H13 UNL     1     -18.523  34.789  38.258  1.00  0.00     0.275 HD
ATOM      7  H12 UNL     1     -19.588  35.091  39.308  1.00  0.00     0.275 HD
ATOM      8  H11 UNL     1     -18.515  36.362  38.922  1.00  0.00     0.275 HD
ENDBRANCH   4   5
BRANCH   4   9
HETATM    9  C5  UNL     1     -16.317  35.004  39.593  1.00  0.00     0.205 C 
HETATM   10  O1  UNL     1     -15.855  35.965  38.940  1.00  0.00    -0.646 OA
HETATM   11  O2  UNL     1     -15.514  33.899  39.787  1.00  0.00    -0.646 OA
ENDBRANCH   4   9
ENDBRANCH   3   4
BRANCH   3  12
HETATM   12  C6  UNL     1     -17.829  35.575  42.484  1.00  0.00     0.165 C 
BRANCH  12  13
HETATM   13  O3  UNL     1     -16.380  35.202  42.676  1.00  0.00    -0.392 OA
ATOM     14  H3  UNL     1     -16.000  36.037  42.924  1.00  0.00     0.210 HD
ENDBRANCH  12  13
BRANCH  12  15
HETATM   15  C7  UNL     1     -18.192  36.164  43.777  1.00  0.00     0.154 C 
BRANCH  15  16
HETATM   16  O4  UNL     1     -17.428  37.429  43.823  1.00  0.00    -0.393 OA
ATOM     17  H4  UNL     1     -18.071  38.078  44.083  1.00  0.00     0.210 HD
ENDBRANCH  15  16
BRANCH  15  18
HETATM   18  C8  UNL     1     -19.510  36.563  44.221  1.00  0.00     0.041 C 
HETATM   19  C9  UNL     1     -20.121  37.863  43.950  1.00  0.00     0.011 C 
HETATM   20  C10 UNL     1     -21.628  37.600  43.746  1.00  0.00     0.020 C 
HETATM   21  C11 UNL     1     -22.123  36.526  44.629  1.00  0.00     0.114 C 
HETATM   22  N2  UNL     1     -21.350  36.181  45.758  1.00  0.00    -0.415 N 
HETATM   23  C12 UNL     1     -19.937  36.031  45.564  1.00  0.00     0.105 C 
ATOM     24  H2  UNL     1     -21.778  36.044  46.673  1.00  0.00     0.153 HD
BRANCH  23  25
HETATM   25  C13 UNL     1     -19.173  36.426  46.766  1.00  0.00     0.103 C 
HETATM   26  C14 UNL     1     -19.485  35.354  47.869  1.00  0.00     0.034 C 
BRANCH  25  27
HETATM   27  N3  UNL     1     -19.505  37.705  47.363  1.00  0.00    -0.355 N 
HETATM   28  C15 UNL     1     -18.796  38.912  47.164  1.00  0.00     0.213 C 
HETATM   29  C16 UNL     1     -19.154  40.207  47.781  1.00  0.00     0.117 C 
HETATM   30  O5  UNL     1     -17.792  38.888  46.413  1.00  0.00    -0.274 OA
ATOM     31  H3  UNL     1     -20.317  37.737  47.979  1.00  0.00     0.162 HD
ENDBRANCH  25  27
ENDBRANCH  23  25
ENDBRANCH  15  18
ENDBRANCH  12  15
ENDBRANCH   3  12
TORSDOF 10
ENDMDL
MODEL 5
REMARK VINA RESULT: -6.777095258      0.867      1.078
REMARK  10 active torsions:
REMARK  status: ('A' for Active; 'I' for Inactive)
REMARK    1  A    between atoms: C3_3  and  C4_4 
REMARK    2  A    between atoms: C3_3  and  C6_12 
REMARK    3  A    between atoms: C4_4  and  N1_5 
REMARK    4  A    between atoms: C4_4  and  C5_9 
REMARK    5  A    between atoms: C6_12  and  O3_13 
REMARK    6  A    between atoms: C6_12  and  C7_15 
REMARK    7  A    between atoms: C7_15  and  O4_16 
REMARK    8  A    between atoms: C7_15  and  C8_18 
REMARK    9  A    between atoms: C12_24  and  C13_25 
REMARK   10  A    between atoms: C13_25  and  N3_27 
REMARK       I    between atoms: N3_27  and  C15_29 
ROOT
HETATM    1  C1  UNL     1     -17.898  37.579  40.248  1.00  0.00     0.012 C 
HETATM    2  C2  UNL     1     -17.683  36.614  40.935  1.00  0.00    -0.107 C 
HETATM    3  C3  UNL     1     -17.427  35.448  41.713  1.00  0.00     0.136 C 
ENDROOT
BRANCH   3   4
HETATM    4  C4  UNL     1     -17.261  34.291  40.681  1.00  0.00     0.301 C 
BRANCH   4   5
HETATM    5  N1  UNL     1     -17.909  34.753  39.468  1.00  0.00    -0.064 N 
ATOM      6  H13 UNL     1     -18.905  34.534  39.427  1.00  0.00     0.275 HD
ATOM      7  H12 UNL     1     -18.006  35.766  39.416  1.00  0.00     0.275 HD
ATOM      8  H11 UNL     1     -17.371  34.352  38.700  1.00  0.00     0.275 HD
ENDBRANCH   4   5
BRANCH   4   9
HETATM    9  C5  UNL     1     -15.825  34.065  40.421  1.00  0.00     0.205 C 
HETATM   10  O1  UNL     1     -14.989  34.064  41.350  1.00  0.00    -0.646 OA
HETATM   11  O2  UNL     1     -15.375  33.849  39.135  1.00  0.00    -0.646 OA
ENDBRANCH   4   9
ENDBRANCH   3   4
BRANCH   3  12
HETATM   12  C6  UNL     1     -18.339  34.966  42.718  1.00  0.00     0.165 C 
BRANCH  12  13
HETATM   13  O3  UNL     1     -17.668  33.683  43.144  1.00  0.00    -0.392 OA
ATOM     14  H3  UNL     1     -18.114  33.499  43.963  1.00  0.00     0.210 HD
ENDBRANCH  12  13
BRANCH  12  15
HETATM   15  C7  UNL     1     -18.711  35.583  43.996  1.00  0.00     0.154 C 
BRANCH  15  16
HETATM   16  O4  UNL     1     -17.644  36.578  44.238  1.00  0.00    -0.393 OA
ATOM     17  H4  UNL     1     -16.840  36.093  44.092  1.00  0.00     0.210 HD
ENDBRANCH  15  16
BRANCH  15  18
HETATM   18  C8  UNL     1     -19.919  36.321  44.296  1.00  0.00     0.041 C 
HETATM   19  C9  UNL     1     -20.233  37.649  43.772  1.00  0.00     0.011 C 
HETATM   20  C10 UNL     1     -21.759  37.673  43.540  1.00  0.00     0.020 C 
HETATM   21  C11 UNL     1     -22.484  36.903  44.570  1.00  0.00     0.114 C 
HETATM   22  N2  UNL     1     -21.817  36.615  45.779  1.00  0.00    -0.415 N 
HETATM   23  C12 UNL     1     -20.467  36.142  45.687  1.00  0.00     0.105 C 
ATOM     24  H2  UNL     1     -22.276  36.738  46.682  1.00  0.00     0.153 HD
BRANCH  23  25
HETATM   25  C13 UNL     1     -19.651  36.580  46.839  1.00  0.00     0.103 C 
HETATM   26  C14 UNL     1     -20.085  35.693  48.059  1.00  0.00     0.034 C 
BRANCH  25  27
HETATM   27  N3  UNL     1     -19.819  37.952  47.278  1.00  0.00    -0.355 N 
HETATM   28  C15 UNL     1     -18.949  39.023  46.972  1.00  0.00     0.213 C 
HETATM   29  C16 UNL     1     -19.141  40.417  47.427  1.00  0.00     0.117 C 
HETATM   30  O5  UNL     1     -17.942  38.780  46.265  1.00  0.00    -0.274 OA
ATOM     31  H3  UNL     1     -20.632  38.161  47.857  1.00  0.00     0.162 HD
ENDBRANCH  25  27
ENDBRANCH  23  25
ENDBRANCH  15  18
ENDBRANCH  12  15
ENDBRANCH   3  12
TORSDOF 10
ENDMDL
