MODEL 1
REMARK VINA RESULT: -5.693010754      0.000      0.000
REMARK  3 active torsions:
REMARK  status: ('A' for Active; 'I' for Inactive)
REMARK    1  A    between atoms: N3_7  and  C5_8 
REMARK    2  A    between atoms: C5_8  and  C6_9 
REMARK       I    between atoms: C6_9  and  N4_11 
REMARK    3  A    between atoms: N4_11  and  N5_13 
ROOT
HETATM    1  N1  UNL     1      54.487   6.336 124.770  1.00  0.00    -0.191 NA
HETATM    2  C1  UNL     1      54.130   7.233 124.127  1.00  0.00     0.105 C 
HETATM    3  C2  UNL     1      53.676   8.342 123.318  1.00  0.00     0.111 A 
HETATM    4  C3  UNL     1      53.623   9.675 123.648  1.00  0.00     0.086 A 
HETATM    5  N2  UNL     1      54.011  10.221 124.915  1.00  0.00    -0.099 NA
HETATM    6  C4  UNL     1      53.127  10.340 122.564  1.00  0.00     0.121 A 
HETATM    7  N3  UNL     1      52.857   9.495 121.559  1.00  0.00    -0.334 N 
HETATM    8  C7  UNL     1      53.191   8.272 122.009  1.00  0.00     0.141 A 
HETATM    9  N6  UNL     1      53.098   7.062 121.279  1.00  0.00    -0.081 NA
ENDROOT
BRANCH   7  10
HETATM   10  C5  UNL     1      52.272   9.837 120.254  1.00  0.00     0.234 C 
BRANCH  10  11
HETATM   11  C6  UNL     1      53.338  10.133 119.272  1.00  0.00     0.253 C 
HETATM   12  O1  UNL     1      53.504   9.272 118.346  1.00  0.00    -0.270 OA
HETATM   13  N4  UNL     1      54.177  11.268 119.278  1.00  0.00    -0.275 N 
ATOM     14  H4  UNL     1      54.059  11.965 120.014  1.00  0.00     0.189 HD
BRANCH  13  15
HETATM   15  N5  UNL     1      55.170  11.471 118.304  1.00  0.00    -0.343 N 
ATOM     16  H52 UNL     1      55.898  12.159 118.502  1.00  0.00     0.176 HD
ATOM     17  H51 UNL     1      55.181  10.959 117.422  1.00  0.00     0.176 HD
ENDBRANCH  13  15
ENDBRANCH  10  11
ENDBRANCH   7  10
TORSDOF 3
ENDMDL
MODEL 2
REMARK VINA RESULT: -5.628171582      2.161      4.492
REMARK  3 active torsions:
REMARK  status: ('A' for Active; 'I' for Inactive)
REMARK    1  A    between atoms: N3_7  and  C5_8 
REMARK    2  A    between atoms: C5_8  and  C6_9 
REMARK       I    between atoms: C6_9  and  N4_11 
REMARK    3  A    between atoms: N4_11  and  N5_13 
ROOT
HETATM    1  N1  UNL     1      53.908  14.191 122.343  1.00  0.00    -0.191 NA
HETATM    2  C1  UNL     1      53.731  13.103 122.704  1.00  0.00     0.105 C 
HETATM    3  C2  UNL     1      53.514  11.742 123.142  1.00  0.00     0.111 A 
HETATM    4  C3  UNL     1      53.618  11.225 124.410  1.00  0.00     0.086 A 
HETATM    5  N2  UNL     1      53.991  11.976 125.572  1.00  0.00    -0.099 NA
HETATM    6  C4  UNL     1      53.319   9.895 124.331  1.00  0.00     0.121 A 
HETATM    7  N3  UNL     1      53.033   9.538 123.071  1.00  0.00    -0.334 N 
HETATM    8  C7  UNL     1      53.148  10.659 122.336  1.00  0.00     0.141 A 
HETATM    9  N6  UNL     1      52.916  10.769 120.944  1.00  0.00    -0.081 NA
ENDROOT
BRANCH   7  10
HETATM   10  C5  UNL     1      52.709   8.186 122.591  1.00  0.00     0.234 C 
BRANCH  10  11
HETATM   11  C6  UNL     1      53.946   7.398 122.397  1.00  0.00     0.253 C 
HETATM   12  O1  UNL     1      54.645   7.692 121.370  1.00  0.00    -0.270 OA
HETATM   13  N4  UNL     1      54.409   6.361 123.236  1.00  0.00    -0.275 N 
ATOM     14  H4  UNL     1      53.861   6.112 124.059  1.00  0.00     0.189 HD
BRANCH  13  15
HETATM   15  N5  UNL     1      55.599   5.660 122.975  1.00  0.00    -0.343 N 
ATOM     16  H52 UNL     1      55.971   5.688 122.025  1.00  0.00     0.176 HD
ATOM     17  H51 UNL     1      56.090   5.133 123.698  1.00  0.00     0.176 HD
ENDBRANCH  13  15
ENDBRANCH  10  11
ENDBRANCH   7  10
TORSDOF 3
ENDMDL
MODEL 3
REMARK VINA RESULT: -5.550035204      3.002      5.138
REMARK  3 active torsions:
REMARK  status: ('A' for Active; 'I' for Inactive)
REMARK    1  A    between atoms: N3_7  and  C5_8 
REMARK    2  A    between atoms: C5_8  and  C6_9 
REMARK       I    between atoms: C6_9  and  N4_11 
REMARK    3  A    between atoms: N4_11  and  N5_13 
ROOT
HETATM    1  N1  UNL     1      54.831  11.547 117.948  1.00  0.00    -0.191 NA
HETATM    2  C1  UNL     1      54.102  10.973 118.644  1.00  0.00     0.105 C 
HETATM    3  C2  UNL     1      53.196  10.246 119.505  1.00  0.00     0.111 A 
HETATM    4  C3  UNL     1      52.869  10.503 120.814  1.00  0.00     0.086 A 
HETATM    5  N2  UNL     1      53.408  11.576 121.597  1.00  0.00    -0.099 NA
HETATM    6  C4  UNL     1      51.975   9.547 121.203  1.00  0.00     0.121 A 
HETATM    7  N3  UNL     1      51.716   8.692 120.204  1.00  0.00    -0.334 N 
HETATM    8  C7  UNL     1      52.456   9.110 119.161  1.00  0.00     0.141 A 
HETATM    9  N6  UNL     1      52.488   8.521 117.875  1.00  0.00    -0.081 NA
ENDROOT
BRANCH   7  10
HETATM   10  C5  UNL     1      50.840   7.512 120.261  1.00  0.00     0.234 C 
BRANCH  10  11
HETATM   11  C6  UNL     1      49.419   7.926 120.287  1.00  0.00     0.253 C 
HETATM   12  O1  UNL     1      48.915   8.272 119.168  1.00  0.00    -0.270 OA
HETATM   13  N4  UNL     1      48.591   7.973 121.428  1.00  0.00    -0.275 N 
ATOM     14  H4  UNL     1      48.981   7.702 122.331  1.00  0.00     0.189 HD
BRANCH  13  15
HETATM   15  N5  UNL     1      47.247   8.382 121.364  1.00  0.00    -0.343 N 
ATOM     16  H52 UNL     1      47.057   9.364 121.161  1.00  0.00     0.176 HD
ATOM     17  H51 UNL     1      46.474   7.734 121.513  1.00  0.00     0.176 HD
ENDBRANCH  13  15
ENDBRANCH  10  11
ENDBRANCH   7  10
TORSDOF 3
ENDMDL
MODEL 4
REMARK VINA RESULT: -5.500279346      1.817      2.262
REMARK  3 active torsions:
REMARK  status: ('A' for Active; 'I' for Inactive)
REMARK    1  A    between atoms: N3_7  and  C5_8 
REMARK    2  A    between atoms: C5_8  and  C6_9 
REMARK       I    between atoms: C6_9  and  N4_11 
REMARK    3  A    between atoms: N4_11  and  N5_13 
ROOT
HETATM    1  N1  UNL     1      54.502   9.179 124.883  1.00  0.00    -0.191 NA
HETATM    2  C1  UNL     1      54.198   9.751 123.920  1.00  0.00     0.105 C 
HETATM    3  C2  UNL     1      53.812  10.450 122.715  1.00  0.00     0.111 A 
HETATM    4  C3  UNL     1      53.526  11.785 122.556  1.00  0.00     0.086 A 
HETATM    5  N2  UNL     1      53.545  12.757 123.609  1.00  0.00    -0.099 NA
HETATM    6  C4  UNL     1      53.215  11.977 121.241  1.00  0.00     0.121 A 
HETATM    7  N3  UNL     1      53.286  10.829 120.553  1.00  0.00    -0.334 N 
HETATM    8  C7  UNL     1      53.651   9.890 121.444  1.00  0.00     0.141 A 
HETATM    9  N6  UNL     1      53.874   8.520 121.165  1.00  0.00    -0.081 NA
ENDROOT
BRANCH   7  10
HETATM   10  C5  UNL     1      52.978  10.636 119.128  1.00  0.00     0.234 C 
BRANCH  10  11
HETATM   11  C6  UNL     1      54.216  10.356 118.367  1.00  0.00     0.253 C 
HETATM   12  O1  UNL     1      54.840  11.373 117.915  1.00  0.00    -0.270 OA
HETATM   13  N4  UNL     1      54.753   9.079 118.100  1.00  0.00    -0.275 N 
ATOM     14  H4  UNL     1      54.265   8.255 118.452  1.00  0.00     0.189 HD
BRANCH  13  15
HETATM   15  N5  UNL     1      55.938   8.902 117.364  1.00  0.00    -0.343 N 
ATOM     16  H52 UNL     1      56.272   9.686 116.803  1.00  0.00     0.176 HD
ATOM     17  H51 UNL     1      56.461   8.027 117.376  1.00  0.00     0.176 HD
ENDBRANCH  13  15
ENDBRANCH  10  11
ENDBRANCH   7  10
TORSDOF 3
ENDMDL
MODEL 5
REMARK VINA RESULT: -5.446764838      2.588      4.998
REMARK  3 active torsions:
REMARK  status: ('A' for Active; 'I' for Inactive)
REMARK    1  A    between atoms: N3_7  and  C5_8 
REMARK    2  A    between atoms: C5_8  and  C6_9 
REMARK       I    between atoms: C6_9  and  N4_11 
REMARK    3  A    between atoms: N4_11  and  N5_13 
ROOT
HETATM    1  N1  UNL     1      54.080  13.643 122.958  1.00  0.00    -0.191 NA
HETATM    2  C1  UNL     1      53.752  12.540 122.810  1.00  0.00     0.105 C 
HETATM    3  C2  UNL     1      53.337  11.165 122.641  1.00  0.00     0.111 A 
HETATM    4  C3  UNL     1      52.872  10.546 121.507  1.00  0.00     0.086 A 
HETATM    5  N2  UNL     1      52.691  11.189 120.239  1.00  0.00    -0.099 NA
HETATM    6  C4  UNL     1      52.610   9.246 121.834  1.00  0.00     0.121 A 
HETATM    7  N3  UNL     1      52.884   9.007 123.124  1.00  0.00    -0.334 N 
HETATM    8  C7  UNL     1      53.331  10.173 123.626  1.00  0.00     0.141 A 
HETATM    9  N6  UNL     1      53.764  10.394 124.956  1.00  0.00    -0.081 NA
ENDROOT
BRANCH   7  10
HETATM   10  C5  UNL     1      52.688   7.741 123.845  1.00  0.00     0.234 C 
BRANCH  10  11
HETATM   11  C6  UNL     1      53.922   6.925 123.799  1.00  0.00     0.253 C 
HETATM   12  O1  UNL     1      54.473   6.675 124.921  1.00  0.00    -0.270 OA
HETATM   13  N4  UNL     1      54.532   6.412 122.634  1.00  0.00    -0.275 N 
ATOM     14  H4  UNL     1      54.105   6.605 121.728  1.00  0.00     0.189 HD
BRANCH  13  15
HETATM   15  N5  UNL     1      55.709   5.644 122.680  1.00  0.00    -0.343 N 
ATOM     16  H52 UNL     1      56.490   6.001 123.232  1.00  0.00     0.176 HD
ATOM     17  H51 UNL     1      55.800   4.757 122.184  1.00  0.00     0.176 HD
ENDBRANCH  13  15
ENDBRANCH  10  11
ENDBRANCH   7  10
TORSDOF 3
ENDMDL
