MODEL 1
REMARK VINA RESULT: -8.160527473      0.000      0.000
REMARK  11 active torsions:
REMARK  status: ('A' for Active; 'I' for Inactive)
REMARK    1  A    between atoms: C2_2  and  C4_5 
REMARK    2  A    between atoms: C4_5  and  C5_6 
REMARK    3  A    between atoms: C5_6  and  N1_7 
REMARK    4  A    between atoms: C5_6  and  C6_11 
REMARK    5  A    between atoms: C6_11  and  O1_14 
REMARK    6  A    between atoms: O1_14  and  C9_15 
REMARK    7  A    between atoms: C14_22  and  N3_23 
REMARK    8  A    between atoms: N3_23  and  C15_25 
REMARK    9  A    between atoms: C15_25  and  C16_26 
REMARK   10  A    between atoms: C15_25  and  C22_34 
REMARK   11  A    between atoms: C20_30  and  O2_31 
ROOT
HETATM    1  C9  UNL     1      20.753 -24.471 -52.546  1.00  0.00     0.072 A 
HETATM    2  C10 UNL     1      20.905 -25.490 -51.628  1.00  0.00     0.038 A 
HETATM    3  C11 UNL     1      19.909 -26.413 -51.434  1.00  0.00     0.018 A 
HETATM    4  C12 UNL     1      18.725 -26.344 -52.157  1.00  0.00     0.007 A 
HETATM    5  C13 UNL     1      17.730 -27.271 -51.959  1.00  0.00     0.119 A 
HETATM    6  N2  UNL     1      16.599 -27.181 -52.669  1.00  0.00    -0.201 N 
ATOM      7  H2  UNL     1      15.854 -27.864 -52.531  1.00  0.00     0.183 HD
HETATM    8  C14 UNL     1      16.447 -26.192 -53.564  1.00  0.00     0.679 A 
HETATM    9  N4  UNL     1      17.406 -25.268 -53.779  1.00  0.00    -0.191 N 
ATOM     10  H4  UNL     1      17.259 -24.529 -54.467  1.00  0.00     0.184 HD
HETATM   11  C28 UNL     1      18.554 -25.323 -53.087  1.00  0.00     0.063 A 
HETATM   12  C29 UNL     1      19.575 -24.413 -53.257  1.00  0.00     0.067 A 
ENDROOT
BRANCH   8  13
HETATM   13  N3  UNL     1      15.381 -26.093 -54.247  1.00  0.00    -0.213 N 
ATOM     14  H3  UNL     1      14.949 -25.169 -54.237  1.00  0.00     0.178 HD
BRANCH  13  15
HETATM   15  C15 UNL     1      14.694 -27.066 -55.023  1.00  0.00     0.169 C 
BRANCH  15  16
HETATM   16  C16 UNL     1      13.226 -27.051 -54.676  1.00  0.00    -0.028 A 
HETATM   17  C17 UNL     1      12.271 -27.100 -55.662  1.00  0.00     0.010 A 
HETATM   18  C18 UNL     1      10.906 -27.087 -55.350  1.00  0.00     0.003 A 
HETATM   19  C19 UNL     1      10.526 -27.024 -54.027  1.00  0.00     0.036 A 
HETATM   20  C20 UNL     1      11.467 -26.975 -53.027  1.00  0.00     0.066 A 
HETATM   21  C21 UNL     1      12.825 -26.990 -53.367  1.00  0.00     0.046 A 
BRANCH  20  22
HETATM   22  O2  UNL     1      11.075 -26.912 -51.695  1.00  0.00    -0.361 OA
ATOM     23  H2  UNL     1      11.690 -27.121 -51.003  1.00  0.00     0.217 HD
ENDBRANCH  20  22
ENDBRANCH  15  16
BRANCH  15  24
HETATM   24  C22 UNL     1      14.871 -26.877 -56.486  1.00  0.00     0.013 A 
HETATM   25  C23 UNL     1      14.861 -25.601 -57.050  1.00  0.00     0.044 A 
HETATM   26 CL2  UNL     1      14.650 -24.201 -56.023  1.00  0.00    -0.084 Cl
HETATM   27  C24 UNL     1      15.019 -25.440 -58.410  1.00  0.00     0.024 A 
HETATM   28  C25 UNL     1      15.189 -26.504 -59.265  1.00  0.00     0.003 A 
HETATM   29  C26 UNL     1      15.200 -27.765 -58.721  1.00  0.00     0.024 A 
HETATM   30  C27 UNL     1      15.040 -27.937 -57.340  1.00  0.00     0.044 A 
HETATM   31 CL3  UNL     1      15.043 -29.561 -56.696  1.00  0.00    -0.084 Cl
ENDBRANCH  15  24
ENDBRANCH  13  15
ENDBRANCH   8  13
BRANCH   1  32
HETATM   32  O1  UNL     1      21.793 -23.572 -52.696  1.00  0.00    -0.339 OA
BRANCH  32  33
HETATM   33  C6  UNL     1      21.610 -22.172 -52.820  1.00  0.00     0.088 C 
HETATM   34  C7  UNL     1      21.129 -21.894 -54.239  1.00  0.00     0.048 C 
HETATM   35  C8  UNL     1      20.525 -21.723 -51.884  1.00  0.00     0.048 C 
BRANCH  33  36
HETATM   36  C5  UNL     1      22.915 -21.458 -52.559  1.00  0.00     0.219 C 
BRANCH  36  37
HETATM   37  C4  UNL     1      24.010 -22.486 -52.442  1.00  0.00     0.061 C 
BRANCH  37  38
HETATM   38  C2  UNL     1      25.321 -22.045 -53.007  1.00  0.00     0.032 C 
HETATM   39  C1  UNL     1      26.416 -21.858 -52.009  1.00  0.00     0.032 C 
HETATM   40  C3  UNL     1      25.777 -23.146 -53.970  1.00  0.00     0.032 C 
HETATM   41 CL1  UNL     1      25.130 -20.554 -53.953  1.00  0.00    -0.120 Cl
ENDBRANCH  37  38
ENDBRANCH  36  37
BRANCH  36  42
HETATM   42  N1  UNL     1      22.776 -20.661 -51.378  1.00  0.00    -0.072 N 
ATOM     43  H13 UNL     1      21.846 -20.767 -50.973  1.00  0.00     0.274 HD
ATOM     44  H12 UNL     1      23.334 -21.041 -50.613  1.00  0.00     0.274 HD
ATOM     45  H11 UNL     1      22.996 -19.678 -51.538  1.00  0.00     0.274 HD
ENDBRANCH  36  42
ENDBRANCH  33  36
ENDBRANCH  32  33
ENDBRANCH   1  32
TORSDOF 11
ENDMDL
MODEL 2
REMARK VINA RESULT: -8.142674034      0.078      1.461
REMARK  11 active torsions:
REMARK  status: ('A' for Active; 'I' for Inactive)
REMARK    1  A    between atoms: C2_2  and  C4_5 
REMARK    2  A    between atoms: C4_5  and  C5_6 
REMARK    3  A    between atoms: C5_6  and  N1_7 
REMARK    4  A    between atoms: C5_6  and  C6_11 
REMARK    5  A    between atoms: C6_11  and  O1_14 
REMARK    6  A    between atoms: O1_14  and  C9_15 
REMARK    7  A    between atoms: C14_22  and  N3_23 
REMARK    8  A    between atoms: N3_23  and  C15_25 
REMARK    9  A    between atoms: C15_25  and  C16_26 
REMARK   10  A    between atoms: C15_25  and  C22_34 
REMARK   11  A    between atoms: C20_30  and  O2_31 
ROOT
HETATM    1  C9  UNL     1      20.796 -24.502 -52.474  1.00  0.00     0.072 A 
HETATM    2  C10 UNL     1      20.947 -25.541 -51.580  1.00  0.00     0.038 A 
HETATM    3  C11 UNL     1      19.951 -26.468 -51.406  1.00  0.00     0.018 A 
HETATM    4  C12 UNL     1      18.766 -26.382 -52.127  1.00  0.00     0.007 A 
HETATM    5  C13 UNL     1      17.770 -27.312 -51.950  1.00  0.00     0.119 A 
HETATM    6  N2  UNL     1      16.640 -27.205 -52.657  1.00  0.00    -0.201 N 
ATOM      7  H2  UNL     1      15.894 -27.889 -52.534  1.00  0.00     0.183 HD
HETATM    8  C14 UNL     1      16.487 -26.195 -53.528  1.00  0.00     0.679 A 
HETATM    9  N4  UNL     1      17.447 -25.267 -53.723  1.00  0.00    -0.191 N 
ATOM     10  H4  UNL     1      17.300 -24.512 -54.393  1.00  0.00     0.184 HD
HETATM   11  C28 UNL     1      18.595 -25.339 -53.033  1.00  0.00     0.063 A 
HETATM   12  C29 UNL     1      19.617 -24.426 -53.182  1.00  0.00     0.067 A 
ENDROOT
BRANCH   8  13
HETATM   13  N3  UNL     1      15.421 -26.079 -54.208  1.00  0.00    -0.213 N 
ATOM     14  H3  UNL     1      15.010 -25.146 -54.207  1.00  0.00     0.178 HD
BRANCH  13  15
HETATM   15  C15 UNL     1      14.709 -27.045 -54.971  1.00  0.00     0.169 C 
BRANCH  15  16
HETATM   16  C16 UNL     1      13.247 -27.009 -54.602  1.00  0.00    -0.028 A 
HETATM   17  C17 UNL     1      12.277 -27.041 -55.573  1.00  0.00     0.010 A 
HETATM   18  C18 UNL     1      10.917 -27.009 -55.240  1.00  0.00     0.003 A 
HETATM   19  C19 UNL     1      10.558 -26.944 -53.912  1.00  0.00     0.036 A 
HETATM   20  C20 UNL     1      11.515 -26.911 -52.926  1.00  0.00     0.066 A 
HETATM   21  C21 UNL     1      12.868 -26.945 -53.286  1.00  0.00     0.046 A 
BRANCH  20  22
HETATM   22  O2  UNL     1      11.144 -26.846 -51.588  1.00  0.00    -0.361 OA
ATOM     23  H2  UNL     1      11.785 -26.632 -50.922  1.00  0.00     0.217 HD
ENDBRANCH  20  22
ENDBRANCH  15  16
BRANCH  15  24
HETATM   24  C22 UNL     1      14.866 -26.861 -56.437  1.00  0.00     0.013 A 
HETATM   25  C23 UNL     1      15.028 -27.959 -57.283  1.00  0.00     0.044 A 
HETATM   26 CL2  UNL     1      15.035 -29.575 -56.616  1.00  0.00    -0.084 Cl
HETATM   27  C24 UNL     1      15.180 -27.774 -58.641  1.00  0.00     0.024 A 
HETATM   28  C25 UNL     1      15.182 -26.526 -59.221  1.00  0.00     0.003 A 
HETATM   29  C26 UNL     1      15.025 -25.439 -58.397  1.00  0.00     0.024 A 
HETATM   30  C27 UNL     1      14.870 -25.618 -57.017  1.00  0.00     0.044 A 
HETATM   31 CL3  UNL     1      14.690 -24.204 -56.007  1.00  0.00    -0.084 Cl
ENDBRANCH  15  24
ENDBRANCH  13  15
ENDBRANCH   8  13
BRANCH   1  32
HETATM   32  O1  UNL     1      21.836 -23.600 -52.603  1.00  0.00    -0.339 OA
BRANCH  32  33
HETATM   33  C6  UNL     1      21.651 -22.207 -52.785  1.00  0.00     0.088 C 
HETATM   34  C7  UNL     1      21.182 -21.987 -54.217  1.00  0.00     0.048 C 
HETATM   35  C8  UNL     1      20.557 -21.723 -51.876  1.00  0.00     0.048 C 
BRANCH  33  36
HETATM   36  C5  UNL     1      22.952 -21.480 -52.542  1.00  0.00     0.219 C 
BRANCH  36  37
HETATM   37  C4  UNL     1      24.056 -22.498 -52.420  1.00  0.00     0.061 C 
BRANCH  37  38
HETATM   38  C2  UNL     1      25.354 -22.061 -53.018  1.00  0.00     0.032 C 
HETATM   39  C1  UNL     1      26.472 -21.871 -52.048  1.00  0.00     0.032 C 
HETATM   40  C3  UNL     1      25.786 -23.168 -53.985  1.00  0.00     0.032 C 
HETATM   41 CL1  UNL     1      25.143 -20.576 -53.968  1.00  0.00    -0.120 Cl
ENDBRANCH  37  38
ENDBRANCH  36  37
BRANCH  36  42
HETATM   42  N1  UNL     1      22.816 -20.669 -51.369  1.00  0.00    -0.072 N 
ATOM     43  H13 UNL     1      22.383 -19.774 -51.593  1.00  0.00     0.274 HD
ATOM     44  H12 UNL     1      22.103 -21.047 -50.745  1.00  0.00     0.274 HD
ATOM     45  H11 UNL     1      23.700 -20.536 -50.877  1.00  0.00     0.274 HD
ENDBRANCH  36  42
ENDBRANCH  33  36
ENDBRANCH  32  33
ENDBRANCH   1  32
TORSDOF 11
ENDMDL
MODEL 3
REMARK VINA RESULT: -7.939134163      2.964      4.413
REMARK  11 active torsions:
REMARK  status: ('A' for Active; 'I' for Inactive)
REMARK    1  A    between atoms: C2_2  and  C4_5 
REMARK    2  A    between atoms: C4_5  and  C5_6 
REMARK    3  A    between atoms: C5_6  and  N1_7 
REMARK    4  A    between atoms: C5_6  and  C6_11 
REMARK    5  A    between atoms: C6_11  and  O1_14 
REMARK    6  A    between atoms: O1_14  and  C9_15 
REMARK    7  A    between atoms: C14_22  and  N3_23 
REMARK    8  A    between atoms: N3_23  and  C15_25 
REMARK    9  A    between atoms: C15_25  and  C16_26 
REMARK   10  A    between atoms: C15_25  and  C22_34 
REMARK   11  A    between atoms: C20_30  and  O2_31 
ROOT
HETATM    1  C9  UNL     1      19.483 -22.517 -54.952  1.00  0.00     0.072 A 
HETATM    2  C10 UNL     1      19.529 -21.807 -56.133  1.00  0.00     0.038 A 
HETATM    3  C11 UNL     1      18.583 -22.004 -57.107  1.00  0.00     0.018 A 
HETATM    4  C12 UNL     1      17.557 -22.921 -56.926  1.00  0.00     0.007 A 
HETATM    5  C13 UNL     1      16.611 -23.116 -57.905  1.00  0.00     0.119 A 
HETATM    6  N2  UNL     1      15.634 -24.007 -57.704  1.00  0.00    -0.201 N 
ATOM      7  H2  UNL     1      14.926 -24.159 -58.423  1.00  0.00     0.183 HD
HETATM    8  C14 UNL     1      15.585 -24.700 -56.556  1.00  0.00     0.679 A 
HETATM    9  N4  UNL     1      16.498 -24.532 -55.578  1.00  0.00    -0.191 N 
ATOM     10  H4  UNL     1      16.432 -25.074 -54.717  1.00  0.00     0.184 HD
HETATM   11  C28 UNL     1      17.495 -23.648 -55.740  1.00  0.00     0.063 A 
HETATM   12  C29 UNL     1      18.461 -23.425 -54.783  1.00  0.00     0.067 A 
ENDROOT
BRANCH   8  13
HETATM   13  N3  UNL     1      14.662 -25.549 -56.349  1.00  0.00    -0.213 N 
ATOM     14  H3  UNL     1      13.720 -25.160 -56.321  1.00  0.00     0.178 HD
BRANCH  13  15
HETATM   15  C15 UNL     1      14.736 -26.955 -56.151  1.00  0.00     0.169 C 
BRANCH  15  16
HETATM   16  C16 UNL     1      13.345 -27.538 -56.119  1.00  0.00    -0.028 A 
HETATM   17  C17 UNL     1      12.250 -26.734 -55.917  1.00  0.00     0.010 A 
HETATM   18  C18 UNL     1      10.955 -27.267 -55.886  1.00  0.00     0.003 A 
HETATM   19  C19 UNL     1      10.789 -28.623 -56.063  1.00  0.00     0.036 A 
HETATM   20  C20 UNL     1      11.873 -29.444 -56.266  1.00  0.00     0.066 A 
HETATM   21  C21 UNL     1      13.156 -28.885 -56.293  1.00  0.00     0.046 A 
BRANCH  20  22
HETATM   22  O2  UNL     1      11.695 -30.810 -56.443  1.00  0.00    -0.361 OA
ATOM     23  H2  UNL     1      11.461 -31.364 -55.708  1.00  0.00     0.217 HD
ENDBRANCH  20  22
ENDBRANCH  15  16
BRANCH  15  24
HETATM   24  C22 UNL     1      15.552 -27.648 -57.180  1.00  0.00     0.013 A 
HETATM   25  C23 UNL     1      15.194 -27.603 -58.528  1.00  0.00     0.044 A 
HETATM   26 CL2  UNL     1      13.773 -26.712 -59.019  1.00  0.00    -0.084 Cl
HETATM   27  C24 UNL     1      15.957 -28.258 -59.472  1.00  0.00     0.024 A 
HETATM   28  C25 UNL     1      17.084 -28.974 -59.144  1.00  0.00     0.003 A 
HETATM   29  C26 UNL     1      17.446 -29.025 -57.820  1.00  0.00     0.024 A 
HETATM   30  C27 UNL     1      16.677 -28.363 -56.855  1.00  0.00     0.044 A 
HETATM   31 CL3  UNL     1      17.166 -28.470 -55.181  1.00  0.00    -0.084 Cl
ENDBRANCH  15  24
ENDBRANCH  13  15
ENDBRANCH   8  13
BRANCH   1  32
HETATM   32  O1  UNL     1      20.465 -22.274 -54.009  1.00  0.00    -0.339 OA
BRANCH  32  33
HETATM   33  C6  UNL     1      20.400 -22.730 -52.669  1.00  0.00     0.088 C 
HETATM   34  C7  UNL     1      21.340 -21.864 -51.840  1.00  0.00     0.048 C 
HETATM   35  C8  UNL     1      19.011 -22.522 -52.135  1.00  0.00     0.048 C 
BRANCH  33  36
HETATM   36  C5  UNL     1      20.822 -24.179 -52.599  1.00  0.00     0.219 C 
BRANCH  36  37
HETATM   37  C4  UNL     1      19.933 -24.890 -51.612  1.00  0.00     0.061 C 
BRANCH  37  38
HETATM   38  C2  UNL     1      19.388 -26.189 -52.113  1.00  0.00     0.032 C 
HETATM   39  C1  UNL     1      20.032 -26.716 -53.352  1.00  0.00     0.032 C 
HETATM   40  C3  UNL     1      19.631 -27.222 -51.008  1.00  0.00     0.032 C 
HETATM   41 CL1  UNL     1      17.633 -26.081 -52.365  1.00  0.00    -0.120 Cl
ENDBRANCH  37  38
ENDBRANCH  36  37
BRANCH  36  42
HETATM   42  N1  UNL     1      22.207 -24.238 -52.238  1.00  0.00    -0.072 N 
ATOM     43  H13 UNL     1      22.380 -23.734 -51.368  1.00  0.00     0.274 HD
ATOM     44  H12 UNL     1      22.466 -25.178 -51.939  1.00  0.00     0.274 HD
ATOM     45  H11 UNL     1      22.822 -23.908 -52.981  1.00  0.00     0.274 HD
ENDBRANCH  36  42
ENDBRANCH  33  36
ENDBRANCH  32  33
ENDBRANCH   1  32
TORSDOF 11
ENDMDL
MODEL 4
REMARK VINA RESULT: -7.867965644      2.890      4.421
REMARK  11 active torsions:
REMARK  status: ('A' for Active; 'I' for Inactive)
REMARK    1  A    between atoms: C2_2  and  C4_5 
REMARK    2  A    between atoms: C4_5  and  C5_6 
REMARK    3  A    between atoms: C5_6  and  N1_7 
REMARK    4  A    between atoms: C5_6  and  C6_11 
REMARK    5  A    between atoms: C6_11  and  O1_14 
REMARK    6  A    between atoms: O1_14  and  C9_15 
REMARK    7  A    between atoms: C14_22  and  N3_23 
REMARK    8  A    between atoms: N3_23  and  C15_25 
REMARK    9  A    between atoms: C15_25  and  C16_26 
REMARK   10  A    between atoms: C15_25  and  C22_34 
REMARK   11  A    between atoms: C20_30  and  O2_31 
ROOT
HETATM    1  C9  UNL     1      18.913 -22.835 -54.934  1.00  0.00     0.072 A 
HETATM    2  C10 UNL     1      18.986 -22.350 -56.223  1.00  0.00     0.038 A 
HETATM    3  C11 UNL     1      18.028 -22.675 -57.150  1.00  0.00     0.018 A 
HETATM    4  C12 UNL     1      16.963 -23.499 -56.812  1.00  0.00     0.007 A 
HETATM    5  C13 UNL     1      16.005 -23.823 -57.744  1.00  0.00     0.119 A 
HETATM    6  N2  UNL     1      14.990 -24.619 -57.392  1.00  0.00    -0.201 N 
ATOM      7  H2  UNL     1      14.274 -24.866 -58.075  1.00  0.00     0.183 HD
HETATM    8  C14 UNL     1      14.915 -25.094 -56.138  1.00  0.00     0.679 A 
HETATM    9  N4  UNL     1      15.839 -24.794 -55.202  1.00  0.00    -0.191 N 
ATOM     10  H4  UNL     1      15.752 -25.171 -54.259  1.00  0.00     0.184 HD
HETATM   11  C28 UNL     1      16.873 -23.999 -55.516  1.00  0.00     0.063 A 
HETATM   12  C29 UNL     1      17.852 -23.652 -54.611  1.00  0.00     0.067 A 
ENDROOT
BRANCH   8  13
HETATM   13  N3  UNL     1      13.957 -25.850 -55.787  1.00  0.00    -0.213 N 
ATOM     14  H3  UNL     1      13.063 -25.647 -56.235  1.00  0.00     0.178 HD
BRANCH  13  15
HETATM   15  C15 UNL     1      13.932 -26.935 -54.868  1.00  0.00     0.169 C 
BRANCH  15  16
HETATM   16  C16 UNL     1      12.610 -26.957 -54.141  1.00  0.00    -0.028 A 
HETATM   17  C17 UNL     1      11.426 -26.890 -54.834  1.00  0.00     0.010 A 
HETATM   18  C18 UNL     1      10.195 -26.910 -54.167  1.00  0.00     0.003 A 
HETATM   19  C19 UNL     1      10.184 -27.000 -52.793  1.00  0.00     0.036 A 
HETATM   20  C20 UNL     1      11.358 -27.069 -52.082  1.00  0.00     0.066 A 
HETATM   21  C21 UNL     1      12.576 -27.047 -52.774  1.00  0.00     0.046 A 
BRANCH  20  22
HETATM   22  O2  UNL     1      11.337 -27.159 -50.696  1.00  0.00    -0.361 OA
ATOM     23  H2  UNL     1      11.105 -27.977 -50.272  1.00  0.00     0.217 HD
ENDBRANCH  20  22
ENDBRANCH  15  16
BRANCH  15  24
HETATM   24  C22 UNL     1      14.178 -28.251 -55.513  1.00  0.00     0.013 A 
HETATM   25  C23 UNL     1      13.666 -28.536 -56.779  1.00  0.00     0.044 A 
HETATM   26 CL2  UNL     1      12.731 -27.327 -57.628  1.00  0.00    -0.084 Cl
HETATM   27  C24 UNL     1      13.896 -29.764 -57.361  1.00  0.00     0.024 A 
HETATM   28  C25 UNL     1      14.623 -30.752 -56.740  1.00  0.00     0.003 A 
HETATM   29  C26 UNL     1      15.131 -30.483 -55.493  1.00  0.00     0.024 A 
HETATM   30  C27 UNL     1      14.903 -29.238 -54.894  1.00  0.00     0.044 A 
HETATM   31 CL3  UNL     1      15.555 -28.947 -53.300  1.00  0.00    -0.084 Cl
ENDBRANCH  15  24
ENDBRANCH  13  15
ENDBRANCH   8  13
BRANCH   1  32
HETATM   32  O1  UNL     1      19.909 -22.472 -54.047  1.00  0.00    -0.339 OA
BRANCH  32  33
HETATM   33  C6  UNL     1      19.971 -22.926 -52.706  1.00  0.00     0.088 C 
HETATM   34  C7  UNL     1      20.957 -22.034 -51.962  1.00  0.00     0.048 C 
HETATM   35  C8  UNL     1      18.629 -22.751 -52.054  1.00  0.00     0.048 C 
BRANCH  33  36
HETATM   36  C5  UNL     1      20.435 -24.363 -52.670  1.00  0.00     0.219 C 
BRANCH  36  37
HETATM   37  C4  UNL     1      19.607 -25.109 -51.657  1.00  0.00     0.061 C 
BRANCH  37  38
HETATM   38  C2  UNL     1      18.997 -26.369 -52.181  1.00  0.00     0.032 C 
HETATM   39  C1  UNL     1      19.526 -26.835 -53.496  1.00  0.00     0.032 C 
HETATM   40  C3  UNL     1      19.311 -27.467 -51.159  1.00  0.00     0.032 C 
HETATM   41 CL1  UNL     1      17.230 -26.221 -52.277  1.00  0.00    -0.120 Cl
ENDBRANCH  37  38
ENDBRANCH  36  37
BRANCH  36  42
HETATM   42  N1  UNL     1      21.834 -24.388 -52.368  1.00  0.00    -0.072 N 
ATOM     43  H13 UNL     1      22.246 -23.461 -52.465  1.00  0.00     0.274 HD
ATOM     44  H12 UNL     1      21.990 -24.535 -51.371  1.00  0.00     0.274 HD
ATOM     45  H11 UNL     1      22.345 -25.075 -52.924  1.00  0.00     0.274 HD
ENDBRANCH  36  42
ENDBRANCH  33  36
ENDBRANCH  32  33
ENDBRANCH   1  32
TORSDOF 11
ENDMDL
MODEL 5
REMARK VINA RESULT: -7.859466799      1.904      2.995
REMARK  11 active torsions:
REMARK  status: ('A' for Active; 'I' for Inactive)
REMARK    1  A    between atoms: C2_2  and  C4_5 
REMARK    2  A    between atoms: C4_5  and  C5_6 
REMARK    3  A    between atoms: C5_6  and  N1_7 
REMARK    4  A    between atoms: C5_6  and  C6_11 
REMARK    5  A    between atoms: C6_11  and  O1_14 
REMARK    6  A    between atoms: O1_14  and  C9_15 
REMARK    7  A    between atoms: C14_22  and  N3_23 
REMARK    8  A    between atoms: N3_23  and  C15_25 
REMARK    9  A    between atoms: C15_25  and  C16_26 
REMARK   10  A    between atoms: C15_25  and  C22_34 
REMARK   11  A    between atoms: C20_30  and  O2_31 
ROOT
HETATM    1  C9  UNL     1      20.272 -22.246 -54.885  1.00  0.00     0.072 A 
HETATM    2  C10 UNL     1      20.056 -21.495 -56.022  1.00  0.00     0.038 A 
HETATM    3  C11 UNL     1      18.920 -21.667 -56.771  1.00  0.00     0.018 A 
HETATM    4  C12 UNL     1      17.961 -22.602 -56.403  1.00  0.00     0.007 A 
HETATM    5  C13 UNL     1      16.824 -22.772 -57.157  1.00  0.00     0.119 A 
HETATM    6  N2  UNL     1      15.917 -23.680 -56.779  1.00  0.00    -0.201 N 
ATOM      7  H2  UNL     1      15.069 -23.814 -57.330  1.00  0.00     0.183 HD
HETATM    8  C14 UNL     1      16.123 -24.413 -55.674  1.00  0.00     0.679 A 
HETATM    9  N4  UNL     1      17.228 -24.269 -54.914  1.00  0.00    -0.191 N 
ATOM     10  H4  UNL     1      17.354 -24.842 -54.080  1.00  0.00     0.184 HD
HETATM   11  C28 UNL     1      18.162 -23.370 -55.259  1.00  0.00     0.063 A 
HETATM   12  C29 UNL     1      19.315 -23.170 -54.530  1.00  0.00     0.067 A 
ENDROOT
BRANCH   8  13
HETATM   13  N3  UNL     1      15.271 -25.278 -55.301  1.00  0.00    -0.213 N 
ATOM     14  H3  UNL     1      14.609 -24.953 -54.596  1.00  0.00     0.178 HD
BRANCH  13  15
HETATM   15  C15 UNL     1      15.093 -26.628 -55.711  1.00  0.00     0.169 C 
BRANCH  15  16
HETATM   16  C16 UNL     1      14.013 -27.275 -54.878  1.00  0.00    -0.028 A 
HETATM   17  C17 UNL     1      13.409 -28.437 -55.292  1.00  0.00     0.010 A 
HETATM   18  C18 UNL     1      12.407 -29.045 -54.526  1.00  0.00     0.003 A 
HETATM   19  C19 UNL     1      12.029 -28.458 -53.338  1.00  0.00     0.036 A 
HETATM   20  C20 UNL     1      12.622 -27.296 -52.908  1.00  0.00     0.066 A 
HETATM   21  C21 UNL     1      13.622 -26.709 -53.693  1.00  0.00     0.046 A 
BRANCH  20  22
HETATM   22  O2  UNL     1      12.234 -26.711 -51.709  1.00  0.00    -0.361 OA
ATOM     23  H2  UNL     1      11.593 -26.010 -51.701  1.00  0.00     0.217 HD
ENDBRANCH  20  22
ENDBRANCH  15  16
BRANCH  15  24
HETATM   24  C22 UNL     1      14.767 -26.762 -57.155  1.00  0.00     0.013 A 
HETATM   25  C23 UNL     1      15.611 -27.462 -58.017  1.00  0.00     0.044 A 
HETATM   26 CL2  UNL     1      17.066 -28.205 -57.394  1.00  0.00    -0.084 Cl
HETATM   27  C24 UNL     1      15.301 -27.572 -59.356  1.00  0.00     0.024 A 
HETATM   28  C25 UNL     1      14.171 -27.009 -59.901  1.00  0.00     0.003 A 
HETATM   29  C26 UNL     1      13.334 -26.316 -59.061  1.00  0.00     0.024 A 
HETATM   30  C27 UNL     1      13.641 -26.200 -57.700  1.00  0.00     0.044 A 
HETATM   31 CL3  UNL     1      12.555 -25.295 -56.674  1.00  0.00    -0.084 Cl
ENDBRANCH  15  24
ENDBRANCH  13  15
ENDBRANCH   8  13
BRANCH   1  32
HETATM   32  O1  UNL     1      21.437 -22.026 -54.173  1.00  0.00    -0.339 OA
BRANCH  32  33
HETATM   33  C6  UNL     1      21.504 -22.022 -52.757  1.00  0.00     0.088 C 
HETATM   34  C7  UNL     1      20.166 -21.519 -52.233  1.00  0.00     0.048 C 
HETATM   35  C8  UNL     1      21.680 -23.429 -52.260  1.00  0.00     0.048 C 
BRANCH  33  36
HETATM   36  C5  UNL     1      22.622 -21.116 -52.298  1.00  0.00     0.219 C 
BRANCH  36  37
HETATM   37  C4  UNL     1      23.822 -21.963 -51.967  1.00  0.00     0.061 C 
BRANCH  37  38
HETATM   38  C2  UNL     1      25.035 -21.642 -52.779  1.00  0.00     0.032 C 
HETATM   39  C1  UNL     1      26.285 -21.410 -51.996  1.00  0.00     0.032 C 
HETATM   40  C3  UNL     1      25.292 -22.852 -53.682  1.00  0.00     0.032 C 
HETATM   41 CL1  UNL     1      24.736 -20.244 -53.834  1.00  0.00    -0.120 Cl
ENDBRANCH  37  38
ENDBRANCH  36  37
BRANCH  36  42
HETATM   42  N1  UNL     1      22.162 -20.347 -51.180  1.00  0.00    -0.072 N 
ATOM     43  H13 UNL     1      21.183 -20.547 -50.978  1.00  0.00     0.274 HD
ATOM     44  H12 UNL     1      22.582 -20.679 -50.312  1.00  0.00     0.274 HD
ATOM     45  H11 UNL     1      22.315 -19.346 -51.302  1.00  0.00     0.274 HD
ENDBRANCH  36  42
ENDBRANCH  33  36
ENDBRANCH  32  33
ENDBRANCH   1  32
TORSDOF 11
ENDMDL
