MODEL 1
REMARK VINA RESULT: -6.494679603      0.000      0.000
REMARK  4 active torsions:
REMARK  status: ('A' for Active; 'I' for Inactive)
REMARK    1  A    between atoms: C2_2  and  C3_3 
REMARK    2  A    between atoms: C3_3  and  C4_4 
REMARK       I    between atoms: C4_4  and  N1_6 
REMARK    3  A    between atoms: N1_6  and  C5_8 
REMARK    4  A    between atoms: C5_8  and  C6_9 
ROOT
HETATM    1  C6  UNL     1     -47.659  11.658  -4.762  1.00  0.00    -0.022 C 
HETATM    2  C7  UNL     1     -48.250  10.927  -5.917  1.00  0.00     0.015 C 
HETATM    3  C8  UNL     1     -48.937   9.686  -5.400  1.00  0.00    -0.012 C 
HETATM    4  C9  UNL     1     -48.015   8.790  -4.623  1.00  0.00     0.009 C 
HETATM    5  C10 UNL     1     -47.508   9.554  -3.414  1.00  0.00    -0.012 C 
HETATM    6  C11 UNL     1     -48.633  10.025  -2.531  1.00  0.00     0.025 C 
HETATM    7  C12 UNL     1     -49.573  10.889  -3.363  1.00  0.00     0.019 C 
HETATM    8 BR1  UNL     1     -50.983  11.493  -2.205  1.00  0.00    -0.085 Br
HETATM    9  C13 UNL     1     -50.094  10.064  -4.501  1.00  0.00     0.025 C 
HETATM   10  C14 UNL     1     -48.827  12.099  -3.868  1.00  0.00     0.032 C 
HETATM   11  C15 UNL     1     -46.773  10.762  -3.907  1.00  0.00     0.015 C 
ENDROOT
BRANCH   1  12
HETATM   12  C5  UNL     1     -46.828  12.838  -5.139  1.00  0.00     0.132 C 
BRANCH  12  13
HETATM   13  N1  UNL     1     -46.513  12.949  -6.516  1.00  0.00    -0.360 N 
HETATM   14  C4  UNL     1     -47.043  14.035  -7.260  1.00  0.00     0.221 C 
HETATM   15  O1  UNL     1     -47.797  14.909  -6.707  1.00  0.00    -0.273 OA
ATOM     16  H1  UNL     1     -45.915  12.257  -6.967  1.00  0.00     0.162 HD
BRANCH  14  17
HETATM   17  C3  UNL     1     -46.765  14.227  -8.701  1.00  0.00     0.129 C 
BRANCH  17  18
HETATM   18  C2  UNL     1     -45.985  13.094  -9.217  1.00  0.00    -0.028 C 
HETATM   19  C1  UNL     1     -46.486  12.302 -10.155  1.00  0.00     0.007 C 
ENDBRANCH  17  18
ENDBRANCH  14  17
ENDBRANCH  12  13
ENDBRANCH   1  12
TORSDOF 4
ENDMDL
MODEL 2
REMARK VINA RESULT: -6.470775617      2.925      6.154
REMARK  4 active torsions:
REMARK  status: ('A' for Active; 'I' for Inactive)
REMARK    1  A    between atoms: C2_2  and  C3_3 
REMARK    2  A    between atoms: C3_3  and  C4_4 
REMARK       I    between atoms: C4_4  and  N1_6 
REMARK    3  A    between atoms: N1_6  and  C5_8 
REMARK    4  A    between atoms: C5_8  and  C6_9 
ROOT
HETATM    1  C6  UNL     1     -46.862  13.429  -6.266  1.00  0.00    -0.022 C 
HETATM    2  C7  UNL     1     -47.628  14.693  -6.456  1.00  0.00     0.015 C 
HETATM    3  C8  UNL     1     -46.960  15.501  -7.544  1.00  0.00    -0.012 C 
HETATM    4  C9  UNL     1     -45.517  15.796  -7.247  1.00  0.00     0.009 C 
HETATM    5  C10 UNL     1     -44.768  14.480  -7.147  1.00  0.00    -0.012 C 
HETATM    6  C11 UNL     1     -44.878  13.670  -8.410  1.00  0.00     0.025 C 
HETATM    7  C12 UNL     1     -46.353  13.431  -8.706  1.00  0.00     0.019 C 
HETATM    8 BR1  UNL     1     -46.461  12.376 -10.309  1.00  0.00    -0.085 Br
HETATM    9  C13 UNL     1     -47.028  14.761  -8.862  1.00  0.00     0.025 C 
HETATM   10  C14 UNL     1     -46.969  12.640  -7.579  1.00  0.00     0.032 C 
HETATM   11  C15 UNL     1     -45.379  13.686  -6.034  1.00  0.00     0.015 C 
ENDROOT
BRANCH   1  12
HETATM   12  C5  UNL     1     -47.330  12.592  -5.124  1.00  0.00     0.132 C 
BRANCH  12  13
HETATM   13  N1  UNL     1     -48.164  11.500  -5.467  1.00  0.00    -0.360 N 
HETATM   14  C4  UNL     1     -48.211  10.370  -4.610  1.00  0.00     0.221 C 
HETATM   15  O1  UNL     1     -47.514  10.325  -3.538  1.00  0.00    -0.273 OA
ATOM     16  H1  UNL     1     -48.724  11.526  -6.319  1.00  0.00     0.162 HD
BRANCH  14  17
HETATM   17  C3  UNL     1     -49.056   9.188  -4.892  1.00  0.00     0.129 C 
BRANCH  17  18
HETATM   18  C2  UNL     1     -50.460   9.487  -4.577  1.00  0.00    -0.028 C 
HETATM   19  C1  UNL     1     -50.902   9.407  -3.330  1.00  0.00     0.007 C 
ENDBRANCH  17  18
ENDBRANCH  14  17
ENDBRANCH  12  13
ENDBRANCH   1  12
TORSDOF 4
ENDMDL
MODEL 3
REMARK VINA RESULT: -6.208949126      3.061      6.154
REMARK  4 active torsions:
REMARK  status: ('A' for Active; 'I' for Inactive)
REMARK    1  A    between atoms: C2_2  and  C3_3 
REMARK    2  A    between atoms: C3_3  and  C4_4 
REMARK       I    between atoms: C4_4  and  N1_6 
REMARK    3  A    between atoms: N1_6  and  C5_8 
REMARK    4  A    between atoms: C5_8  and  C6_9 
ROOT
HETATM    1  C6  UNL     1     -46.728  13.126  -5.997  1.00  0.00    -0.022 C 
HETATM    2  C7  UNL     1     -47.662  14.287  -6.016  1.00  0.00     0.015 C 
HETATM    3  C8  UNL     1     -47.159  15.293  -7.023  1.00  0.00    -0.012 C 
HETATM    4  C9  UNL     1     -45.756  15.749  -6.741  1.00  0.00     0.009 C 
HETATM    5  C10 UNL     1     -44.835  14.545  -6.817  1.00  0.00    -0.012 C 
HETATM    6  C11 UNL     1     -44.897  13.871  -8.162  1.00  0.00     0.025 C 
HETATM    7  C12 UNL     1     -46.340  13.467  -8.436  1.00  0.00     0.019 C 
HETATM    8 BR1  UNL     1     -46.383  12.590 -10.146  1.00  0.00    -0.085 Br
HETATM    9  C13 UNL     1     -47.191  14.701  -8.415  1.00  0.00     0.025 C 
HETATM   10  C14 UNL     1     -46.792  12.480  -7.388  1.00  0.00     0.032 C 
HETATM   11  C15 UNL     1     -45.283  13.556  -5.784  1.00  0.00     0.015 C 
ENDROOT
BRANCH   1  12
HETATM   12  C5  UNL     1     -47.027  12.112  -4.945  1.00  0.00     0.132 C 
BRANCH  12  13
HETATM   13  N1  UNL     1     -48.314  12.197  -4.362  1.00  0.00    -0.360 N 
HETATM   14  C4  UNL     1     -48.673  11.277  -3.342  1.00  0.00     0.221 C 
HETATM   15  O1  UNL     1     -47.853  10.378  -2.946  1.00  0.00    -0.273 OA
ATOM     16  H1  UNL     1     -48.976  12.910  -4.671  1.00  0.00     0.162 HD
BRANCH  14  17
HETATM   17  C3  UNL     1     -49.996  11.295  -2.679  1.00  0.00     0.129 C 
BRANCH  17  18
HETATM   18  C2  UNL     1     -50.667  10.000  -2.862  1.00  0.00    -0.028 C 
HETATM   19  C1  UNL     1     -51.135   9.646  -4.051  1.00  0.00     0.007 C 
ENDBRANCH  17  18
ENDBRANCH  14  17
ENDBRANCH  12  13
ENDBRANCH   1  12
TORSDOF 4
ENDMDL
MODEL 4
REMARK VINA RESULT: -6.190747917      3.021      6.298
REMARK  4 active torsions:
REMARK  status: ('A' for Active; 'I' for Inactive)
REMARK    1  A    between atoms: C2_2  and  C3_3 
REMARK    2  A    between atoms: C3_3  and  C4_4 
REMARK       I    between atoms: C4_4  and  N1_6 
REMARK    3  A    between atoms: N1_6  and  C5_8 
REMARK    4  A    between atoms: C5_8  and  C6_9 
ROOT
HETATM    1  C6  UNL     1     -46.830  13.338  -6.665  1.00  0.00    -0.022 C 
HETATM    2  C7  UNL     1     -46.965  12.574  -7.937  1.00  0.00     0.015 C 
HETATM    3  C8  UNL     1     -46.475  13.441  -9.073  1.00  0.00    -0.012 C 
HETATM    4  C9  UNL     1     -47.205  14.751  -9.162  1.00  0.00     0.009 C 
HETATM    5  C10 UNL     1     -46.966  15.523  -7.879  1.00  0.00    -0.012 C 
HETATM    6  C11 UNL     1     -45.502  15.766  -7.629  1.00  0.00     0.025 C 
HETATM    7  C12 UNL     1     -44.787  14.421  -7.593  1.00  0.00     0.019 C 
HETATM    8 BR1  UNL     1     -42.926  14.762  -7.251  1.00  0.00    -0.085 Br
HETATM    9  C13 UNL     1     -45.000  13.734  -8.909  1.00  0.00     0.025 C 
HETATM   10  C14 UNL     1     -45.332  13.594  -6.455  1.00  0.00     0.032 C 
HETATM   11  C15 UNL     1     -47.498  14.705  -6.742  1.00  0.00     0.015 C 
ENDROOT
BRANCH   1  12
HETATM   12  C5  UNL     1     -47.407  12.654  -5.472  1.00  0.00     0.132 C 
BRANCH  12  13
HETATM   13  N1  UNL     1     -48.189  11.505  -5.744  1.00  0.00    -0.360 N 
HETATM   14  C4  UNL     1     -48.233  10.457  -4.788  1.00  0.00     0.221 C 
HETATM   15  O1  UNL     1     -47.579  10.535  -3.691  1.00  0.00    -0.273 OA
ATOM     16  H1  UNL     1     -48.714  11.432  -6.616  1.00  0.00     0.162 HD
BRANCH  14  17
HETATM   17  C3  UNL     1     -49.025   9.222  -4.992  1.00  0.00     0.129 C 
BRANCH  17  18
HETATM   18  C2  UNL     1     -50.437   9.473  -4.671  1.00  0.00    -0.028 C 
HETATM   19  C1  UNL     1     -50.857   9.446  -3.414  1.00  0.00     0.007 C 
ENDBRANCH  17  18
ENDBRANCH  14  17
ENDBRANCH  12  13
ENDBRANCH   1  12
TORSDOF 4
ENDMDL
MODEL 5
REMARK VINA RESULT: -6.179073222      3.167      6.328
REMARK  4 active torsions:
REMARK  status: ('A' for Active; 'I' for Inactive)
REMARK    1  A    between atoms: C2_2  and  C3_3 
REMARK    2  A    between atoms: C3_3  and  C4_4 
REMARK       I    between atoms: C4_4  and  N1_6 
REMARK    3  A    between atoms: N1_6  and  C5_8 
REMARK    4  A    between atoms: C5_8  and  C6_9 
ROOT
HETATM    1  C6  UNL     1     -47.038  13.107  -6.338  1.00  0.00    -0.022 C 
HETATM    2  C7  UNL     1     -47.847  14.357  -6.394  1.00  0.00     0.015 C 
HETATM    3  C8  UNL     1     -47.154  15.339  -7.307  1.00  0.00    -0.012 C 
HETATM    4  C9  UNL     1     -45.746  15.641  -6.877  1.00  0.00     0.009 C 
HETATM    5  C10 UNL     1     -44.945  14.353  -6.918  1.00  0.00    -0.012 C 
HETATM    6  C11 UNL     1     -44.942  13.733  -8.289  1.00  0.00     0.025 C 
HETATM    7  C12 UNL     1     -46.384  13.486  -8.713  1.00  0.00     0.019 C 
HETATM    8 BR1  UNL     1     -46.347  12.674 -10.455  1.00  0.00    -0.085 Br
HETATM    9  C13 UNL     1     -47.109  14.799  -8.720  1.00  0.00     0.025 C 
HETATM   10  C14 UNL     1     -47.030  12.517  -7.754  1.00  0.00     0.032 C 
HETATM   11  C15 UNL     1     -45.584  13.382  -5.974  1.00  0.00     0.015 C 
ENDROOT
BRANCH   1  12
HETATM   12  C5  UNL     1     -47.534  12.095  -5.361  1.00  0.00     0.132 C 
BRANCH  12  13
HETATM   13  N1  UNL     1     -47.838  12.590  -4.069  1.00  0.00    -0.360 N 
HETATM   14  C4  UNL     1     -48.779  11.893  -3.267  1.00  0.00     0.221 C 
HETATM   15  O1  UNL     1     -49.352  10.832  -3.692  1.00  0.00    -0.273 OA
ATOM     16  H1  UNL     1     -47.387  13.435  -3.720  1.00  0.00     0.162 HD
BRANCH  14  17
HETATM   17  C3  UNL     1     -49.154  12.340  -1.906  1.00  0.00     0.129 C 
BRANCH  17  18
HETATM   18  C2  UNL     1     -50.420  13.084  -1.953  1.00  0.00    -0.028 C 
HETATM   19  C1  UNL     1     -51.544  12.529  -1.521  1.00  0.00     0.007 C 
ENDBRANCH  17  18
ENDBRANCH  14  17
ENDBRANCH  12  13
ENDBRANCH   1  12
TORSDOF 4
ENDMDL
