MODEL 1
REMARK VINA RESULT: -7.011446147      0.000      0.000
REMARK  11 active torsions:
REMARK  status: ('A' for Active; 'I' for Inactive)
REMARK    1  A    between atoms: C2_2  and  N1_3 
REMARK    2  A    between atoms: N1_3  and  C3_4 
REMARK    3  A    between atoms: N1_3  and  N2_8 
REMARK    4  A    between atoms: C3_4  and  C4_5 
REMARK    5  A    between atoms: C4_5  and  O1_6 
REMARK    6  A    between atoms: N2_8  and  C6_10 
REMARK    7  A    between atoms: C6_10  and  O2_11 
REMARK    8  A    between atoms: N3_13  and  C7_15 
REMARK    9  A    between atoms: C9_17  and  O3_18 
REMARK   10  A    between atoms: C11_20  and  N4_21 
REMARK   11  A    between atoms: N4_21  and  C12_22 
ROOT
HETATM    1  C7  UNL     1       9.373 -29.435 -60.094  1.00  0.00     0.060 A 
HETATM    2  C8  UNL     1      10.401 -29.693 -60.995  1.00  0.00     0.071 A 
HETATM    3  C9  UNL     1      11.634 -29.101 -60.840  1.00  0.00     0.111 A 
HETATM    4  C11 UNL     1      11.880 -28.238 -59.786  1.00  0.00     0.142 A 
HETATM    5  C21 UNL     1      10.814 -27.971 -58.878  1.00  0.00     0.073 A 
HETATM    6  C22 UNL     1       9.615 -28.571 -59.066  1.00  0.00     0.064 A 
HETATM    7 CL3  UNL     1       8.283 -28.193 -57.966  1.00  0.00    -0.082 Cl
ENDROOT
BRANCH   1   8
HETATM    8  N3  UNL     1       8.222 -30.225 -60.111  1.00  0.00    -0.320 N 
HETATM    9  C6  UNL     1       7.049 -30.340 -60.769  1.00  0.00     0.236 C 
ATOM     10  H3  UNL     1       8.289 -30.949 -59.396  1.00  0.00     0.169 HD
BRANCH   9  11
HETATM   11  N2  UNL     1       6.166 -31.411 -60.483  1.00  0.00    -0.267 N 
ATOM     12  H2  UNL     1       6.013 -31.429 -59.475  1.00  0.00     0.190 HD
BRANCH  11  13
HETATM   13  N1  UNL     1       5.478 -32.377 -61.010  1.00  0.00    -0.323 N 
BRANCH  13  14
HETATM   14  C2  UNL     1       4.723 -33.304 -60.234  1.00  0.00     0.138 C 
HETATM   15  C1  UNL     1       5.119 -33.197 -58.771  1.00  0.00     0.028 C 
ENDBRANCH  13  14
BRANCH  13  16
HETATM   16  C3  UNL     1       6.020 -32.977 -62.228  1.00  0.00     0.168 C 
BRANCH  16  17
HETATM   17  C4  UNL     1       6.957 -34.108 -62.054  1.00  0.00     0.188 C 
BRANCH  17  18
HETATM   18  O1  UNL     1       8.094 -33.738 -61.365  1.00  0.00    -0.394 OA
HETATM   19  C5  UNL     1       8.414 -34.496 -60.254  1.00  0.00     0.201 C 
ENDBRANCH  17  18
ENDBRANCH  16  17
ENDBRANCH  13  16
ENDBRANCH  11  13
ENDBRANCH   9  11
BRANCH   9  20
HETATM   20  O2  UNL     1       6.691 -29.502 -61.706  1.00  0.00    -0.331 OA
ATOM     21  H2  UNL     1       7.324 -29.318 -62.391  1.00  0.00     0.221 HD
ENDBRANCH   9  20
ENDBRANCH   1   8
BRANCH   3  22
HETATM   22  O3  UNL     1      12.659 -29.358 -61.722  1.00  0.00    -0.352 OA
HETATM   23  C10 UNL     1      13.456 -30.485 -61.807  1.00  0.00     0.210 C 
ENDBRANCH   3  22
BRANCH   4  24
HETATM   24  N4  UNL     1      13.111 -27.794 -59.473  1.00  0.00    -0.402 NA
BRANCH  24  25
HETATM   25  C12 UNL     1      14.165 -27.392 -59.175  1.00  0.00     0.121 A 
HETATM   26  C13 UNL     1      15.236 -27.659 -60.062  1.00  0.00     0.062 A 
HETATM   27  C14 UNL     1      16.515 -27.231 -59.770  1.00  0.00     0.092 A 
HETATM   28  N5  UNL     1      16.793 -26.577 -58.676  1.00  0.00    -0.364 N 
HETATM   29  C15 UNL     1      15.806 -26.291 -57.770  1.00  0.00     0.067 A 
ATOM     30  H5  UNL     1      17.750 -26.276 -58.495  1.00  0.00     0.165 HD
HETATM   31  C16 UNL     1      16.146 -25.619 -56.614  1.00  0.00     0.063 A 
HETATM   32  C20 UNL     1      14.518 -26.700 -58.039  1.00  0.00     0.035 A 
HETATM   33 CL1  UNL     1      17.785 -25.114 -56.282  1.00  0.00    -0.082 Cl
HETATM   34  C17 UNL     1      15.165 -25.353 -55.694  1.00  0.00     0.050 A 
HETATM   35  C18 UNL     1      13.858 -25.748 -55.930  1.00  0.00     0.036 A 
HETATM   36 CL2  UNL     1      12.601 -25.393 -54.759  1.00  0.00    -0.084 Cl
HETATM   37  C19 UNL     1      13.560 -26.405 -57.081  1.00  0.00     0.041 A 
ENDBRANCH  24  25
ENDBRANCH   4  24
TORSDOF 11
ENDMDL
MODEL 2
REMARK VINA RESULT: -6.816427251      2.665      4.191
REMARK  11 active torsions:
REMARK  status: ('A' for Active; 'I' for Inactive)
REMARK    1  A    between atoms: C2_2  and  N1_3 
REMARK    2  A    between atoms: N1_3  and  C3_4 
REMARK    3  A    between atoms: N1_3  and  N2_8 
REMARK    4  A    between atoms: C3_4  and  C4_5 
REMARK    5  A    between atoms: C4_5  and  O1_6 
REMARK    6  A    between atoms: N2_8  and  C6_10 
REMARK    7  A    between atoms: C6_10  and  O2_11 
REMARK    8  A    between atoms: N3_13  and  C7_15 
REMARK    9  A    between atoms: C9_17  and  O3_18 
REMARK   10  A    between atoms: C11_20  and  N4_21 
REMARK   11  A    between atoms: N4_21  and  C12_22 
ROOT
HETATM    1  C7  UNL     1       7.173 -30.977 -60.692  1.00  0.00     0.060 A 
HETATM    2  C8  UNL     1       8.183 -30.156 -61.184  1.00  0.00     0.071 A 
HETATM    3  C9  UNL     1       8.805 -29.243 -60.364  1.00  0.00     0.111 A 
HETATM    4  C11 UNL     1       8.445 -29.122 -59.033  1.00  0.00     0.142 A 
HETATM    5  C21 UNL     1       7.400 -29.959 -58.544  1.00  0.00     0.073 A 
HETATM    6  C22 UNL     1       6.810 -30.842 -59.383  1.00  0.00     0.064 A 
HETATM    7 CL3  UNL     1       5.478 -31.839 -58.783  1.00  0.00    -0.082 Cl
ENDROOT
BRANCH   1   8
HETATM    8  N3  UNL     1       6.730 -32.061 -61.452  1.00  0.00    -0.320 N 
HETATM    9  C6  UNL     1       7.085 -33.324 -61.769  1.00  0.00     0.236 C 
ATOM     10  H3  UNL     1       5.855 -31.822 -61.917  1.00  0.00     0.169 HD
BRANCH   9  11
HETATM   11  N2  UNL     1       6.235 -34.132 -62.563  1.00  0.00    -0.267 N 
ATOM     12  H2  UNL     1       6.619 -35.077 -62.573  1.00  0.00     0.190 HD
BRANCH  11  13
HETATM   13  N1  UNL     1       5.153 -34.134 -63.282  1.00  0.00    -0.323 N 
BRANCH  13  14
HETATM   14  C2  UNL     1       3.932 -34.723 -62.844  1.00  0.00     0.138 C 
HETATM   15  C1  UNL     1       3.627 -34.284 -61.422  1.00  0.00     0.028 C 
ENDBRANCH  13  14
BRANCH  13  16
HETATM   16  C3  UNL     1       5.333 -34.226 -64.730  1.00  0.00     0.168 C 
BRANCH  16  17
HETATM   17  C4  UNL     1       6.722 -34.160 -65.234  1.00  0.00     0.188 C 
BRANCH  17  18
HETATM   18  O1  UNL     1       7.439 -35.299 -64.930  1.00  0.00    -0.394 OA
HETATM   19  C5  UNL     1       7.133 -36.432 -65.660  1.00  0.00     0.201 C 
ENDBRANCH  17  18
ENDBRANCH  16  17
ENDBRANCH  13  16
ENDBRANCH  11  13
ENDBRANCH   9  11
BRANCH   9  20
HETATM   20  O2  UNL     1       8.197 -33.863 -61.341  1.00  0.00    -0.331 OA
ATOM     21  H2  UNL     1       8.385 -33.795 -60.412  1.00  0.00     0.221 HD
ENDBRANCH   9  20
ENDBRANCH   1   8
BRANCH   3  22
HETATM   22  O3  UNL     1       9.812 -28.433 -60.840  1.00  0.00    -0.352 OA
HETATM   23  C10 UNL     1      10.860 -28.769 -61.677  1.00  0.00     0.210 C 
ENDBRANCH   3  22
BRANCH   4  24
HETATM   24  N4  UNL     1       9.150 -28.397 -58.145  1.00  0.00    -0.402 NA
BRANCH  24  25
HETATM   25  C12 UNL     1       9.740 -27.780 -57.349  1.00  0.00     0.121 A 
HETATM   26  C13 UNL     1       9.037 -27.376 -56.189  1.00  0.00     0.062 A 
HETATM   27  C14 UNL     1       9.663 -26.629 -55.211  1.00  0.00     0.092 A 
HETATM   28  N5  UNL     1      10.911 -26.261 -55.314  1.00  0.00    -0.364 N 
HETATM   29  C15 UNL     1      11.648 -26.611 -56.415  1.00  0.00     0.067 A 
ATOM     30  H5  UNL     1      11.340 -25.710 -54.571  1.00  0.00     0.165 HD
HETATM   31  C16 UNL     1      12.957 -26.181 -56.497  1.00  0.00     0.063 A 
HETATM   32  C20 UNL     1      11.051 -27.363 -57.403  1.00  0.00     0.035 A 
HETATM   33 CL1  UNL     1      13.698 -25.221 -55.239  1.00  0.00    -0.082 Cl
HETATM   34  C17 UNL     1      13.689 -26.510 -57.607  1.00  0.00     0.050 A 
HETATM   35  C18 UNL     1      13.123 -27.265 -58.622  1.00  0.00     0.036 A 
HETATM   36 CL2  UNL     1      14.067 -27.697 -60.036  1.00  0.00    -0.084 Cl
HETATM   37  C19 UNL     1      11.833 -27.673 -58.505  1.00  0.00     0.041 A 
ENDBRANCH  24  25
ENDBRANCH   4  24
TORSDOF 11
ENDMDL
MODEL 3
REMARK VINA RESULT: -6.795422796      1.227      1.395
REMARK  11 active torsions:
REMARK  status: ('A' for Active; 'I' for Inactive)
REMARK    1  A    between atoms: C2_2  and  N1_3 
REMARK    2  A    between atoms: N1_3  and  C3_4 
REMARK    3  A    between atoms: N1_3  and  N2_8 
REMARK    4  A    between atoms: C3_4  and  C4_5 
REMARK    5  A    between atoms: C4_5  and  O1_6 
REMARK    6  A    between atoms: N2_8  and  C6_10 
REMARK    7  A    between atoms: C6_10  and  O2_11 
REMARK    8  A    between atoms: N3_13  and  C7_15 
REMARK    9  A    between atoms: C9_17  and  O3_18 
REMARK   10  A    between atoms: C11_20  and  N4_21 
REMARK   11  A    between atoms: N4_21  and  C12_22 
ROOT
HETATM    1  C7  UNL     1      10.670 -29.427 -60.240  1.00  0.00     0.060 A 
HETATM    2  C8  UNL     1      11.804 -29.689 -61.003  1.00  0.00     0.071 A 
HETATM    3  C9  UNL     1      12.941 -28.928 -60.854  1.00  0.00     0.111 A 
HETATM    4  C11 UNL     1      12.985 -27.888 -59.942  1.00  0.00     0.142 A 
HETATM    5  C21 UNL     1      11.813 -27.620 -59.176  1.00  0.00     0.073 A 
HETATM    6  C22 UNL     1      10.713 -28.389 -59.354  1.00  0.00     0.064 A 
HETATM    7 CL3  UNL     1       9.246 -28.016 -58.439  1.00  0.00    -0.082 Cl
ENDROOT
BRANCH   1   8
HETATM    8  N3  UNL     1       9.623 -30.349 -60.214  1.00  0.00    -0.320 N 
HETATM    9  C6  UNL     1       8.366 -30.510 -60.680  1.00  0.00     0.236 C 
ATOM     10  H3  UNL     1       9.894 -31.165 -59.666  1.00  0.00     0.169 HD
BRANCH   9  11
HETATM   11  N2  UNL     1       7.666 -31.720 -60.456  1.00  0.00    -0.267 N 
ATOM     12  H2  UNL     1       7.892 -32.044 -59.516  1.00  0.00     0.190 HD
BRANCH  11  13
HETATM   13  N1  UNL     1       6.847 -32.577 -60.987  1.00  0.00    -0.323 N 
BRANCH  13  14
HETATM   14  C2  UNL     1       5.447 -32.577 -60.723  1.00  0.00     0.138 C 
HETATM   15  C1  UNL     1       5.180 -31.982 -59.351  1.00  0.00     0.028 C 
ENDBRANCH  13  14
BRANCH  13  16
HETATM   16  C3  UNL     1       7.373 -33.920 -61.228  1.00  0.00     0.168 C 
BRANCH  16  17
HETATM   17  C4  UNL     1       8.454 -34.382 -60.331  1.00  0.00     0.188 C 
BRANCH  17  18
HETATM   18  O1  UNL     1       8.198 -34.076 -59.009  1.00  0.00    -0.394 OA
HETATM   19  C5  UNL     1       7.404 -34.968 -58.314  1.00  0.00     0.201 C 
ENDBRANCH  17  18
ENDBRANCH  16  17
ENDBRANCH  13  16
ENDBRANCH  11  13
ENDBRANCH   9  11
BRANCH   9  20
HETATM   20  O2  UNL     1       7.759 -29.584 -61.375  1.00  0.00    -0.331 OA
ATOM     21  H2  UNL     1       7.041 -29.859 -61.934  1.00  0.00     0.221 HD
ENDBRANCH   9  20
ENDBRANCH   1   8
BRANCH   3  22
HETATM   22  O3  UNL     1      14.069 -29.188 -61.598  1.00  0.00    -0.352 OA
HETATM   23  C10 UNL     1      14.590 -30.414 -61.970  1.00  0.00     0.210 C 
ENDBRANCH   3  22
BRANCH   4  24
HETATM   24  N4  UNL     1      14.122 -27.248 -59.614  1.00  0.00    -0.402 NA
BRANCH  24  25
HETATM   25  C12 UNL     1      15.093 -26.663 -59.336  1.00  0.00     0.121 A 
HETATM   26  C13 UNL     1      16.123 -26.617 -60.307  1.00  0.00     0.062 A 
HETATM   27  C14 UNL     1      17.307 -25.960 -60.046  1.00  0.00     0.092 A 
HETATM   28  N5  UNL     1      17.532 -25.366 -58.906  1.00  0.00    -0.364 N 
HETATM   29  C15 UNL     1      16.583 -25.377 -57.919  1.00  0.00     0.067 A 
ATOM     30  H5  UNL     1      18.421 -24.889 -58.750  1.00  0.00     0.165 HD
HETATM   31  C16 UNL     1      16.869 -24.759 -56.720  1.00  0.00     0.063 A 
HETATM   32  C20 UNL     1      15.387 -26.020 -58.155  1.00  0.00     0.035 A 
HETATM   33 CL1  UNL     1      18.393 -23.954 -56.432  1.00  0.00    -0.082 Cl
HETATM   34  C17 UNL     1      15.930 -24.790 -55.722  1.00  0.00     0.050 A 
HETATM   35  C18 UNL     1      14.716 -25.426 -55.922  1.00  0.00     0.036 A 
HETATM   36 CL2  UNL     1      13.509 -25.451 -54.649  1.00  0.00    -0.084 Cl
HETATM   37  C19 UNL     1      14.468 -26.022 -57.117  1.00  0.00     0.041 A 
ENDBRANCH  24  25
ENDBRANCH   4  24
TORSDOF 11
ENDMDL
MODEL 4
REMARK VINA RESULT: -6.792342857      0.925      1.548
REMARK  11 active torsions:
REMARK  status: ('A' for Active; 'I' for Inactive)
REMARK    1  A    between atoms: C2_2  and  N1_3 
REMARK    2  A    between atoms: N1_3  and  C3_4 
REMARK    3  A    between atoms: N1_3  and  N2_8 
REMARK    4  A    between atoms: C3_4  and  C4_5 
REMARK    5  A    between atoms: C4_5  and  O1_6 
REMARK    6  A    between atoms: N2_8  and  C6_10 
REMARK    7  A    between atoms: C6_10  and  O2_11 
REMARK    8  A    between atoms: N3_13  and  C7_15 
REMARK    9  A    between atoms: C9_17  and  O3_18 
REMARK   10  A    between atoms: C11_20  and  N4_21 
REMARK   11  A    between atoms: N4_21  and  C12_22 
ROOT
HETATM    1  C7  UNL     1       9.438 -29.482 -60.167  1.00  0.00     0.060 A 
HETATM    2  C8  UNL     1      10.502 -29.706 -61.035  1.00  0.00     0.071 A 
HETATM    3  C9  UNL     1      11.715 -29.090 -60.830  1.00  0.00     0.111 A 
HETATM    4  C11 UNL     1      11.906 -28.236 -59.758  1.00  0.00     0.142 A 
HETATM    5  C21 UNL     1      10.804 -28.003 -58.884  1.00  0.00     0.073 A 
HETATM    6  C22 UNL     1       9.626 -28.626 -59.121  1.00  0.00     0.064 A 
HETATM    7 CL3  UNL     1       8.248 -28.290 -58.063  1.00  0.00    -0.082 Cl
ENDROOT
BRANCH   1   8
HETATM    8  N3  UNL     1       8.305 -30.296 -60.233  1.00  0.00    -0.320 N 
HETATM    9  C6  UNL     1       7.116 -30.374 -60.867  1.00  0.00     0.236 C 
ATOM     10  H3  UNL     1       8.411 -31.087 -59.598  1.00  0.00     0.169 HD
BRANCH   9  11
HETATM   11  N2  UNL     1       6.268 -31.491 -60.668  1.00  0.00    -0.267 N 
ATOM     12  H2  UNL     1       5.470 -31.183 -60.112  1.00  0.00     0.190 HD
BRANCH  11  13
HETATM   13  N1  UNL     1       6.114 -32.756 -60.921  1.00  0.00    -0.323 N 
BRANCH  13  14
HETATM   14  C2  UNL     1       6.936 -33.467 -61.841  1.00  0.00     0.138 C 
HETATM   15  C1  UNL     1       6.440 -33.241 -63.259  1.00  0.00     0.028 C 
ENDBRANCH  13  14
BRANCH  13  16
HETATM   16  C3  UNL     1       4.745 -33.268 -60.878  1.00  0.00     0.168 C 
BRANCH  16  17
HETATM   17  C4  UNL     1       4.370 -34.065 -59.690  1.00  0.00     0.188 C 
BRANCH  17  18
HETATM   18  O1  UNL     1       5.081 -33.690 -58.568  1.00  0.00    -0.394 OA
HETATM   19  C5  UNL     1       5.419 -34.701 -57.689  1.00  0.00     0.201 C 
ENDBRANCH  17  18
ENDBRANCH  16  17
ENDBRANCH  13  16
ENDBRANCH  11  13
ENDBRANCH   9  11
BRANCH   9  20
HETATM   20  O2  UNL     1       6.711 -29.455 -61.704  1.00  0.00    -0.331 OA
ATOM     21  H2  UNL     1       7.378 -28.986 -62.192  1.00  0.00     0.221 HD
ENDBRANCH   9  20
ENDBRANCH   1   8
BRANCH   3  22
HETATM   22  O3  UNL     1      12.775 -29.314 -61.679  1.00  0.00    -0.352 OA
HETATM   23  C10 UNL     1      13.564 -30.445 -61.788  1.00  0.00     0.210 C 
ENDBRANCH   3  22
BRANCH   4  24
HETATM   24  N4  UNL     1      13.115 -27.770 -59.398  1.00  0.00    -0.402 NA
BRANCH  24  25
HETATM   25  C12 UNL     1      14.152 -27.357 -59.054  1.00  0.00     0.121 A 
HETATM   26  C13 UNL     1      15.264 -27.617 -59.891  1.00  0.00     0.062 A 
HETATM   27  C14 UNL     1      16.524 -27.177 -59.544  1.00  0.00     0.092 A 
HETATM   28  N5  UNL     1      16.747 -26.516 -58.441  1.00  0.00    -0.364 N 
HETATM   29  C15 UNL     1      15.718 -26.236 -57.581  1.00  0.00     0.067 A 
ATOM     30  H5  UNL     1      17.693 -26.205 -58.219  1.00  0.00     0.165 HD
HETATM   31  C16 UNL     1      16.000 -25.557 -56.414  1.00  0.00     0.063 A 
HETATM   32  C20 UNL     1      14.447 -26.657 -57.907  1.00  0.00     0.035 A 
HETATM   33 CL1  UNL     1      17.618 -25.035 -56.011  1.00  0.00    -0.082 Cl
HETATM   34  C17 UNL     1      14.976 -25.296 -55.541  1.00  0.00     0.050 A 
HETATM   35  C18 UNL     1      13.684 -25.704 -55.833  1.00  0.00     0.036 A 
HETATM   36 CL2  UNL     1      12.373 -25.357 -54.721  1.00  0.00    -0.084 Cl
HETATM   37  C19 UNL     1      13.445 -26.369 -56.993  1.00  0.00     0.041 A 
ENDBRANCH  24  25
ENDBRANCH   4  24
TORSDOF 11
ENDMDL
MODEL 5
REMARK VINA RESULT: -6.754939911      2.244      3.203
REMARK  11 active torsions:
REMARK  status: ('A' for Active; 'I' for Inactive)
REMARK    1  A    between atoms: C2_2  and  N1_3 
REMARK    2  A    between atoms: N1_3  and  C3_4 
REMARK    3  A    between atoms: N1_3  and  N2_8 
REMARK    4  A    between atoms: C3_4  and  C4_5 
REMARK    5  A    between atoms: C4_5  and  O1_6 
REMARK    6  A    between atoms: N2_8  and  C6_10 
REMARK    7  A    between atoms: C6_10  and  O2_11 
REMARK    8  A    between atoms: N3_13  and  C7_15 
REMARK    9  A    between atoms: C9_17  and  O3_18 
REMARK   10  A    between atoms: C11_20  and  N4_21 
REMARK   11  A    between atoms: N4_21  and  C12_22 
ROOT
HETATM    1  C7  UNL     1      11.246 -28.924 -59.723  1.00  0.00     0.060 A 
HETATM    2  C8  UNL     1      11.174 -27.805 -58.900  1.00  0.00     0.071 A 
HETATM    3  C9  UNL     1      12.302 -27.069 -58.618  1.00  0.00     0.111 A 
HETATM    4  C11 UNL     1      13.532 -27.422 -59.145  1.00  0.00     0.142 A 
HETATM    5  C21 UNL     1      13.596 -28.580 -59.975  1.00  0.00     0.073 A 
HETATM    6  C22 UNL     1      12.464 -29.279 -60.227  1.00  0.00     0.064 A 
HETATM    7 CL3  UNL     1      12.561 -30.744 -61.213  1.00  0.00    -0.082 Cl
ENDROOT
BRANCH   1   8
HETATM    8  N3  UNL     1      10.073 -29.508 -60.204  1.00  0.00    -0.320 N 
HETATM    9  C6  UNL     1       8.832 -29.167 -60.608  1.00  0.00     0.236 C 
ATOM     10  H3  UNL     1      10.192 -30.518 -60.271  1.00  0.00     0.169 HD
BRANCH   9  11
HETATM   11  N2  UNL     1       7.948 -30.147 -61.123  1.00  0.00    -0.267 N 
ATOM     12  H2  UNL     1       7.532 -29.777 -61.977  1.00  0.00     0.190 HD
BRANCH  11  13
HETATM   13  N1  UNL     1       7.465 -31.336 -60.926  1.00  0.00    -0.323 N 
BRANCH  13  14
HETATM   14  C2  UNL     1       6.674 -32.021 -61.893  1.00  0.00     0.138 C 
HETATM   15  C1  UNL     1       7.055 -33.491 -61.925  1.00  0.00     0.028 C 
ENDBRANCH  13  14
BRANCH  13  16
HETATM   16  C3  UNL     1       7.083 -31.667 -59.554  1.00  0.00     0.168 C 
BRANCH  16  17
HETATM   17  C4  UNL     1       5.790 -31.133 -59.075  1.00  0.00     0.188 C 
BRANCH  17  18
HETATM   18  O1  UNL     1       4.805 -32.100 -59.058  1.00  0.00    -0.394 OA
HETATM   19  C5  UNL     1       5.200 -33.374 -58.699  1.00  0.00     0.201 C 
ENDBRANCH  17  18
ENDBRANCH  16  17
ENDBRANCH  13  16
ENDBRANCH  11  13
ENDBRANCH   9  11
BRANCH   9  20
HETATM   20  O2  UNL     1       8.404 -27.931 -60.575  1.00  0.00    -0.331 OA
ATOM     21  H2  UNL     1       8.224 -27.509 -61.407  1.00  0.00     0.221 HD
ENDBRANCH   9  20
ENDBRANCH   1   8
BRANCH   3  22
HETATM   22  O3  UNL     1      12.237 -25.954 -57.813  1.00  0.00    -0.352 OA
HETATM   23  C10 UNL     1      11.934 -25.884 -56.465  1.00  0.00     0.210 C 
ENDBRANCH   3  22
BRANCH   4  24
HETATM   24  N4  UNL     1      14.618 -26.632 -59.069  1.00  0.00    -0.402 NA
BRANCH  24  25
HETATM   25  C12 UNL     1      15.540 -25.919 -59.002  1.00  0.00     0.121 A 
HETATM   26  C13 UNL     1      16.255 -25.669 -60.199  1.00  0.00     0.062 A 
HETATM   27  C14 UNL     1      17.366 -24.851 -60.197  1.00  0.00     0.092 A 
HETATM   28  N5  UNL     1      17.807 -24.286 -59.107  1.00  0.00    -0.364 N 
HETATM   29  C15 UNL     1      17.169 -24.492 -57.912  1.00  0.00     0.067 A 
ATOM     30  H5  UNL     1      18.632 -23.687 -59.144  1.00  0.00     0.165 HD
HETATM   31  C16 UNL     1      17.682 -23.896 -56.778  1.00  0.00     0.063 A 
HETATM   32  C20 UNL     1      16.051 -25.298 -57.886  1.00  0.00     0.035 A 
HETATM   33 CL1  UNL     1      19.104 -22.882 -56.825  1.00  0.00    -0.082 Cl
HETATM   34  C17 UNL     1      17.059 -24.119 -55.578  1.00  0.00     0.050 A 
HETATM   35  C18 UNL     1      15.933 -24.924 -55.512  1.00  0.00     0.036 A 
HETATM   36 CL2  UNL     1      15.129 -25.197 -53.977  1.00  0.00    -0.084 Cl
HETATM   37  C19 UNL     1      15.455 -25.492 -56.649  1.00  0.00     0.041 A 
ENDBRANCH  24  25
ENDBRANCH   4  24
TORSDOF 11
ENDMDL
