MODEL 1
REMARK VINA RESULT: -5.008235030      0.000      0.000
REMARK  5 active torsions:
REMARK  status: ('A' for Active; 'I' for Inactive)
REMARK    1  A    between atoms: C2_2  and  N1_3 
REMARK    2  A    between atoms: N1_3  and  N2_5 
REMARK    3  A    between atoms: C4_10  and  O1_11 
REMARK    4  A    between atoms: C4_10  and  C5_13 
REMARK    5  A    between atoms: C7_20  and  N7_21 
ROOT
HETATM    1  C5  UNL     1      61.560 -44.296 -14.696  1.00  0.00     0.100 A 
HETATM    2  N5  UNL     1      61.369 -43.167 -15.373  1.00  0.00    -0.304 N 
ATOM      3  H5  UNL     1      62.034 -42.403 -15.257  1.00  0.00     0.171 HD
HETATM    4  C6  UNL     1      60.301 -42.997 -16.227  1.00  0.00     0.326 A 
HETATM    5  O2  UNL     1      60.184 -41.908 -16.830  1.00  0.00    -0.247 OA
HETATM    6  N6  UNL     1      59.383 -43.941 -16.440  1.00  0.00    -0.293 N 
ATOM      7  H6  UNL     1      58.603 -43.787 -17.078  1.00  0.00     0.172 HD
HETATM    8  C7  UNL     1      59.529 -45.101 -15.782  1.00  0.00     0.129 A 
HETATM    9  C8  UNL     1      60.590 -45.286 -14.926  1.00  0.00     0.119 A 
HETATM   10  N8  UNL     1      60.758 -46.509 -14.222  1.00  0.00    -0.096 NA
ENDROOT
BRANCH   1  11
HETATM   11  C4  UNL     1      62.653 -44.549 -13.786  1.00  0.00     0.118 C 
HETATM   12  C2  UNL     1      63.011 -43.875 -12.581  1.00  0.00     0.057 C 
HETATM   13  C1  UNL     1      64.217 -44.351 -11.810  1.00  0.00     0.072 C 
BRANCH  12  14
HETATM   14  N1  UNL     1      62.377 -42.887 -12.101  1.00  0.00    -0.300 N 
ATOM     15  H1  UNL     1      62.794 -41.964 -12.227  1.00  0.00     0.186 HD
BRANCH  14  16
HETATM   16  N2  UNL     1      61.176 -42.947 -11.425  1.00  0.00    -0.276 N 
HETATM   17  C3  UNL     1      60.183 -42.242 -11.820  1.00  0.00     0.215 C 
HETATM   18  N3  UNL     1      60.300 -41.400 -12.947  1.00  0.00    -0.065 NA
HETATM   19  N4  UNL     1      58.959 -42.310 -11.122  1.00  0.00    -0.065 NA
ATOM     20  H2  UNL     1      61.080 -43.553 -10.610  1.00  0.00     0.189 HD
ENDBRANCH  14  16
ENDBRANCH  12  14
BRANCH  11  21
HETATM   21  O1  UNL     1      63.447 -45.541 -14.093  1.00  0.00    -0.357 OA
ATOM     22  H1  UNL     1      63.379 -45.823 -14.997  1.00  0.00     0.218 HD
ENDBRANCH  11  21
ENDBRANCH   1  11
BRANCH   8  23
HETATM   23  N7  UNL     1      58.661 -46.044 -15.960  1.00  0.00    -0.384 N 
ATOM     24  H72 UNL     1      57.823 -46.088 -15.381  1.00  0.00     0.157 HD
ATOM     25  H71 UNL     1      58.824 -46.743 -16.685  1.00  0.00     0.157 HD
ENDBRANCH   8  23
TORSDOF 5
ENDMDL
MODEL 2
REMARK VINA RESULT: -4.752121774      0.820      1.223
REMARK  5 active torsions:
REMARK  status: ('A' for Active; 'I' for Inactive)
REMARK    1  A    between atoms: C2_2  and  N1_3 
REMARK    2  A    between atoms: N1_3  and  N2_5 
REMARK    3  A    between atoms: C4_10  and  O1_11 
REMARK    4  A    between atoms: C4_10  and  C5_13 
REMARK    5  A    between atoms: C7_20  and  N7_21 
ROOT
HETATM    1  C5  UNL     1      61.506 -44.255 -14.594  1.00  0.00     0.100 A 
HETATM    2  N5  UNL     1      61.337 -43.129 -15.282  1.00  0.00    -0.304 N 
ATOM      3  H5  UNL     1      61.989 -42.359 -15.136  1.00  0.00     0.171 HD
HETATM    4  C6  UNL     1      60.308 -42.970 -16.185  1.00  0.00     0.326 A 
HETATM    5  O2  UNL     1      60.210 -41.883 -16.795  1.00  0.00    -0.247 OA
HETATM    6  N6  UNL     1      59.410 -43.923 -16.438  1.00  0.00    -0.293 N 
ATOM      7  H6  UNL     1      58.658 -43.777 -17.112  1.00  0.00     0.172 HD
HETATM    8  C7  UNL     1      59.534 -45.080 -15.771  1.00  0.00     0.129 A 
HETATM    9  C8  UNL     1      60.557 -45.254 -14.866  1.00  0.00     0.119 A 
HETATM   10  N8  UNL     1      60.702 -46.474 -14.153  1.00  0.00    -0.096 NA
ENDROOT
BRANCH   1  11
HETATM   11  C4  UNL     1      62.558 -44.496 -13.633  1.00  0.00     0.118 C 
HETATM   12  C2  UNL     1      62.829 -43.843 -12.395  1.00  0.00     0.057 C 
HETATM   13  C1  UNL     1      64.007 -44.300 -11.572  1.00  0.00     0.072 C 
BRANCH  12  14
HETATM   14  N1  UNL     1      62.138 -42.889 -11.925  1.00  0.00    -0.300 N 
ATOM     15  H1  UNL     1      61.348 -43.137 -11.329  1.00  0.00     0.186 HD
BRANCH  14  16
HETATM   16  N2  UNL     1      62.358 -41.545 -12.148  1.00  0.00    -0.276 N 
HETATM   17  C3  UNL     1      61.416 -40.809 -12.607  1.00  0.00     0.215 C 
HETATM   18  N3  UNL     1      60.145 -41.357 -12.888  1.00  0.00    -0.065 NA
HETATM   19  N4  UNL     1      61.650 -39.437 -12.832  1.00  0.00    -0.065 NA
ATOM     20  H2  UNL     1      63.271 -41.138 -11.948  1.00  0.00     0.189 HD
ENDBRANCH  14  16
ENDBRANCH  12  14
BRANCH  11  21
HETATM   21  O1  UNL     1      63.399 -45.454 -13.921  1.00  0.00    -0.357 OA
ATOM     22  H1  UNL     1      64.095 -45.191 -14.512  1.00  0.00     0.218 HD
ENDBRANCH  11  21
ENDBRANCH   1  11
BRANCH   8  23
HETATM   23  N7  UNL     1      58.684 -46.031 -15.987  1.00  0.00    -0.384 N 
ATOM     24  H72 UNL     1      58.297 -46.173 -16.920  1.00  0.00     0.157 HD
ATOM     25  H71 UNL     1      58.406 -46.637 -15.216  1.00  0.00     0.157 HD
ENDBRANCH   8  23
TORSDOF 5
ENDMDL
MODEL 3
REMARK VINA RESULT: -4.494818384      2.283      5.224
REMARK  5 active torsions:
REMARK  status: ('A' for Active; 'I' for Inactive)
REMARK    1  A    between atoms: C2_2  and  N1_3 
REMARK    2  A    between atoms: N1_3  and  N2_5 
REMARK    3  A    between atoms: C4_10  and  O1_11 
REMARK    4  A    between atoms: C4_10  and  C5_13 
REMARK    5  A    between atoms: C7_20  and  N7_21 
ROOT
HETATM    1  C5  UNL     1      60.463 -43.517 -13.927  1.00  0.00     0.100 A 
HETATM    2  N5  UNL     1      60.418 -43.809 -12.631  1.00  0.00    -0.304 N 
ATOM      3  H5  UNL     1      59.955 -44.668 -12.333  1.00  0.00     0.171 HD
HETATM    4  C6  UNL     1      60.978 -42.990 -11.675  1.00  0.00     0.326 A 
HETATM    5  O2  UNL     1      60.898 -43.329 -10.474  1.00  0.00    -0.247 OA
HETATM    6  N6  UNL     1      61.603 -41.849 -11.972  1.00  0.00    -0.293 N 
ATOM      7  H6  UNL     1      62.008 -41.262 -11.243  1.00  0.00     0.172 HD
HETATM    8  C7  UNL     1      61.677 -41.506 -13.266  1.00  0.00     0.129 A 
HETATM    9  C8  UNL     1      61.123 -42.315 -14.233  1.00  0.00     0.119 A 
HETATM   10  N8  UNL     1      61.193 -41.966 -15.608  1.00  0.00    -0.096 NA
ENDROOT
BRANCH   1  11
HETATM   11  C4  UNL     1      59.900 -44.325 -14.985  1.00  0.00     0.118 C 
HETATM   12  C2  UNL     1      60.245 -45.642 -15.408  1.00  0.00     0.057 C 
HETATM   13  C1  UNL     1      59.487 -46.261 -16.556  1.00  0.00     0.072 C 
BRANCH  12  14
HETATM   14  N1  UNL     1      61.159 -46.345 -14.879  1.00  0.00    -0.300 N 
ATOM     15  H1  UNL     1      62.062 -45.894 -14.729  1.00  0.00     0.186 HD
BRANCH  14  16
HETATM   16  N2  UNL     1      61.042 -47.663 -14.488  1.00  0.00    -0.276 N 
HETATM   17  C3  UNL     1      61.131 -47.974 -13.250  1.00  0.00     0.215 C 
HETATM   18  N3  UNL     1      61.347 -46.979 -12.270  1.00  0.00    -0.065 NA
HETATM   19  N4  UNL     1      61.011 -49.324 -12.859  1.00  0.00    -0.065 NA
ATOM     20  H2  UNL     1      60.885 -48.390 -15.187  1.00  0.00     0.189 HD
ENDBRANCH  14  16
ENDBRANCH  12  14
BRANCH  11  21
HETATM   21  O1  UNL     1      58.927 -43.786 -15.672  1.00  0.00    -0.357 OA
ATOM     22  H1  UNL     1      58.787 -42.866 -15.484  1.00  0.00     0.218 HD
ENDBRANCH  11  21
ENDBRANCH   1  11
BRANCH   8  23
HETATM   23  N7  UNL     1      62.274 -40.408 -13.598  1.00  0.00    -0.384 N 
ATOM     24  H72 UNL     1      62.195 -39.581 -13.008  1.00  0.00     0.157 HD
ATOM     25  H71 UNL     1      62.825 -40.378 -14.456  1.00  0.00     0.157 HD
ENDBRANCH   8  23
TORSDOF 5
ENDMDL
MODEL 4
REMARK VINA RESULT: -4.488626157      2.954      5.015
REMARK  5 active torsions:
REMARK  status: ('A' for Active; 'I' for Inactive)
REMARK    1  A    between atoms: C2_2  and  N1_3 
REMARK    2  A    between atoms: N1_3  and  N2_5 
REMARK    3  A    between atoms: C4_10  and  O1_11 
REMARK    4  A    between atoms: C4_10  and  C5_13 
REMARK    5  A    between atoms: C7_20  and  N7_21 
ROOT
HETATM    1  C5  UNL     1      61.935 -44.349 -10.841  1.00  0.00     0.100 A 
HETATM    2  N5  UNL     1      61.831 -45.225 -11.835  1.00  0.00    -0.304 N 
ATOM      3  H5  UNL     1      62.030 -44.917 -12.787  1.00  0.00     0.171 HD
HETATM    4  C6  UNL     1      61.463 -46.535 -11.622  1.00  0.00     0.326 A 
HETATM    5  O2  UNL     1      61.386 -47.303 -12.606  1.00  0.00    -0.247 OA
HETATM    6  N6  UNL     1      61.184 -47.024 -10.413  1.00  0.00    -0.293 N 
ATOM      7  H6  UNL     1      60.914 -47.999 -10.285  1.00  0.00     0.172 HD
HETATM    8  C7  UNL     1      61.274 -46.182  -9.373  1.00  0.00     0.129 A 
HETATM    9  C8  UNL     1      61.640 -44.870  -9.569  1.00  0.00     0.119 A 
HETATM   10  N8  UNL     1      61.740 -43.967  -8.478  1.00  0.00    -0.096 NA
ENDROOT
BRANCH   1  11
HETATM   11  C4  UNL     1      62.314 -42.962 -10.985  1.00  0.00     0.118 C 
HETATM   12  C2  UNL     1      61.647 -41.899 -11.661  1.00  0.00     0.057 C 
HETATM   13  C1  UNL     1      62.270 -40.526 -11.656  1.00  0.00     0.072 C 
BRANCH  12  14
HETATM   14  N1  UNL     1      60.545 -42.027 -12.277  1.00  0.00    -0.300 N 
ATOM     15  H1  UNL     1      59.744 -42.347 -11.733  1.00  0.00     0.186 HD
BRANCH  14  16
HETATM   16  N2  UNL     1      60.333 -41.771 -13.617  1.00  0.00    -0.276 N 
HETATM   17  C3  UNL     1      60.024 -42.727 -14.410  1.00  0.00     0.215 C 
HETATM   18  N3  UNL     1      59.894 -44.048 -13.930  1.00  0.00    -0.065 NA
HETATM   19  N4  UNL     1      59.809 -42.456 -15.777  1.00  0.00    -0.065 NA
ATOM     20  H2  UNL     1      60.423 -40.820 -13.974  1.00  0.00     0.189 HD
ENDBRANCH  14  16
ENDBRANCH  12  14
BRANCH  11  21
HETATM   21  O1  UNL     1      63.437 -42.605 -10.417  1.00  0.00    -0.357 OA
ATOM     22  H1  UNL     1      63.343 -42.346  -9.508  1.00  0.00     0.218 HD
ENDBRANCH  11  21
ENDBRANCH   1  11
BRANCH   8  23
HETATM   23  N7  UNL     1      61.012 -46.615  -8.182  1.00  0.00    -0.384 N 
ATOM     24  H72 UNL     1      61.274 -47.562  -7.910  1.00  0.00     0.157 HD
ATOM     25  H71 UNL     1      60.541 -46.000  -7.518  1.00  0.00     0.157 HD
ENDBRANCH   8  23
TORSDOF 5
ENDMDL
MODEL 5
REMARK VINA RESULT: -4.407091690      2.472      4.681
REMARK  5 active torsions:
REMARK  status: ('A' for Active; 'I' for Inactive)
REMARK    1  A    between atoms: C2_2  and  N1_3 
REMARK    2  A    between atoms: N1_3  and  N2_5 
REMARK    3  A    between atoms: C4_10  and  O1_11 
REMARK    4  A    between atoms: C4_10  and  C5_13 
REMARK    5  A    between atoms: C7_20  and  N7_21 
ROOT
HETATM    1  C5  UNL     1      61.795 -44.096 -11.726  1.00  0.00     0.100 A 
HETATM    2  N5  UNL     1      61.969 -44.952 -12.729  1.00  0.00    -0.304 N 
ATOM      3  H5  UNL     1      62.251 -44.593 -13.641  1.00  0.00     0.171 HD
HETATM    4  C6  UNL     1      61.780 -46.308 -12.575  1.00  0.00     0.326 A 
HETATM    5  O2  UNL     1      61.962 -47.053 -13.563  1.00  0.00    -0.247 OA
HETATM    6  N6  UNL     1      61.412 -46.864 -11.420  1.00  0.00    -0.293 N 
ATOM      7  H6  UNL     1      61.279 -47.872 -11.336  1.00  0.00     0.172 HD
HETATM    8  C7  UNL     1      61.223 -46.045 -10.375  1.00  0.00     0.129 A 
HETATM    9  C8  UNL     1      61.408 -44.689 -10.512  1.00  0.00     0.119 A 
HETATM   10  N8  UNL     1      61.212 -43.808  -9.415  1.00  0.00    -0.096 NA
ENDROOT
BRANCH   1  11
HETATM   11  C4  UNL     1      61.974 -42.664 -11.809  1.00  0.00     0.118 C 
HETATM   12  C2  UNL     1      61.251 -41.697 -12.568  1.00  0.00     0.057 C 
HETATM   13  C1  UNL     1      61.650 -40.246 -12.469  1.00  0.00     0.072 C 
BRANCH  12  14
HETATM   14  N1  UNL     1      60.279 -41.974 -13.333  1.00  0.00    -0.300 N 
ATOM     15  H1  UNL     1      59.362 -42.082 -12.898  1.00  0.00     0.186 HD
BRANCH  14  16
HETATM   16  N2  UNL     1      60.348 -42.141 -14.701  1.00  0.00    -0.276 N 
HETATM   17  C3  UNL     1      59.940 -43.231 -15.234  1.00  0.00     0.215 C 
HETATM   18  N3  UNL     1      59.415 -44.271 -14.437  1.00  0.00    -0.065 NA
HETATM   19  N4  UNL     1      60.015 -43.394 -16.633  1.00  0.00    -0.065 NA
ATOM     20  H2  UNL     1      60.724 -41.396 -15.288  1.00  0.00     0.189 HD
ENDBRANCH  14  16
ENDBRANCH  12  14
BRANCH  11  21
HETATM   21  O1  UNL     1      62.939 -42.157 -11.087  1.00  0.00    -0.357 OA
ATOM     22  H1  UNL     1      63.224 -42.719 -10.377  1.00  0.00     0.218 HD
ENDBRANCH  11  21
ENDBRANCH   1  11
BRANCH   8  23
HETATM   23  N7  UNL     1      60.865 -46.544  -9.236  1.00  0.00    -0.384 N 
ATOM     24  H72 UNL     1      61.551 -46.673  -8.493  1.00  0.00     0.157 HD
ATOM     25  H71 UNL     1      59.890 -46.806  -9.089  1.00  0.00     0.157 HD
ENDBRANCH   8  23
TORSDOF 5
ENDMDL
