MODEL 1
REMARK VINA RESULT: -4.949318650      0.000      0.000
REMARK  4 active torsions:
REMARK  status: ('A' for Active; 'I' for Inactive)
REMARK    1  A    between atoms: N1_1  and  C1_4 
REMARK    2  A    between atoms: C3_8  and  C4_9 
REMARK    3  A    between atoms: C5_10  and  N3_11 
REMARK    4  A    between atoms: C6_18  and  N7_19 
REMARK       I    between atoms: N7_19  and  C7_21 
REMARK       I    between atoms: C7_21  and  N8_22 
REMARK       I    between atoms: C7_21  and  N9_26 
ROOT
HETATM    1  N3  UNL     1      58.012 -53.258  -9.481  1.00  0.00    -0.081 N 
HETATM    2  N4  UNL     1      56.975 -52.609  -9.985  1.00  0.00    -0.207 N 
ATOM      3  H4  UNL     1      56.053 -53.020 -10.133  1.00  0.00     0.211 HD
HETATM    4  N5  UNL     1      57.285 -51.375 -10.268  1.00  0.00    -0.213 N 
ATOM      5  H5  UNL     1      56.659 -50.676 -10.666  1.00  0.00     0.210 HD
HETATM    6  N6  UNL     1      58.549 -51.191  -9.950  1.00  0.00    -0.115 N 
ATOM      7  H6  UNL     1      59.069 -50.320 -10.060  1.00  0.00     0.207 HD
HETATM    8  C6  UNL     1      59.038 -52.335  -9.458  1.00  0.00     0.719 A 
ENDROOT
BRANCH   1   9
HETATM    9  C5  UNL     1      58.173 -54.586  -9.042  1.00  0.00     0.138 C 
HETATM   10  C4  UNL     1      58.235 -55.214  -7.945  1.00  0.00     0.038 C 
BRANCH  10  11
HETATM   11  C3  UNL     1      58.154 -54.858  -6.575  1.00  0.00     0.050 A 
HETATM   12  C2  UNL     1      57.016 -54.814  -5.839  1.00  0.00     0.123 A 
HETATM   13  N2  UNL     1      57.018 -54.363  -4.550  1.00  0.00    -0.201 N 
HETATM   14  C1  UNL     1      58.117 -53.939  -3.918  1.00  0.00     0.678 A 
ATOM     15  H2  UNL     1      56.133 -54.349  -4.042  1.00  0.00     0.183 HD
HETATM   16  N10 UNL     1      59.253 -53.979  -4.634  1.00  0.00    -0.156 N 
HETATM   17  C8  UNL     1      59.308 -54.405  -5.890  1.00  0.00     0.271 A 
ATOM     18  H10 UNL     1      60.117 -53.665  -4.190  1.00  0.00     0.187 HD
HETATM   19  O1  UNL     1      60.390 -54.430  -6.534  1.00  0.00    -0.267 OA
BRANCH  14  20
HETATM   20  N1  UNL     1      58.066 -53.522  -2.702  1.00  0.00    -0.234 N 
ATOM     21  H12 UNL     1      58.534 -52.673  -2.384  1.00  0.00     0.174 HD
ATOM     22  H11 UNL     1      57.544 -54.033  -1.990  1.00  0.00     0.174 HD
ENDBRANCH  14  20
ENDBRANCH  10  11
ENDBRANCH   1   9
BRANCH   8  23
HETATM   23  N7  UNL     1      60.237 -52.564  -9.035  1.00  0.00    -0.170 N 
HETATM   24  C7  UNL     1      61.345 -52.760  -9.937  1.00  0.00     0.494 C 
HETATM   25  N8  UNL     1      61.527 -51.564 -10.710  1.00  0.00    -0.032 N 
HETATM   26  N9  UNL     1      61.122 -53.889 -10.751  1.00  0.00    -0.032 N 
ATOM     27  H83 UNL     1      60.675 -51.279 -11.195  1.00  0.00     0.278 HD
ATOM     28  H82 UNL     1      61.640 -50.735 -10.126  1.00  0.00     0.278 HD
ATOM     29  H81 UNL     1      62.310 -51.702 -11.348  1.00  0.00     0.278 HD
ATOM     30  H93 UNL     1      60.930 -54.724 -10.199  1.00  0.00     0.278 HD
ATOM     31  H92 UNL     1      60.233 -53.829 -11.248  1.00  0.00     0.278 HD
ATOM     32  H91 UNL     1      61.905 -54.027 -11.389  1.00  0.00     0.278 HD
ATOM     33  H7  UNL     1      60.406 -52.607  -8.031  1.00  0.00     0.181 HD
ENDBRANCH   8  23
TORSDOF 4
ENDMDL
MODEL 2
REMARK VINA RESULT: -4.863009007      1.052      1.159
REMARK  4 active torsions:
REMARK  status: ('A' for Active; 'I' for Inactive)
REMARK    1  A    between atoms: N1_1  and  C1_4 
REMARK    2  A    between atoms: C3_8  and  C4_9 
REMARK    3  A    between atoms: C5_10  and  N3_11 
REMARK    4  A    between atoms: C6_18  and  N7_19 
REMARK       I    between atoms: N7_19  and  C7_21 
REMARK       I    between atoms: C7_21  and  N8_22 
REMARK       I    between atoms: C7_21  and  N9_26 
ROOT
HETATM    1  N3  UNL     1      58.390 -53.261  -9.137  1.00  0.00    -0.081 N 
HETATM    2  N4  UNL     1      57.122 -53.363  -9.498  1.00  0.00    -0.207 N 
ATOM      3  H4  UNL     1      56.553 -54.201  -9.378  1.00  0.00     0.211 HD
HETATM    4  N5  UNL     1      56.694 -52.251 -10.027  1.00  0.00    -0.213 N 
ATOM      5  H5  UNL     1      55.753 -52.080 -10.382  1.00  0.00     0.210 HD
HETATM    6  N6  UNL     1      57.688 -51.390 -10.023  1.00  0.00    -0.115 N 
ATOM      7  H6  UNL     1      57.648 -50.433 -10.375  1.00  0.00     0.207 HD
HETATM    8  C6  UNL     1      58.761 -51.976  -9.479  1.00  0.00     0.719 A 
ENDROOT
BRANCH   1   9
HETATM    9  C5  UNL     1      59.281 -54.178  -8.545  1.00  0.00     0.138 C 
HETATM   10  C4  UNL     1      59.559 -54.606  -7.387  1.00  0.00     0.038 C 
BRANCH  10  11
HETATM   11  C3  UNL     1      59.070 -54.362  -6.079  1.00  0.00     0.050 A 
HETATM   12  C2  UNL     1      57.763 -54.312  -5.724  1.00  0.00     0.123 A 
HETATM   13  N2  UNL     1      57.381 -53.972  -4.457  1.00  0.00    -0.201 N 
HETATM   14  C1  UNL     1      58.244 -53.668  -3.483  1.00  0.00     0.678 A 
ATOM     15  H2  UNL     1      56.384 -53.948  -4.244  1.00  0.00     0.183 HD
HETATM   16  N10 UNL     1      59.544 -53.715  -3.819  1.00  0.00    -0.156 N 
HETATM   17  C8  UNL     1      59.971 -54.038  -5.035  1.00  0.00     0.271 A 
ATOM     18  H10 UNL     1      60.238 -53.492  -3.105  1.00  0.00     0.187 HD
HETATM   19  O1  UNL     1      61.197 -54.073  -5.318  1.00  0.00    -0.267 OA
BRANCH  14  20
HETATM   20  N1  UNL     1      57.834 -53.352  -2.304  1.00  0.00    -0.234 N 
ATOM     21  H12 UNL     1      58.431 -53.389  -1.478  1.00  0.00     0.174 HD
ATOM     22  H11 UNL     1      56.875 -53.044  -2.145  1.00  0.00     0.174 HD
ENDBRANCH  14  20
ENDBRANCH  10  11
ENDBRANCH   1   9
BRANCH   8  23
HETATM   23  N7  UNL     1      59.933 -51.465  -9.296  1.00  0.00    -0.170 N 
HETATM   24  C7  UNL     1      60.820 -51.167 -10.393  1.00  0.00     0.494 C 
HETATM   25  N8  UNL     1      60.197 -50.185 -11.236  1.00  0.00    -0.032 N 
HETATM   26  N9  UNL     1      61.142 -52.344 -11.098  1.00  0.00    -0.032 N 
ATOM     27  H83 UNL     1      59.270 -50.474 -11.551  1.00  0.00     0.278 HD
ATOM     28  H82 UNL     1      59.918 -49.350 -10.721  1.00  0.00     0.278 HD
ATOM     29  H81 UNL     1      60.824 -49.975 -12.012  1.00  0.00     0.278 HD
ATOM     30  H93 UNL     1      61.526 -53.062 -10.484  1.00  0.00     0.278 HD
ATOM     31  H92 UNL     1      60.307 -52.841 -11.409  1.00  0.00     0.278 HD
ATOM     32  H91 UNL     1      61.769 -52.133 -11.874  1.00  0.00     0.278 HD
ATOM     33  H7  UNL     1      60.242 -51.265  -8.345  1.00  0.00     0.181 HD
ENDBRANCH   8  23
TORSDOF 4
ENDMDL
MODEL 3
REMARK VINA RESULT: -4.663659564      1.500      2.950
REMARK  4 active torsions:
REMARK  status: ('A' for Active; 'I' for Inactive)
REMARK    1  A    between atoms: N1_1  and  C1_4 
REMARK    2  A    between atoms: C3_8  and  C4_9 
REMARK    3  A    between atoms: C5_10  and  N3_11 
REMARK    4  A    between atoms: C6_18  and  N7_19 
REMARK       I    between atoms: N7_19  and  C7_21 
REMARK       I    between atoms: C7_21  and  N8_22 
REMARK       I    between atoms: C7_21  and  N9_26 
ROOT
HETATM    1  N3  UNL     1      60.459 -53.687  -8.476  1.00  0.00    -0.081 N 
HETATM    2  N4  UNL     1      61.565 -53.084  -8.879  1.00  0.00    -0.207 N 
ATOM      3  H4  UNL     1      62.508 -53.442  -8.721  1.00  0.00     0.211 HD
HETATM    4  N5  UNL     1      61.295 -51.972  -9.503  1.00  0.00    -0.213 N 
ATOM      5  H5  UNL     1      61.976 -51.330  -9.907  1.00  0.00     0.210 HD
HETATM    6  N6  UNL     1      59.987 -51.825  -9.522  1.00  0.00    -0.115 N 
ATOM      7  H6  UNL     1      59.482 -51.046  -9.944  1.00  0.00     0.207 HD
HETATM    8  C6  UNL     1      59.430 -52.868  -8.894  1.00  0.00     0.719 A 
ENDROOT
BRANCH   1   9
HETATM    9  C5  UNL     1      60.239 -54.883  -7.766  1.00  0.00     0.138 C 
HETATM   10  C4  UNL     1      59.829 -55.236  -6.622  1.00  0.00     0.038 C 
BRANCH  10  11
HETATM   11  C3  UNL     1      59.366 -54.560  -5.465  1.00  0.00     0.050 A 
HETATM   12  C2  UNL     1      60.137 -54.163  -4.423  1.00  0.00     0.123 A 
HETATM   13  N2  UNL     1      59.590 -53.605  -3.303  1.00  0.00    -0.201 N 
HETATM   14  C1  UNL     1      58.278 -53.406  -3.144  1.00  0.00     0.678 A 
ATOM     15  H2  UNL     1      60.216 -53.326  -2.548  1.00  0.00     0.183 HD
HETATM   16  N10 UNL     1      57.500 -53.791  -4.169  1.00  0.00    -0.156 N 
HETATM   17  C8  UNL     1      57.979 -54.340  -5.280  1.00  0.00     0.271 A 
ATOM     18  H10 UNL     1      56.492 -53.656  -4.090  1.00  0.00     0.187 HD
HETATM   19  O1  UNL     1      57.222 -54.692  -6.223  1.00  0.00    -0.267 OA
BRANCH  14  20
HETATM   20  N1  UNL     1      57.810 -52.876  -2.067  1.00  0.00    -0.234 N 
ATOM     21  H12 UNL     1      58.160 -53.105  -1.137  1.00  0.00     0.174 HD
ATOM     22  H11 UNL     1      57.056 -52.191  -2.101  1.00  0.00     0.174 HD
ENDBRANCH  14  20
ENDBRANCH  10  11
ENDBRANCH   1   9
BRANCH   8  23
HETATM   23  N7  UNL     1      58.173 -53.092  -8.699  1.00  0.00    -0.170 N 
HETATM   24  C7  UNL     1      57.236 -53.211  -9.788  1.00  0.00     0.494 C 
HETATM   25  N8  UNL     1      57.614 -54.334 -10.601  1.00  0.00    -0.032 N 
HETATM   26  N9  UNL     1      57.188 -52.013 -10.529  1.00  0.00    -0.032 N 
ATOM     27  H83 UNL     1      58.580 -54.275 -10.922  1.00  0.00     0.278 HD
ATOM     28  H82 UNL     1      57.697 -55.195 -10.061  1.00  0.00     0.278 HD
ATOM     29  H81 UNL     1      56.951 -54.418 -11.371  1.00  0.00     0.278 HD
ATOM     30  H93 UNL     1      56.982 -51.209  -9.937  1.00  0.00     0.278 HD
ATOM     31  H92 UNL     1      58.113 -51.730 -10.853  1.00  0.00     0.278 HD
ATOM     32  H91 UNL     1      56.525 -52.098 -11.299  1.00  0.00     0.278 HD
ATOM     33  H7  UNL     1      57.831 -53.188  -7.743  1.00  0.00     0.181 HD
ENDBRANCH   8  23
TORSDOF 4
ENDMDL
MODEL 4
REMARK VINA RESULT: -4.511016775      3.836      6.444
REMARK  4 active torsions:
REMARK  status: ('A' for Active; 'I' for Inactive)
REMARK    1  A    between atoms: N1_1  and  C1_4 
REMARK    2  A    between atoms: C3_8  and  C4_9 
REMARK    3  A    between atoms: C5_10  and  N3_11 
REMARK    4  A    between atoms: C6_18  and  N7_19 
REMARK       I    between atoms: N7_19  and  C7_21 
REMARK       I    between atoms: C7_21  and  N8_22 
REMARK       I    between atoms: C7_21  and  N9_26 
ROOT
HETATM    1  N3  UNL     1      59.108 -51.576 -10.007  1.00  0.00    -0.081 N 
HETATM    2  N4  UNL     1      57.991 -50.898 -10.210  1.00  0.00    -0.207 N 
ATOM      3  H4  UNL     1      57.915 -50.079 -10.814  1.00  0.00     0.211 HD
HETATM    4  N5  UNL     1      57.000 -51.411  -9.536  1.00  0.00    -0.213 N 
ATOM      5  H5  UNL     1      56.040 -51.068  -9.527  1.00  0.00     0.210 HD
HETATM    6  N6  UNL     1      57.457 -52.450  -8.870  1.00  0.00    -0.115 N 
ATOM      7  H6  UNL     1      56.908 -53.051  -8.255  1.00  0.00     0.207 HD
HETATM    8  C6  UNL     1      58.762 -52.588  -9.134  1.00  0.00     0.719 A 
ENDROOT
BRANCH   1   9
HETATM    9  C5  UNL     1      60.419 -51.407 -10.493  1.00  0.00     0.138 C 
HETATM   10  C4  UNL     1      61.265 -50.474 -10.615  1.00  0.00     0.038 C 
BRANCH  10  11
HETATM   11  C3  UNL     1      61.295 -49.094 -10.292  1.00  0.00     0.050 A 
HETATM   12  C2  UNL     1      61.081 -48.569  -9.060  1.00  0.00     0.123 A 
HETATM   13  N2  UNL     1      61.031 -47.219  -8.859  1.00  0.00    -0.201 N 
HETATM   14  C1  UNL     1      61.187 -46.321  -9.837  1.00  0.00     0.678 A 
ATOM     15  H2  UNL     1      60.865 -46.877  -7.912  1.00  0.00     0.183 HD
HETATM   16  N10 UNL     1      61.403 -46.826 -11.063  1.00  0.00    -0.156 N 
HETATM   17  C8  UNL     1      61.459 -48.129 -11.315  1.00  0.00     0.271 A 
ATOM     18  H10 UNL     1      61.529 -46.176 -11.840  1.00  0.00     0.187 HD
HETATM   19  O1  UNL     1      61.662 -48.570 -12.477  1.00  0.00    -0.267 OA
BRANCH  14  20
HETATM   20  N1  UNL     1      61.130 -45.058  -9.597  1.00  0.00    -0.234 N 
ATOM     21  H12 UNL     1      60.865 -44.368 -10.301  1.00  0.00     0.174 HD
ATOM     22  H11 UNL     1      61.352 -44.686  -8.674  1.00  0.00     0.174 HD
ENDBRANCH  14  20
ENDBRANCH  10  11
ENDBRANCH   1   9
BRANCH   8  23
HETATM   23  N7  UNL     1      59.570 -53.485  -8.674  1.00  0.00    -0.170 N 
HETATM   24  C7  UNL     1      59.521 -54.859  -9.109  1.00  0.00     0.494 C 
HETATM   25  N8  UNL     1      59.797 -54.906 -10.517  1.00  0.00    -0.032 N 
HETATM   26  N9  UNL     1      58.272 -55.429  -8.793  1.00  0.00    -0.032 N 
ATOM     27  H83 UNL     1      59.175 -54.304 -11.057  1.00  0.00     0.278 HD
ATOM     28  H82 UNL     1      60.678 -54.452 -10.757  1.00  0.00     0.278 HD
ATOM     29  H81 UNL     1      59.762 -55.878 -10.825  1.00  0.00     0.278 HD
ATOM     30  H93 UNL     1      58.051 -55.337  -7.802  1.00  0.00     0.278 HD
ATOM     31  H92 UNL     1      57.498 -54.883  -9.173  1.00  0.00     0.278 HD
ATOM     32  H91 UNL     1      58.237 -56.401  -9.101  1.00  0.00     0.278 HD
ATOM     33  H7  UNL     1      60.266 -53.212  -7.980  1.00  0.00     0.181 HD
ENDBRANCH   8  23
TORSDOF 4
ENDMDL
MODEL 5
REMARK VINA RESULT: -4.491121006      3.722      5.887
REMARK  4 active torsions:
REMARK  status: ('A' for Active; 'I' for Inactive)
REMARK    1  A    between atoms: N1_1  and  C1_4 
REMARK    2  A    between atoms: C3_8  and  C4_9 
REMARK    3  A    between atoms: C5_10  and  N3_11 
REMARK    4  A    between atoms: C6_18  and  N7_19 
REMARK       I    between atoms: N7_19  and  C7_21 
REMARK       I    between atoms: C7_21  and  N8_22 
REMARK       I    between atoms: C7_21  and  N9_26 
ROOT
HETATM    1  N3  UNL     1      61.519 -48.081  -9.741  1.00  0.00    -0.081 N 
HETATM    2  N4  UNL     1      60.751 -47.383  -8.921  1.00  0.00    -0.207 N 
ATOM      3  H4  UNL     1      60.378 -47.736  -8.039  1.00  0.00     0.211 HD
HETATM    4  N5  UNL     1      60.533 -46.185  -9.386  1.00  0.00    -0.213 N 
ATOM      5  H5  UNL     1      59.973 -45.460  -8.938  1.00  0.00     0.210 HD
HETATM    6  N6  UNL     1      61.163 -46.075 -10.536  1.00  0.00    -0.115 N 
ATOM      7  H6  UNL     1      61.174 -45.247 -11.132  1.00  0.00     0.207 HD
HETATM    8  C6  UNL     1      61.788 -47.230 -10.794  1.00  0.00     0.719 A 
ENDROOT
BRANCH   1   9
HETATM    9  C5  UNL     1      62.011 -49.399  -9.683  1.00  0.00     0.138 C 
HETATM   10  C4  UNL     1      61.551 -50.577  -9.699  1.00  0.00     0.038 C 
BRANCH  10  11
HETATM   11  C3  UNL     1      60.259 -51.152  -9.800  1.00  0.00     0.050 A 
HETATM   12  C2  UNL     1      59.221 -50.637 -10.503  1.00  0.00     0.123 A 
HETATM   13  N2  UNL     1      57.980 -51.207 -10.464  1.00  0.00    -0.201 N 
HETATM   14  C1  UNL     1      57.692 -52.298  -9.747  1.00  0.00     0.678 A 
ATOM     15  H2  UNL     1      57.234 -50.777 -11.010  1.00  0.00     0.183 HD
HETATM   16  N10 UNL     1      58.712 -52.823  -9.047  1.00  0.00    -0.156 N 
HETATM   17  C8  UNL     1      59.936 -52.308  -9.047  1.00  0.00     0.271 A 
ATOM     18  H10 UNL     1      58.537 -53.658  -8.487  1.00  0.00     0.187 HD
HETATM   19  O1  UNL     1      60.871 -52.824  -8.379  1.00  0.00    -0.267 OA
BRANCH  14  20
HETATM   20  N1  UNL     1      56.506 -52.798  -9.742  1.00  0.00    -0.234 N 
ATOM     21  H12 UNL     1      56.022 -53.093 -10.590  1.00  0.00     0.174 HD
ATOM     22  H11 UNL     1      55.990 -52.923  -8.871  1.00  0.00     0.174 HD
ENDBRANCH  14  20
ENDBRANCH  10  11
ENDBRANCH   1   9
BRANCH   8  23
HETATM   23  N7  UNL     1      62.511 -47.524 -11.824  1.00  0.00    -0.170 N 
HETATM   24  C7  UNL     1      61.946 -47.665 -13.143  1.00  0.00     0.494 C 
HETATM   25  N8  UNL     1      61.370 -46.410 -13.535  1.00  0.00    -0.032 N 
HETATM   26  N9  UNL     1      61.002 -48.712 -13.164  1.00  0.00    -0.032 N 
ATOM     27  H83 UNL     1      60.692 -46.063 -12.855  1.00  0.00     0.278 HD
ATOM     28  H82 UNL     1      62.036 -45.640 -13.475  1.00  0.00     0.278 HD
ATOM     29  H81 UNL     1      60.971 -46.509 -14.467  1.00  0.00     0.278 HD
ATOM     30  H93 UNL     1      61.398 -49.588 -12.825  1.00  0.00     0.278 HD
ATOM     31  H92 UNL     1      60.281 -48.587 -12.454  1.00  0.00     0.278 HD
ATOM     32  H91 UNL     1      60.603 -48.811 -14.097  1.00  0.00     0.278 HD
ATOM     33  H7  UNL     1      63.514 -47.661 -11.700  1.00  0.00     0.181 HD
ENDBRANCH   8  23
TORSDOF 4
ENDMDL
