MODEL 1
REMARK VINA RESULT: -7.151780843      0.000      0.000
REMARK  9 active torsions:
REMARK  status: ('A' for Active; 'I' for Inactive)
REMARK    1  A    between atoms: C2_3  and  C3_4 
REMARK    2  A    between atoms: C3_4  and  C4_5 
REMARK    3  A    between atoms: C4_5  and  C5_6 
REMARK    4  A    between atoms: C5_6  and  C6_7 
REMARK    5  A    between atoms: C6_7  and  C7_8 
REMARK    6  A    between atoms: C7_8  and  C8_9 
REMARK    7  A    between atoms: C8_9  and  C9_10 
REMARK    8  A    between atoms: C9_10  and  C10_11 
REMARK    9  A    between atoms: C10_11  and  C11_12 
ROOT
HETATM    1  N1  UNL     1      45.846 -52.582 108.314  1.00  0.00    -0.197 NA
HETATM    2  C1  UNL     1      45.260 -52.010 109.124  1.00  0.00     0.059 C 
HETATM    3  C2  UNL     1      44.536 -51.276 110.139  1.00  0.00     0.124 C 
ENDROOT
BRANCH   3   4
HETATM    4  C3  UNL     1      43.827 -52.234 111.079  1.00  0.00     0.014 C 
BRANCH   4   5
HETATM    5  C4  UNL     1      42.357 -51.976 111.129  1.00  0.00     0.001 C 
BRANCH   5   6
HETATM    6  C5  UNL     1      42.073 -50.563 110.702  1.00  0.00     0.000 C 
BRANCH   6   7
HETATM    7  C6  UNL     1      40.708 -50.068 111.059  1.00  0.00     0.000 C 
BRANCH   7   8
HETATM    8  C7  UNL     1      39.915 -51.127 111.782  1.00  0.00     0.000 C 
BRANCH   8   9
HETATM    9  C8  UNL     1      38.551 -50.662 112.219  1.00  0.00     0.000 C 
BRANCH   9  10
HETATM   10  C9  UNL     1      38.251 -49.399 111.427  1.00  0.00     0.006 C 
BRANCH  10  11
HETATM   11  C10 UNL     1      36.861 -49.436 110.840  1.00  0.00     0.056 C 
BRANCH  11  12
HETATM   12  C11 UNL     1      35.899 -48.604 111.600  1.00  0.00     0.001 C 
HETATM   13  C12 UNL     1      35.007 -47.818 111.022  1.00  0.00    -0.001 C 
HETATM   14  C13 UNL     1      34.201 -47.126 112.045  1.00  0.00     0.048 C 
HETATM   15  C14 UNL     1      34.961 -47.358 113.333  1.00  0.00     0.123 C 
HETATM   16  N2  UNL     1      35.768 -48.505 113.033  1.00  0.00    -0.393 N 
ATOM     17  H2  UNL     1      36.179 -49.142 113.716  1.00  0.00     0.159 HD
ENDBRANCH  11  12
ENDBRANCH  10  11
ENDBRANCH   9  10
ENDBRANCH   8   9
ENDBRANCH   7   8
ENDBRANCH   6   7
ENDBRANCH   5   6
ENDBRANCH   4   5
ENDBRANCH   3   4
TORSDOF 9
ENDMDL
MODEL 2
REMARK VINA RESULT: -7.135154261      0.866      1.357
REMARK  9 active torsions:
REMARK  status: ('A' for Active; 'I' for Inactive)
REMARK    1  A    between atoms: C2_3  and  C3_4 
REMARK    2  A    between atoms: C3_4  and  C4_5 
REMARK    3  A    between atoms: C4_5  and  C5_6 
REMARK    4  A    between atoms: C5_6  and  C6_7 
REMARK    5  A    between atoms: C6_7  and  C7_8 
REMARK    6  A    between atoms: C7_8  and  C8_9 
REMARK    7  A    between atoms: C8_9  and  C9_10 
REMARK    8  A    between atoms: C9_10  and  C10_11 
REMARK    9  A    between atoms: C10_11  and  C11_12 
ROOT
HETATM    1  N1  UNL     1      45.794 -52.594 108.355  1.00  0.00    -0.197 NA
HETATM    2  C1  UNL     1      45.264 -51.933 109.136  1.00  0.00     0.059 C 
HETATM    3  C2  UNL     1      44.614 -51.090 110.116  1.00  0.00     0.124 C 
ENDROOT
BRANCH   3   4
HETATM    4  C3  UNL     1      43.669 -51.910 110.974  1.00  0.00     0.014 C 
BRANCH   4   5
HETATM    5  C4  UNL     1      42.271 -51.870 110.452  1.00  0.00     0.001 C 
BRANCH   5   6
HETATM    6  C5  UNL     1      41.306 -52.222 111.550  1.00  0.00     0.000 C 
BRANCH   6   7
HETATM    7  C6  UNL     1      40.242 -51.200 111.794  1.00  0.00     0.000 C 
BRANCH   7   8
HETATM    8  C7  UNL     1      40.524 -49.928 111.036  1.00  0.00     0.000 C 
BRANCH   8   9
HETATM    9  C8  UNL     1      39.403 -48.925 111.111  1.00  0.00     0.000 C 
BRANCH   9  10
HETATM   10  C9  UNL     1      38.186 -49.673 111.632  1.00  0.00     0.006 C 
BRANCH  10  11
HETATM   11  C10 UNL     1      36.965 -49.392 110.790  1.00  0.00     0.056 C 
BRANCH  11  12
HETATM   12  C11 UNL     1      35.934 -48.620 111.522  1.00  0.00     0.001 C 
HETATM   13  C12 UNL     1      35.882 -48.550 112.841  1.00  0.00    -0.001 C 
HETATM   14  C13 UNL     1      34.746 -47.709 113.262  1.00  0.00     0.048 C 
HETATM   15  C14 UNL     1      33.919 -47.551 112.004  1.00  0.00     0.123 C 
HETATM   16  N2  UNL     1      34.856 -47.845 110.958  1.00  0.00    -0.393 N 
ATOM     17  H2  UNL     1      34.774 -47.556 109.983  1.00  0.00     0.159 HD
ENDBRANCH  11  12
ENDBRANCH  10  11
ENDBRANCH   9  10
ENDBRANCH   8   9
ENDBRANCH   7   8
ENDBRANCH   6   7
ENDBRANCH   5   6
ENDBRANCH   4   5
ENDBRANCH   3   4
TORSDOF 9
ENDMDL
MODEL 3
REMARK VINA RESULT: -6.743948285      1.166      1.474
REMARK  9 active torsions:
REMARK  status: ('A' for Active; 'I' for Inactive)
REMARK    1  A    between atoms: C2_3  and  C3_4 
REMARK    2  A    between atoms: C3_4  and  C4_5 
REMARK    3  A    between atoms: C4_5  and  C5_6 
REMARK    4  A    between atoms: C5_6  and  C6_7 
REMARK    5  A    between atoms: C6_7  and  C7_8 
REMARK    6  A    between atoms: C7_8  and  C8_9 
REMARK    7  A    between atoms: C8_9  and  C9_10 
REMARK    8  A    between atoms: C9_10  and  C10_11 
REMARK    9  A    between atoms: C10_11  and  C11_12 
ROOT
HETATM    1  N1  UNL     1      45.673 -52.185 108.556  1.00  0.00    -0.197 NA
HETATM    2  C1  UNL     1      45.043 -51.986 109.500  1.00  0.00     0.059 C 
HETATM    3  C2  UNL     1      44.267 -51.746 110.697  1.00  0.00     0.124 C 
ENDROOT
BRANCH   3   4
HETATM    4  C3  UNL     1      42.786 -51.695 110.365  1.00  0.00     0.014 C 
BRANCH   4   5
HETATM    5  C4  UNL     1      41.947 -52.181 111.499  1.00  0.00     0.001 C 
BRANCH   5   6
HETATM    6  C5  UNL     1      40.616 -51.483 111.485  1.00  0.00     0.000 C 
BRANCH   6   7
HETATM    7  C6  UNL     1      40.665 -50.060 111.025  1.00  0.00     0.000 C 
BRANCH   7   8
HETATM    8  C7  UNL     1      39.468 -49.286 111.518  1.00  0.00     0.000 C 
BRANCH   8   9
HETATM    9  C8  UNL     1      38.517 -50.114 112.341  1.00  0.00     0.000 C 
BRANCH   9  10
HETATM   10  C9  UNL     1      37.296 -49.243 112.598  1.00  0.00     0.006 C 
BRANCH  10  11
HETATM   11  C10 UNL     1      36.542 -48.964 111.321  1.00  0.00     0.056 C 
BRANCH  11  12
HETATM   12  C11 UNL     1      35.240 -48.300 111.562  1.00  0.00     0.001 C 
HETATM   13  C12 UNL     1      34.447 -48.607 112.574  1.00  0.00    -0.001 C 
HETATM   14  C13 UNL     1      33.231 -47.772 112.539  1.00  0.00     0.048 C 
HETATM   15  C14 UNL     1      33.255 -47.145 111.162  1.00  0.00     0.123 C 
HETATM   16  N2  UNL     1      34.633 -47.253 110.778  1.00  0.00    -0.393 N 
ATOM     17  H2  UNL     1      35.103 -46.687 110.071  1.00  0.00     0.159 HD
ENDBRANCH  11  12
ENDBRANCH  10  11
ENDBRANCH   9  10
ENDBRANCH   8   9
ENDBRANCH   7   8
ENDBRANCH   6   7
ENDBRANCH   5   6
ENDBRANCH   4   5
ENDBRANCH   3   4
TORSDOF 9
ENDMDL
MODEL 4
REMARK VINA RESULT: -6.734376585      0.868      1.174
REMARK  9 active torsions:
REMARK  status: ('A' for Active; 'I' for Inactive)
REMARK    1  A    between atoms: C2_3  and  C3_4 
REMARK    2  A    between atoms: C3_4  and  C4_5 
REMARK    3  A    between atoms: C4_5  and  C5_6 
REMARK    4  A    between atoms: C5_6  and  C6_7 
REMARK    5  A    between atoms: C6_7  and  C7_8 
REMARK    6  A    between atoms: C7_8  and  C8_9 
REMARK    7  A    between atoms: C8_9  and  C9_10 
REMARK    8  A    between atoms: C9_10  and  C10_11 
REMARK    9  A    between atoms: C10_11  and  C11_12 
ROOT
HETATM    1  N1  UNL     1      45.831 -52.582 108.422  1.00  0.00    -0.197 NA
HETATM    2  C1  UNL     1      45.258 -51.937 109.185  1.00  0.00     0.059 C 
HETATM    3  C2  UNL     1      44.555 -51.117 110.148  1.00  0.00     0.124 C 
ENDROOT
BRANCH   3   4
HETATM    4  C3  UNL     1      43.351 -51.862 110.696  1.00  0.00     0.014 C 
BRANCH   4   5
HETATM    5  C4  UNL     1      42.083 -51.423 110.042  1.00  0.00     0.001 C 
BRANCH   5   6
HETATM    6  C5  UNL     1      41.229 -50.680 111.031  1.00  0.00     0.000 C 
BRANCH   6   7
HETATM    7  C6  UNL     1      40.242 -51.533 111.763  1.00  0.00     0.000 C 
BRANCH   7   8
HETATM    8  C7  UNL     1      39.044 -50.727 112.199  1.00  0.00     0.000 C 
BRANCH   8   9
HETATM    9  C8  UNL     1      38.852 -49.461 111.407  1.00  0.00     0.000 C 
BRANCH   9  10
HETATM   10  C9  UNL     1      37.358 -49.328 111.158  1.00  0.00     0.006 C 
BRANCH  10  11
HETATM   11  C10 UNL     1      36.630 -48.886 112.403  1.00  0.00     0.056 C 
BRANCH  11  12
HETATM   12  C11 UNL     1      35.281 -48.347 112.114  1.00  0.00     0.001 C 
HETATM   13  C12 UNL     1      35.009 -47.605 111.054  1.00  0.00    -0.001 C 
HETATM   14  C13 UNL     1      33.584 -47.227 111.050  1.00  0.00     0.048 C 
HETATM   15  C14 UNL     1      33.106 -47.575 112.444  1.00  0.00     0.123 C 
HETATM   16  N2  UNL     1      34.081 -48.525 112.895  1.00  0.00    -0.393 N 
ATOM     17  H2  UNL     1      33.949 -49.209 113.640  1.00  0.00     0.159 HD
ENDBRANCH  11  12
ENDBRANCH  10  11
ENDBRANCH   9  10
ENDBRANCH   8   9
ENDBRANCH   7   8
ENDBRANCH   6   7
ENDBRANCH   5   6
ENDBRANCH   4   5
ENDBRANCH   3   4
TORSDOF 9
ENDMDL
MODEL 5
REMARK VINA RESULT: -6.719098972      1.597      2.350
REMARK  9 active torsions:
REMARK  status: ('A' for Active; 'I' for Inactive)
REMARK    1  A    between atoms: C2_3  and  C3_4 
REMARK    2  A    between atoms: C3_4  and  C4_5 
REMARK    3  A    between atoms: C4_5  and  C5_6 
REMARK    4  A    between atoms: C5_6  and  C6_7 
REMARK    5  A    between atoms: C6_7  and  C7_8 
REMARK    6  A    between atoms: C7_8  and  C8_9 
REMARK    7  A    between atoms: C8_9  and  C9_10 
REMARK    8  A    between atoms: C9_10  and  C10_11 
REMARK    9  A    between atoms: C10_11  and  C11_12 
ROOT
HETATM    1  N1  UNL     1      45.071 -51.866 109.618  1.00  0.00    -0.197 NA
HETATM    2  C1  UNL     1      44.105 -51.364 109.994  1.00  0.00     0.059 C 
HETATM    3  C2  UNL     1      42.901 -50.715 110.467  1.00  0.00     0.124 C 
ENDROOT
BRANCH   3   4
HETATM    4  C3  UNL     1      42.031 -51.703 111.223  1.00  0.00     0.014 C 
BRANCH   4   5
HETATM    5  C4  UNL     1      40.652 -51.172 111.442  1.00  0.00     0.001 C 
BRANCH   5   6
HETATM    6  C5  UNL     1      40.565 -49.758 110.941  1.00  0.00     0.000 C 
BRANCH   6   7
HETATM    7  C6  UNL     1      39.297 -49.049 111.299  1.00  0.00     0.000 C 
BRANCH   7   8
HETATM    8  C7  UNL     1      38.154 -50.020 111.452  1.00  0.00     0.000 C 
BRANCH   8   9
HETATM    9  C8  UNL     1      36.884 -49.561 110.785  1.00  0.00     0.000 C 
BRANCH   9  10
HETATM   10  C9  UNL     1      36.134 -48.726 111.812  1.00  0.00     0.006 C 
BRANCH  10  11
HETATM   11  C10 UNL     1      35.066 -47.883 111.160  1.00  0.00     0.056 C 
BRANCH  11  12
HETATM   12  C11 UNL     1      33.766 -47.964 111.865  1.00  0.00     0.001 C 
HETATM   13  C12 UNL     1      33.368 -49.035 112.529  1.00  0.00    -0.001 C 
HETATM   14  C13 UNL     1      32.035 -48.803 113.117  1.00  0.00     0.048 C 
HETATM   15  C14 UNL     1      31.543 -47.548 112.430  1.00  0.00     0.123 C 
HETATM   16  N2  UNL     1      32.752 -46.942 111.952  1.00  0.00    -0.393 N 
ATOM     17  H2  UNL     1      32.873 -45.957 111.714  1.00  0.00     0.159 HD
ENDBRANCH  11  12
ENDBRANCH  10  11
ENDBRANCH   9  10
ENDBRANCH   8   9
ENDBRANCH   7   8
ENDBRANCH   6   7
ENDBRANCH   5   6
ENDBRANCH   4   5
ENDBRANCH   3   4
TORSDOF 9
ENDMDL
