MODEL 1
REMARK VINA RESULT: -7.118077734      0.000      0.000
REMARK  8 active torsions:
REMARK  status: ('A' for Active; 'I' for Inactive)
REMARK    1  A    between atoms: C2_2  and  C3_3 
REMARK    2  A    between atoms: C3_3  and  N1_4 
REMARK    3  A    between atoms: N1_4  and  C4_7 
REMARK    4  A    between atoms: C4_7  and  C5_8 
REMARK    5  A    between atoms: C5_8  and  C6_9 
REMARK    6  A    between atoms: C6_9  and  C7_10 
REMARK    7  A    between atoms: C7_10  and  C8_11 
REMARK    8  A    between atoms: C8_11  and  C9_12 
ROOT
HETATM    1  C6  UNL     1      37.036 -49.726 110.799  1.00  0.00     0.002 C 
ENDROOT
BRANCH   1   2
HETATM    2  C5  UNL     1      36.069 -48.612 111.207  1.00  0.00     0.027 C 
BRANCH   2   3
HETATM    3  C4  UNL     1      36.059 -48.522 112.716  1.00  0.00     0.232 C 
BRANCH   3   4
HETATM    4  N1  UNL     1      34.720 -48.467 113.243  1.00  0.00    -0.072 N 
ATOM      5  H12 UNL     1      34.634 -47.704 113.914  1.00  0.00     0.277 HD
ATOM      6  H11 UNL     1      34.549 -49.263 113.858  1.00  0.00     0.277 HD
BRANCH   4   7
HETATM    7  C3  UNL     1      33.691 -48.375 112.253  1.00  0.00     0.259 C 
BRANCH   7   8
HETATM    8  C2  UNL     1      32.578 -49.291 112.654  1.00  0.00    -0.010 C 
HETATM    9  C1  UNL     1      31.594 -48.882 113.442  1.00  0.00     0.008 C 
ENDBRANCH   7   8
ENDBRANCH   4   7
ENDBRANCH   3   4
ENDBRANCH   2   3
ENDBRANCH   1   2
BRANCH   1  10
HETATM   10  C7  UNL     1      38.414 -49.470 111.344  1.00  0.00     0.000 C 
BRANCH  10  11
HETATM   11  C8  UNL     1      39.013 -50.663 112.041  1.00  0.00     0.004 C 
BRANCH  11  12
HETATM   12  C9  UNL     1      40.474 -50.855 111.703  1.00  0.00    -0.014 C 
HETATM   13  C10 UNL     1      40.769 -52.308 111.361  1.00  0.00     0.004 C 
HETATM   14  C11 UNL     1      42.280 -52.482 111.535  1.00  0.00     0.000 C 
HETATM   15  C12 UNL     1      43.006 -51.329 110.832  1.00  0.00     0.000 C 
HETATM   16  C13 UNL     1      42.081 -50.630 109.866  1.00  0.00     0.000 C 
HETATM   17  C14 UNL     1      40.864 -50.040 110.486  1.00  0.00     0.004 C 
ENDBRANCH  11  12
ENDBRANCH  10  11
ENDBRANCH   1  10
TORSDOF 8
ENDMDL
MODEL 2
REMARK VINA RESULT: -7.086041321      0.839      1.107
REMARK  8 active torsions:
REMARK  status: ('A' for Active; 'I' for Inactive)
REMARK    1  A    between atoms: C2_2  and  C3_3 
REMARK    2  A    between atoms: C3_3  and  N1_4 
REMARK    3  A    between atoms: N1_4  and  C4_7 
REMARK    4  A    between atoms: C4_7  and  C5_8 
REMARK    5  A    between atoms: C5_8  and  C6_9 
REMARK    6  A    between atoms: C6_9  and  C7_10 
REMARK    7  A    between atoms: C7_10  and  C8_11 
REMARK    8  A    between atoms: C8_11  and  C9_12 
ROOT
HETATM    1  C6  UNL     1      37.554 -49.570 112.493  1.00  0.00     0.002 C 
ENDROOT
BRANCH   1   2
HETATM    2  C5  UNL     1      36.932 -49.278 111.126  1.00  0.00     0.027 C 
BRANCH   2   3
HETATM    3  C4  UNL     1      35.654 -48.500 111.342  1.00  0.00     0.232 C 
BRANCH   3   4
HETATM    4  N1  UNL     1      35.546 -48.006 112.690  1.00  0.00    -0.072 N 
ATOM      5  H12 UNL     1      36.066 -47.135 112.790  1.00  0.00     0.277 HD
ATOM      6  H11 UNL     1      36.074 -48.601 113.328  1.00  0.00     0.277 HD
BRANCH   4   7
HETATM    7  C3  UNL     1      34.205 -47.840 113.160  1.00  0.00     0.259 C 
BRANCH   7   8
HETATM    8  C2  UNL     1      33.336 -48.822 112.440  1.00  0.00    -0.010 C 
HETATM    9  C1  UNL     1      32.142 -49.162 112.906  1.00  0.00     0.008 C 
ENDBRANCH   7   8
ENDBRANCH   4   7
ENDBRANCH   3   4
ENDBRANCH   2   3
ENDBRANCH   1   2
BRANCH   1  10
HETATM   10  C7  UNL     1      38.799 -50.402 112.352  1.00  0.00     0.000 C 
BRANCH  10  11
HETATM   11  C8  UNL     1      39.765 -49.865 111.329  1.00  0.00     0.004 C 
BRANCH  11  12
HETATM   12  C9  UNL     1      41.071 -50.628 111.314  1.00  0.00    -0.014 C 
HETATM   13  C10 UNL     1      40.827 -52.128 111.388  1.00  0.00     0.004 C 
HETATM   14  C11 UNL     1      42.144 -52.744 111.866  1.00  0.00     0.000 C 
HETATM   15  C12 UNL     1      43.302 -52.159 111.050  1.00  0.00     0.000 C 
HETATM   16  C13 UNL     1      42.786 -51.498 109.794  1.00  0.00     0.000 C 
HETATM   17  C14 UNL     1      41.833 -50.381 110.027  1.00  0.00     0.004 C 
ENDBRANCH  11  12
ENDBRANCH  10  11
ENDBRANCH   1  10
TORSDOF 8
ENDMDL
MODEL 3
REMARK VINA RESULT: -7.073536504      0.882      1.781
REMARK  8 active torsions:
REMARK  status: ('A' for Active; 'I' for Inactive)
REMARK    1  A    between atoms: C2_2  and  C3_3 
REMARK    2  A    between atoms: C3_3  and  N1_4 
REMARK    3  A    between atoms: N1_4  and  C4_7 
REMARK    4  A    between atoms: C4_7  and  C5_8 
REMARK    5  A    between atoms: C5_8  and  C6_9 
REMARK    6  A    between atoms: C6_9  and  C7_10 
REMARK    7  A    between atoms: C7_10  and  C8_11 
REMARK    8  A    between atoms: C8_11  and  C9_12 
ROOT
HETATM    1  C6  UNL     1      37.952 -49.852 112.207  1.00  0.00     0.002 C 
ENDROOT
BRANCH   1   2
HETATM    2  C5  UNL     1      37.060 -49.569 110.997  1.00  0.00     0.027 C 
BRANCH   2   3
HETATM    3  C4  UNL     1      36.056 -48.507 111.386  1.00  0.00     0.232 C 
BRANCH   3   4
HETATM    4  N1  UNL     1      35.876 -48.433 112.812  1.00  0.00    -0.072 N 
ATOM      5  H12 UNL     1      36.582 -47.825 113.227  1.00  0.00     0.277 HD
ATOM      6  H11 UNL     1      36.129 -49.320 113.247  1.00  0.00     0.277 HD
BRANCH   4   7
HETATM    7  C3  UNL     1      34.568 -48.029 113.230  1.00  0.00     0.259 C 
BRANCH   7   8
HETATM    8  C2  UNL     1      33.568 -48.735 112.369  1.00  0.00    -0.010 C 
HETATM    9  C1  UNL     1      32.400 -49.135 112.852  1.00  0.00     0.008 C 
ENDBRANCH   7   8
ENDBRANCH   4   7
ENDBRANCH   3   4
ENDBRANCH   2   3
ENDBRANCH   1   2
BRANCH   1  10
HETATM   10  C7  UNL     1      39.386 -50.033 111.789  1.00  0.00     0.000 C 
BRANCH  10  11
HETATM   11  C8  UNL     1      39.832 -51.472 111.788  1.00  0.00     0.004 C 
BRANCH  11  12
HETATM   12  C9  UNL     1      41.125 -51.673 111.031  1.00  0.00    -0.014 C 
HETATM   13  C10 UNL     1      41.869 -50.356 110.860  1.00  0.00     0.004 C 
HETATM   14  C11 UNL     1      42.842 -50.572 109.699  1.00  0.00     0.000 C 
HETATM   15  C12 UNL     1      43.590 -51.894 109.904  1.00  0.00     0.000 C 
HETATM   16  C13 UNL     1      43.458 -52.362 111.333  1.00  0.00     0.000 C 
HETATM   17  C14 UNL     1      42.060 -52.599 111.783  1.00  0.00     0.004 C 
ENDBRANCH  11  12
ENDBRANCH  10  11
ENDBRANCH   1  10
TORSDOF 8
ENDMDL
MODEL 4
REMARK VINA RESULT: -7.035998674      0.490      1.360
REMARK  8 active torsions:
REMARK  status: ('A' for Active; 'I' for Inactive)
REMARK    1  A    between atoms: C2_2  and  C3_3 
REMARK    2  A    between atoms: C3_3  and  N1_4 
REMARK    3  A    between atoms: N1_4  and  C4_7 
REMARK    4  A    between atoms: C4_7  and  C5_8 
REMARK    5  A    between atoms: C5_8  and  C6_9 
REMARK    6  A    between atoms: C6_9  and  C7_10 
REMARK    7  A    between atoms: C7_10  and  C8_11 
REMARK    8  A    between atoms: C8_11  and  C9_12 
ROOT
HETATM    1  C6  UNL     1      37.324 -49.833 110.868  1.00  0.00     0.002 C 
ENDROOT
BRANCH   1   2
HETATM    2  C5  UNL     1      36.184 -48.854 111.161  1.00  0.00     0.027 C 
BRANCH   2   3
HETATM    3  C4  UNL     1      36.211 -48.524 112.637  1.00  0.00     0.232 C 
BRANCH   3   4
HETATM    4  N1  UNL     1      34.891 -48.519 113.212  1.00  0.00    -0.072 N 
ATOM      5  H12 UNL     1      34.838 -47.841 113.971  1.00  0.00     0.277 HD
ATOM      6  H11 UNL     1      34.729 -49.381 113.733  1.00  0.00     0.277 HD
BRANCH   4   7
HETATM    7  C3  UNL     1      33.832 -48.299 112.275  1.00  0.00     0.259 C 
BRANCH   7   8
HETATM    8  C2  UNL     1      32.721 -49.247 112.601  1.00  0.00    -0.010 C 
HETATM    9  C1  UNL     1      31.689 -48.875 113.347  1.00  0.00     0.008 C 
ENDBRANCH   7   8
ENDBRANCH   4   7
ENDBRANCH   3   4
ENDBRANCH   2   3
ENDBRANCH   1   2
BRANCH   1  10
HETATM   10  C7  UNL     1      38.449 -49.658 111.850  1.00  0.00     0.000 C 
BRANCH  10  11
HETATM   11  C8  UNL     1      39.125 -50.952 112.221  1.00  0.00     0.004 C 
BRANCH  11  12
HETATM   12  C9  UNL     1      40.282 -51.282 111.305  1.00  0.00    -0.014 C 
HETATM   13  C10 UNL     1      41.142 -50.053 111.048  1.00  0.00     0.004 C 
HETATM   14  C11 UNL     1      41.931 -50.354 109.771  1.00  0.00     0.000 C 
HETATM   15  C12 UNL     1      42.545 -51.755 109.874  1.00  0.00     0.000 C 
HETATM   16  C13 UNL     1      42.542 -52.232 111.306  1.00  0.00     0.000 C 
HETATM   17  C14 UNL     1      41.194 -52.320 111.928  1.00  0.00     0.004 C 
ENDBRANCH  11  12
ENDBRANCH  10  11
ENDBRANCH   1  10
TORSDOF 8
ENDMDL
MODEL 5
REMARK VINA RESULT: -6.798946167      1.109      1.592
REMARK  8 active torsions:
REMARK  status: ('A' for Active; 'I' for Inactive)
REMARK    1  A    between atoms: C2_2  and  C3_3 
REMARK    2  A    between atoms: C3_3  and  N1_4 
REMARK    3  A    between atoms: N1_4  and  C4_7 
REMARK    4  A    between atoms: C4_7  and  C5_8 
REMARK    5  A    between atoms: C5_8  and  C6_9 
REMARK    6  A    between atoms: C6_9  and  C7_10 
REMARK    7  A    between atoms: C7_10  and  C8_11 
REMARK    8  A    between atoms: C8_11  and  C9_12 
ROOT
HETATM    1  C6  UNL     1      37.674 -50.103 111.313  1.00  0.00     0.002 C 
ENDROOT
BRANCH   1   2
HETATM    2  C5  UNL     1      36.756 -48.881 111.400  1.00  0.00     0.027 C 
BRANCH   2   3
HETATM    3  C4  UNL     1      36.423 -48.641 112.856  1.00  0.00     0.232 C 
BRANCH   3   4
HETATM    4  N1  UNL     1      35.149 -47.991 113.017  1.00  0.00    -0.072 N 
ATOM      5  H12 UNL     1      35.244 -46.985 112.879  1.00  0.00     0.277 HD
ATOM      6  H11 UNL     1      34.864 -48.009 113.996  1.00  0.00     0.277 HD
BRANCH   4   7
HETATM    7  C3  UNL     1      34.105 -48.508 112.186  1.00  0.00     0.259 C 
BRANCH   7   8
HETATM    8  C2  UNL     1      33.411 -47.350 111.539  1.00  0.00    -0.010 C 
HETATM    9  C1  UNL     1      33.928 -46.734 110.486  1.00  0.00     0.008 C 
ENDBRANCH   7   8
ENDBRANCH   4   7
ENDBRANCH   3   4
ENDBRANCH   2   3
ENDBRANCH   1   2
BRANCH   1  10
HETATM   10  C7  UNL     1      38.993 -49.835 111.984  1.00  0.00     0.000 C 
BRANCH  10  11
HETATM   11  C8  UNL     1      40.108 -49.542 111.016  1.00  0.00     0.004 C 
BRANCH  11  12
HETATM   12  C9  UNL     1      41.271 -50.495 111.170  1.00  0.00    -0.014 C 
HETATM   13  C10 UNL     1      40.787 -51.933 111.285  1.00  0.00     0.004 C 
HETATM   14  C11 UNL     1      41.937 -52.714 111.925  1.00  0.00     0.000 C 
HETATM   15  C12 UNL     1      43.247 -52.364 111.209  1.00  0.00     0.000 C 
HETATM   16  C13 UNL     1      42.965 -51.708 109.879  1.00  0.00     0.000 C 
HETATM   17  C14 UNL     1      42.184 -50.445 109.961  1.00  0.00     0.004 C 
ENDBRANCH  11  12
ENDBRANCH  10  11
ENDBRANCH   1  10
TORSDOF 8
ENDMDL
