MODEL 1
REMARK VINA RESULT: -7.122738009      0.000      0.000
REMARK  8 active torsions:
REMARK  status: ('A' for Active; 'I' for Inactive)
REMARK    1  A    between atoms: O1_2  and  C2_3 
REMARK    2  A    between atoms: C3_4  and  O2_5 
REMARK    3  A    between atoms: O2_5  and  C4_6 
REMARK    4  A    between atoms: C9_11  and  O3_12 
REMARK    5  A    between atoms: O3_12  and  C10_13 
REMARK    6  A    between atoms: C10_13  and  C11_14 
REMARK    7  A    between atoms: C19_26  and  N2_27 
REMARK    8  A    between atoms: C26_35  and  O6_37 
ROOT
HETATM    1  C4  UNL     1       0.391  18.624  -4.764  1.00  0.00     0.103 A 
HETATM    2  C5  UNL     1       0.150  19.981  -4.784  1.00  0.00     0.049 A 
HETATM    3  C6  UNL     1      -0.797  20.584  -5.601  1.00  0.00    -0.031 A 
HETATM    4  C7  UNL     1      -1.529  19.765  -6.432  1.00  0.00    -0.042 A 
HETATM    5  C8  UNL     1      -1.288  18.398  -6.414  1.00  0.00     0.047 A 
HETATM    6  C9  UNL     1      -0.353  17.792  -5.610  1.00  0.00     0.102 A 
HETATM    7  C14 UNL     1      -2.593  20.071  -7.408  1.00  0.00     0.043 C 
HETATM    8  C15 UNL     1      -3.586  18.929  -7.485  1.00  0.00     0.017 C 
HETATM    9  C16 UNL     1      -3.371  21.312  -7.130  1.00  0.00     0.182 C 
HETATM   10 CL1  UNL     1      -4.677  21.427  -8.339  1.00  0.00    -0.114 Cl
HETATM   11  C17 UNL     1      -2.530  22.552  -7.242  1.00  0.00     0.237 C 
HETATM   12  O4  UNL     1      -2.920  23.425  -8.058  1.00  0.00    -0.272 OA
HETATM   13  N1  UNL     1      -1.357  22.787  -6.499  1.00  0.00    -0.355 N 
ATOM     14  H1  UNL     1      -0.813  23.599  -6.790  1.00  0.00     0.162 HD
HETATM   15  C18 UNL     1      -0.817  22.052  -5.395  1.00  0.00     0.161 C 
ENDROOT
BRANCH   1  16
HETATM   16  O2  UNL     1       1.315  18.015  -3.971  1.00  0.00    -0.338 OA
BRANCH  16  17
HETATM   17  C3  UNL     1       1.754  18.391  -2.688  1.00  0.00     0.183 C 
HETATM   18  C2  UNL     1       3.176  18.858  -2.843  1.00  0.00     0.186 C 
HETATM   19  C26 UNL     1       3.914  19.028  -1.554  1.00  0.00     0.083 C 
HETATM   20  C25 UNL     1       3.690  17.919  -0.567  1.00  0.00     0.042 C 
HETATM   21  C27 UNL     1       3.557  20.336  -0.898  1.00  0.00     0.049 C 
HETATM   22  C24 UNL     1       2.189  17.779  -0.376  1.00  0.00     0.031 C 
HETATM   23  C19 UNL     1       1.663  17.244  -1.688  1.00  0.00     0.115 C 
BRANCH  18  24
HETATM   24  O1  UNL     1       3.143  20.107  -3.461  1.00  0.00    -0.385 OA
HETATM   25  C1  UNL     1       3.893  20.115  -4.638  1.00  0.00     0.202 C 
ENDBRANCH  18  24
BRANCH  19  26
HETATM   26  O6  UNL     1       5.284  19.042  -1.855  1.00  0.00    -0.388 OA
ATOM     27  H6  UNL     1       5.742  18.680  -1.106  1.00  0.00     0.210 HD
ENDBRANCH  19  26
BRANCH  23  28
HETATM   28  N2  UNL     1       0.389  16.653  -1.625  1.00  0.00    -0.382 N 
HETATM   29  C20 UNL     1      -0.691  17.402  -1.115  1.00  0.00     0.084 C 
HETATM   30  C21 UNL     1      -1.546  16.728  -0.092  1.00  0.00     0.212 C 
HETATM   31  O5  UNL     1      -1.598  15.346  -0.232  1.00  0.00    -0.385 OA
HETATM   32  C22 UNL     1      -0.331  14.780  -0.308  1.00  0.00     0.187 C 
HETATM   33  C23 UNL     1       0.308  15.239  -1.573  1.00  0.00     0.148 C 
ENDBRANCH  23  28
ENDBRANCH  16  17
ENDBRANCH   1  16
BRANCH   6  34
HETATM   34  O3  UNL     1      -0.138  16.411  -5.619  1.00  0.00    -0.348 OA
BRANCH  34  35
HETATM   35  C10 UNL     1      -1.038  15.616  -4.872  1.00  0.00     0.180 C 
BRANCH  35  36
HETATM   36  C11 UNL     1      -1.070  14.192  -5.377  1.00  0.00     0.010 A 
HETATM   37  C12 UNL     1       0.216  13.499  -5.569  1.00  0.00     0.007 A 
HETATM   38  C13 UNL     1      -0.722  13.053  -4.489  1.00  0.00     0.007 A 
ENDBRANCH  35  36
ENDBRANCH  34  35
ENDBRANCH   6  34
TORSDOF 8
ENDMDL
MODEL 2
REMARK VINA RESULT: -6.971008101      3.640      6.453
REMARK  8 active torsions:
REMARK  status: ('A' for Active; 'I' for Inactive)
REMARK    1  A    between atoms: O1_2  and  C2_3 
REMARK    2  A    between atoms: C3_4  and  O2_5 
REMARK    3  A    between atoms: O2_5  and  C4_6 
REMARK    4  A    between atoms: C9_11  and  O3_12 
REMARK    5  A    between atoms: O3_12  and  C10_13 
REMARK    6  A    between atoms: C10_13  and  C11_14 
REMARK    7  A    between atoms: C19_26  and  N2_27 
REMARK    8  A    between atoms: C26_35  and  O6_37 
ROOT
HETATM    1  C4  UNL     1      -1.204  22.011  -5.898  1.00  0.00     0.103 A 
HETATM    2  C5  UNL     1      -1.702  20.805  -6.344  1.00  0.00     0.049 A 
HETATM    3  C6  UNL     1      -2.858  20.683  -7.105  1.00  0.00    -0.031 A 
HETATM    4  C7  UNL     1      -3.530  21.841  -7.424  1.00  0.00    -0.042 A 
HETATM    5  C8  UNL     1      -3.030  23.057  -6.977  1.00  0.00     0.047 A 
HETATM    6  C9  UNL     1      -1.888  23.189  -6.223  1.00  0.00     0.102 A 
HETATM    7  C14 UNL     1      -4.765  22.065  -8.201  1.00  0.00     0.043 C 
HETATM    8  C15 UNL     1      -4.699  23.394  -8.929  1.00  0.00     0.017 C 
HETATM    9  C16 UNL     1      -5.073  21.021  -9.219  1.00  0.00     0.182 C 
HETATM   10 CL1  UNL     1      -6.517  21.543 -10.127  1.00  0.00    -0.114 Cl
HETATM   11  C17 UNL     1      -5.378  19.688  -8.597  1.00  0.00     0.237 C 
HETATM   12  O4  UNL     1      -6.492  19.178  -8.876  1.00  0.00    -0.272 OA
HETATM   13  N1  UNL     1      -4.504  18.992  -7.740  1.00  0.00    -0.355 N 
ATOM     14  H1  UNL     1      -4.906  18.177  -7.277  1.00  0.00     0.162 HD
HETATM   15  C18 UNL     1      -3.134  19.261  -7.423  1.00  0.00     0.161 C 
ENDROOT
BRANCH   1  16
HETATM   16  O2  UNL     1      -0.073  22.151  -5.152  1.00  0.00    -0.338 OA
BRANCH  16  17
HETATM   17  C3  UNL     1       0.667  21.156  -4.487  1.00  0.00     0.183 C 
HETATM   18  C2  UNL     1       0.684  21.538  -3.031  1.00  0.00     0.186 C 
HETATM   19  C26 UNL     1       1.658  20.767  -2.202  1.00  0.00     0.083 C 
HETATM   20  C25 UNL     1       3.001  20.580  -2.848  1.00  0.00     0.042 C 
HETATM   21  C27 UNL     1       1.106  19.413  -1.839  1.00  0.00     0.049 C 
HETATM   22  C24 UNL     1       2.764  19.958  -4.214  1.00  0.00     0.031 C 
HETATM   23  C19 UNL     1       2.085  21.031  -5.033  1.00  0.00     0.115 C 
BRANCH  18  24
HETATM   24  O1  UNL     1      -0.585  21.278  -2.515  1.00  0.00    -0.385 OA
HETATM   25  C1  UNL     1      -1.101  22.388  -1.844  1.00  0.00     0.202 C 
ENDBRANCH  18  24
BRANCH  19  26
HETATM   26  O6  UNL     1       1.867  21.491  -1.019  1.00  0.00    -0.388 OA
ATOM     27  H6  UNL     1       1.028  21.850  -0.755  1.00  0.00     0.210 HD
ENDBRANCH  19  26
BRANCH  23  28
HETATM   28  N2  UNL     1       2.136  20.842  -6.425  1.00  0.00    -0.382 N 
HETATM   29  C20 UNL     1       1.637  19.644  -6.974  1.00  0.00     0.084 C 
HETATM   30  C21 UNL     1       2.514  18.946  -7.963  1.00  0.00     0.212 C 
HETATM   31  O5  UNL     1       3.342  19.806  -8.677  1.00  0.00    -0.385 OA
HETATM   32  C22 UNL     1       4.064  20.651  -7.842  1.00  0.00     0.187 C 
HETATM   33  C23 UNL     1       3.105  21.566  -7.164  1.00  0.00     0.148 C 
ENDBRANCH  23  28
ENDBRANCH  16  17
ENDBRANCH   1  16
BRANCH   6  34
HETATM   34  O3  UNL     1      -1.415  24.431  -5.791  1.00  0.00    -0.348 OA
BRANCH  34  35
HETATM   35  C10 UNL     1      -0.866  25.286  -6.774  1.00  0.00     0.180 C 
BRANCH  35  36
HETATM   36  C11 UNL     1       0.492  25.805  -6.360  1.00  0.00     0.010 A 
HETATM   37  C12 UNL     1       0.948  25.528  -4.988  1.00  0.00     0.007 A 
HETATM   38  C13 UNL     1       1.636  24.881  -6.150  1.00  0.00     0.007 A 
ENDBRANCH  35  36
ENDBRANCH  34  35
ENDBRANCH   6  34
TORSDOF 8
ENDMDL
MODEL 3
REMARK VINA RESULT: -6.964907062      2.550      3.478
REMARK  8 active torsions:
REMARK  status: ('A' for Active; 'I' for Inactive)
REMARK    1  A    between atoms: O1_2  and  C2_3 
REMARK    2  A    between atoms: C3_4  and  O2_5 
REMARK    3  A    between atoms: O2_5  and  C4_6 
REMARK    4  A    between atoms: C9_11  and  O3_12 
REMARK    5  A    between atoms: O3_12  and  C10_13 
REMARK    6  A    between atoms: C10_13  and  C11_14 
REMARK    7  A    between atoms: C19_26  and  N2_27 
REMARK    8  A    between atoms: C26_35  and  O6_37 
ROOT
HETATM    1  C4  UNL     1      -1.003  20.066  -6.202  1.00  0.00     0.103 A 
HETATM    2  C5  UNL     1      -1.425  21.364  -6.397  1.00  0.00     0.049 A 
HETATM    3  C6  UNL     1      -2.581  21.703  -7.089  1.00  0.00    -0.031 A 
HETATM    4  C7  UNL     1      -3.336  20.672  -7.602  1.00  0.00    -0.042 A 
HETATM    5  C8  UNL     1      -2.913  19.364  -7.407  1.00  0.00     0.047 A 
HETATM    6  C9  UNL     1      -1.771  19.018  -6.724  1.00  0.00     0.102 A 
HETATM    7  C14 UNL     1      -4.594  20.680  -8.373  1.00  0.00     0.043 C 
HETATM    8  C15 UNL     1      -5.421  19.450  -8.052  1.00  0.00     0.017 C 
HETATM    9  C16 UNL     1      -5.468  21.867  -8.151  1.00  0.00     0.182 C 
HETATM   10 CL1  UNL     1      -6.979  21.619  -9.065  1.00  0.00    -0.114 Cl
HETATM   11  C17 UNL     1      -4.838  23.141  -8.639  1.00  0.00     0.237 C 
HETATM   12  O4  UNL     1      -5.488  23.799  -9.490  1.00  0.00    -0.272 OA
HETATM   13  N1  UNL     1      -3.591  23.628  -8.205  1.00  0.00    -0.355 N 
ATOM     14  H1  UNL     1      -3.225  24.420  -8.734  1.00  0.00     0.162 HD
HETATM   15  C18 UNL     1      -2.760  23.174  -7.131  1.00  0.00     0.161 C 
ENDROOT
BRANCH   1  16
HETATM   16  O2  UNL     1       0.126  19.714  -5.527  1.00  0.00    -0.338 OA
BRANCH  16  17
HETATM   17  C3  UNL     1       1.132  20.549  -5.007  1.00  0.00     0.183 C 
HETATM   18  C2  UNL     1       2.430  20.078  -5.607  1.00  0.00     0.186 C 
HETATM   19  C26 UNL     1       3.651  20.647  -4.961  1.00  0.00     0.083 C 
HETATM   20  C25 UNL     1       3.594  20.680  -3.461  1.00  0.00     0.042 C 
HETATM   21  C27 UNL     1       3.927  22.041  -5.463  1.00  0.00     0.049 C 
HETATM   22  C24 UNL     1       2.322  21.414  -3.072  1.00  0.00     0.031 C 
HETATM   23  C19 UNL     1       1.188  20.504  -3.484  1.00  0.00     0.115 C 
BRANCH  18  24
HETATM   24  O1  UNL     1       2.448  20.484  -6.940  1.00  0.00    -0.385 OA
HETATM   25  C1  UNL     1       2.508  19.391  -7.807  1.00  0.00     0.202 C 
ENDBRANCH  18  24
BRANCH  19  26
HETATM   26  O6  UNL     1       4.733  19.827  -5.314  1.00  0.00    -0.388 OA
ATOM     27  H6  UNL     1       5.338  19.824  -4.582  1.00  0.00     0.210 HD
ENDBRANCH  19  26
BRANCH  23  28
HETATM   28  N2  UNL     1      -0.047  20.771  -2.868  1.00  0.00    -0.382 N 
HETATM   29  C20 UNL     1      -0.496  22.103  -2.779  1.00  0.00     0.084 C 
HETATM   30  C21 UNL     1      -0.989  22.554  -1.442  1.00  0.00     0.212 C 
HETATM   31  O5  UNL     1      -1.536  21.530  -0.677  1.00  0.00    -0.385 OA
HETATM   32  C22 UNL     1      -0.683  20.437  -0.578  1.00  0.00     0.187 C 
HETATM   33  C23 UNL     1      -0.545  19.831  -1.931  1.00  0.00     0.148 C 
ENDBRANCH  23  28
ENDBRANCH  16  17
ENDBRANCH   1  16
BRANCH   6  34
HETATM   34  O3  UNL     1      -1.377  17.689  -6.549  1.00  0.00    -0.348 OA
BRANCH  34  35
HETATM   35  C10 UNL     1      -1.280  17.219  -5.218  1.00  0.00     0.180 C 
BRANCH  35  36
HETATM   36  C11 UNL     1      -0.213  16.156  -5.084  1.00  0.00     0.010 A 
HETATM   37  C12 UNL     1      -0.235  15.304  -3.884  1.00  0.00     0.007 A 
HETATM   38  C13 UNL     1      -0.542  14.715  -5.227  1.00  0.00     0.007 A 
ENDBRANCH  35  36
ENDBRANCH  34  35
ENDBRANCH   6  34
TORSDOF 8
ENDMDL
MODEL 4
REMARK VINA RESULT: -6.963051787      1.817      2.362
REMARK  8 active torsions:
REMARK  status: ('A' for Active; 'I' for Inactive)
REMARK    1  A    between atoms: O1_2  and  C2_3 
REMARK    2  A    between atoms: C3_4  and  O2_5 
REMARK    3  A    between atoms: O2_5  and  C4_6 
REMARK    4  A    between atoms: C9_11  and  O3_12 
REMARK    5  A    between atoms: O3_12  and  C10_13 
REMARK    6  A    between atoms: C10_13  and  C11_14 
REMARK    7  A    between atoms: C19_26  and  N2_27 
REMARK    8  A    between atoms: C26_35  and  O6_37 
ROOT
HETATM    1  C4  UNL     1      -0.611  19.617  -5.860  1.00  0.00     0.103 A 
HETATM    2  C5  UNL     1      -0.988  20.938  -5.979  1.00  0.00     0.049 A 
HETATM    3  C6  UNL     1      -2.109  21.359  -6.683  1.00  0.00    -0.031 A 
HETATM    4  C7  UNL     1      -2.877  20.390  -7.289  1.00  0.00    -0.042 A 
HETATM    5  C8  UNL     1      -2.499  19.059  -7.170  1.00  0.00     0.047 A 
HETATM    6  C9  UNL     1      -1.392  18.631  -6.476  1.00  0.00     0.102 A 
HETATM    7  C14 UNL     1      -4.107  20.489  -8.097  1.00  0.00     0.043 C 
HETATM    8  C15 UNL     1      -4.980  19.267  -7.886  1.00  0.00     0.017 C 
HETATM    9  C16 UNL     1      -4.952  21.686  -7.823  1.00  0.00     0.182 C 
HETATM   10 CL1  UNL     1      -6.439  21.548  -8.799  1.00  0.00    -0.114 Cl
HETATM   11  C17 UNL     1      -4.269  22.969  -8.203  1.00  0.00     0.237 C 
HETATM   12  O4  UNL     1      -4.869  23.703  -9.027  1.00  0.00    -0.272 OA
HETATM   13  N1  UNL     1      -3.023  23.385  -7.697  1.00  0.00    -0.355 N 
ATOM     14  H1  UNL     1      -2.617  24.199  -8.159  1.00  0.00     0.162 HD
HETATM   15  C18 UNL     1      -2.243  22.835  -6.631  1.00  0.00     0.161 C 
ENDROOT
BRANCH   1  16
HETATM   16  O2  UNL     1       0.484  19.185  -5.175  1.00  0.00    -0.338 OA
BRANCH  16  17
HETATM   17  C3  UNL     1       1.317  19.912  -4.305  1.00  0.00     0.183 C 
HETATM   18  C2  UNL     1       2.693  19.889  -4.913  1.00  0.00     0.186 C 
HETATM   19  C26 UNL     1       3.779  20.358  -4.001  1.00  0.00     0.083 C 
HETATM   20  C25 UNL     1       3.672  19.834  -2.597  1.00  0.00     0.042 C 
HETATM   21  C27 UNL     1       3.828  21.863  -3.950  1.00  0.00     0.049 C 
HETATM   22  C24 UNL     1       2.282  20.180  -2.090  1.00  0.00     0.031 C 
HETATM   23  C19 UNL     1       1.333  19.325  -2.898  1.00  0.00     0.115 C 
BRANCH  18  24
HETATM   24  O1  UNL     1       2.682  20.750  -6.010  1.00  0.00    -0.385 OA
HETATM   25  C1  UNL     1       2.918  20.063  -7.202  1.00  0.00     0.202 C 
ENDBRANCH  18  24
BRANCH  19  26
HETATM   26  O6  UNL     1       4.995  19.892  -4.523  1.00  0.00    -0.388 OA
ATOM     27  H6  UNL     1       5.509  20.653  -4.766  1.00  0.00     0.210 HD
ENDBRANCH  19  26
BRANCH  23  28
HETATM   28  N2  UNL     1       0.052  19.163  -2.341  1.00  0.00    -0.382 N 
HETATM   29  C20 UNL     1      -0.697  20.307  -2.001  1.00  0.00     0.084 C 
HETATM   30  C21 UNL     1      -1.321  20.317  -0.643  1.00  0.00     0.212 C 
HETATM   31  O5  UNL     1      -1.636  19.050  -0.166  1.00  0.00    -0.385 OA
HETATM   32  C22 UNL     1      -0.555  18.179  -0.238  1.00  0.00     0.187 C 
HETATM   33  C23 UNL     1      -0.240  17.947  -1.675  1.00  0.00     0.148 C 
ENDBRANCH  23  28
ENDBRANCH  16  17
ENDBRANCH   1  16
BRANCH   6  34
HETATM   34  O3  UNL     1      -1.044  17.281  -6.379  1.00  0.00    -0.348 OA
BRANCH  34  35
HETATM   35  C10 UNL     1      -1.034  16.713  -5.084  1.00  0.00     0.180 C 
BRANCH  35  36
HETATM   36  C11 UNL     1      -0.120  15.511  -5.015  1.00  0.00     0.010 A 
HETATM   37  C12 UNL     1      -0.485  14.418  -4.097  1.00  0.00     0.007 A 
HETATM   38  C13 UNL     1      -0.531  14.199  -5.578  1.00  0.00     0.007 A 
ENDBRANCH  35  36
ENDBRANCH  34  35
ENDBRANCH   6  34
TORSDOF 8
ENDMDL
MODEL 5
REMARK VINA RESULT: -6.700058652      2.504      3.491
REMARK  8 active torsions:
REMARK  status: ('A' for Active; 'I' for Inactive)
REMARK    1  A    between atoms: O1_2  and  C2_3 
REMARK    2  A    between atoms: C3_4  and  O2_5 
REMARK    3  A    between atoms: O2_5  and  C4_6 
REMARK    4  A    between atoms: C9_11  and  O3_12 
REMARK    5  A    between atoms: O3_12  and  C10_13 
REMARK    6  A    between atoms: C10_13  and  C11_14 
REMARK    7  A    between atoms: C19_26  and  N2_27 
REMARK    8  A    between atoms: C26_35  and  O6_37 
ROOT
HETATM    1  C4  UNL     1      -0.380  20.133  -5.640  1.00  0.00     0.103 A 
HETATM    2  C5  UNL     1      -0.962  21.374  -5.783  1.00  0.00     0.049 A 
HETATM    3  C6  UNL     1      -2.102  21.608  -6.542  1.00  0.00    -0.031 A 
HETATM    4  C7  UNL     1      -2.669  20.528  -7.181  1.00  0.00    -0.042 A 
HETATM    5  C8  UNL     1      -2.084  19.277  -7.038  1.00  0.00     0.047 A 
HETATM    6  C9  UNL     1      -0.957  19.034  -6.289  1.00  0.00     0.102 A 
HETATM    7  C14 UNL     1      -3.858  20.427  -8.049  1.00  0.00     0.043 C 
HETATM    8  C15 UNL     1      -4.527  19.077  -7.876  1.00  0.00     0.017 C 
HETATM    9  C16 UNL     1      -4.900  21.467  -7.821  1.00  0.00     0.182 C 
HETATM   10 CL1  UNL     1      -6.294  21.091  -8.869  1.00  0.00    -0.114 Cl
HETATM   11  C17 UNL     1      -4.420  22.846  -8.173  1.00  0.00     0.237 C 
HETATM   12  O4  UNL     1      -5.091  23.475  -9.029  1.00  0.00    -0.272 OA
HETATM   13  N1  UNL     1      -3.285  23.460  -7.608  1.00  0.00    -0.355 N 
ATOM     14  H1  UNL     1      -2.996  24.332  -8.053  1.00  0.00     0.162 HD
HETATM   15  C18 UNL     1      -2.479  23.041  -6.503  1.00  0.00     0.161 C 
ENDROOT
BRANCH   1  16
HETATM   16  O2  UNL     1       0.736  19.884  -4.900  1.00  0.00    -0.338 OA
BRANCH  16  17
HETATM   17  C3  UNL     1       1.879  20.689  -4.739  1.00  0.00     0.183 C 
HETATM   18  C2  UNL     1       2.907  20.169  -5.708  1.00  0.00     0.186 C 
HETATM   19  C26 UNL     1       4.285  20.703  -5.491  1.00  0.00     0.083 C 
HETATM   20  C25 UNL     1       4.705  20.751  -4.050  1.00  0.00     0.042 C 
HETATM   21  C27 UNL     1       4.428  22.082  -6.081  1.00  0.00     0.049 C 
HETATM   22  C24 UNL     1       3.643  21.531  -3.294  1.00  0.00     0.031 C 
HETATM   23  C19 UNL     1       2.411  20.655  -3.311  1.00  0.00     0.115 C 
BRANCH  18  24
HETATM   24  O1  UNL     1       2.514  20.562  -6.987  1.00  0.00    -0.385 OA
HETATM   25  C1  UNL     1       2.428  19.471  -7.853  1.00  0.00     0.202 C 
ENDBRANCH  18  24
BRANCH  19  26
HETATM   26  O6  UNL     1       5.176  19.844  -6.151  1.00  0.00    -0.388 OA
ATOM     27  H6  UNL     1       5.499  20.304  -6.917  1.00  0.00     0.210 HD
ENDBRANCH  19  26
BRANCH  23  28
HETATM   28  N2  UNL     1       1.441  20.969  -2.342  1.00  0.00    -0.382 N 
HETATM   29  C20 UNL     1       0.627  19.941  -1.828  1.00  0.00     0.084 C 
HETATM   30  C21 UNL     1      -0.842  20.212  -1.783  1.00  0.00     0.212 C 
HETATM   31  O5  UNL     1      -1.155  21.558  -1.629  1.00  0.00    -0.385 OA
HETATM   32  C22 UNL     1      -0.505  22.356  -2.564  1.00  0.00     0.187 C 
HETATM   33  C23 UNL     1       0.957  22.300  -2.286  1.00  0.00     0.148 C 
ENDBRANCH  23  28
ENDBRANCH  16  17
ENDBRANCH   1  16
BRANCH   6  34
HETATM   34  O3  UNL     1      -0.397  17.760  -6.169  1.00  0.00    -0.348 OA
BRANCH  34  35
HETATM   35  C10 UNL     1      -0.967  16.896  -5.205  1.00  0.00     0.180 C 
BRANCH  35  36
HETATM   36  C11 UNL     1      -0.230  15.579  -5.138  1.00  0.00     0.010 A 
HETATM   37  C12 UNL     1      -0.316  14.802  -3.890  1.00  0.00     0.007 A 
HETATM   38  C13 UNL     1      -0.962  14.286  -5.139  1.00  0.00     0.007 A 
ENDBRANCH  35  36
ENDBRANCH  34  35
ENDBRANCH   6  34
TORSDOF 8
ENDMDL
