MODEL 1
REMARK VINA RESULT: -8.287273926      0.000      0.000
REMARK  6 active torsions:
REMARK  status: ('A' for Active; 'I' for Inactive)
REMARK    1  A    between atoms: O1_2  and  C2_3 
REMARK    2  A    between atoms: N1_9  and  S1_10 
REMARK    3  A    between atoms: S1_10  and  C8_13 
REMARK    4  A    between atoms: C15_26  and  C16_27 
REMARK    5  A    between atoms: C22_34  and  O6_35 
REMARK    6  A    between atoms: C24_37  and  O7_38 
ROOT
HETATM    1  S1  UNL     1       0.863  18.616  -3.516  1.00  0.00     0.264 S 
HETATM    2  O2  UNL     1       0.571  19.201  -2.104  1.00  0.00    -0.200 OA
HETATM    3  O3  UNL     1       2.328  19.064  -3.728  1.00  0.00    -0.200 OA
ENDROOT
BRANCH   1   4
HETATM    4  N1  UNL     1      -0.160  19.317  -4.632  1.00  0.00    -0.286 N 
HETATM    5  C7  UNL     1       0.213  19.160  -5.972  1.00  0.00     0.080 C 
HETATM    6  C6  UNL     1      -0.897  19.441  -6.984  1.00  0.00     0.080 C 
HETATM    7  C5  UNL     1      -1.863  20.421  -6.354  1.00  0.00    -0.060 C 
HETATM    8  C4  UNL     1      -2.973  20.807  -7.189  1.00  0.00     0.011 A 
HETATM    9  C20 UNL     1      -1.199  21.371  -5.447  1.00  0.00     0.056 C 
HETATM   10  C3  UNL     1      -4.076  19.968  -7.350  1.00  0.00     0.054 A 
HETATM   11  C21 UNL     1      -3.087  22.065  -7.793  1.00  0.00     0.163 A 
HETATM   12  C2  UNL     1      -5.215  20.333  -8.054  1.00  0.00     0.105 A 
HETATM   13  C24 UNL     1      -5.286  21.557  -8.633  1.00  0.00     0.138 A 
HETATM   14  C22 UNL     1      -4.198  22.414  -8.486  1.00  0.00     0.144 A 
HETATM   15  F1  UNL     1      -2.078  22.978  -7.694  1.00  0.00    -0.202 F 
HETATM   16  C19 UNL     1      -0.778  20.513  -4.223  1.00  0.00     0.145 C 
BRANCH  12  17
HETATM   17  O1  UNL     1      -6.299  19.492  -8.179  1.00  0.00    -0.353 OA
HETATM   18  C1  UNL     1      -6.227  18.380  -9.037  1.00  0.00     0.210 C 
ENDBRANCH  12  17
BRANCH  13  19
HETATM   19  O7  UNL     1      -6.384  22.008  -9.369  1.00  0.00    -0.351 OA
HETATM   20  C25 UNL     1      -7.536  22.520  -8.740  1.00  0.00     0.210 C 
ENDBRANCH  13  19
BRANCH  14  21
HETATM   21  O6  UNL     1      -4.306  23.677  -9.106  1.00  0.00    -0.350 OA
HETATM   22  C23 UNL     1      -4.648  24.737  -8.174  1.00  0.00     0.210 C 
ENDBRANCH  14  21
ENDBRANCH   1   4
BRANCH   1  23
HETATM   23  C8  UNL     1       0.757  16.875  -3.433  1.00  0.00     0.087 A 
HETATM   24  C9  UNL     1       0.191  16.085  -4.438  1.00  0.00     0.045 A 
HETATM   25  C10 UNL     1       0.201  14.709  -4.428  1.00  0.00     0.060 A 
HETATM   26  C11 UNL     1      -0.330  13.998  -5.471  1.00  0.00     0.261 A 
HETATM   27  C13 UNL     1       0.812  14.014  -3.365  1.00  0.00     0.052 A 
HETATM   28  O4  UNL     1      -0.878  14.572  -6.419  1.00  0.00    -0.267 OA
HETATM   29  N2  UNL     1      -0.239  12.631  -5.425  1.00  0.00    -0.275 N 
HETATM   30  C12 UNL     1       0.340  12.023  -4.406  1.00  0.00     0.327 A 
ATOM     31  H2  UNL     1      -0.623  12.075  -6.189  1.00  0.00     0.173 HD
HETATM   32  O5  UNL     1       0.401  10.768  -4.411  1.00  0.00    -0.247 OA
HETATM   33  N3  UNL     1       0.891  12.676  -3.330  1.00  0.00    -0.308 N 
ATOM     34  H3  UNL     1       1.330  12.177  -2.556  1.00  0.00     0.170 HD
HETATM   35  C14 UNL     1       1.358  14.788  -2.390  1.00  0.00     0.039 A 
HETATM   36  C15 UNL     1       1.358  16.157  -2.383  1.00  0.00    -0.028 A 
BRANCH  36  37
HETATM   37  C16 UNL     1       1.950  16.953  -1.276  1.00  0.00     0.020 A 
HETATM   38  C17 UNL     1       1.306  16.730   0.100  1.00  0.00     0.010 A 
HETATM   39  C18 UNL     1       2.736  16.388  -0.186  1.00  0.00     0.010 A 
ENDBRANCH  36  37
ENDBRANCH   1  23
TORSDOF 6
ENDMDL
MODEL 2
REMARK VINA RESULT: -7.960100187      4.386      6.848
REMARK  6 active torsions:
REMARK  status: ('A' for Active; 'I' for Inactive)
REMARK    1  A    between atoms: O1_2  and  C2_3 
REMARK    2  A    between atoms: N1_9  and  S1_10 
REMARK    3  A    between atoms: S1_10  and  C8_13 
REMARK    4  A    between atoms: C15_26  and  C16_27 
REMARK    5  A    between atoms: C22_34  and  O6_35 
REMARK    6  A    between atoms: C24_37  and  O7_38 
ROOT
HETATM    1  S1  UNL     1       1.806  20.490  -5.108  1.00  0.00     0.264 S 
HETATM    2  O2  UNL     1       2.147  18.990  -4.874  1.00  0.00    -0.200 OA
HETATM    3  O3  UNL     1       1.908  21.048  -3.668  1.00  0.00    -0.200 OA
ENDROOT
BRANCH   1   4
HETATM    4  N1  UNL     1       0.254  20.622  -5.706  1.00  0.00    -0.286 N 
HETATM    5  C7  UNL     1      -0.730  20.937  -4.762  1.00  0.00     0.080 C 
HETATM    6  C6  UNL     1      -2.046  21.442  -5.353  1.00  0.00     0.080 C 
HETATM    7  C5  UNL     1      -2.186  20.861  -6.742  1.00  0.00    -0.060 C 
HETATM    8  C4  UNL     1      -3.391  21.230  -7.442  1.00  0.00     0.011 A 
HETATM    9  C20 UNL     1      -1.593  19.518  -6.861  1.00  0.00     0.056 C 
HETATM   10  C3  UNL     1      -3.513  22.479  -8.053  1.00  0.00     0.054 A 
HETATM   11  C21 UNL     1      -4.460  20.352  -7.660  1.00  0.00     0.163 A 
HETATM   12  C2  UNL     1      -4.606  22.845  -8.825  1.00  0.00     0.105 A 
HETATM   13  C24 UNL     1      -5.627  21.971  -9.008  1.00  0.00     0.138 A 
HETATM   14  C22 UNL     1      -5.528  20.717  -8.409  1.00  0.00     0.144 A 
HETATM   15  F1  UNL     1      -4.449  19.097  -7.124  1.00  0.00    -0.202 F 
HETATM   16  C19 UNL     1      -0.062  19.759  -6.772  1.00  0.00     0.145 C 
BRANCH  12  17
HETATM   17  O1  UNL     1      -4.691  24.078  -9.436  1.00  0.00    -0.353 OA
HETATM   18  C1  UNL     1      -5.064  25.206  -8.684  1.00  0.00     0.210 C 
ENDBRANCH  12  17
BRANCH  13  19
HETATM   19  O7  UNL     1      -6.770  22.253  -9.759  1.00  0.00    -0.351 OA
HETATM   20  C25 UNL     1      -7.908  22.846  -9.178  1.00  0.00     0.210 C 
ENDBRANCH  13  19
BRANCH  14  21
HETATM   21  O6  UNL     1      -6.610  19.837  -8.617  1.00  0.00    -0.350 OA
HETATM   22  C23 UNL     1      -6.240  18.653  -9.374  1.00  0.00     0.210 C 
ENDBRANCH  14  21
ENDBRANCH   1   4
BRANCH   1  23
HETATM   23  C8  UNL     1       3.037  21.193  -6.129  1.00  0.00     0.087 A 
HETATM   24  C9  UNL     1       4.156  20.491  -6.586  1.00  0.00     0.045 A 
HETATM   25  C10 UNL     1       5.071  21.005  -7.475  1.00  0.00     0.060 A 
HETATM   26  C11 UNL     1       6.119  20.244  -7.918  1.00  0.00     0.261 A 
HETATM   27  C13 UNL     1       4.907  22.309  -7.985  1.00  0.00     0.052 A 
HETATM   28  O4  UNL     1       6.299  19.097  -7.492  1.00  0.00    -0.267 OA
HETATM   29  N2  UNL     1       6.964  20.797  -8.846  1.00  0.00    -0.275 N 
HETATM   30  C12 UNL     1       6.772  22.024  -9.292  1.00  0.00     0.327 A 
ATOM     31  H2  UNL     1       7.752  20.252  -9.197  1.00  0.00     0.173 HD
HETATM   32  O5  UNL     1       7.572  22.486 -10.144  1.00  0.00    -0.247 OA
HETATM   33  N3  UNL     1       5.743  22.840  -8.888  1.00  0.00    -0.308 N 
ATOM     34  H3  UNL     1       5.623  23.785  -9.251  1.00  0.00     0.170 HD
HETATM   35  C14 UNL     1       3.819  22.986  -7.534  1.00  0.00     0.039 A 
HETATM   36  C15 UNL     1       2.897  22.492  -6.649  1.00  0.00    -0.028 A 
BRANCH  36  37
HETATM   37  C16 UNL     1       1.737  23.288  -6.172  1.00  0.00     0.020 A 
HETATM   38  C17 UNL     1       2.048  24.268  -5.031  1.00  0.00     0.010 A 
HETATM   39  C18 UNL     1       1.582  24.722  -6.381  1.00  0.00     0.010 A 
ENDBRANCH  36  37
ENDBRANCH   1  23
TORSDOF 6
ENDMDL
MODEL 3
REMARK VINA RESULT: -7.923948193      2.578      4.137
REMARK  6 active torsions:
REMARK  status: ('A' for Active; 'I' for Inactive)
REMARK    1  A    between atoms: O1_2  and  C2_3 
REMARK    2  A    between atoms: N1_9  and  S1_10 
REMARK    3  A    between atoms: S1_10  and  C8_13 
REMARK    4  A    between atoms: C15_26  and  C16_27 
REMARK    5  A    between atoms: C22_34  and  O6_35 
REMARK    6  A    between atoms: C24_37  and  O7_38 
ROOT
HETATM    1  S1  UNL     1       0.749  19.295  -3.561  1.00  0.00     0.264 S 
HETATM    2  O2  UNL     1       1.587  20.463  -2.967  1.00  0.00    -0.200 OA
HETATM    3  O3  UNL     1       1.859  18.417  -4.187  1.00  0.00    -0.200 OA
ENDROOT
BRANCH   1   4
HETATM    4  N1  UNL     1      -0.290  19.890  -4.724  1.00  0.00    -0.286 N 
HETATM    5  C7  UNL     1       0.096  19.659  -6.049  1.00  0.00     0.080 C 
HETATM    6  C6  UNL     1      -1.017  19.838  -7.081  1.00  0.00     0.080 C 
HETATM    7  C5  UNL     1      -2.017  20.825  -6.520  1.00  0.00    -0.060 C 
HETATM    8  C4  UNL     1      -3.134  21.121  -7.381  1.00  0.00     0.011 A 
HETATM    9  C20 UNL     1      -1.389  21.853  -5.673  1.00  0.00     0.056 C 
HETATM   10  C3  UNL     1      -4.209  20.237  -7.492  1.00  0.00     0.054 A 
HETATM   11  C21 UNL     1      -3.286  22.333  -8.066  1.00  0.00     0.163 A 
HETATM   12  C2  UNL     1      -5.355  20.520  -8.222  1.00  0.00     0.105 A 
HETATM   13  C24 UNL     1      -5.462  21.701  -8.879  1.00  0.00     0.138 A 
HETATM   14  C22 UNL     1      -4.402  22.601  -8.784  1.00  0.00     0.144 A 
HETATM   15  F1  UNL     1      -2.306  23.282  -8.022  1.00  0.00    -0.202 F 
HETATM   16  C19 UNL     1      -0.947  21.089  -4.395  1.00  0.00     0.145 C 
BRANCH  12  17
HETATM   17  O1  UNL     1      -6.412  19.638  -8.296  1.00  0.00    -0.353 OA
HETATM   18  C1  UNL     1      -6.268  18.433  -9.007  1.00  0.00     0.210 C 
ENDBRANCH  12  17
BRANCH  13  19
HETATM   19  O7  UNL     1      -6.570  22.069  -9.647  1.00  0.00    -0.351 OA
HETATM   20  C25 UNL     1      -7.753  22.551  -9.054  1.00  0.00     0.210 C 
ENDBRANCH  13  19
BRANCH  14  21
HETATM   21  O6  UNL     1      -4.547  23.817  -9.484  1.00  0.00    -0.350 OA
HETATM   22  C23 UNL     1      -4.951  24.919  -8.627  1.00  0.00     0.210 C 
ENDBRANCH  14  21
ENDBRANCH   1   4
BRANCH   1  23
HETATM   23  C8  UNL     1      -0.040  18.448  -2.253  1.00  0.00     0.087 A 
HETATM   24  C9  UNL     1      -0.328  19.031  -1.016  1.00  0.00     0.045 A 
HETATM   25  C10 UNL     1      -1.043  18.406  -0.021  1.00  0.00     0.060 A 
HETATM   26  C11 UNL     1      -1.330  19.055   1.149  1.00  0.00     0.261 A 
HETATM   27  C13 UNL     1      -1.537  17.101  -0.220  1.00  0.00     0.052 A 
HETATM   28  O4  UNL     1      -0.911  20.198   1.362  1.00  0.00    -0.267 OA
HETATM   29  N2  UNL     1      -2.093  18.394   2.077  1.00  0.00    -0.275 N 
HETATM   30  C12 UNL     1      -2.532  17.170   1.848  1.00  0.00     0.327 A 
ATOM     31  H2  UNL     1      -2.326  18.854   2.957  1.00  0.00     0.173 HD
HETATM   32  O5  UNL     1      -3.230  16.608   2.728  1.00  0.00    -0.247 OA
HETATM   33  N3  UNL     1      -2.278  16.463   0.697  1.00  0.00    -0.308 N 
ATOM     34  H3  UNL     1      -2.631  15.517   0.551  1.00  0.00     0.170 HD
HETATM   35  C14 UNL     1      -1.251  16.538  -1.424  1.00  0.00     0.039 A 
HETATM   36  C15 UNL     1      -0.542  17.145  -2.426  1.00  0.00    -0.028 A 
BRANCH  36  37
HETATM   37  C16 UNL     1      -0.238  16.472  -3.714  1.00  0.00     0.020 A 
HETATM   38  C17 UNL     1       0.643  15.219  -3.600  1.00  0.00     0.010 A 
HETATM   39  C18 UNL     1      -0.765  15.171  -4.107  1.00  0.00     0.010 A 
ENDBRANCH  36  37
ENDBRANCH   1  23
TORSDOF 6
ENDMDL
MODEL 4
REMARK VINA RESULT: -7.727195013      1.310      1.656
REMARK  6 active torsions:
REMARK  status: ('A' for Active; 'I' for Inactive)
REMARK    1  A    between atoms: O1_2  and  C2_3 
REMARK    2  A    between atoms: N1_9  and  S1_10 
REMARK    3  A    between atoms: S1_10  and  C8_13 
REMARK    4  A    between atoms: C15_26  and  C16_27 
REMARK    5  A    between atoms: C22_34  and  O6_35 
REMARK    6  A    between atoms: C24_37  and  O7_38 
ROOT
HETATM    1  S1  UNL     1       0.961  18.157  -2.024  1.00  0.00     0.264 S 
HETATM    2  O2  UNL     1       0.294  18.455  -0.651  1.00  0.00    -0.200 OA
HETATM    3  O3  UNL     1       2.433  18.535  -1.731  1.00  0.00    -0.200 OA
ENDROOT
BRANCH   1   4
HETATM    4  N1  UNL     1       0.296  19.145  -3.192  1.00  0.00    -0.286 N 
HETATM    5  C7  UNL     1       1.114  19.403  -4.299  1.00  0.00     0.080 C 
HETATM    6  C6  UNL     1       0.383  19.957  -5.521  1.00  0.00     0.080 C 
HETATM    7  C5  UNL     1      -0.848  20.688  -5.034  1.00  0.00    -0.060 C 
HETATM    8  C4  UNL     1      -1.652  21.290  -6.069  1.00  0.00     0.011 A 
HETATM    9  C20 UNL     1      -0.648  21.333  -3.726  1.00  0.00     0.056 C 
HETATM   10  C3  UNL     1      -2.526  20.520  -6.838  1.00  0.00     0.054 A 
HETATM   11  C21 UNL     1      -1.708  22.669  -6.304  1.00  0.00     0.163 A 
HETATM   12  C2  UNL     1      -3.397  21.061  -7.773  1.00  0.00     0.105 A 
HETATM   13  C24 UNL     1      -3.417  22.402  -7.978  1.00  0.00     0.138 A 
HETATM   14  C22 UNL     1      -2.554  23.192  -7.223  1.00  0.00     0.144 A 
HETATM   15  F1  UNL     1      -0.909  23.525  -5.604  1.00  0.00    -0.202 F 
HETATM   16  C19 UNL     1      -0.563  20.153  -2.719  1.00  0.00     0.145 C 
BRANCH  12  17
HETATM   17  O1  UNL     1      -4.266  20.280  -8.503  1.00  0.00    -0.353 OA
HETATM   18  C1  UNL     1      -5.317  19.608  -7.853  1.00  0.00     0.210 C 
ENDBRANCH  12  17
BRANCH  13  19
HETATM   19  O7  UNL     1      -4.250  23.036  -8.904  1.00  0.00    -0.351 OA
HETATM   20  C25 UNL     1      -5.603  23.302  -8.619  1.00  0.00     0.210 C 
ENDBRANCH  13  19
BRANCH  14  21
HETATM   21  O6  UNL     1      -2.600  24.581  -7.467  1.00  0.00    -0.350 OA
HETATM   22  C23 UNL     1      -3.361  25.307  -6.466  1.00  0.00     0.210 C 
ENDBRANCH  14  21
ENDBRANCH   1   4
BRANCH   1  23
HETATM   23  C8  UNL     1       0.820  16.448  -2.356  1.00  0.00     0.087 A 
HETATM   24  C9  UNL     1       0.316  15.931  -3.553  1.00  0.00     0.045 A 
HETATM   25  C10 UNL     1       0.302  14.591  -3.864  1.00  0.00     0.060 A 
HETATM   26  C11 UNL     1      -0.163  14.159  -5.076  1.00  0.00     0.261 A 
HETATM   27  C13 UNL     1       0.820  13.649  -2.952  1.00  0.00     0.052 A 
HETATM   28  O4  UNL     1      -0.629  14.954  -5.900  1.00  0.00    -0.267 OA
HETATM   29  N2  UNL     1      -0.099  12.815  -5.344  1.00  0.00    -0.275 N 
HETATM   30  C12 UNL     1       0.392  11.969  -4.457  1.00  0.00     0.327 A 
ATOM     31  H2  UNL     1      -0.436  12.464  -6.241  1.00  0.00     0.173 HD
HETATM   32  O5  UNL     1       0.431  10.748  -4.750  1.00  0.00    -0.247 OA
HETATM   33  N3  UNL     1       0.872  12.338  -3.224  1.00  0.00    -0.308 N 
ATOM     34  H3  UNL     1       1.244  11.658  -2.560  1.00  0.00     0.170 HD
HETATM   35  C14 UNL     1       1.305  14.158  -1.789  1.00  0.00     0.039 A 
HETATM   36  C15 UNL     1       1.328  15.488  -1.463  1.00  0.00    -0.028 A 
BRANCH  36  37
HETATM   37  C16 UNL     1       1.850  15.985  -0.164  1.00  0.00     0.020 A 
HETATM   38  C17 UNL     1       1.045  15.550   1.069  1.00  0.00     0.010 A 
HETATM   39  C18 UNL     1       2.470  15.143   0.851  1.00  0.00     0.010 A 
ENDBRANCH  36  37
ENDBRANCH   1  23
TORSDOF 6
ENDMDL
MODEL 5
REMARK VINA RESULT: -7.562387813      5.691      9.745
REMARK  6 active torsions:
REMARK  status: ('A' for Active; 'I' for Inactive)
REMARK    1  A    between atoms: O1_2  and  C2_3 
REMARK    2  A    between atoms: N1_9  and  S1_10 
REMARK    3  A    between atoms: S1_10  and  C8_13 
REMARK    4  A    between atoms: C15_26  and  C16_27 
REMARK    5  A    between atoms: C22_34  and  O6_35 
REMARK    6  A    between atoms: C24_37  and  O7_38 
ROOT
HETATM    1  S1  UNL     1       0.948  19.366  -5.431  1.00  0.00     0.264 S 
HETATM    2  O2  UNL     1       1.029  19.510  -3.884  1.00  0.00    -0.200 OA
HETATM    3  O3  UNL     1       0.708  17.844  -5.577  1.00  0.00    -0.200 OA
ENDROOT
BRANCH   1   4
HETATM    4  N1  UNL     1       2.400  19.825  -6.110  1.00  0.00    -0.286 N 
HETATM    5  C7  UNL     1       3.297  20.458  -5.241  1.00  0.00     0.080 C 
HETATM    6  C6  UNL     1       4.741  20.515  -5.739  1.00  0.00     0.080 C 
HETATM    7  C5  UNL     1       4.712  20.487  -7.251  1.00  0.00    -0.060 C 
HETATM    8  C4  UNL     1       6.003  20.549  -7.889  1.00  0.00     0.011 A 
HETATM    9  C20 UNL     1       3.530  21.164  -7.811  1.00  0.00     0.056 C 
HETATM   10  C3  UNL     1       6.816  19.417  -7.976  1.00  0.00     0.054 A 
HETATM   11  C21 UNL     1       6.485  21.682  -8.556  1.00  0.00     0.163 A 
HETATM   12  C2  UNL     1       8.018  19.394  -8.669  1.00  0.00     0.105 A 
HETATM   13  C24 UNL     1       8.457  20.514  -9.295  1.00  0.00     0.138 A 
HETATM   14  C22 UNL     1       7.663  21.657  -9.224  1.00  0.00     0.144 A 
HETATM   15  F1  UNL     1       5.772  22.845  -8.553  1.00  0.00    -0.202 F 
HETATM   16  C19 UNL     1       2.342  20.230  -7.456  1.00  0.00     0.145 C 
BRANCH  12  17
HETATM   17  O1  UNL     1       8.791  18.256  -8.757  1.00  0.00    -0.353 OA
HETATM   18  C1  UNL     1       8.671  17.416  -9.878  1.00  0.00     0.210 C 
ENDBRANCH  12  17
BRANCH  13  19
HETATM   19  O7  UNL     1       9.657  20.590 -10.007  1.00  0.00    -0.351 OA
HETATM   20  C25 UNL     1      10.873  20.912  -9.373  1.00  0.00     0.210 C 
ENDBRANCH  13  19
BRANCH  14  21
HETATM   21  O6  UNL     1       8.154  22.803  -9.884  1.00  0.00    -0.350 OA
HETATM   22  C23 UNL     1       7.637  22.943 -11.235  1.00  0.00     0.210 C 
ENDBRANCH  14  21
ENDBRANCH   1   4
BRANCH   1  23
HETATM   23  C8  UNL     1      -0.436  20.264  -6.005  1.00  0.00     0.087 A 
HETATM   24  C9  UNL     1      -1.535  19.674  -6.635  1.00  0.00     0.045 A 
HETATM   25  C10 UNL     1      -2.673  20.359  -6.993  1.00  0.00     0.060 A 
HETATM   26  C11 UNL     1      -3.732  19.707  -7.565  1.00  0.00     0.261 A 
HETATM   27  C13 UNL     1      -2.781  21.739  -6.723  1.00  0.00     0.052 A 
HETATM   28  O4  UNL     1      -3.673  18.499  -7.821  1.00  0.00    -0.267 OA
HETATM   29  N2  UNL     1      -4.857  20.439  -7.847  1.00  0.00    -0.275 N 
HETATM   30  C12 UNL     1      -4.911  21.731  -7.579  1.00  0.00     0.327 A 
ATOM     31  H2  UNL     1      -5.663  19.980  -8.270  1.00  0.00     0.173 HD
HETATM   32  O5  UNL     1      -5.965  22.357  -7.854  1.00  0.00    -0.247 OA
HETATM   33  N3  UNL     1      -3.884  22.444  -7.008  1.00  0.00    -0.308 N 
ATOM     34  H3  UNL     1      -3.958  23.443  -6.815  1.00  0.00     0.170 HD
HETATM   35  C14 UNL     1      -1.708  22.307  -6.113  1.00  0.00     0.039 A 
HETATM   36  C15 UNL     1      -0.567  21.641  -5.749  1.00  0.00    -0.028 A 
BRANCH  36  37
HETATM   37  C16 UNL     1       0.586  22.320  -5.105  1.00  0.00     0.020 A 
HETATM   38  C17 UNL     1       1.229  23.438  -5.938  1.00  0.00     0.010 A 
HETATM   39  C18 UNL     1       0.566  23.694  -4.620  1.00  0.00     0.010 A 
ENDBRANCH  36  37
ENDBRANCH   1  23
TORSDOF 6
ENDMDL
