MODEL 1
REMARK VINA RESULT: -6.450634788      0.000      0.000
REMARK  9 active torsions:
REMARK  status: ('A' for Active; 'I' for Inactive)
REMARK    1  A    between atoms: C2_3  and  C3_4 
REMARK    2  A    between atoms: C3_4  and  C4_5 
REMARK    3  A    between atoms: C4_5  and  N2_6 
REMARK    4  A    between atoms: C7_11  and  N4_12 
REMARK    5  A    between atoms: C12_20  and  N6_21 
REMARK    6  A    between atoms: N6_21  and  C13_23 
REMARK    7  A    between atoms: C13_23  and  C14_24 
REMARK    8  A    between atoms: C14_24  and  C15_25 
REMARK    9  A    between atoms: C15_25  and  O2_26 
ROOT
HETATM    1  N1  UNL     1      -7.546  21.753  -7.058  1.00  0.00    -0.197 NA
HETATM    2  C1  UNL     1      -7.166  22.758  -6.613  1.00  0.00     0.059 C 
HETATM    3  C2  UNL     1      -6.695  24.016  -6.037  1.00  0.00     0.125 C 
ENDROOT
BRANCH   3   4
HETATM    4  C3  UNL     1      -5.183  24.095  -6.106  1.00  0.00     0.034 C 
BRANCH   4   5
HETATM    5  C4  UNL     1      -4.623  23.409  -7.305  1.00  0.00     0.132 C 
BRANCH   5   6
HETATM    6  N2  UNL     1      -3.577  22.471  -6.970  1.00  0.00    -0.327 N 
HETATM    7  C5  UNL     1      -2.380  22.767  -6.437  1.00  0.00     0.185 A 
HETATM    8  N3  UNL     1      -1.738  21.598  -6.294  1.00  0.00    -0.346 N 
HETATM    9  C6  UNL     1      -2.467  20.557  -6.713  1.00  0.00     0.123 A 
ATOM     10  H3  UNL     1      -0.798  21.513  -5.908  1.00  0.00     0.167 HD
HETATM   11  C7  UNL     1      -2.260  19.194  -6.776  1.00  0.00     0.150 A 
HETATM   12  C16 UNL     1      -3.667  21.127  -7.154  1.00  0.00     0.155 A 
HETATM   13  N5  UNL     1      -3.265  18.442  -7.279  1.00  0.00    -0.174 N 
HETATM   14  C12 UNL     1      -4.419  18.984  -7.702  1.00  0.00     0.681 A 
ATOM     15  H5  UNL     1      -3.144  17.431  -7.338  1.00  0.00     0.186 HD
HETATM   16  N7  UNL     1      -4.612  20.313  -7.638  1.00  0.00    -0.174 N 
ATOM     17  H7  UNL     1      -5.494  20.708  -7.964  1.00  0.00     0.186 HD
BRANCH  11  18
HETATM   18  N4  UNL     1      -1.043  18.624  -6.328  1.00  0.00    -0.361 N 
HETATM   19  C8  UNL     1      -1.023  18.023  -5.008  1.00  0.00     0.150 C 
HETATM   20  C9  UNL     1      -0.127  16.812  -4.939  1.00  0.00     0.187 C 
HETATM   21  O1  UNL     1       0.651  16.664  -6.084  1.00  0.00    -0.388 OA
HETATM   22  C10 UNL     1       1.223  17.888  -6.428  1.00  0.00     0.187 C 
HETATM   23  C11 UNL     1       0.127  18.659  -7.183  1.00  0.00     0.150 C 
ENDBRANCH  11  18
BRANCH  14  24
HETATM   24  N6  UNL     1      -5.316  18.184  -8.165  1.00  0.00    -0.226 N 
ATOM     25  H6  UNL     1      -5.098  17.188  -8.216  1.00  0.00     0.177 HD
BRANCH  24  26
HETATM   26  C13 UNL     1      -6.610  18.626  -8.614  1.00  0.00     0.140 C 
BRANCH  26  27
HETATM   27  C14 UNL     1      -6.495  19.027 -10.067  1.00  0.00     0.046 C 
BRANCH  27  28
HETATM   28  C15 UNL     1      -7.128  20.387 -10.316  1.00  0.00     0.165 C 
BRANCH  28  29
HETATM   29  O2  UNL     1      -6.247  21.378  -9.882  1.00  0.00    -0.401 OA
ATOM     30  H2  UNL     1      -6.741  22.044  -9.417  1.00  0.00     0.209 HD
ENDBRANCH  28  29
ENDBRANCH  27  28
ENDBRANCH  26  27
ENDBRANCH  24  26
ENDBRANCH  14  24
ENDBRANCH   5   6
ENDBRANCH   4   5
ENDBRANCH   3   4
TORSDOF 9
ENDMDL
MODEL 2
REMARK VINA RESULT: -6.359373246      3.209      6.547
REMARK  9 active torsions:
REMARK  status: ('A' for Active; 'I' for Inactive)
REMARK    1  A    between atoms: C2_3  and  C3_4 
REMARK    2  A    between atoms: C3_4  and  C4_5 
REMARK    3  A    between atoms: C4_5  and  N2_6 
REMARK    4  A    between atoms: C7_11  and  N4_12 
REMARK    5  A    between atoms: C12_20  and  N6_21 
REMARK    6  A    between atoms: N6_21  and  C13_23 
REMARK    7  A    between atoms: C13_23  and  C14_24 
REMARK    8  A    between atoms: C14_24  and  C15_25 
REMARK    9  A    between atoms: C15_25  and  O2_26 
ROOT
HETATM    1  N1  UNL     1       0.280  10.731  -4.558  1.00  0.00    -0.197 NA
HETATM    2  C1  UNL     1      -0.226  11.712  -4.924  1.00  0.00     0.059 C 
HETATM    3  C2  UNL     1      -0.878  12.936  -5.386  1.00  0.00     0.125 C 
ENDROOT
BRANCH   3   4
HETATM    4  C3  UNL     1      -0.942  13.955  -4.266  1.00  0.00     0.034 C 
BRANCH   4   5
HETATM    5  C4  UNL     1      -1.748  15.158  -4.624  1.00  0.00     0.132 C 
BRANCH   5   6
HETATM    6  N2  UNL     1      -0.929  16.318  -4.887  1.00  0.00    -0.327 N 
HETATM    7  C5  UNL     1       0.327  16.521  -4.456  1.00  0.00     0.185 A 
HETATM    8  N3  UNL     1       0.694  17.719  -4.935  1.00  0.00    -0.346 N 
HETATM    9  C6  UNL     1      -0.272  18.302  -5.657  1.00  0.00     0.123 A 
ATOM     10  H3  UNL     1       1.608  18.140  -4.768  1.00  0.00     0.167 HD
HETATM   11  C7  UNL     1      -0.383  19.497  -6.337  1.00  0.00     0.150 A 
HETATM   12  C16 UNL     1      -1.330  17.386  -5.625  1.00  0.00     0.155 A 
HETATM   13  N5  UNL     1      -1.555  19.739  -6.968  1.00  0.00    -0.174 N 
HETATM   14  C12 UNL     1      -2.574  18.863  -6.941  1.00  0.00     0.681 A 
ATOM     15  H5  UNL     1      -1.669  20.613  -7.480  1.00  0.00     0.186 HD
HETATM   16  N7  UNL     1      -2.456  17.701  -6.275  1.00  0.00    -0.174 N 
ATOM     17  H7  UNL     1      -3.239  17.048  -6.264  1.00  0.00     0.186 HD
BRANCH  11  18
HETATM   18  N4  UNL     1       0.693  20.418  -6.365  1.00  0.00    -0.361 N 
HETATM   19  C8  UNL     1       1.849  20.084  -7.174  1.00  0.00     0.150 C 
HETATM   20  C9  UNL     1       2.477  21.298  -7.812  1.00  0.00     0.187 C 
HETATM   21  O1  UNL     1       1.952  22.486  -7.316  1.00  0.00    -0.388 OA
HETATM   22  C10 UNL     1       1.891  22.432  -5.924  1.00  0.00     0.187 C 
HETATM   23  C11 UNL     1       0.610  21.645  -5.597  1.00  0.00     0.150 C 
ENDBRANCH  11  18
BRANCH  14  24
HETATM   24  N6  UNL     1      -3.649  19.185  -7.572  1.00  0.00    -0.226 N 
ATOM     25  H6  UNL     1      -3.809  20.169  -7.788  1.00  0.00     0.177 HD
BRANCH  24  26
HETATM   26  C13 UNL     1      -4.637  18.223  -7.988  1.00  0.00     0.140 C 
BRANCH  26  27
HETATM   27  C14 UNL     1      -5.935  18.955  -8.237  1.00  0.00     0.046 C 
BRANCH  27  28
HETATM   28  C15 UNL     1      -6.582  18.504  -9.537  1.00  0.00     0.165 C 
BRANCH  28  29
HETATM   29  O2  UNL     1      -6.960  17.167  -9.410  1.00  0.00    -0.401 OA
ATOM     30  H2  UNL     1      -7.360  16.884 -10.224  1.00  0.00     0.209 HD
ENDBRANCH  28  29
ENDBRANCH  27  28
ENDBRANCH  26  27
ENDBRANCH  24  26
ENDBRANCH  14  24
ENDBRANCH   5   6
ENDBRANCH   4   5
ENDBRANCH   3   4
TORSDOF 9
ENDMDL
MODEL 3
REMARK VINA RESULT: -6.314388759      3.025      6.542
REMARK  9 active torsions:
REMARK  status: ('A' for Active; 'I' for Inactive)
REMARK    1  A    between atoms: C2_3  and  C3_4 
REMARK    2  A    between atoms: C3_4  and  C4_5 
REMARK    3  A    between atoms: C4_5  and  N2_6 
REMARK    4  A    between atoms: C7_11  and  N4_12 
REMARK    5  A    between atoms: C12_20  and  N6_21 
REMARK    6  A    between atoms: N6_21  and  C13_23 
REMARK    7  A    between atoms: C13_23  and  C14_24 
REMARK    8  A    between atoms: C14_24  and  C15_25 
REMARK    9  A    between atoms: C15_25  and  O2_26 
ROOT
HETATM    1  N1  UNL     1       0.275  10.936  -4.782  1.00  0.00    -0.197 NA
HETATM    2  C1  UNL     1      -0.359  11.910  -4.773  1.00  0.00     0.059 C 
HETATM    3  C2  UNL     1      -1.173  13.125  -4.760  1.00  0.00     0.125 C 
ENDROOT
BRANCH   3   4
HETATM    4  C3  UNL     1      -0.850  13.964  -3.540  1.00  0.00     0.034 C 
BRANCH   4   5
HETATM    5  C4  UNL     1      -1.412  15.342  -3.621  1.00  0.00     0.132 C 
BRANCH   5   6
HETATM    6  N2  UNL     1      -0.548  16.255  -4.333  1.00  0.00    -0.327 N 
HETATM    7  C5  UNL     1       0.762  16.447  -4.114  1.00  0.00     0.185 A 
HETATM    8  N3  UNL     1       1.155  17.375  -4.999  1.00  0.00    -0.346 N 
HETATM    9  C6  UNL     1       0.152  17.794  -5.782  1.00  0.00     0.123 A 
ATOM     10  H3  UNL     1       2.111  17.723  -5.068  1.00  0.00     0.167 HD
HETATM   11  C7  UNL     1       0.046  18.707  -6.811  1.00  0.00     0.150 A 
HETATM   12  C16 UNL     1      -0.959  17.062  -5.347  1.00  0.00     0.155 A 
HETATM   13  N5  UNL     1      -1.174  18.859  -7.375  1.00  0.00    -0.174 N 
HETATM   14  C12 UNL     1      -2.243  18.158  -6.961  1.00  0.00     0.681 A 
ATOM     15  H5  UNL     1      -1.286  19.526  -8.138  1.00  0.00     0.186 HD
HETATM   16  N7  UNL     1      -2.130  17.271  -5.957  1.00  0.00    -0.174 N 
ATOM     17  H7  UNL     1      -2.952  16.748  -5.655  1.00  0.00     0.186 HD
BRANCH  11  18
HETATM   18  N4  UNL     1       1.175  19.444  -7.246  1.00  0.00    -0.361 N 
HETATM   19  C8  UNL     1       1.300  20.818  -6.799  1.00  0.00     0.150 C 
HETATM   20  C9  UNL     1       2.734  21.220  -6.562  1.00  0.00     0.187 C 
HETATM   21  O1  UNL     1       3.633  20.267  -7.030  1.00  0.00    -0.388 OA
HETATM   22  C10 UNL     1       3.267  19.860  -8.312  1.00  0.00     0.187 C 
HETATM   23  C11 UNL     1       2.154  18.817  -8.112  1.00  0.00     0.150 C 
ENDBRANCH  11  18
BRANCH  14  24
HETATM   24  N6  UNL     1      -3.362  18.374  -7.562  1.00  0.00    -0.226 N 
ATOM     25  H6  UNL     1      -3.802  17.601  -8.062  1.00  0.00     0.177 HD
BRANCH  24  26
HETATM   26  C13 UNL     1      -4.021  19.654  -7.562  1.00  0.00     0.140 C 
BRANCH  26  27
HETATM   27  C14 UNL     1      -5.514  19.418  -7.561  1.00  0.00     0.046 C 
BRANCH  27  28
HETATM   28  C15 UNL     1      -5.902  18.331  -8.551  1.00  0.00     0.165 C 
BRANCH  28  29
HETATM   29  O2  UNL     1      -7.224  17.956  -8.311  1.00  0.00    -0.401 OA
ATOM     30  H2  UNL     1      -7.438  17.217  -8.869  1.00  0.00     0.209 HD
ENDBRANCH  28  29
ENDBRANCH  27  28
ENDBRANCH  26  27
ENDBRANCH  24  26
ENDBRANCH  14  24
ENDBRANCH   5   6
ENDBRANCH   4   5
ENDBRANCH   3   4
TORSDOF 9
ENDMDL
MODEL 4
REMARK VINA RESULT: -6.120862594      3.087      6.539
REMARK  9 active torsions:
REMARK  status: ('A' for Active; 'I' for Inactive)
REMARK    1  A    between atoms: C2_3  and  C3_4 
REMARK    2  A    between atoms: C3_4  and  C4_5 
REMARK    3  A    between atoms: C4_5  and  N2_6 
REMARK    4  A    between atoms: C7_11  and  N4_12 
REMARK    5  A    between atoms: C12_20  and  N6_21 
REMARK    6  A    between atoms: N6_21  and  C13_23 
REMARK    7  A    between atoms: C13_23  and  C14_24 
REMARK    8  A    between atoms: C14_24  and  C15_25 
REMARK    9  A    between atoms: C15_25  and  O2_26 
ROOT
HETATM    1  N1  UNL     1       0.063  12.947  -2.029  1.00  0.00    -0.197 NA
HETATM    2  C1  UNL     1      -0.458  12.693  -3.036  1.00  0.00     0.059 C 
HETATM    3  C2  UNL     1      -1.129  12.370  -4.294  1.00  0.00     0.125 C 
ENDROOT
BRANCH   3   4
HETATM    4  C3  UNL     1      -1.135  13.575  -5.214  1.00  0.00     0.034 C 
BRANCH   4   5
HETATM    5  C4  UNL     1      -1.665  14.803  -4.555  1.00  0.00     0.132 C 
BRANCH   5   6
HETATM    6  N2  UNL     1      -0.857  15.970  -4.821  1.00  0.00    -0.327 N 
HETATM    7  C5  UNL     1       0.391  16.193  -4.377  1.00  0.00     0.185 A 
HETATM    8  N3  UNL     1       0.750  17.390  -4.864  1.00  0.00    -0.346 N 
HETATM    9  C6  UNL     1      -0.214  17.953  -5.604  1.00  0.00     0.123 A 
ATOM     10  H3  UNL     1       1.656  17.823  -4.691  1.00  0.00     0.167 HD
HETATM   11  C7  UNL     1      -0.332  19.140  -6.298  1.00  0.00     0.150 A 
HETATM   12  C16 UNL     1      -1.262  17.025  -5.575  1.00  0.00     0.155 A 
HETATM   13  N5  UNL     1      -1.499  19.361  -6.944  1.00  0.00    -0.174 N 
HETATM   14  C12 UNL     1      -2.507  18.473  -6.920  1.00  0.00     0.681 A 
ATOM     15  H5  UNL     1      -1.618  20.229  -7.467  1.00  0.00     0.186 HD
HETATM   16  N7  UNL     1      -2.384  17.320  -6.240  1.00  0.00    -0.174 N 
ATOM     17  H7  UNL     1      -3.160  16.658  -6.232  1.00  0.00     0.186 HD
BRANCH  11  18
HETATM   18  N4  UNL     1       0.733  20.074  -6.323  1.00  0.00    -0.361 N 
HETATM   19  C8  UNL     1       1.872  19.778  -7.171  1.00  0.00     0.150 C 
HETATM   20  C9  UNL     1       2.471  21.019  -7.786  1.00  0.00     0.187 C 
HETATM   21  O1  UNL     1       1.947  22.185  -7.238  1.00  0.00    -0.388 OA
HETATM   22  C10 UNL     1       1.922  22.085  -5.848  1.00  0.00     0.187 C 
HETATM   23  C11 UNL     1       0.658  21.274  -5.514  1.00  0.00     0.150 C 
ENDBRANCH  11  18
BRANCH  14  24
HETATM   24  N6  UNL     1      -3.579  18.776  -7.567  1.00  0.00    -0.226 N 
ATOM     25  H6  UNL     1      -3.896  18.145  -8.305  1.00  0.00     0.177 HD
BRANCH  24  26
HETATM   26  C13 UNL     1      -4.352  19.961  -7.301  1.00  0.00     0.140 C 
BRANCH  26  27
HETATM   27  C14 UNL     1      -5.810  19.637  -7.531  1.00  0.00     0.046 C 
BRANCH  27  28
HETATM   28  C15 UNL     1      -5.972  18.465  -8.486  1.00  0.00     0.165 C 
BRANCH  28  29
HETATM   29  O2  UNL     1      -7.248  17.925  -8.321  1.00  0.00    -0.401 OA
ATOM     30  H2  UNL     1      -7.176  16.978  -8.292  1.00  0.00     0.209 HD
ENDBRANCH  28  29
ENDBRANCH  27  28
ENDBRANCH  26  27
ENDBRANCH  24  26
ENDBRANCH  14  24
ENDBRANCH   5   6
ENDBRANCH   4   5
ENDBRANCH   3   4
TORSDOF 9
ENDMDL
MODEL 5
REMARK VINA RESULT: -6.104580929      3.010      6.441
REMARK  9 active torsions:
REMARK  status: ('A' for Active; 'I' for Inactive)
REMARK    1  A    between atoms: C2_3  and  C3_4 
REMARK    2  A    between atoms: C3_4  and  C4_5 
REMARK    3  A    between atoms: C4_5  and  N2_6 
REMARK    4  A    between atoms: C7_11  and  N4_12 
REMARK    5  A    between atoms: C12_20  and  N6_21 
REMARK    6  A    between atoms: N6_21  and  C13_23 
REMARK    7  A    between atoms: C13_23  and  C14_24 
REMARK    8  A    between atoms: C14_24  and  C15_25 
REMARK    9  A    between atoms: C15_25  and  O2_26 
ROOT
HETATM    1  N1  UNL     1       1.215  12.968  -2.706  1.00  0.00    -0.197 NA
HETATM    2  C1  UNL     1       0.244  12.769  -3.314  1.00  0.00     0.059 C 
HETATM    3  C2  UNL     1      -0.987  12.518  -4.062  1.00  0.00     0.125 C 
ENDROOT
BRANCH   3   4
HETATM    4  C3  UNL     1      -1.327  13.711  -4.934  1.00  0.00     0.034 C 
BRANCH   4   5
HETATM    5  C4  UNL     1      -1.580  14.950  -4.145  1.00  0.00     0.132 C 
BRANCH   5   6
HETATM    6  N2  UNL     1      -0.798  16.073  -4.608  1.00  0.00    -0.327 N 
HETATM    7  C5  UNL     1       0.434  16.412  -4.195  1.00  0.00     0.185 A 
HETATM    8  N3  UNL     1       0.769  17.510  -4.888  1.00  0.00    -0.346 N 
HETATM    9  C6  UNL     1      -0.195  17.899  -5.732  1.00  0.00     0.123 A 
ATOM     10  H3  UNL     1       1.659  17.996  -4.783  1.00  0.00     0.167 HD
HETATM   11  C7  UNL     1      -0.331  18.934  -6.633  1.00  0.00     0.150 A 
HETATM   12  C16 UNL     1      -1.218  16.960  -5.549  1.00  0.00     0.155 A 
HETATM   13  N5  UNL     1      -1.491  18.998  -7.327  1.00  0.00    -0.174 N 
HETATM   14  C12 UNL     1      -2.475  18.098  -7.155  1.00  0.00     0.681 A 
ATOM     15  H5  UNL     1      -1.623  19.751  -8.002  1.00  0.00     0.186 HD
HETATM   16  N7  UNL     1      -2.333  17.093  -6.274  1.00  0.00    -0.174 N 
ATOM     17  H7  UNL     1      -3.090  16.420  -6.156  1.00  0.00     0.186 HD
BRANCH  11  18
HETATM   18  N4  UNL     1       0.708  19.880  -6.813  1.00  0.00    -0.361 N 
HETATM   19  C8  UNL     1       0.607  21.140  -6.101  1.00  0.00     0.150 C 
HETATM   20  C9  UNL     1       1.951  21.663  -5.660  1.00  0.00     0.187 C 
HETATM   21  O1  UNL     1       3.005  20.946  -6.218  1.00  0.00    -0.388 OA
HETATM   22  C10 UNL     1       2.784  20.765  -7.582  1.00  0.00     0.187 C 
HETATM   23  C11 UNL     1       1.820  19.571  -7.689  1.00  0.00     0.150 C 
ENDBRANCH  11  18
BRANCH  14  24
HETATM   24  N6  UNL     1      -3.541  18.245  -7.863  1.00  0.00    -0.226 N 
ATOM     25  H6  UNL     1      -3.669  17.644  -8.678  1.00  0.00     0.177 HD
BRANCH  24  26
HETATM   26  C13 UNL     1      -4.561  19.214  -7.559  1.00  0.00     0.140 C 
BRANCH  26  27
HETATM   27  C14 UNL     1      -5.888  18.673  -8.042  1.00  0.00     0.046 C 
BRANCH  27  28
HETATM   28  C15 UNL     1      -6.215  19.181  -9.437  1.00  0.00     0.165 C 
BRANCH  28  29
HETATM   29  O2  UNL     1      -6.858  18.165 -10.145  1.00  0.00    -0.401 OA
ATOM     30  H2  UNL     1      -7.254  18.538 -10.924  1.00  0.00     0.209 HD
ENDBRANCH  28  29
ENDBRANCH  27  28
ENDBRANCH  26  27
ENDBRANCH  24  26
ENDBRANCH  14  24
ENDBRANCH   5   6
ENDBRANCH   4   5
ENDBRANCH   3   4
TORSDOF 9
ENDMDL
