MODEL 1
REMARK VINA RESULT: -6.851948861      0.000      0.000
REMARK  4 active torsions:
REMARK  status: ('A' for Active; 'I' for Inactive)
REMARK    1  A    between atoms: O1_2  and  C2_3 
REMARK    2  A    between atoms: C8_9  and  O2_10 
REMARK    3  A    between atoms: C13_16  and  S1_17 
REMARK    4  A    between atoms: S1_17  and  S2_18 
ROOT
HETATM    1  C2  UNL     1       4.681  25.283  -1.506  1.00  0.00     0.155 C 
HETATM    2  C3  UNL     1       4.341  26.071  -2.752  1.00  0.00     0.036 C 
HETATM    3  C4  UNL     1       2.997  25.843  -3.320  1.00  0.00     0.012 C 
HETATM    4  C5  UNL     1       2.147  24.802  -2.682  1.00  0.00    -0.037 C 
HETATM    5  C6  UNL     1       1.205  24.205  -3.698  1.00  0.00     0.015 C 
HETATM    6  C7  UNL     1       2.944  23.719  -1.957  1.00  0.00     0.050 C 
HETATM    7  C8  UNL     1       3.547  24.625  -0.853  1.00  0.00     0.089 C 
HETATM    8  C9  UNL     1       2.357  25.295  -0.387  1.00  0.00     0.035 C 
HETATM    9  C10 UNL     1       2.373  26.431   0.560  1.00  0.00     0.023 C 
HETATM   10  C11 UNL     1       2.852  27.753   0.130  1.00  0.00     0.015 C 
HETATM   11  C12 UNL     1       2.005  28.773   0.922  1.00  0.00     0.048 C 
HETATM   12  C13 UNL     1       0.761  27.986   1.091  1.00  0.00    -0.008 C 
HETATM   13  C15 UNL     1       0.940  26.701   0.896  1.00  0.00    -0.062 C 
HETATM   14  C16 UNL     1      -0.187  25.679   1.004  1.00  0.00     0.036 C 
HETATM   15  C17 UNL     1      -0.811  25.459  -0.356  1.00  0.00     0.005 C 
HETATM   16  C18 UNL     1       0.071  24.741  -1.313  1.00  0.00     0.006 C 
HETATM   17  C19 UNL     1       1.378  25.473  -1.539  1.00  0.00     0.001 C 
ENDROOT
BRANCH  12  18
HETATM   18  S1  UNL     1      -0.856  28.692   1.521  1.00  0.00    -0.062 SA
BRANCH  18  19
HETATM   19  S2  UNL     1      -1.972  29.063  -0.253  1.00  0.00    -0.097 SA
HETATM   20  C14 UNL     1      -3.512  28.099  -0.274  1.00  0.00     0.103 C 
ENDBRANCH  18  19
ENDBRANCH  12  18
BRANCH   7  21
HETATM   21  O2  UNL     1       4.073  23.701   0.084  1.00  0.00    -0.387 OA
ATOM     22  H2  UNL     1       3.478  22.961   0.119  1.00  0.00     0.210 HD
ENDBRANCH   7  21
BRANCH   1  23
HETATM   23  O1  UNL     1       5.561  25.954  -0.667  1.00  0.00    -0.388 OA
HETATM   24  C1  UNL     1       6.196  27.026  -1.218  1.00  0.00     0.202 C 
ENDBRANCH   1  23
TORSDOF 4
ENDMDL
MODEL 2
REMARK VINA RESULT: -6.822124986      1.155      1.885
REMARK  4 active torsions:
REMARK  status: ('A' for Active; 'I' for Inactive)
REMARK    1  A    between atoms: O1_2  and  C2_3 
REMARK    2  A    between atoms: C8_9  and  O2_10 
REMARK    3  A    between atoms: C13_16  and  S1_17 
REMARK    4  A    between atoms: S1_17  and  S2_18 
ROOT
HETATM    1  C2  UNL     1       4.789  24.862  -1.912  1.00  0.00     0.155 C 
HETATM    2  C3  UNL     1       4.381  25.602  -3.166  1.00  0.00     0.036 C 
HETATM    3  C4  UNL     1       2.954  25.516  -3.539  1.00  0.00     0.012 C 
HETATM    4  C5  UNL     1       2.079  24.642  -2.714  1.00  0.00    -0.037 C 
HETATM    5  C6  UNL     1       0.942  24.107  -3.549  1.00  0.00     0.015 C 
HETATM    6  C7  UNL     1       2.829  23.514  -2.006  1.00  0.00     0.050 C 
HETATM    7  C8  UNL     1       3.682  24.405  -1.067  1.00  0.00     0.089 C 
HETATM    8  C9  UNL     1       2.657  25.256  -0.513  1.00  0.00     0.035 C 
HETATM    9  C10 UNL     1       2.941  26.441   0.325  1.00  0.00     0.023 C 
HETATM   10  C11 UNL     1       3.515  27.657  -0.271  1.00  0.00     0.015 C 
HETATM   11  C12 UNL     1       2.914  28.830   0.533  1.00  0.00     0.048 C 
HETATM   12  C13 UNL     1       1.618  28.227   0.923  1.00  0.00    -0.008 C 
HETATM   13  C15 UNL     1       1.610  26.920   0.816  1.00  0.00    -0.062 C 
HETATM   14  C16 UNL     1       0.392  26.065   1.151  1.00  0.00     0.036 C 
HETATM   15  C17 UNL     1      -0.433  25.839  -0.095  1.00  0.00     0.005 C 
HETATM   16  C18 UNL     1       0.216  24.948  -1.093  1.00  0.00     0.006 C 
HETATM   17  C19 UNL     1       1.560  25.484  -1.542  1.00  0.00     0.001 C 
ENDROOT
BRANCH  12  18
HETATM   18  S1  UNL     1       0.173  29.169   1.493  1.00  0.00    -0.062 SA
BRANCH  18  19
HETATM   19  S2  UNL     1       0.811  30.812   2.687  1.00  0.00    -0.097 SA
HETATM   20  C14 UNL     1       2.080  30.301   3.883  1.00  0.00     0.103 C 
ENDBRANCH  18  19
ENDBRANCH  12  18
BRANCH   7  21
HETATM   21  O2  UNL     1       4.213  23.485  -0.130  1.00  0.00    -0.387 OA
ATOM     22  H2  UNL     1       3.789  23.649   0.704  1.00  0.00     0.210 HD
ENDBRANCH   7  21
BRANCH   1  23
HETATM   23  O1  UNL     1       5.850  25.465  -1.250  1.00  0.00    -0.388 OA
HETATM   24  C1  UNL     1       6.591  26.332  -1.996  1.00  0.00     0.202 C 
ENDBRANCH   1  23
TORSDOF 4
ENDMDL
MODEL 3
REMARK VINA RESULT: -6.775021304      1.037      1.065
REMARK  4 active torsions:
REMARK  status: ('A' for Active; 'I' for Inactive)
REMARK    1  A    between atoms: O1_2  and  C2_3 
REMARK    2  A    between atoms: C8_9  and  O2_10 
REMARK    3  A    between atoms: C13_16  and  S1_17 
REMARK    4  A    between atoms: S1_17  and  S2_18 
ROOT
HETATM    1  C2  UNL     1       4.746  24.937  -1.834  1.00  0.00     0.155 C 
HETATM    2  C3  UNL     1       4.353  25.692  -3.085  1.00  0.00     0.036 C 
HETATM    3  C4  UNL     1       2.944  25.560  -3.509  1.00  0.00     0.012 C 
HETATM    4  C5  UNL     1       2.076  24.633  -2.737  1.00  0.00    -0.037 C 
HETATM    5  C6  UNL     1       0.990  24.077  -3.624  1.00  0.00     0.015 C 
HETATM    6  C7  UNL     1       2.844  23.518  -2.030  1.00  0.00     0.050 C 
HETATM    7  C8  UNL     1       3.629  24.417  -1.040  1.00  0.00     0.089 C 
HETATM    8  C9  UNL     1       2.553  25.214  -0.503  1.00  0.00     0.035 C 
HETATM    9  C10 UNL     1       2.761  26.388   0.373  1.00  0.00     0.023 C 
HETATM   10  C11 UNL     1       3.307  27.639  -0.175  1.00  0.00     0.015 C 
HETATM   11  C12 UNL     1       2.634  28.768   0.635  1.00  0.00     0.048 C 
HETATM   12  C13 UNL     1       1.350  28.107   0.965  1.00  0.00    -0.008 C 
HETATM   13  C15 UNL     1       1.397  26.804   0.827  1.00  0.00    -0.062 C 
HETATM   14  C16 UNL     1       0.202  25.895   1.097  1.00  0.00     0.036 C 
HETATM   15  C17 UNL     1      -0.570  25.669  -0.182  1.00  0.00     0.005 C 
HETATM   16  C18 UNL     1       0.147  24.828  -1.177  1.00  0.00     0.006 C 
HETATM   17  C19 UNL     1       1.484  25.426  -1.565  1.00  0.00     0.001 C 
ENDROOT
BRANCH  12  18
HETATM   18  S1  UNL     1      -0.150  28.978   1.504  1.00  0.00    -0.062 SA
BRANCH  18  19
HETATM   19  S2  UNL     1      -0.162  30.951   0.704  1.00  0.00    -0.097 SA
HETATM   20  C14 UNL     1      -1.444  31.136  -0.569  1.00  0.00     0.103 C 
ENDBRANCH  18  19
ENDBRANCH  12  18
BRANCH   7  21
HETATM   21  O2  UNL     1       4.163  23.495  -0.107  1.00  0.00    -0.387 OA
ATOM     22  H2  UNL     1       5.074  23.724   0.033  1.00  0.00     0.210 HD
ENDBRANCH   7  21
BRANCH   1  23
HETATM   23  O1  UNL     1       5.759  25.563  -1.121  1.00  0.00    -0.388 OA
HETATM   24  C1  UNL     1       6.510  26.454  -1.827  1.00  0.00     0.202 C 
ENDBRANCH   1  23
TORSDOF 4
ENDMDL
MODEL 4
REMARK VINA RESULT: -6.725858712      3.901      6.523
REMARK  4 active torsions:
REMARK  status: ('A' for Active; 'I' for Inactive)
REMARK    1  A    between atoms: O1_2  and  C2_3 
REMARK    2  A    between atoms: C8_9  and  O2_10 
REMARK    3  A    between atoms: C13_16  and  S1_17 
REMARK    4  A    between atoms: S1_17  and  S2_18 
ROOT
HETATM    1  C2  UNL     1       3.171  24.947  -1.258  1.00  0.00     0.155 C 
HETATM    2  C3  UNL     1       4.099  23.842  -0.804  1.00  0.00     0.036 C 
HETATM    3  C4  UNL     1       5.120  23.408  -1.780  1.00  0.00     0.012 C 
HETATM    4  C5  UNL     1       5.081  24.018  -3.135  1.00  0.00    -0.037 C 
HETATM    5  C6  UNL     1       5.636  23.054  -4.155  1.00  0.00     0.015 C 
HETATM    6  C7  UNL     1       3.699  24.525  -3.541  1.00  0.00     0.050 C 
HETATM    7  C8  UNL     1       3.581  25.648  -2.478  1.00  0.00     0.089 C 
HETATM    8  C9  UNL     1       4.847  26.315  -2.664  1.00  0.00     0.035 C 
HETATM    9  C10 UNL     1       5.354  27.374  -1.764  1.00  0.00     0.023 C 
HETATM   10  C11 UNL     1       5.820  27.041  -0.410  1.00  0.00     0.015 C 
HETATM   11  C12 UNL     1       6.969  28.032  -0.117  1.00  0.00     0.048 C 
HETATM   12  C13 UNL     1       7.465  28.251  -1.496  1.00  0.00    -0.008 C 
HETATM   13  C15 UNL     1       6.598  27.897  -2.413  1.00  0.00    -0.062 C 
HETATM   14  C16 UNL     1       6.873  28.017  -3.909  1.00  0.00     0.036 C 
HETATM   15  C17 UNL     1       7.452  26.721  -4.429  1.00  0.00     0.005 C 
HETATM   16  C18 UNL     1       6.479  25.596  -4.456  1.00  0.00     0.006 C 
HETATM   17  C19 UNL     1       5.908  25.308  -3.082  1.00  0.00     0.001 C 
ENDROOT
BRANCH  12  18
HETATM   18  S1  UNL     1       9.097  28.936  -1.906  1.00  0.00    -0.062 SA
BRANCH  18  19
HETATM   19  S2  UNL     1      10.214  29.252  -0.121  1.00  0.00    -0.097 SA
HETATM   20  C14 UNL     1      10.700  27.674   0.637  1.00  0.00     0.103 C 
ENDBRANCH  18  19
ENDBRANCH  12  18
BRANCH   7  21
HETATM   21  O2  UNL     1       2.474  26.411  -2.923  1.00  0.00    -0.387 OA
ATOM     22  H2  UNL     1       2.649  26.672  -3.820  1.00  0.00     0.210 HD
ENDBRANCH   7  21
BRANCH   1  23
HETATM   23  O1  UNL     1       2.737  25.751  -0.213  1.00  0.00    -0.388 OA
HETATM   24  C1  UNL     1       1.505  25.449   0.286  1.00  0.00     0.202 C 
ENDBRANCH   1  23
TORSDOF 4
ENDMDL
MODEL 5
REMARK VINA RESULT: -6.611322965      1.959      2.664
REMARK  4 active torsions:
REMARK  status: ('A' for Active; 'I' for Inactive)
REMARK    1  A    between atoms: O1_2  and  C2_3 
REMARK    2  A    between atoms: C8_9  and  O2_10 
REMARK    3  A    between atoms: C13_16  and  S1_17 
REMARK    4  A    between atoms: S1_17  and  S2_18 
ROOT
HETATM    1  C2  UNL     1       3.555  25.799  -0.874  1.00  0.00     0.155 C 
HETATM    2  C3  UNL     1       3.413  26.545  -2.183  1.00  0.00     0.036 C 
HETATM    3  C4  UNL     1       2.815  25.788  -3.302  1.00  0.00     0.012 C 
HETATM    4  C5  UNL     1       2.501  24.353  -3.073  1.00  0.00    -0.037 C 
HETATM    5  C6  UNL     1       2.586  23.589  -4.371  1.00  0.00     0.015 C 
HETATM    6  C7  UNL     1       3.357  23.703  -1.986  1.00  0.00     0.050 C 
HETATM    7  C8  UNL     1       2.821  24.534  -0.792  1.00  0.00     0.089 C 
HETATM    8  C9  UNL     1       1.399  24.387  -0.990  1.00  0.00     0.035 C 
HETATM    9  C10 UNL     1       0.383  25.144  -0.226  1.00  0.00     0.023 C 
HETATM   10  C11 UNL     1       0.187  26.581  -0.466  1.00  0.00     0.015 C 
HETATM   11  C12 UNL     1      -1.319  26.833  -0.239  1.00  0.00     0.048 C 
HETATM   12  C13 UNL     1      -1.854  25.506  -0.625  1.00  0.00    -0.008 C 
HETATM   13  C15 UNL     1      -0.939  24.567  -0.626  1.00  0.00    -0.062 C 
HETATM   14  C16 UNL     1      -1.235  23.117  -0.995  1.00  0.00     0.036 C 
HETATM   15  C17 UNL     1      -0.982  22.902  -2.470  1.00  0.00     0.005 C 
HETATM   16  C18 UNL     1       0.456  22.954  -2.847  1.00  0.00     0.006 C 
HETATM   17  C19 UNL     1       1.091  24.279  -2.476  1.00  0.00     0.001 C 
ENDROOT
BRANCH  12  18
HETATM   18  S1  UNL     1      -3.588  25.181  -1.059  1.00  0.00    -0.062 SA
BRANCH  18  19
HETATM   19  S2  UNL     1      -4.859  26.510   0.014  1.00  0.00    -0.097 SA
HETATM   20  C14 UNL     1      -4.676  26.288   1.808  1.00  0.00     0.103 C 
ENDBRANCH  18  19
ENDBRANCH  12  18
BRANCH   7  21
HETATM   21  O2  UNL     1       3.303  23.834   0.342  1.00  0.00    -0.387 OA
ATOM     22  H2  UNL     1       2.732  23.088   0.481  1.00  0.00     0.210 HD
ENDBRANCH   7  21
BRANCH   1  23
HETATM   23  O1  UNL     1       3.461  26.630   0.234  1.00  0.00    -0.388 OA
HETATM   24  C1  UNL     1       3.644  27.958  -0.012  1.00  0.00     0.202 C 
ENDBRANCH   1  23
TORSDOF 4
ENDMDL
