MODEL 1
REMARK VINA RESULT: -6.314630280      0.000      0.000
REMARK  3 active torsions:
REMARK  status: ('A' for Active; 'I' for Inactive)
REMARK    1  A    between atoms: C2_2  and  C4_4 
REMARK    2  A    between atoms: C5_5  and  C6_6 
REMARK    3  A    between atoms: C6_6  and  C7_7 
ROOT
HETATM    1  C6  UNL     1     -11.938   2.796  37.523  1.00  0.00     0.223 C 
HETATM    2  C8  UNL     1     -11.364   1.434  37.295  1.00  0.00     0.087 C 
HETATM    3  C9  UNL     1     -10.976   2.016  35.973  1.00  0.00     0.174 C 
HETATM    4  O1  UNL     1     -11.787   3.124  36.177  1.00  0.00    -0.359 OA
ENDROOT
BRANCH   1   5
HETATM    5  C5  UNL     1     -13.333   2.783  37.956  1.00  0.00    -0.058 C 
HETATM    6  C4  UNL     1     -14.485   2.754  38.315  1.00  0.00    -0.099 C 
BRANCH   6   7
HETATM    7  C2  UNL     1     -15.890   2.693  38.756  1.00  0.00     0.057 C 
HETATM    8  C1  UNL     1     -16.369   4.110  38.947  1.00  0.00     0.023 C 
HETATM    9  C3  UNL     1     -16.733   2.017  37.686  1.00  0.00     0.023 C 
ENDBRANCH   6   7
ENDBRANCH   1   5
BRANCH   1  10
HETATM   10  C7  UNL     1     -11.111   3.641  38.467  1.00  0.00     0.430 C 
HETATM   11  F1  UNL     1     -11.632   3.633  39.747  1.00  0.00    -0.167 F 
HETATM   12  F2  UNL     1     -11.135   4.937  37.990  1.00  0.00    -0.167 F 
HETATM   13  F3  UNL     1      -9.817   3.181  38.540  1.00  0.00    -0.167 F 
ENDBRANCH   1  10
TORSDOF 3
ENDMDL
MODEL 2
REMARK VINA RESULT: -6.292378088      2.027      2.466
REMARK  3 active torsions:
REMARK  status: ('A' for Active; 'I' for Inactive)
REMARK    1  A    between atoms: C2_2  and  C4_4 
REMARK    2  A    between atoms: C5_5  and  C6_6 
REMARK    3  A    between atoms: C6_6  and  C7_7 
ROOT
HETATM    1  C6  UNL     1     -12.395   3.531  37.731  1.00  0.00     0.223 C 
HETATM    2  C8  UNL     1     -11.519   4.474  38.495  1.00  0.00     0.087 C 
HETATM    3  C9  UNL     1     -10.566   3.321  38.472  1.00  0.00     0.174 C 
HETATM    4  O1  UNL     1     -11.558   2.457  38.028  1.00  0.00    -0.359 OA
ENDROOT
BRANCH   1   5
HETATM    5  C5  UNL     1     -13.735   3.385  38.293  1.00  0.00    -0.058 C 
HETATM    6  C4  UNL     1     -14.843   3.283  38.761  1.00  0.00    -0.099 C 
BRANCH   6   7
HETATM    7  C2  UNL     1     -16.195   3.182  39.337  1.00  0.00     0.057 C 
HETATM    8  C1  UNL     1     -16.815   4.557  39.287  1.00  0.00     0.023 C 
HETATM    9  C3  UNL     1     -17.034   2.222  38.508  1.00  0.00     0.023 C 
ENDBRANCH   6   7
ENDBRANCH   1   5
BRANCH   1  10
HETATM   10  C7  UNL     1     -12.484   3.863  36.258  1.00  0.00     0.430 C 
HETATM   11  F1  UNL     1     -13.791   3.831  35.807  1.00  0.00    -0.167 F 
HETATM   12  F2  UNL     1     -11.759   2.906  35.574  1.00  0.00    -0.167 F 
HETATM   13  F3  UNL     1     -11.985   5.118  36.000  1.00  0.00    -0.167 F 
ENDBRANCH   1  10
TORSDOF 3
ENDMDL
MODEL 3
REMARK VINA RESULT: -6.241941045      1.996      2.467
REMARK  3 active torsions:
REMARK  status: ('A' for Active; 'I' for Inactive)
REMARK    1  A    between atoms: C2_2  and  C4_4 
REMARK    2  A    between atoms: C5_5  and  C6_6 
REMARK    3  A    between atoms: C6_6  and  C7_7 
ROOT
HETATM    1  C6  UNL     1     -12.383   3.494  37.762  1.00  0.00     0.223 C 
HETATM    2  C8  UNL     1     -11.511   4.451  38.513  1.00  0.00     0.087 C 
HETATM    3  C9  UNL     1     -10.561   3.295  38.522  1.00  0.00     0.174 C 
HETATM    4  O1  UNL     1     -11.551   2.425  38.087  1.00  0.00    -0.359 OA
ENDROOT
BRANCH   1   5
HETATM    5  C5  UNL     1     -13.728   3.362  38.315  1.00  0.00    -0.058 C 
HETATM    6  C4  UNL     1     -14.846   3.267  38.760  1.00  0.00    -0.099 C 
BRANCH   6   7
HETATM    7  C2  UNL     1     -16.217   3.169  39.288  1.00  0.00     0.057 C 
HETATM    8  C1  UNL     1     -16.826   4.548  39.236  1.00  0.00     0.023 C 
HETATM    9  C3  UNL     1     -17.034   2.226  38.419  1.00  0.00     0.023 C 
ENDBRANCH   6   7
ENDBRANCH   1   5
BRANCH   1  10
HETATM   10  C7  UNL     1     -12.459   3.796  36.281  1.00  0.00     0.430 C 
HETATM   11  F1  UNL     1     -11.706   2.904  35.540  1.00  0.00    -0.167 F 
HETATM   12  F2  UNL     1     -11.950   5.067  36.091  1.00  0.00    -0.167 F 
HETATM   13  F3  UNL     1     -13.754   3.727  35.826  1.00  0.00    -0.167 F 
ENDBRANCH   1  10
TORSDOF 3
ENDMDL
MODEL 4
REMARK VINA RESULT: -6.223809833      2.009      2.892
REMARK  3 active torsions:
REMARK  status: ('A' for Active; 'I' for Inactive)
REMARK    1  A    between atoms: C2_2  and  C4_4 
REMARK    2  A    between atoms: C5_5  and  C6_6 
REMARK    3  A    between atoms: C6_6  and  C7_7 
ROOT
HETATM    1  C6  UNL     1     -12.023   2.711  39.038  1.00  0.00     0.223 C 
HETATM    2  C8  UNL     1     -11.165   3.885  39.391  1.00  0.00     0.087 C 
HETATM    3  C9  UNL     1     -11.010   3.152  40.686  1.00  0.00     0.174 C 
HETATM    4  O1  UNL     1     -12.040   2.279  40.363  1.00  0.00    -0.359 OA
ENDROOT
BRANCH   1   5
HETATM    5  C5  UNL     1     -13.345   3.076  38.537  1.00  0.00    -0.058 C 
HETATM    6  C4  UNL     1     -14.431   3.380  38.106  1.00  0.00    -0.099 C 
BRANCH   6   7
HETATM    7  C2  UNL     1     -15.746   3.755  37.557  1.00  0.00     0.057 C 
HETATM    8  C1  UNL     1     -16.521   2.482  37.322  1.00  0.00     0.023 C 
HETATM    9  C3  UNL     1     -16.492   4.619  38.561  1.00  0.00     0.023 C 
ENDBRANCH   6   7
ENDBRANCH   1   5
BRANCH   1  10
HETATM   10  C7  UNL     1     -11.352   1.751  38.079  1.00  0.00     0.430 C 
HETATM   11  F1  UNL     1     -11.846   1.887  36.794  1.00  0.00    -0.167 F 
HETATM   12  F2  UNL     1     -11.621   0.470  38.521  1.00  0.00    -0.167 F 
HETATM   13  F3  UNL     1      -9.995   1.967  38.029  1.00  0.00    -0.167 F 
ENDBRANCH   1  10
TORSDOF 3
ENDMDL
MODEL 5
REMARK VINA RESULT: -6.199389376      2.019      2.845
REMARK  3 active torsions:
REMARK  status: ('A' for Active; 'I' for Inactive)
REMARK    1  A    between atoms: C2_2  and  C4_4 
REMARK    2  A    between atoms: C5_5  and  C6_6 
REMARK    3  A    between atoms: C6_6  and  C7_7 
ROOT
HETATM    1  C6  UNL     1     -12.033   2.716  39.043  1.00  0.00     0.223 C 
HETATM    2  C8  UNL     1     -11.148   3.876  39.369  1.00  0.00     0.087 C 
HETATM    3  C9  UNL     1     -11.000   3.164  40.676  1.00  0.00     0.174 C 
HETATM    4  O1  UNL     1     -12.052   2.309  40.376  1.00  0.00    -0.359 OA
ENDROOT
BRANCH   1   5
HETATM    5  C5  UNL     1     -13.351   3.101  38.543  1.00  0.00    -0.058 C 
HETATM    6  C4  UNL     1     -14.433   3.419  38.113  1.00  0.00    -0.099 C 
BRANCH   6   7
HETATM    7  C2  UNL     1     -15.744   3.805  37.565  1.00  0.00     0.057 C 
HETATM    8  C1  UNL     1     -16.524   2.539  37.311  1.00  0.00     0.023 C 
HETATM    9  C3  UNL     1     -16.491   4.660  38.577  1.00  0.00     0.023 C 
ENDBRANCH   6   7
ENDBRANCH   1   5
BRANCH   1  10
HETATM   10  C7  UNL     1     -11.391   1.724  38.097  1.00  0.00     0.430 C 
HETATM   11  F1  UNL     1     -10.019   1.883  38.048  1.00  0.00    -0.167 F 
HETATM   12  F2  UNL     1     -11.907   1.960  36.837  1.00  0.00    -0.167 F 
HETATM   13  F3  UNL     1     -11.648   0.431  38.486  1.00  0.00    -0.167 F 
ENDBRANCH   1  10
TORSDOF 3
ENDMDL
