MODEL 1
REMARK VINA RESULT: -7.235930066      0.000      0.000
REMARK  5 active torsions:
REMARK  status: ('A' for Active; 'I' for Inactive)
REMARK    1  A    between atoms: C2_2  and  C3_3 
REMARK    2  A    between atoms: C3_3  and  O1_4 
REMARK    3  A    between atoms: O1_4  and  C4_5 
REMARK    4  A    between atoms: C7_8  and  N1_9 
REMARK    5  A    between atoms: C7_8  and  C8_13 
ROOT
HETATM    1  C4  UNL     1     -14.736  -3.368 -37.346  1.00  0.00     0.121 C 
HETATM    2  C5  UNL     1     -13.935  -3.227 -38.636  1.00  0.00     0.035 C 
HETATM    3  C6  UNL     1     -12.768  -2.338 -38.252  1.00  0.00     0.051 C 
HETATM    4  C7  UNL     1     -11.877  -3.187 -37.390  1.00  0.00     0.220 C 
HETATM    5  C9  UNL     1     -12.527  -3.748 -36.188  1.00  0.00     0.051 C 
HETATM    6  C10 UNL     1     -13.974  -4.009 -36.250  1.00  0.00     0.035 C 
ENDROOT
BRANCH   4   7
HETATM    7  N1  UNL     1     -11.425  -4.303 -38.234  1.00  0.00    -0.062 N 
ATOM      8  H13 UNL     1     -11.817  -4.282 -39.176  1.00  0.00     0.275 HD
ATOM      9  H12 UNL     1     -10.444  -4.234 -38.505  1.00  0.00     0.275 HD
ATOM     10  H11 UNL     1     -11.644  -5.158 -37.723  1.00  0.00     0.275 HD
ENDBRANCH   4   7
BRANCH   4  11
HETATM   11  C8  UNL     1     -10.622  -2.396 -37.054  1.00  0.00     0.420 C 
HETATM   12  F1  UNL     1      -9.509  -2.915 -37.667  1.00  0.00    -0.168 F 
HETATM   13  F2  UNL     1     -10.443  -2.265 -35.700  1.00  0.00    -0.168 F 
HETATM   14  F3  UNL     1     -10.818  -1.119 -37.570  1.00  0.00    -0.168 F 
ENDBRANCH   4  11
BRANCH   1  15
HETATM   15  O1  UNL     1     -15.917  -4.052 -37.551  1.00  0.00    -0.385 OA
BRANCH  15  16
HETATM   16  C3  UNL     1     -16.031  -4.469 -38.896  1.00  0.00     0.177 C 
BRANCH  16  17
HETATM   17  C2  UNL     1     -17.355  -5.149 -39.098  1.00  0.00    -0.022 A 
HETATM   18  C1  UNL     1     -18.550  -4.339 -38.613  1.00  0.00     0.017 C 
HETATM   19  C11 UNL     1     -17.410  -6.641 -38.973  1.00  0.00     0.012 A 
HETATM   20  C12 UNL     1     -17.599  -5.970 -40.306  1.00  0.00     0.012 A 
ENDBRANCH  16  17
ENDBRANCH  15  16
ENDBRANCH   1  15
TORSDOF 5
ENDMDL
MODEL 2
REMARK VINA RESULT: -7.179292749      2.329      3.468
REMARK  5 active torsions:
REMARK  status: ('A' for Active; 'I' for Inactive)
REMARK    1  A    between atoms: C2_2  and  C3_3 
REMARK    2  A    between atoms: C3_3  and  O1_4 
REMARK    3  A    between atoms: O1_4  and  C4_5 
REMARK    4  A    between atoms: C7_8  and  N1_9 
REMARK    5  A    between atoms: C7_8  and  C8_13 
ROOT
HETATM    1  C4  UNL     1     -14.893  -2.818 -39.579  1.00  0.00     0.121 C 
HETATM    2  C5  UNL     1     -14.172  -2.692 -38.241  1.00  0.00     0.035 C 
HETATM    3  C6  UNL     1     -12.852  -3.406 -38.464  1.00  0.00     0.051 C 
HETATM    4  C7  UNL     1     -12.053  -2.508 -39.365  1.00  0.00     0.220 C 
HETATM    5  C9  UNL     1     -12.699  -2.188 -40.654  1.00  0.00     0.051 C 
HETATM    6  C10 UNL     1     -14.171  -2.170 -40.698  1.00  0.00     0.035 C 
ENDROOT
BRANCH   4   7
HETATM    7  N1  UNL     1     -11.848  -1.254 -38.626  1.00  0.00    -0.062 N 
ATOM      8  H13 UNL     1     -11.692  -0.449 -39.232  1.00  0.00     0.275 HD
ATOM      9  H12 UNL     1     -12.695  -0.908 -38.174  1.00  0.00     0.275 HD
ATOM     10  H11 UNL     1     -11.083  -1.425 -37.975  1.00  0.00     0.275 HD
ENDBRANCH   4   7
BRANCH   4  11
HETATM   11  C8  UNL     1     -10.665  -3.106 -39.546  1.00  0.00     0.420 C 
HETATM   12  F1  UNL     1      -9.699  -2.353 -38.928  1.00  0.00    -0.168 F 
HETATM   13  F2  UNL     1     -10.369  -3.331 -40.867  1.00  0.00    -0.168 F 
HETATM   14  F3  UNL     1     -10.690  -4.344 -38.912  1.00  0.00    -0.168 F 
ENDBRANCH   4  11
BRANCH   1  15
HETATM   15  O1  UNL     1     -16.181  -2.326 -39.513  1.00  0.00    -0.385 OA
BRANCH  15  16
HETATM   16  C3  UNL     1     -17.004  -3.171 -38.736  1.00  0.00     0.177 C 
BRANCH  16  17
HETATM   17  C2  UNL     1     -17.971  -2.338 -37.945  1.00  0.00    -0.022 A 
HETATM   18  C1  UNL     1     -19.314  -3.013 -37.697  1.00  0.00     0.017 C 
HETATM   19  C11 UNL     1     -17.946  -0.853 -38.137  1.00  0.00     0.012 A 
HETATM   20  C12 UNL     1     -17.488  -1.472 -36.844  1.00  0.00     0.012 A 
ENDBRANCH  16  17
ENDBRANCH  15  16
ENDBRANCH   1  15
TORSDOF 5
ENDMDL
MODEL 3
REMARK VINA RESULT: -7.125531745      1.150      1.819
REMARK  5 active torsions:
REMARK  status: ('A' for Active; 'I' for Inactive)
REMARK    1  A    between atoms: C2_2  and  C3_3 
REMARK    2  A    between atoms: C3_3  and  O1_4 
REMARK    3  A    between atoms: O1_4  and  C4_5 
REMARK    4  A    between atoms: C7_8  and  N1_9 
REMARK    5  A    between atoms: C7_8  and  C8_13 
ROOT
HETATM    1  C4  UNL     1     -14.554  -3.524 -37.195  1.00  0.00     0.121 C 
HETATM    2  C5  UNL     1     -13.939  -3.544 -38.591  1.00  0.00     0.035 C 
HETATM    3  C6  UNL     1     -12.737  -2.627 -38.478  1.00  0.00     0.051 C 
HETATM    4  C7  UNL     1     -11.731  -3.377 -37.652  1.00  0.00     0.220 C 
HETATM    5  C9  UNL     1     -12.205  -3.786 -36.314  1.00  0.00     0.051 C 
HETATM    6  C10 UNL     1     -13.646  -4.038 -36.146  1.00  0.00     0.035 C 
ENDROOT
BRANCH   4   7
HETATM    7  N1  UNL     1     -11.391  -4.589 -38.412  1.00  0.00    -0.062 N 
ATOM      8  H13 UNL     1     -12.026  -4.770 -39.189  1.00  0.00     0.275 HD
ATOM      9  H12 UNL     1     -10.539  -4.494 -38.965  1.00  0.00     0.275 HD
ATOM     10  H11 UNL     1     -11.351  -5.352 -37.736  1.00  0.00     0.275 HD
ENDBRANCH   4   7
BRANCH   4  11
HETATM   11  C8  UNL     1     -10.446  -2.564 -37.588  1.00  0.00     0.420 C 
HETATM   12  F1  UNL     1      -9.518  -2.998 -38.500  1.00  0.00    -0.168 F 
HETATM   13  F2  UNL     1      -9.929  -2.518 -36.317  1.00  0.00    -0.168 F 
HETATM   14  F3  UNL     1     -10.792  -1.263 -37.939  1.00  0.00    -0.168 F 
ENDBRANCH   4  11
BRANCH   1  15
HETATM   15  O1  UNL     1     -15.748  -4.216 -37.154  1.00  0.00    -0.385 OA
BRANCH  15  16
HETATM   16  C3  UNL     1     -16.434  -4.112 -38.384  1.00  0.00     0.177 C 
BRANCH  16  17
HETATM   17  C2  UNL     1     -17.634  -3.226 -38.214  1.00  0.00    -0.022 A 
HETATM   18  C1  UNL     1     -18.966  -3.941 -38.400  1.00  0.00     0.017 C 
HETATM   19  C11 UNL     1     -17.527  -1.798 -38.654  1.00  0.00     0.012 A 
HETATM   20  C12 UNL     1     -17.633  -2.151 -37.195  1.00  0.00     0.012 A 
ENDBRANCH  16  17
ENDBRANCH  15  16
ENDBRANCH   1  15
TORSDOF 5
ENDMDL
MODEL 4
REMARK VINA RESULT: -7.047193120      1.154      2.112
REMARK  5 active torsions:
REMARK  status: ('A' for Active; 'I' for Inactive)
REMARK    1  A    between atoms: C2_2  and  C3_3 
REMARK    2  A    between atoms: C3_3  and  O1_4 
REMARK    3  A    between atoms: O1_4  and  C4_5 
REMARK    4  A    between atoms: C7_8  and  N1_9 
REMARK    5  A    between atoms: C7_8  and  C8_13 
ROOT
HETATM    1  C4  UNL     1     -14.708  -3.460 -37.214  1.00  0.00     0.121 C 
HETATM    2  C5  UNL     1     -13.974  -3.356 -38.547  1.00  0.00     0.035 C 
HETATM    3  C6  UNL     1     -12.812  -2.424 -38.258  1.00  0.00     0.051 C 
HETATM    4  C7  UNL     1     -11.861  -3.216 -37.407  1.00  0.00     0.220 C 
HETATM    5  C9  UNL     1     -12.438  -3.739 -36.151  1.00  0.00     0.051 C 
HETATM    6  C10 UNL     1     -13.879  -4.036 -36.131  1.00  0.00     0.035 C 
ENDROOT
BRANCH   4   7
HETATM    7  N1  UNL     1     -11.422  -4.356 -38.225  1.00  0.00    -0.062 N 
ATOM      8  H13 UNL     1     -11.265  -4.115 -39.203  1.00  0.00     0.275 HD
ATOM      9  H12 UNL     1     -10.471  -4.661 -38.015  1.00  0.00     0.275 HD
ATOM     10  H11 UNL     1     -12.120  -5.088 -38.095  1.00  0.00     0.275 HD
ENDBRANCH   4   7
BRANCH   4  11
HETATM   11  C8  UNL     1     -10.611  -2.382 -37.166  1.00  0.00     0.420 C 
HETATM   12  F1  UNL     1     -10.261  -2.354 -35.840  1.00  0.00    -0.168 F 
HETATM   13  F2  UNL     1     -10.726  -1.118 -37.689  1.00  0.00    -0.168 F 
HETATM   14  F3  UNL     1      -9.581  -3.019 -37.850  1.00  0.00    -0.168 F 
ENDBRANCH   4  11
BRANCH   1  15
HETATM   15  O1  UNL     1     -15.881  -4.179 -37.333  1.00  0.00    -0.385 OA
BRANCH  15  16
HETATM   16  C3  UNL     1     -16.579  -3.816 -38.506  1.00  0.00     0.177 C 
BRANCH  16  17
HETATM   17  C2  UNL     1     -17.762  -2.966 -38.140  1.00  0.00    -0.022 A 
HETATM   18  C1  UNL     1     -19.093  -3.706 -38.175  1.00  0.00     0.017 C 
HETATM   19  C11 UNL     1     -17.742  -1.520 -38.531  1.00  0.00     0.012 A 
HETATM   20  C12 UNL     1     -17.644  -1.931 -37.087  1.00  0.00     0.012 A 
ENDBRANCH  16  17
ENDBRANCH  15  16
ENDBRANCH   1  15
TORSDOF 5
ENDMDL
MODEL 5
REMARK VINA RESULT: -7.046904890      1.800      2.443
REMARK  5 active torsions:
REMARK  status: ('A' for Active; 'I' for Inactive)
REMARK    1  A    between atoms: C2_2  and  C3_3 
REMARK    2  A    between atoms: C3_3  and  O1_4 
REMARK    3  A    between atoms: O1_4  and  C4_5 
REMARK    4  A    between atoms: C7_8  and  N1_9 
REMARK    5  A    between atoms: C7_8  and  C8_13 
ROOT
HETATM    1  C4  UNL     1     -14.725  -2.777 -37.972  1.00  0.00     0.121 C 
HETATM    2  C5  UNL     1     -13.722  -2.543 -39.098  1.00  0.00     0.035 C 
HETATM    3  C6  UNL     1     -12.543  -1.881 -38.411  1.00  0.00     0.051 C 
HETATM    4  C7  UNL     1     -11.892  -2.960 -37.594  1.00  0.00     0.220 C 
HETATM    5  C9  UNL     1     -12.776  -3.611 -36.606  1.00  0.00     0.051 C 
HETATM    6  C10 UNL     1     -14.215  -3.671 -36.909  1.00  0.00     0.035 C 
ENDROOT
BRANCH   4   7
HETATM    7  N1  UNL     1     -11.432  -3.981 -38.547  1.00  0.00    -0.062 N 
ATOM      8  H13 UNL     1     -11.630  -3.745 -39.519  1.00  0.00     0.275 HD
ATOM      9  H12 UNL     1     -10.417  -4.027 -38.632  1.00  0.00     0.275 HD
ATOM     10  H11 UNL     1     -11.853  -4.861 -38.250  1.00  0.00     0.275 HD
ENDBRANCH   4   7
BRANCH   4  11
HETATM   11  C8  UNL     1     -10.628  -2.397 -36.959  1.00  0.00     0.420 C 
HETATM   12  F1  UNL     1      -9.494  -2.924 -37.522  1.00  0.00    -0.168 F 
HETATM   13  F2  UNL     1     -10.632  -2.537 -35.593  1.00  0.00    -0.168 F 
HETATM   14  F3  UNL     1     -10.630  -1.033 -37.233  1.00  0.00    -0.168 F 
ENDBRANCH   4  11
BRANCH   1  15
HETATM   15  O1  UNL     1     -15.925  -3.264 -38.451  1.00  0.00    -0.385 OA
BRANCH  15  16
HETATM   16  C3  UNL     1     -16.723  -2.219 -38.968  1.00  0.00     0.177 C 
BRANCH  16  17
HETATM   17  C2  UNL     1     -17.799  -1.875 -37.979  1.00  0.00    -0.022 A 
HETATM   18  C1  UNL     1     -18.878  -2.942 -37.840  1.00  0.00     0.017 C 
HETATM   19  C11 UNL     1     -18.198  -0.438 -37.838  1.00  0.00     0.012 A 
HETATM   20  C12 UNL     1     -17.466  -1.149 -36.732  1.00  0.00     0.012 A 
ENDBRANCH  16  17
ENDBRANCH  15  16
ENDBRANCH   1  15
TORSDOF 5
ENDMDL
