MODEL 1
REMARK VINA RESULT: -7.451130591      0.000      0.000
REMARK  4 active torsions:
REMARK  status: ('A' for Active; 'I' for Inactive)
REMARK    1  A    between atoms: C5_8  and  C6_9 
REMARK    2  A    between atoms: N2_10  and  C7_11 
REMARK    3  A    between atoms: N2_10  and  C12_17 
REMARK    4  A    between atoms: C7_11  and  C8_12 
ROOT
HETATM    1  C6  UNL     1      -4.566   3.625  13.727  1.00  0.00     0.065 C 
HETATM    2  N2  UNL     1      -4.559   2.565  14.588  1.00  0.00    -0.386 N 
ENDROOT
BRANCH   2   3
HETATM    3  C7  UNL     1      -4.443   1.245  14.028  1.00  0.00     0.154 C 
BRANCH   3   4
HETATM    4  C8  UNL     1      -4.163   1.041  12.616  1.00  0.00     0.139 C 
HETATM    5  C9  UNL     1      -4.063  -0.444  12.281  1.00  0.00     0.035 C 
HETATM    6  C10 UNL     1      -4.810  -0.569  10.942  1.00  0.00     0.029 C 
HETATM    7  C11 UNL     1      -4.963   0.892  10.578  1.00  0.00     0.168 C 
HETATM    8  O1  UNL     1      -5.327   1.405  11.848  1.00  0.00    -0.384 OA
ENDBRANCH   3   4
ENDBRANCH   2   3
BRANCH   2   9
HETATM    9  C12 UNL     1      -5.224   2.486  15.810  1.00  0.00     0.083 C 
HETATM   10  C13 UNL     1      -6.555   3.180  15.830  1.00  0.00     0.025 C 
HETATM   11  C14 UNL     1      -6.997   3.399  17.288  1.00  0.00     0.002 C 
HETATM   12  C15 UNL     1      -7.032   2.070  18.015  1.00  0.00     0.000 C 
HETATM   13  C16 UNL     1      -5.766   1.280  17.838  1.00  0.00     0.002 C 
HETATM   14  C17 UNL     1      -5.502   1.094  16.356  1.00  0.00     0.025 C 
ENDBRANCH   2   9
BRANCH   1  15
HETATM   15  C5  UNL     1      -4.394   5.055  14.153  1.00  0.00     0.050 C 
HETATM   16  C4  UNL     1      -4.718   5.883  12.851  1.00  0.00     0.242 C 
HETATM   17  N1  UNL     1      -3.523   6.048  12.056  1.00  0.00    -0.074 N 
HETATM   18  C3  UNL     1      -2.788   7.182  12.655  1.00  0.00     0.236 C 
ATOM     19  H12 UNL     1      -3.709   6.164  11.060  1.00  0.00     0.277 HD
ATOM     20  H11 UNL     1      -2.966   5.197  11.978  1.00  0.00     0.277 HD
HETATM   21  C2  UNL     1      -2.845   6.932  14.162  1.00  0.00     0.008 C 
HETATM   22  C1  UNL     1      -1.649   7.543  14.818  1.00  0.00     0.011 C 
HETATM   23  C18 UNL     1      -2.931   5.435  14.381  1.00  0.00     0.017 C 
ENDBRANCH   1  15
TORSDOF 4
ENDMDL
MODEL 2
REMARK VINA RESULT: -7.345470987      1.804      4.440
REMARK  4 active torsions:
REMARK  status: ('A' for Active; 'I' for Inactive)
REMARK    1  A    between atoms: C5_8  and  C6_9 
REMARK    2  A    between atoms: N2_10  and  C7_11 
REMARK    3  A    between atoms: N2_10  and  C12_17 
REMARK    4  A    between atoms: C7_11  and  C8_12 
ROOT
HETATM    1  C6  UNL     1      -3.283   3.955  14.754  1.00  0.00     0.065 C 
HETATM    2  N2  UNL     1      -4.016   2.825  14.528  1.00  0.00    -0.386 N 
ENDROOT
BRANCH   2   3
HETATM    3  C7  UNL     1      -4.149   1.883  15.607  1.00  0.00     0.154 C 
BRANCH   3   4
HETATM    4  C8  UNL     1      -5.101   2.095  16.686  1.00  0.00     0.139 C 
HETATM    5  C9  UNL     1      -6.523   2.226  16.151  1.00  0.00     0.035 C 
HETATM    6  C10 UNL     1      -7.367   1.413  17.147  1.00  0.00     0.029 C 
HETATM    7  C11 UNL     1      -6.351   1.192  18.248  1.00  0.00     0.168 C 
HETATM    8  O1  UNL     1      -5.221   0.879  17.452  1.00  0.00    -0.384 OA
ENDBRANCH   3   4
ENDBRANCH   2   3
BRANCH   2   9
HETATM    9  C12 UNL     1      -4.146   2.151  13.315  1.00  0.00     0.083 C 
HETATM   10  C13 UNL     1      -4.411   0.680  13.457  1.00  0.00     0.025 C 
HETATM   11  C14 UNL     1      -4.120  -0.025  12.120  1.00  0.00     0.002 C 
HETATM   12  C15 UNL     1      -4.951   0.605  11.020  1.00  0.00     0.000 C 
HETATM   13  C16 UNL     1      -4.839   2.104  10.997  1.00  0.00     0.002 C 
HETATM   14  C17 UNL     1      -5.218   2.650  12.360  1.00  0.00     0.025 C 
ENDBRANCH   2   9
BRANCH   1  15
HETATM   15  C5  UNL     1      -3.284   5.152  13.848  1.00  0.00     0.050 C 
HETATM   16  C4  UNL     1      -2.226   4.791  12.736  1.00  0.00     0.242 C 
HETATM   17  N1  UNL     1      -0.904   5.195  13.157  1.00  0.00    -0.074 N 
HETATM   18  C3  UNL     1      -0.803   6.638  12.853  1.00  0.00     0.236 C 
ATOM     19  H12 UNL     1      -0.156   4.639  12.742  1.00  0.00     0.277 HD
ATOM     20  H11 UNL     1      -0.700   4.969  14.130  1.00  0.00     0.277 HD
HETATM   21  C2  UNL     1      -2.127   7.232  13.334  1.00  0.00     0.008 C 
HETATM   22  C1  UNL     1      -1.925   8.661  13.722  1.00  0.00     0.011 C 
HETATM   23  C18 UNL     1      -2.628   6.379  14.482  1.00  0.00     0.017 C 
ENDBRANCH   1  15
TORSDOF 4
ENDMDL
MODEL 3
REMARK VINA RESULT: -7.057957897      1.469      2.536
REMARK  4 active torsions:
REMARK  status: ('A' for Active; 'I' for Inactive)
REMARK    1  A    between atoms: C5_8  and  C6_9 
REMARK    2  A    between atoms: N2_10  and  C7_11 
REMARK    3  A    between atoms: N2_10  and  C12_17 
REMARK    4  A    between atoms: C7_11  and  C8_12 
ROOT
HETATM    1  C6  UNL     1      -3.309   5.433  12.462  1.00  0.00     0.065 C 
HETATM    2  N2  UNL     1      -3.555   4.230  13.061  1.00  0.00    -0.386 N 
ENDROOT
BRANCH   2   3
HETATM    3  C7  UNL     1      -3.246   3.035  12.322  1.00  0.00     0.154 C 
BRANCH   3   4
HETATM    4  C8  UNL     1      -4.126   1.878  12.348  1.00  0.00     0.139 C 
HETATM    5  C9  UNL     1      -4.878   1.725  11.030  1.00  0.00     0.035 C 
HETATM    6  C10 UNL     1      -4.835   0.212  10.755  1.00  0.00     0.029 C 
HETATM    7  C11 UNL     1      -4.329  -0.292  12.090  1.00  0.00     0.168 C 
HETATM    8  O1  UNL     1      -3.326   0.678  12.334  1.00  0.00    -0.384 OA
ENDBRANCH   3   4
ENDBRANCH   2   3
BRANCH   2   9
HETATM    9  C12 UNL     1      -4.570   3.952  13.975  1.00  0.00     0.083 C 
HETATM   10  C13 UNL     1      -4.093   3.300  15.241  1.00  0.00     0.025 C 
HETATM   11  C14 UNL     1      -5.289   2.664  15.972  1.00  0.00     0.002 C 
HETATM   12  C15 UNL     1      -6.346   3.718  16.232  1.00  0.00     0.000 C 
HETATM   13  C16 UNL     1      -6.690   4.510  15.001  1.00  0.00     0.002 C 
HETATM   14  C17 UNL     1      -5.423   5.122  14.437  1.00  0.00     0.025 C 
ENDBRANCH   2   9
BRANCH   1  15
HETATM   15  C5  UNL     1      -3.305   6.747  13.187  1.00  0.00     0.050 C 
HETATM   16  C4  UNL     1      -2.730   7.766  12.130  1.00  0.00     0.242 C 
HETATM   17  N1  UNL     1      -1.287   7.798  12.204  1.00  0.00    -0.074 N 
HETATM   18  C3  UNL     1      -0.957   8.701  13.327  1.00  0.00     0.236 C 
ATOM     19  H12 UNL     1      -0.840   8.061  11.326  1.00  0.00     0.277 HD
ATOM     20  H11 UNL     1      -0.864   6.874  12.287  1.00  0.00     0.277 HD
HETATM   21  C2  UNL     1      -1.913   8.294  14.450  1.00  0.00     0.008 C 
HETATM   22  C1  UNL     1      -1.289   8.595  15.774  1.00  0.00     0.011 C 
HETATM   23  C18 UNL     1      -2.234   6.824  14.275  1.00  0.00     0.017 C 
ENDBRANCH   1  15
TORSDOF 4
ENDMDL
MODEL 4
REMARK VINA RESULT: -6.767791434      3.053      5.904
REMARK  4 active torsions:
REMARK  status: ('A' for Active; 'I' for Inactive)
REMARK    1  A    between atoms: C5_8  and  C6_9 
REMARK    2  A    between atoms: N2_10  and  C7_11 
REMARK    3  A    between atoms: N2_10  and  C12_17 
REMARK    4  A    between atoms: C7_11  and  C8_12 
ROOT
HETATM    1  C6  UNL     1      -3.704   6.043  12.003  1.00  0.00     0.065 C 
HETATM    2  N2  UNL     1      -3.807   5.864  13.353  1.00  0.00    -0.386 N 
ENDROOT
BRANCH   2   3
HETATM    3  C7  UNL     1      -2.733   6.346  14.179  1.00  0.00     0.154 C 
BRANCH   3   4
HETATM    4  C8  UNL     1      -2.240   7.709  14.064  1.00  0.00     0.139 C 
HETATM    5  C9  UNL     1      -2.140   8.378  15.432  1.00  0.00     0.035 C 
HETATM    6  C10 UNL     1      -0.806   9.142  15.370  1.00  0.00     0.029 C 
HETATM    7  C11 UNL     1      -0.499   9.034  13.891  1.00  0.00     0.168 C 
HETATM    8  O1  UNL     1      -0.849   7.676  13.686  1.00  0.00    -0.384 OA
ENDBRANCH   3   4
ENDBRANCH   2   3
BRANCH   2   9
HETATM    9  C12 UNL     1      -4.444   4.807  14.002  1.00  0.00     0.083 C 
HETATM   10  C13 UNL     1      -3.556   4.040  14.939  1.00  0.00     0.025 C 
HETATM   11  C14 UNL     1      -4.207   2.684  15.266  1.00  0.00     0.002 C 
HETATM   12  C15 UNL     1      -5.591   2.908  15.841  1.00  0.00     0.000 C 
HETATM   13  C16 UNL     1      -6.423   3.836  15.001  1.00  0.00     0.002 C 
HETATM   14  C17 UNL     1      -5.678   5.145  14.824  1.00  0.00     0.025 C 
ENDBRANCH   2   9
BRANCH   1  15
HETATM   15  C5  UNL     1      -4.843   5.861  11.041  1.00  0.00     0.050 C 
HETATM   16  C4  UNL     1      -4.156   5.900   9.622  1.00  0.00     0.242 C 
HETATM   17  N1  UNL     1      -4.065   7.263   9.151  1.00  0.00    -0.074 N 
HETATM   18  C3  UNL     1      -5.388   7.583   8.574  1.00  0.00     0.236 C 
ATOM     19  H12 UNL     1      -3.291   7.420   8.506  1.00  0.00     0.277 HD
ATOM     20  H11 UNL     1      -3.764   7.922   9.869  1.00  0.00     0.277 HD
HETATM   21  C2  UNL     1      -6.398   7.040   9.586  1.00  0.00     0.008 C 
HETATM   22  C1  UNL     1      -7.659   7.839   9.516  1.00  0.00     0.011 C 
HETATM   23  C18 UNL     1      -5.751   7.087  10.956  1.00  0.00     0.017 C 
ENDBRANCH   1  15
TORSDOF 4
ENDMDL
MODEL 5
REMARK VINA RESULT: -6.681025359      1.761      5.838
REMARK  4 active torsions:
REMARK  status: ('A' for Active; 'I' for Inactive)
REMARK    1  A    between atoms: C5_8  and  C6_9 
REMARK    2  A    between atoms: N2_10  and  C7_11 
REMARK    3  A    between atoms: N2_10  and  C12_17 
REMARK    4  A    between atoms: C7_11  and  C8_12 
ROOT
HETATM    1  C6  UNL     1      -5.155   2.288  13.610  1.00  0.00     0.065 C 
HETATM    2  N2  UNL     1      -4.795   3.286  14.470  1.00  0.00    -0.386 N 
ENDROOT
BRANCH   2   3
HETATM    3  C7  UNL     1      -5.802   3.805  15.357  1.00  0.00     0.154 C 
BRANCH   3   4
HETATM    4  C8  UNL     1      -6.150   3.121  16.592  1.00  0.00     0.139 C 
HETATM    5  C9  UNL     1      -7.439   2.320  16.436  1.00  0.00     0.035 C 
HETATM    6  C10 UNL     1      -7.144   1.001  17.170  1.00  0.00     0.029 C 
HETATM    7  C11 UNL     1      -5.855   1.365  17.876  1.00  0.00     0.168 C 
HETATM    8  O1  UNL     1      -5.206   2.055  16.822  1.00  0.00    -0.384 OA
ENDBRANCH   3   4
ENDBRANCH   2   3
BRANCH   2   9
HETATM    9  C12 UNL     1      -3.837   4.273  14.241  1.00  0.00     0.083 C 
HETATM   10  C13 UNL     1      -4.304   5.665  14.556  1.00  0.00     0.025 C 
HETATM   11  C14 UNL     1      -3.363   6.684  13.887  1.00  0.00     0.002 C 
HETATM   12  C15 UNL     1      -1.939   6.438  14.343  1.00  0.00     0.000 C 
HETATM   13  C16 UNL     1      -1.528   4.998  14.209  1.00  0.00     0.002 C 
HETATM   14  C17 UNL     1      -2.512   4.131  14.971  1.00  0.00     0.025 C 
ENDBRANCH   2   9
BRANCH   1  15
HETATM   15  C5  UNL     1      -4.176   1.454  12.835  1.00  0.00     0.050 C 
HETATM   16  C4  UNL     1      -4.467   1.824  11.330  1.00  0.00     0.242 C 
HETATM   17  N1  UNL     1      -5.508   0.972  10.801  1.00  0.00    -0.074 N 
HETATM   18  C3  UNL     1      -4.843  -0.291  10.414  1.00  0.00     0.236 C 
ATOM     19  H12 UNL     1      -6.039   1.401  10.043  1.00  0.00     0.277 HD
ATOM     20  H11 UNL     1      -6.290   0.841  11.441  1.00  0.00     0.277 HD
HETATM   21  C2  UNL     1      -3.913  -0.617  11.583  1.00  0.00     0.008 C 
HETATM   22  C1  UNL     1      -3.716  -2.096  11.670  1.00  0.00     0.011 C 
HETATM   23  C18 UNL     1      -4.527  -0.034  12.840  1.00  0.00     0.017 C 
ENDBRANCH   1  15
TORSDOF 4
ENDMDL
