MODEL 1
REMARK VINA RESULT: -7.862710370      0.000      0.000
REMARK  6 active torsions:
REMARK  status: ('A' for Active; 'I' for Inactive)
REMARK    1  A    between atoms: C4_8  and  C5_9 
REMARK    2  A    between atoms: C8_12  and  N2_13 
REMARK    3  A    between atoms: N2_13  and  S1_15 
REMARK    4  A    between atoms: S1_15  and  C9_18 
REMARK    5  A    between atoms: C12_21  and  N3_22 
REMARK       I    between atoms: N3_22  and  C13_24 
REMARK    6  A    between atoms: C13_24  and  C14_26 
ROOT
HETATM    1  S1  UNL     1      57.666  -0.998 -11.761  1.00  0.00     0.263 S 
HETATM    2  O3  UNL     1      57.886  -1.354 -13.201  1.00  0.00    -0.200 OA
HETATM    3  O4  UNL     1      58.415   0.287 -11.524  1.00  0.00    -0.200 OA
ENDROOT
BRANCH   1   4
HETATM    4  N2  UNL     1      55.988  -0.820 -11.488  1.00  0.00    -0.281 N 
ATOM      5  H2  UNL     1      55.376  -0.558 -12.261  1.00  0.00     0.179 HD
BRANCH   4   6
HETATM    6  C8  UNL     1      55.440  -1.032 -10.209  1.00  0.00     0.042 A 
HETATM    7  C7  UNL     1      54.656  -2.108  -9.871  1.00  0.00     0.031 A 
HETATM    8  C6  UNL     1      54.131  -2.294  -8.615  1.00  0.00     0.014 A 
HETATM    9  C5  UNL     1      54.375  -1.373  -7.587  1.00  0.00    -0.034 A 
HETATM   10  C23 UNL     1      55.164  -0.287  -7.921  1.00  0.00     0.014 A 
HETATM   11  C22 UNL     1      55.683  -0.118  -9.190  1.00  0.00     0.031 A 
BRANCH   9  12
HETATM   12  C4  UNL     1      53.780  -1.583  -6.283  1.00  0.00     0.046 C 
HETATM   13  C3  UNL     1      52.874  -0.753  -5.805  1.00  0.00     0.105 A 
HETATM   14  C2  UNL     1      52.232  -0.916  -4.491  1.00  0.00     0.276 A 
HETATM   15  N4  UNL     1      52.340   0.432  -6.359  1.00  0.00    -0.304 N 
HETATM   16  N1  UNL     1      51.347   0.180  -4.327  1.00  0.00    -0.274 N 
HETATM   17  O2  UNL     1      52.466  -1.876  -3.700  1.00  0.00    -0.266 OA
HETATM   18  C1  UNL     1      51.401   1.014  -5.462  1.00  0.00     0.327 A 
ATOM     19  H1  UNL     1      50.760   0.342  -3.509  1.00  0.00     0.173 HD
HETATM   20  O1  UNL     1      50.759   2.056  -5.650  1.00  0.00    -0.247 OA
ATOM     21  H4  UNL     1      52.591   0.816  -7.270  1.00  0.00     0.171 HD
ENDBRANCH   9  12
ENDBRANCH   4   6
ENDBRANCH   1   4
BRANCH   1  22
HETATM   22  C9  UNL     1      58.333  -2.297 -10.794  1.00  0.00     0.080 A 
HETATM   23  C10 UNL     1      58.067  -3.613 -11.105  1.00  0.00     0.027 A 
HETATM   24  C11 UNL     1      58.602  -4.588 -10.334  1.00  0.00     0.031 A 
HETATM   25  C12 UNL     1      59.420  -4.350  -9.225  1.00  0.00     0.035 A 
HETATM   26  C20 UNL     1      59.680  -3.039  -8.921  1.00  0.00     0.031 A 
HETATM   27  C21 UNL     1      59.129  -2.020  -9.717  1.00  0.00     0.027 A 
BRANCH  25  28
HETATM   28  N3  UNL     1      59.916  -5.450  -8.475  1.00  0.00    -0.323 N 
HETATM   29  C13 UNL     1      61.137  -6.093  -8.626  1.00  0.00     0.256 C 
HETATM   30  O5  UNL     1      61.972  -5.761  -9.486  1.00  0.00    -0.267 OA
ATOM     31  H3  UNL     1      59.304  -5.808  -7.742  1.00  0.00     0.169 HD
BRANCH  29  32
HETATM   32  C14 UNL     1      61.526  -7.226  -7.764  1.00  0.00     0.032 A 
HETATM   33  C15 UNL     1      60.763  -7.562  -6.644  1.00  0.00     0.017 A 
HETATM   34  C16 UNL     1      61.115  -8.615  -5.840  1.00  0.00     0.001 A 
HETATM   35  C17 UNL     1      62.226  -9.380  -6.097  1.00  0.00     0.000 A 
HETATM   36  C18 UNL     1      62.998  -9.075  -7.192  1.00  0.00     0.001 A 
HETATM   37  C19 UNL     1      62.630  -7.998  -8.007  1.00  0.00     0.017 A 
ENDBRANCH  29  32
ENDBRANCH  25  28
ENDBRANCH   1  22
TORSDOF 6
ENDMDL
MODEL 2
REMARK VINA RESULT: -7.832444446      1.737      2.284
REMARK  6 active torsions:
REMARK  status: ('A' for Active; 'I' for Inactive)
REMARK    1  A    between atoms: C4_8  and  C5_9 
REMARK    2  A    between atoms: C8_12  and  N2_13 
REMARK    3  A    between atoms: N2_13  and  S1_15 
REMARK    4  A    between atoms: S1_15  and  C9_18 
REMARK    5  A    between atoms: C12_21  and  N3_22 
REMARK       I    between atoms: N3_22  and  C13_24 
REMARK    6  A    between atoms: C13_24  and  C14_26 
ROOT
HETATM    1  S1  UNL     1      59.210  -2.581 -12.598  1.00  0.00     0.263 S 
HETATM    2  O3  UNL     1      58.552  -3.519 -13.567  1.00  0.00    -0.200 OA
HETATM    3  O4  UNL     1      60.487  -2.126 -13.252  1.00  0.00    -0.200 OA
ENDROOT
BRANCH   1   4
HETATM    4  N2  UNL     1      58.148  -1.278 -12.288  1.00  0.00    -0.281 N 
ATOM      5  H2  UNL     1      58.138  -0.475 -12.917  1.00  0.00     0.179 HD
BRANCH   4   6
HETATM    6  C8  UNL     1      57.288  -1.300 -11.174  1.00  0.00     0.042 A 
HETATM    7  C7  UNL     1      57.556  -0.683  -9.976  1.00  0.00     0.031 A 
HETATM    8  C6  UNL     1      56.701  -0.719  -8.901  1.00  0.00     0.014 A 
HETATM    9  C5  UNL     1      55.480  -1.404  -8.972  1.00  0.00    -0.034 A 
HETATM   10  C23 UNL     1      55.205  -2.027 -10.175  1.00  0.00     0.014 A 
HETATM   11  C22 UNL     1      56.077  -1.979 -11.245  1.00  0.00     0.031 A 
BRANCH   9  12
HETATM   12  C4  UNL     1      54.618  -1.449  -7.809  1.00  0.00     0.046 C 
HETATM   13  C3  UNL     1      53.629  -0.590  -7.661  1.00  0.00     0.105 A 
HETATM   14  C2  UNL     1      52.718  -0.588  -6.505  1.00  0.00     0.276 A 
HETATM   15  N4  UNL     1      53.227   0.489  -8.479  1.00  0.00    -0.304 N 
HETATM   16  N1  UNL     1      51.818   0.492  -6.693  1.00  0.00    -0.274 N 
HETATM   17  O2  UNL     1      52.775  -1.420  -5.553  1.00  0.00    -0.266 OA
HETATM   18  C1  UNL     1      52.116   1.161  -7.897  1.00  0.00     0.327 A 
ATOM     19  H1  UNL     1      51.067   0.747  -6.052  1.00  0.00     0.173 HD
HETATM   20  O1  UNL     1      51.529   2.146  -8.365  1.00  0.00    -0.247 OA
ATOM     21  H4  UNL     1      53.669   0.750  -9.361  1.00  0.00     0.171 HD
ENDBRANCH   9  12
ENDBRANCH   4   6
ENDBRANCH   1   4
BRANCH   1  22
HETATM   22  C9  UNL     1      59.545  -3.490 -11.138  1.00  0.00     0.080 A 
HETATM   23  C10 UNL     1      58.647  -4.424 -10.670  1.00  0.00     0.027 A 
HETATM   24  C11 UNL     1      58.943  -5.106  -9.539  1.00  0.00     0.031 A 
HETATM   25  C12 UNL     1      60.116  -4.926  -8.799  1.00  0.00     0.035 A 
HETATM   26  C20 UNL     1      61.004  -3.994  -9.270  1.00  0.00     0.031 A 
HETATM   27  C21 UNL     1      60.705  -3.281 -10.445  1.00  0.00     0.027 A 
BRANCH  25  28
HETATM   28  N3  UNL     1      60.318  -5.684  -7.616  1.00  0.00    -0.323 N 
HETATM   29  C13 UNL     1      61.008  -6.883  -7.489  1.00  0.00     0.256 C 
HETATM   30  O5  UNL     1      61.547  -7.456  -8.452  1.00  0.00    -0.267 OA
ATOM     31  H3  UNL     1      59.910  -5.306  -6.761  1.00  0.00     0.169 HD
BRANCH  29  32
HETATM   32  C14 UNL     1      61.145  -7.561  -6.185  1.00  0.00     0.032 A 
HETATM   33  C15 UNL     1      60.658  -8.857  -6.003  1.00  0.00     0.017 A 
HETATM   34  C16 UNL     1      60.783  -9.496  -4.797  1.00  0.00     0.001 A 
HETATM   35  C17 UNL     1      61.389  -8.894  -3.721  1.00  0.00     0.000 A 
HETATM   36  C18 UNL     1      61.879  -7.619  -3.868  1.00  0.00     0.001 A 
HETATM   37  C19 UNL     1      61.746  -6.975  -5.103  1.00  0.00     0.017 A 
ENDBRANCH  29  32
ENDBRANCH  25  28
ENDBRANCH   1  22
TORSDOF 6
ENDMDL
MODEL 3
REMARK VINA RESULT: -7.831714987      1.797      2.782
REMARK  6 active torsions:
REMARK  status: ('A' for Active; 'I' for Inactive)
REMARK    1  A    between atoms: C4_8  and  C5_9 
REMARK    2  A    between atoms: C8_12  and  N2_13 
REMARK    3  A    between atoms: N2_13  and  S1_15 
REMARK    4  A    between atoms: S1_15  and  C9_18 
REMARK    5  A    between atoms: C12_21  and  N3_22 
REMARK       I    between atoms: N3_22  and  C13_24 
REMARK    6  A    between atoms: C13_24  and  C14_26 
ROOT
HETATM    1  S1  UNL     1      59.835  -1.860 -12.260  1.00  0.00     0.263 S 
HETATM    2  O3  UNL     1      60.732  -2.338 -13.363  1.00  0.00    -0.200 OA
HETATM    3  O4  UNL     1      60.318  -0.482 -11.891  1.00  0.00    -0.200 OA
ENDROOT
BRANCH   1   4
HETATM    4  N2  UNL     1      58.223  -1.844 -12.829  1.00  0.00    -0.281 N 
ATOM      5  H2  UNL     1      58.021  -2.153 -13.780  1.00  0.00     0.179 HD
BRANCH   4   6
HETATM    6  C8  UNL     1      57.172  -1.409 -12.001  1.00  0.00     0.042 A 
HETATM    7  C7  UNL     1      56.995  -0.110 -11.591  1.00  0.00     0.031 A 
HETATM    8  C6  UNL     1      55.961   0.291 -10.780  1.00  0.00     0.014 A 
HETATM    9  C5  UNL     1      55.009  -0.627 -10.317  1.00  0.00    -0.034 A 
HETATM   10  C23 UNL     1      55.182  -1.937 -10.725  1.00  0.00     0.014 A 
HETATM   11  C22 UNL     1      56.228  -2.321 -11.541  1.00  0.00     0.031 A 
BRANCH   9  12
HETATM   12  C4  UNL     1      53.950  -0.177  -9.437  1.00  0.00     0.046 C 
HETATM   13  C3  UNL     1      53.905  -0.554  -8.175  1.00  0.00     0.105 A 
HETATM   14  C2  UNL     1      52.857  -0.126  -7.234  1.00  0.00     0.276 A 
HETATM   15  N4  UNL     1      54.754  -1.420  -7.451  1.00  0.00    -0.304 N 
HETATM   16  N1  UNL     1      53.135  -0.759  -5.995  1.00  0.00    -0.274 N 
HETATM   17  O2  UNL     1      51.911   0.661  -7.532  1.00  0.00    -0.266 OA
HETATM   18  C1  UNL     1      54.293  -1.553  -6.111  1.00  0.00     0.327 A 
ATOM     19  H1  UNL     1      52.579  -0.654  -5.146  1.00  0.00     0.173 HD
HETATM   20  O1  UNL     1      54.815  -2.240  -5.223  1.00  0.00    -0.247 OA
ATOM     21  H4  UNL     1      55.579  -1.882  -7.832  1.00  0.00     0.171 HD
ENDBRANCH   9  12
ENDBRANCH   4   6
ENDBRANCH   1   4
BRANCH   1  22
HETATM   22  C9  UNL     1      60.024  -2.968 -10.916  1.00  0.00     0.080 A 
HETATM   23  C10 UNL     1      59.150  -4.019 -10.744  1.00  0.00     0.027 A 
HETATM   24  C11 UNL     1      59.329  -4.853  -9.694  1.00  0.00     0.031 A 
HETATM   25  C12 UNL     1      60.358  -4.722  -8.755  1.00  0.00     0.035 A 
HETATM   26  C20 UNL     1      61.223  -3.674  -8.933  1.00  0.00     0.031 A 
HETATM   27  C21 UNL     1      61.044  -2.802 -10.021  1.00  0.00     0.027 A 
BRANCH  25  28
HETATM   28  N3  UNL     1      60.444  -5.646  -7.681  1.00  0.00    -0.323 N 
HETATM   29  C13 UNL     1      61.151  -6.841  -7.650  1.00  0.00     0.256 C 
HETATM   30  O5  UNL     1      61.816  -7.257  -8.615  1.00  0.00    -0.267 OA
ATOM     31  H3  UNL     1      59.928  -5.405  -6.835  1.00  0.00     0.169 HD
BRANCH  29  32
HETATM   32  C14 UNL     1      61.157  -7.705  -6.453  1.00  0.00     0.032 A 
HETATM   33  C15 UNL     1      61.569  -7.204  -5.216  1.00  0.00     0.017 A 
HETATM   34  C16 UNL     1      61.575  -7.999  -4.099  1.00  0.00     0.001 A 
HETATM   35  C17 UNL     1      61.179  -9.313  -4.146  1.00  0.00     0.000 A 
HETATM   36  C18 UNL     1      60.768  -9.836  -5.348  1.00  0.00     0.001 A 
HETATM   37  C19 UNL     1      60.766  -9.017  -6.483  1.00  0.00     0.017 A 
ENDBRANCH  29  32
ENDBRANCH  25  28
ENDBRANCH   1  22
TORSDOF 6
ENDMDL
MODEL 4
REMARK VINA RESULT: -7.724768887      4.638      8.012
REMARK  6 active torsions:
REMARK  status: ('A' for Active; 'I' for Inactive)
REMARK    1  A    between atoms: C4_8  and  C5_9 
REMARK    2  A    between atoms: C8_12  and  N2_13 
REMARK    3  A    between atoms: N2_13  and  S1_15 
REMARK    4  A    between atoms: S1_15  and  C9_18 
REMARK    5  A    between atoms: C12_21  and  N3_22 
REMARK       I    between atoms: N3_22  and  C13_24 
REMARK    6  A    between atoms: C13_24  and  C14_26 
ROOT
HETATM    1  S1  UNL     1      52.106  -0.654  -5.056  1.00  0.00     0.263 S 
HETATM    2  O3  UNL     1      52.235  -1.748  -4.038  1.00  0.00    -0.200 OA
HETATM    3  O4  UNL     1      50.742  -0.808  -5.673  1.00  0.00    -0.200 OA
ENDROOT
BRANCH   1   4
HETATM    4  N2  UNL     1      52.288   0.853  -4.269  1.00  0.00    -0.281 N 
ATOM      5  H2  UNL     1      53.223   1.219  -4.091  1.00  0.00     0.179 HD
BRANCH   4   6
HETATM    6  C8  UNL     1      51.162   1.594  -3.867  1.00  0.00     0.042 A 
HETATM    7  C7  UNL     1      50.554   2.559  -4.633  1.00  0.00     0.031 A 
HETATM    8  C6  UNL     1      49.455   3.270  -4.218  1.00  0.00     0.014 A 
HETATM    9  C5  UNL     1      48.882   3.046  -2.959  1.00  0.00    -0.034 A 
HETATM   10  C23 UNL     1      49.489   2.077  -2.182  1.00  0.00     0.014 A 
HETATM   11  C22 UNL     1      50.593   1.371  -2.617  1.00  0.00     0.031 A 
BRANCH   9  12
HETATM   12  C4  UNL     1      47.743   3.837  -2.540  1.00  0.00     0.046 C 
HETATM   13  C3  UNL     1      46.525   3.332  -2.539  1.00  0.00     0.105 A 
HETATM   14  C2  UNL     1      45.332   4.085  -2.122  1.00  0.00     0.276 A 
HETATM   15  N4  UNL     1      46.067   2.055  -2.933  1.00  0.00    -0.304 N 
HETATM   16  N1  UNL     1      44.221   3.218  -2.287  1.00  0.00    -0.274 N 
HETATM   17  O2  UNL     1      45.354   5.278  -1.701  1.00  0.00    -0.266 OA
HETATM   18  C1  UNL     1      44.654   1.972  -2.782  1.00  0.00     0.327 A 
ATOM     19  H1  UNL     1      43.252   3.461  -2.079  1.00  0.00     0.173 HD
HETATM   20  O1  UNL     1      43.948   0.988  -3.041  1.00  0.00    -0.247 OA
ATOM     21  H4  UNL     1      46.662   1.301  -3.276  1.00  0.00     0.171 HD
ENDBRANCH   9  12
ENDBRANCH   4   6
ENDBRANCH   1   4
BRANCH   1  22
HETATM   22  C9  UNL     1      53.363  -0.902  -6.251  1.00  0.00     0.080 A 
HETATM   23  C10 UNL     1      54.322  -1.876  -6.071  1.00  0.00     0.027 A 
HETATM   24  C11 UNL     1      55.275  -2.037  -7.018  1.00  0.00     0.031 A 
HETATM   25  C12 UNL     1      55.358  -1.272  -8.186  1.00  0.00     0.035 A 
HETATM   26  C20 UNL     1      54.402  -0.306  -8.358  1.00  0.00     0.031 A 
HETATM   27  C21 UNL     1      53.407  -0.131  -7.380  1.00  0.00     0.027 A 
BRANCH  25  28
HETATM   28  N3  UNL     1      56.411  -1.516  -9.106  1.00  0.00    -0.323 N 
HETATM   29  C13 UNL     1      56.336  -2.192 -10.316  1.00  0.00     0.256 C 
HETATM   30  O5  UNL     1      55.281  -2.691 -10.745  1.00  0.00    -0.267 OA
ATOM     31  H3  UNL     1      57.329  -1.152  -8.848  1.00  0.00     0.169 HD
BRANCH  29  32
HETATM   32  C14 UNL     1      57.520  -2.365 -11.181  1.00  0.00     0.032 A 
HETATM   33  C15 UNL     1      57.594  -3.429 -12.082  1.00  0.00     0.017 A 
HETATM   34  C16 UNL     1      58.688  -3.596 -12.890  1.00  0.00     0.001 A 
HETATM   35  C17 UNL     1      59.754  -2.730 -12.850  1.00  0.00     0.000 A 
HETATM   36  C18 UNL     1      59.712  -1.673 -11.973  1.00  0.00     0.001 A 
HETATM   37  C19 UNL     1      58.590  -1.512 -11.152  1.00  0.00     0.017 A 
ENDBRANCH  29  32
ENDBRANCH  25  28
ENDBRANCH   1  22
TORSDOF 6
ENDMDL
MODEL 5
REMARK VINA RESULT: -7.588906761      1.368      1.795
REMARK  6 active torsions:
REMARK  status: ('A' for Active; 'I' for Inactive)
REMARK    1  A    between atoms: C4_8  and  C5_9 
REMARK    2  A    between atoms: C8_12  and  N2_13 
REMARK    3  A    between atoms: N2_13  and  S1_15 
REMARK    4  A    between atoms: S1_15  and  C9_18 
REMARK    5  A    between atoms: C12_21  and  N3_22 
REMARK       I    between atoms: N3_22  and  C13_24 
REMARK    6  A    between atoms: C13_24  and  C14_26 
ROOT
HETATM    1  S1  UNL     1      57.441  -1.042 -11.654  1.00  0.00     0.263 S 
HETATM    2  O3  UNL     1      57.811  -1.258 -13.091  1.00  0.00    -0.200 OA
HETATM    3  O4  UNL     1      58.010   0.297 -11.268  1.00  0.00    -0.200 OA
ENDROOT
BRANCH   1   4
HETATM    4  N2  UNL     1      55.738  -1.080 -11.513  1.00  0.00    -0.281 N 
ATOM      5  H2  UNL     1      55.161  -1.057 -12.354  1.00  0.00     0.179 HD
BRANCH   4   6
HETATM    6  C8  UNL     1      55.122  -1.144 -10.249  1.00  0.00     0.042 A 
HETATM    7  C7  UNL     1      54.893  -2.309  -9.557  1.00  0.00     0.031 A 
HETATM    8  C6  UNL     1      54.289  -2.347  -8.323  1.00  0.00     0.014 A 
HETATM    9  C5  UNL     1      53.863  -1.171  -7.691  1.00  0.00    -0.034 A 
HETATM   10  C23 UNL     1      54.089   0.005  -8.383  1.00  0.00     0.014 A 
HETATM   11  C22 UNL     1      54.699   0.023  -9.622  1.00  0.00     0.031 A 
BRANCH   9  12
HETATM   12  C4  UNL     1      53.200  -1.250  -6.406  1.00  0.00     0.046 C 
HETATM   13  C3  UNL     1      53.880  -1.146  -5.281  1.00  0.00     0.105 A 
HETATM   14  C2  UNL     1      53.262  -1.215  -3.947  1.00  0.00     0.276 A 
HETATM   15  N4  UNL     1      55.267  -0.987  -5.064  1.00  0.00    -0.304 N 
HETATM   16  N1  UNL     1      54.313  -1.093  -3.001  1.00  0.00    -0.274 N 
HETATM   17  O2  UNL     1      52.021  -1.357  -3.744  1.00  0.00    -0.266 OA
HETATM   18  C1  UNL     1      55.545  -0.952  -3.669  1.00  0.00     0.327 A 
ATOM     19  H1  UNL     1      54.193  -1.106  -1.988  1.00  0.00     0.173 HD
HETATM   20  O1  UNL     1      56.662  -0.823  -3.150  1.00  0.00    -0.247 OA
ATOM     21  H4  UNL     1      55.968  -0.908  -5.801  1.00  0.00     0.171 HD
ENDBRANCH   9  12
ENDBRANCH   4   6
ENDBRANCH   1   4
BRANCH   1  22
HETATM   22  C9  UNL     1      58.185  -2.328 -10.724  1.00  0.00     0.080 A 
HETATM   23  C10 UNL     1      58.042  -3.644 -11.106  1.00  0.00     0.027 A 
HETATM   24  C11 UNL     1      58.633  -4.608 -10.362  1.00  0.00     0.031 A 
HETATM   25  C12 UNL     1      59.391  -4.358  -9.214  1.00  0.00     0.035 A 
HETATM   26  C20 UNL     1      59.528  -3.046  -8.840  1.00  0.00     0.031 A 
HETATM   27  C21 UNL     1      58.918  -2.038  -9.607  1.00  0.00     0.027 A 
BRANCH  25  28
HETATM   28  N3  UNL     1      59.954  -5.447  -8.499  1.00  0.00    -0.323 N 
HETATM   29  C13 UNL     1      61.198  -6.033  -8.693  1.00  0.00     0.256 C 
HETATM   30  O5  UNL     1      61.994  -5.649  -9.568  1.00  0.00    -0.267 OA
ATOM     31  H3  UNL     1      59.378  -5.846  -7.756  1.00  0.00     0.169 HD
BRANCH  29  32
HETATM   32  C14 UNL     1      61.658  -7.164  -7.863  1.00  0.00     0.032 A 
HETATM   33  C15 UNL     1      60.913  -7.586  -6.760  1.00  0.00     0.017 A 
HETATM   34  C16 UNL     1      61.332  -8.637  -5.986  1.00  0.00     0.001 A 
HETATM   35  C17 UNL     1      62.495  -9.316  -6.258  1.00  0.00     0.000 A 
HETATM   36  C18 UNL     1      63.251  -8.924  -7.336  1.00  0.00     0.001 A 
HETATM   37  C19 UNL     1      62.815  -7.850  -8.121  1.00  0.00     0.017 A 
ENDBRANCH  29  32
ENDBRANCH  25  28
ENDBRANCH   1  22
TORSDOF 6
ENDMDL
