MODEL 1
REMARK VINA RESULT: -6.646831492      0.000      0.000
REMARK  10 active torsions:
REMARK  status: ('A' for Active; 'I' for Inactive)
REMARK    1  A    between atoms: N1_3  and  C4_5 
REMARK    2  A    between atoms: C7_8  and  N2_9 
REMARK    3  A    between atoms: N2_9  and  C8_11 
REMARK    4  A    between atoms: C9_14  and  N4_15 
REMARK    5  A    between atoms: N4_15  and  C10_17 
REMARK    6  A    between atoms: C10_17  and  C11_18 
REMARK    7  A    between atoms: C17_26  and  N6_27 
REMARK    8  A    between atoms: N6_27  and  C18_29 
REMARK    9  A    between atoms: C21_32  and  C22_33 
REMARK   10  A    between atoms: C22_33  and  N7_34 
ROOT
HETATM    1  C1  UNL     1      52.255   6.039  -9.011  1.00  0.00     0.037 C 
HETATM    2  C2  UNL     1      53.115   5.344  -8.530  1.00  0.00     0.002 C 
HETATM    3  N1  UNL     1      54.106   4.528  -7.990  1.00  0.00    -0.312 N 
HETATM    4  C3  UNL     1      55.324   5.133  -7.504  1.00  0.00     0.167 C 
ENDROOT
BRANCH   3   5
HETATM    5  C4  UNL     1      53.950   3.122  -7.909  1.00  0.00     0.042 A 
HETATM    6  C5  UNL     1      53.105   2.439  -8.752  1.00  0.00     0.032 A 
HETATM    7  C6  UNL     1      52.997   1.081  -8.624  1.00  0.00     0.032 A 
HETATM    8  C7  UNL     1      53.709   0.390  -7.677  1.00  0.00     0.049 A 
HETATM    9  C25 UNL     1      54.556   1.067  -6.829  1.00  0.00     0.032 A 
HETATM   10  C26 UNL     1      54.684   2.435  -6.937  1.00  0.00     0.032 A 
BRANCH   8  11
HETATM   11  N2  UNL     1      53.582  -1.030  -7.559  1.00  0.00    -0.191 N 
ATOM     12  H2  UNL     1      52.738  -1.438  -7.158  1.00  0.00     0.184 HD
BRANCH  11  13
HETATM   13  C8  UNL     1      54.526  -1.781  -7.957  1.00  0.00     0.711 A 
HETATM   14  N3  UNL     1      55.284  -2.468  -7.082  1.00  0.00    -0.021 N 
HETATM   15  C9  UNL     1      56.286  -3.267  -7.480  1.00  0.00     0.707 A 
ATOM     16  H3  UNL     1      55.089  -2.380  -6.084  1.00  0.00     0.203 HD
HETATM   17  N5  UNL     1      56.506  -3.353  -8.804  1.00  0.00    -0.021 N 
HETATM   18  C17 UNL     1      55.759  -2.673  -9.709  1.00  0.00     0.711 A 
ATOM     19  H5  UNL     1      57.261  -3.952  -9.140  1.00  0.00     0.203 HD
HETATM   20  N8  UNL     1      54.767  -1.887  -9.264  1.00  0.00    -0.021 N 
ATOM     21  H8  UNL     1      54.194  -1.367  -9.929  1.00  0.00     0.203 HD
BRANCH  15  22
HETATM   22  N4  UNL     1      57.020  -3.928  -6.680  1.00  0.00    -0.221 N 
ATOM     23  H4  UNL     1      56.634  -4.783  -6.280  1.00  0.00     0.178 HD
BRANCH  22  24
HETATM   24  C10 UNL     1      58.355  -3.555  -6.301  1.00  0.00     0.176 C 
BRANCH  24  25
HETATM   25  C11 UNL     1      59.298  -3.667  -7.414  1.00  0.00    -0.040 A 
HETATM   26  C12 UNL     1      59.650  -4.893  -7.916  1.00  0.00     0.009 A 
HETATM   27  C13 UNL     1      60.548  -4.983  -8.973  1.00  0.00     0.001 A 
HETATM   28  C14 UNL     1      61.084  -3.853  -9.518  1.00  0.00     0.000 A 
HETATM   29  C15 UNL     1      60.722  -2.604  -9.002  1.00  0.00     0.001 A 
HETATM   30  C16 UNL     1      59.832  -2.509  -7.953  1.00  0.00     0.009 A 
ENDBRANCH  24  25
ENDBRANCH  22  24
ENDBRANCH  15  22
BRANCH  18  31
HETATM   31  N6  UNL     1      55.962  -2.750 -10.969  1.00  0.00    -0.191 N 
ATOM     32  H6  UNL     1      55.186  -2.983 -11.590  1.00  0.00     0.184 HD
BRANCH  31  33
HETATM   33  C18 UNL     1      57.242  -2.517 -11.515  1.00  0.00     0.049 A 
HETATM   34  C19 UNL     1      57.856  -1.284 -11.443  1.00  0.00     0.030 A 
HETATM   35  C20 UNL     1      59.108  -1.067 -11.980  1.00  0.00     0.011 A 
HETATM   36  C21 UNL     1      59.807  -2.071 -12.614  1.00  0.00    -0.033 A 
HETATM   37  C23 UNL     1      59.207  -3.310 -12.694  1.00  0.00     0.011 A 
HETATM   38  C24 UNL     1      57.955  -3.530 -12.158  1.00  0.00     0.030 A 
BRANCH  36  39
HETATM   39  C22 UNL     1      61.165  -1.819 -13.190  1.00  0.00     0.268 C 
BRANCH  39  40
HETATM   40  N7  UNL     1      61.959  -1.064 -12.266  1.00  0.00    -0.075 N 
ATOM     41  H73 UNL     1      61.757  -1.311 -11.298  1.00  0.00     0.274 HD
ATOM     42  H72 UNL     1      62.940  -1.342 -12.289  1.00  0.00     0.274 HD
ATOM     43  H71 UNL     1      61.842  -0.065 -12.438  1.00  0.00     0.274 HD
ENDBRANCH  39  40
ENDBRANCH  36  39
ENDBRANCH  31  33
ENDBRANCH  18  31
ENDBRANCH  11  13
ENDBRANCH   8  11
ENDBRANCH   3   5
TORSDOF 10
ENDMDL
MODEL 2
REMARK VINA RESULT: -6.629097933      3.642      6.452
REMARK  10 active torsions:
REMARK  status: ('A' for Active; 'I' for Inactive)
REMARK    1  A    between atoms: N1_3  and  C4_5 
REMARK    2  A    between atoms: C7_8  and  N2_9 
REMARK    3  A    between atoms: N2_9  and  C8_11 
REMARK    4  A    between atoms: C9_14  and  N4_15 
REMARK    5  A    between atoms: N4_15  and  C10_17 
REMARK    6  A    between atoms: C10_17  and  C11_18 
REMARK    7  A    between atoms: C17_26  and  N6_27 
REMARK    8  A    between atoms: N6_27  and  C18_29 
REMARK    9  A    between atoms: C21_32  and  C22_33 
REMARK   10  A    between atoms: C22_33  and  N7_34 
ROOT
HETATM    1  C1  UNL     1      60.766   8.520  -9.442  1.00  0.00     0.037 C 
HETATM    2  C2  UNL     1      60.499   7.694 -10.279  1.00  0.00     0.002 C 
HETATM    3  N1  UNL     1      60.175   6.733 -11.235  1.00  0.00    -0.312 N 
HETATM    4  C3  UNL     1      60.134   7.115 -12.627  1.00  0.00     0.167 C 
ENDROOT
BRANCH   3   5
HETATM    5  C4  UNL     1      59.884   5.394 -10.874  1.00  0.00     0.042 A 
HETATM    6  C5  UNL     1      60.000   4.361 -11.774  1.00  0.00     0.032 A 
HETATM    7  C6  UNL     1      59.705   3.089 -11.365  1.00  0.00     0.032 A 
HETATM    8  C7  UNL     1      59.298   2.824 -10.082  1.00  0.00     0.049 A 
HETATM    9  C25 UNL     1      59.179   3.852  -9.175  1.00  0.00     0.032 A 
HETATM   10  C26 UNL     1      59.471   5.143  -9.561  1.00  0.00     0.032 A 
BRANCH   8  11
HETATM   11  N2  UNL     1      58.994   1.487  -9.674  1.00  0.00    -0.191 N 
ATOM     12  H2  UNL     1      59.409   1.103  -8.826  1.00  0.00     0.184 HD
BRANCH  11  13
HETATM   13  C8  UNL     1      58.204   0.779 -10.374  1.00  0.00     0.711 A 
HETATM   14  N3  UNL     1      58.672  -0.049 -11.327  1.00  0.00    -0.021 N 
HETATM   15  C9  UNL     1      57.856  -0.804 -12.078  1.00  0.00     0.707 A 
ATOM     16  H3  UNL     1      59.679  -0.104 -11.482  1.00  0.00     0.203 HD
HETATM   17  N5  UNL     1      56.536  -0.700 -11.837  1.00  0.00    -0.021 N 
HETATM   18  C17 UNL     1      56.037   0.125 -10.883  1.00  0.00     0.711 A 
ATOM     19  H5  UNL     1      55.889  -1.260 -12.390  1.00  0.00     0.203 HD
HETATM   20  N8  UNL     1      56.892   0.862 -10.157  1.00  0.00    -0.021 N 
ATOM     21  H8  UNL     1      56.535   1.489  -9.436  1.00  0.00     0.203 HD
BRANCH  15  22
HETATM   22  N4  UNL     1      58.264  -1.595 -12.985  1.00  0.00    -0.221 N 
ATOM     23  H4  UNL     1      58.620  -1.183 -13.847  1.00  0.00     0.178 HD
BRANCH  22  24
HETATM   24  C10 UNL     1      58.260  -3.028 -12.880  1.00  0.00     0.176 C 
BRANCH  24  25
HETATM   25  C11 UNL     1      59.003  -3.500 -11.711  1.00  0.00    -0.040 A 
HETATM   26  C12 UNL     1      58.399  -4.292 -10.768  1.00  0.00     0.009 A 
HETATM   27  C13 UNL     1      59.117  -4.733  -9.664  1.00  0.00     0.001 A 
HETATM   28  C14 UNL     1      60.427  -4.382  -9.509  1.00  0.00     0.000 A 
HETATM   29  C15 UNL     1      61.038  -3.574 -10.474  1.00  0.00     0.001 A 
HETATM   30  C16 UNL     1      60.330  -3.133 -11.572  1.00  0.00     0.009 A 
ENDBRANCH  24  25
ENDBRANCH  22  24
ENDBRANCH  15  22
BRANCH  18  31
HETATM   31  N6  UNL     1      54.784   0.231 -10.649  1.00  0.00    -0.191 N 
ATOM     32  H6  UNL     1      54.161   0.564 -11.385  1.00  0.00     0.184 HD
BRANCH  31  33
HETATM   33  C18 UNL     1      54.249  -0.106  -9.387  1.00  0.00     0.049 A 
HETATM   34  C19 UNL     1      53.416   0.747  -8.693  1.00  0.00     0.030 A 
HETATM   35  C20 UNL     1      52.899   0.407  -7.460  1.00  0.00     0.011 A 
HETATM   36  C21 UNL     1      53.187  -0.800  -6.862  1.00  0.00    -0.033 A 
HETATM   37  C23 UNL     1      54.019  -1.664  -7.544  1.00  0.00     0.011 A 
HETATM   38  C24 UNL     1      54.538  -1.327  -8.776  1.00  0.00     0.030 A 
BRANCH  36  39
HETATM   39  C22 UNL     1      52.617  -1.153  -5.524  1.00  0.00     0.268 C 
BRANCH  39  40
HETATM   40  N7  UNL     1      51.248  -0.735  -5.448  1.00  0.00    -0.075 N 
ATOM     41  H73 UNL     1      50.744  -0.919  -6.314  1.00  0.00     0.274 HD
ATOM     42  H72 UNL     1      50.701  -1.332  -4.827  1.00  0.00     0.274 HD
ATOM     43  H71 UNL     1      51.196   0.247  -5.177  1.00  0.00     0.274 HD
ENDBRANCH  39  40
ENDBRANCH  36  39
ENDBRANCH  31  33
ENDBRANCH  18  31
ENDBRANCH  11  13
ENDBRANCH   8  11
ENDBRANCH   3   5
TORSDOF 10
ENDMDL
MODEL 3
REMARK VINA RESULT: -6.618125004      2.556      7.794
REMARK  10 active torsions:
REMARK  status: ('A' for Active; 'I' for Inactive)
REMARK    1  A    between atoms: N1_3  and  C4_5 
REMARK    2  A    between atoms: C7_8  and  N2_9 
REMARK    3  A    between atoms: N2_9  and  C8_11 
REMARK    4  A    between atoms: C9_14  and  N4_15 
REMARK    5  A    between atoms: N4_15  and  C10_17 
REMARK    6  A    between atoms: C10_17  and  C11_18 
REMARK    7  A    between atoms: C17_26  and  N6_27 
REMARK    8  A    between atoms: N6_27  and  C18_29 
REMARK    9  A    between atoms: C21_32  and  C22_33 
REMARK   10  A    between atoms: C22_33  and  N7_34 
ROOT
HETATM    1  C1  UNL     1      62.634  -1.561 -13.228  1.00  0.00     0.037 C 
HETATM    2  C2  UNL     1      62.477  -1.176 -12.097  1.00  0.00     0.002 C 
HETATM    3  N1  UNL     1      62.278  -0.740 -10.788  1.00  0.00    -0.312 N 
HETATM    4  C3  UNL     1      63.370  -0.826  -9.847  1.00  0.00     0.167 C 
ENDROOT
BRANCH   3   5
HETATM    5  C4  UNL     1      61.032  -0.217 -10.360  1.00  0.00     0.042 A 
HETATM    6  C5  UNL     1      60.128   0.315 -11.249  1.00  0.00     0.032 A 
HETATM    7  C6  UNL     1      58.941   0.804 -10.773  1.00  0.00     0.032 A 
HETATM    8  C7  UNL     1      58.638   0.777  -9.436  1.00  0.00     0.049 A 
HETATM    9  C25 UNL     1      59.538   0.247  -8.540  1.00  0.00     0.032 A 
HETATM   10  C26 UNL     1      60.741  -0.254  -8.992  1.00  0.00     0.032 A 
BRANCH   8  11
HETATM   11  N2  UNL     1      57.392   1.294  -8.959  1.00  0.00    -0.191 N 
ATOM     12  H2  UNL     1      57.358   2.199  -8.491  1.00  0.00     0.184 HD
BRANCH  11  13
HETATM   13  C8  UNL     1      56.328   0.619  -9.121  1.00  0.00     0.711 A 
HETATM   14  N3  UNL     1      56.375  -0.684  -9.455  1.00  0.00    -0.021 N 
HETATM   15  C9  UNL     1      55.264  -1.416  -9.632  1.00  0.00     0.707 A 
ATOM     16  H3  UNL     1      57.284  -1.130  -9.579  1.00  0.00     0.203 HD
HETATM   17  N5  UNL     1      54.087  -0.787  -9.457  1.00  0.00    -0.021 N 
HETATM   18  C17 UNL     1      54.009   0.524  -9.119  1.00  0.00     0.711 A 
ATOM     19  H5  UNL     1      53.224  -1.315  -9.584  1.00  0.00     0.203 HD
HETATM   20  N8  UNL     1      55.147   1.216  -8.954  1.00  0.00    -0.021 N 
ATOM     21  H8  UNL     1      55.109   2.202  -8.700  1.00  0.00     0.203 HD
BRANCH  15  22
HETATM   22  N4  UNL     1      55.274  -2.646  -9.948  1.00  0.00    -0.221 N 
ATOM     23  H4  UNL     1      54.460  -3.015 -10.439  1.00  0.00     0.178 HD
BRANCH  22  24
HETATM   24  C10 UNL     1      56.350  -3.554  -9.663  1.00  0.00     0.176 C 
BRANCH  24  25
HETATM   25  C11 UNL     1      57.433  -3.453 -10.642  1.00  0.00    -0.040 A 
HETATM   26  C12 UNL     1      57.162  -3.260 -11.972  1.00  0.00     0.009 A 
HETATM   27  C13 UNL     1      58.201  -3.167 -12.890  1.00  0.00     0.001 A 
HETATM   28  C14 UNL     1      59.497  -3.267 -12.475  1.00  0.00     0.000 A 
HETATM   29  C15 UNL     1      59.769  -3.463 -11.117  1.00  0.00     0.001 A 
HETATM   30  C16 UNL     1      58.741  -3.557 -10.202  1.00  0.00     0.009 A 
ENDBRANCH  24  25
ENDBRANCH  22  24
ENDBRANCH  15  22
BRANCH  18  31
HETATM   31  N6  UNL     1      52.895   1.129  -8.952  1.00  0.00    -0.191 N 
ATOM     32  H6  UNL     1      52.447   1.585  -9.747  1.00  0.00     0.184 HD
BRANCH  31  33
HETATM   33  C18 UNL     1      52.275   1.175  -7.686  1.00  0.00     0.049 A 
HETATM   34  C19 UNL     1      52.091   0.044  -6.918  1.00  0.00     0.030 A 
HETATM   35  C20 UNL     1      51.484   0.100  -5.681  1.00  0.00     0.011 A 
HETATM   36  C21 UNL     1      51.032   1.289  -5.151  1.00  0.00    -0.033 A 
HETATM   37  C23 UNL     1      51.207   2.429  -5.906  1.00  0.00     0.011 A 
HETATM   38  C24 UNL     1      51.814   2.376  -7.144  1.00  0.00     0.030 A 
BRANCH  36  39
HETATM   39  C22 UNL     1      50.376   1.333  -3.806  1.00  0.00     0.268 C 
BRANCH  39  40
HETATM   40  N7  UNL     1      50.354   0.022  -3.227  1.00  0.00    -0.075 N 
ATOM     41  H73 UNL     1      50.288  -0.708  -3.936  1.00  0.00     0.274 HD
ATOM     42  H72 UNL     1      51.257  -0.236  -2.831  1.00  0.00     0.274 HD
ATOM     43  H71 UNL     1      49.603  -0.045  -2.540  1.00  0.00     0.274 HD
ENDBRANCH  39  40
ENDBRANCH  36  39
ENDBRANCH  31  33
ENDBRANCH  18  31
ENDBRANCH  11  13
ENDBRANCH   8  11
ENDBRANCH   3   5
TORSDOF 10
ENDMDL
MODEL 4
REMARK VINA RESULT: -6.547497910      2.412      4.370
REMARK  10 active torsions:
REMARK  status: ('A' for Active; 'I' for Inactive)
REMARK    1  A    between atoms: N1_3  and  C4_5 
REMARK    2  A    between atoms: C7_8  and  N2_9 
REMARK    3  A    between atoms: N2_9  and  C8_11 
REMARK    4  A    between atoms: C9_14  and  N4_15 
REMARK    5  A    between atoms: N4_15  and  C10_17 
REMARK    6  A    between atoms: C10_17  and  C11_18 
REMARK    7  A    between atoms: C17_26  and  N6_27 
REMARK    8  A    between atoms: N6_27  and  C18_29 
REMARK    9  A    between atoms: C21_32  and  C22_33 
REMARK   10  A    between atoms: C22_33  and  N7_34 
ROOT
HETATM    1  C1  UNL     1      51.792  -0.089  -6.017  1.00  0.00     0.037 C 
HETATM    2  C2  UNL     1      52.533   0.302  -6.885  1.00  0.00     0.002 C 
HETATM    3  N1  UNL     1      53.380   0.741  -7.900  1.00  0.00    -0.312 N 
HETATM    4  C3  UNL     1      53.652   2.154  -8.023  1.00  0.00     0.167 C 
ENDROOT
BRANCH   3   5
HETATM    5  C4  UNL     1      53.978  -0.162  -8.813  1.00  0.00     0.042 A 
HETATM    6  C5  UNL     1      54.106  -1.501  -8.526  1.00  0.00     0.032 A 
HETATM    7  C6  UNL     1      54.692  -2.324  -9.450  1.00  0.00     0.032 A 
HETATM    8  C7  UNL     1      55.153  -1.843 -10.649  1.00  0.00     0.049 A 
HETATM    9  C25 UNL     1      55.029  -0.504 -10.943  1.00  0.00     0.032 A 
HETATM   10  C26 UNL     1      54.442   0.346 -10.031  1.00  0.00     0.032 A 
BRANCH   8  11
HETATM   11  N2  UNL     1      55.763  -2.720 -11.601  1.00  0.00    -0.191 N 
ATOM     12  H2  UNL     1      55.204  -3.142 -12.342  1.00  0.00     0.184 HD
BRANCH  11  13
HETATM   13  C8  UNL     1      57.006  -2.970 -11.519  1.00  0.00     0.711 A 
HETATM   14  N3  UNL     1      57.479  -3.859 -10.626  1.00  0.00    -0.021 N 
HETATM   15  C9  UNL     1      58.787  -4.138 -10.522  1.00  0.00     0.707 A 
ATOM     16  H3  UNL     1      56.821  -4.336 -10.008  1.00  0.00     0.203 HD
HETATM   17  N5  UNL     1      59.616  -3.487 -11.357  1.00  0.00    -0.021 N 
HETATM   18  C17 UNL     1      59.169  -2.587 -12.268  1.00  0.00     0.711 A 
ATOM     19  H5  UNL     1      60.617  -3.676 -11.304  1.00  0.00     0.203 HD
HETATM   20  N8  UNL     1      57.851  -2.339 -12.335  1.00  0.00    -0.021 N 
ATOM     21  H8  UNL     1      57.496  -1.666 -13.013  1.00  0.00     0.203 HD
BRANCH  15  22
HETATM   22  N4  UNL     1      59.266  -4.970  -9.690  1.00  0.00    -0.221 N 
ATOM     23  H4  UNL     1      58.667  -5.740  -9.392  1.00  0.00     0.178 HD
BRANCH  22  24
HETATM   24  C10 UNL     1      60.591  -4.902  -9.138  1.00  0.00     0.176 C 
BRANCH  24  25
HETATM   25  C11 UNL     1      60.965  -6.134  -8.443  1.00  0.00    -0.040 A 
HETATM   26  C12 UNL     1      61.740  -7.082  -9.062  1.00  0.00     0.009 A 
HETATM   27  C13 UNL     1      62.087  -8.247  -8.389  1.00  0.00     0.001 A 
HETATM   28  C14 UNL     1      61.661  -8.456  -7.110  1.00  0.00     0.000 A 
HETATM   29  C15 UNL     1      60.871  -7.486  -6.483  1.00  0.00     0.001 A 
HETATM   30  C16 UNL     1      60.523  -6.329  -7.146  1.00  0.00     0.009 A 
ENDBRANCH  24  25
ENDBRANCH  22  24
ENDBRANCH  15  22
BRANCH  18  31
HETATM   31  N6  UNL     1      59.951  -1.963 -13.065  1.00  0.00    -0.191 N 
ATOM     32  H6  UNL     1      59.725  -1.919 -14.058  1.00  0.00     0.184 HD
BRANCH  31  33
HETATM   33  C18 UNL     1      61.122  -1.335 -12.590  1.00  0.00     0.049 A 
HETATM   34  C19 UNL     1      62.368  -1.619 -13.109  1.00  0.00     0.030 A 
HETATM   35  C20 UNL     1      63.506  -0.999 -12.639  1.00  0.00     0.011 A 
HETATM   36  C21 UNL     1      63.455  -0.064 -11.628  1.00  0.00    -0.033 A 
HETATM   37  C23 UNL     1      62.217   0.231 -11.098  1.00  0.00     0.011 A 
HETATM   38  C24 UNL     1      61.077  -0.387 -11.567  1.00  0.00     0.030 A 
BRANCH  36  39
HETATM   39  C22 UNL     1      64.700   0.600 -11.129  1.00  0.00     0.268 C 
BRANCH  39  40
HETATM   40  N7  UNL     1      64.750   1.958 -11.586  1.00  0.00    -0.075 N 
ATOM     41  H73 UNL     1      64.372   2.058 -12.527  1.00  0.00     0.274 HD
ATOM     42  H72 UNL     1      64.083   2.551 -11.093  1.00  0.00     0.274 HD
ATOM     43  H71 UNL     1      65.703   2.315 -11.517  1.00  0.00     0.274 HD
ENDBRANCH  39  40
ENDBRANCH  36  39
ENDBRANCH  31  33
ENDBRANCH  18  31
ENDBRANCH  11  13
ENDBRANCH   8  11
ENDBRANCH   3   5
TORSDOF 10
ENDMDL
MODEL 5
REMARK VINA RESULT: -6.432691773      3.311      5.432
REMARK  10 active torsions:
REMARK  status: ('A' for Active; 'I' for Inactive)
REMARK    1  A    between atoms: N1_3  and  C4_5 
REMARK    2  A    between atoms: C7_8  and  N2_9 
REMARK    3  A    between atoms: N2_9  and  C8_11 
REMARK    4  A    between atoms: C9_14  and  N4_15 
REMARK    5  A    between atoms: N4_15  and  C10_17 
REMARK    6  A    between atoms: C10_17  and  C11_18 
REMARK    7  A    between atoms: C17_26  and  N6_27 
REMARK    8  A    between atoms: N6_27  and  C18_29 
REMARK    9  A    between atoms: C21_32  and  C22_33 
REMARK   10  A    between atoms: C22_33  and  N7_34 
ROOT
HETATM    1  C1  UNL     1      54.098  -1.172  -3.667  1.00  0.00     0.037 C 
HETATM    2  C2  UNL     1      53.410  -0.778  -4.576  1.00  0.00     0.002 C 
HETATM    3  N1  UNL     1      52.622  -0.339  -5.637  1.00  0.00    -0.312 N 
HETATM    4  C3  UNL     1      51.242   0.005  -5.391  1.00  0.00     0.167 C 
ENDROOT
BRANCH   3   5
HETATM    5  C4  UNL     1      53.142  -0.223  -6.951  1.00  0.00     0.042 A 
HETATM    6  C5  UNL     1      52.886   0.878  -7.735  1.00  0.00     0.032 A 
HETATM    7  C6  UNL     1      53.417   0.931  -8.995  1.00  0.00     0.032 A 
HETATM    8  C7  UNL     1      54.194  -0.085  -9.491  1.00  0.00     0.049 A 
HETATM    9  C25 UNL     1      54.454  -1.189  -8.712  1.00  0.00     0.032 A 
HETATM   10  C26 UNL     1      53.932  -1.269  -7.438  1.00  0.00     0.032 A 
BRANCH   8  11
HETATM   11  N2  UNL     1      54.739  -0.010 -10.811  1.00  0.00    -0.191 N 
ATOM     12  H2  UNL     1      54.122   0.088 -11.616  1.00  0.00     0.184 HD
BRANCH  11  13
HETATM   13  C8  UNL     1      55.998  -0.066 -10.975  1.00  0.00     0.711 A 
HETATM   14  N3  UNL     1      56.542  -0.865 -11.912  1.00  0.00    -0.021 N 
HETATM   15  C9  UNL     1      57.868  -0.940 -12.103  1.00  0.00     0.707 A 
ATOM     16  H3  UNL     1      55.926  -1.431 -12.496  1.00  0.00     0.203 HD
HETATM   17  N5  UNL     1      58.640  -0.175 -11.310  1.00  0.00    -0.021 N 
HETATM   18  C17 UNL     1      58.120   0.640 -10.359  1.00  0.00     0.711 A 
ATOM     19  H5  UNL     1      59.653  -0.209 -11.429  1.00  0.00     0.203 HD
HETATM   20  N8  UNL     1      56.788   0.682 -10.205  1.00  0.00    -0.021 N 
ATOM     21  H8  UNL     1      56.378   1.289  -9.495  1.00  0.00     0.203 HD
BRANCH  15  22
HETATM   22  N4  UNL     1      58.413  -1.684 -12.976  1.00  0.00    -0.221 N 
ATOM     23  H4  UNL     1      58.798  -1.235 -13.807  1.00  0.00     0.178 HD
BRANCH  22  24
HETATM   24  C10 UNL     1      58.525  -3.113 -12.876  1.00  0.00     0.176 C 
BRANCH  24  25
HETATM   25  C11 UNL     1      59.166  -3.532 -11.629  1.00  0.00    -0.040 A 
HETATM   26  C12 UNL     1      60.456  -3.161 -11.344  1.00  0.00     0.009 A 
HETATM   27  C13 UNL     1      61.052  -3.567 -10.156  1.00  0.00     0.001 A 
HETATM   28  C14 UNL     1      60.359  -4.336  -9.266  1.00  0.00     0.000 A 
HETATM   29  C15 UNL     1      59.045  -4.711  -9.562  1.00  0.00     0.001 A 
HETATM   30  C16 UNL     1      58.448  -4.312 -10.739  1.00  0.00     0.009 A 
ENDBRANCH  24  25
ENDBRANCH  22  24
ENDBRANCH  15  22
BRANCH  18  31
HETATM   31  N6  UNL     1      58.849   1.370  -9.602  1.00  0.00    -0.191 N 
ATOM     32  H6  UNL     1      59.178   0.998  -8.711  1.00  0.00     0.184 HD
BRANCH  31  33
HETATM   33  C18 UNL     1      59.204   2.682  -9.980  1.00  0.00     0.049 A 
HETATM   34  C19 UNL     1      59.672   2.980 -11.243  1.00  0.00     0.030 A 
HETATM   35  C20 UNL     1      60.016   4.266 -11.603  1.00  0.00     0.011 A 
HETATM   36  C21 UNL     1      59.909   5.317 -10.718  1.00  0.00    -0.033 A 
HETATM   37  C23 UNL     1      59.443   5.036  -9.451  1.00  0.00     0.011 A 
HETATM   38  C24 UNL     1      59.098   3.751  -9.089  1.00  0.00     0.030 A 
BRANCH  36  39
HETATM   39  C22 UNL     1      60.286   6.707 -11.124  1.00  0.00     0.268 C 
BRANCH  39  40
HETATM   40  N7  UNL     1      59.676   7.036 -12.379  1.00  0.00    -0.075 N 
ATOM     41  H73 UNL     1      59.317   6.210 -12.857  1.00  0.00     0.274 HD
ATOM     42  H72 UNL     1      58.793   7.532 -12.255  1.00  0.00     0.274 HD
ATOM     43  H71 UNL     1      60.330   7.560 -12.960  1.00  0.00     0.274 HD
ENDBRANCH  39  40
ENDBRANCH  36  39
ENDBRANCH  31  33
ENDBRANCH  18  31
ENDBRANCH  11  13
ENDBRANCH   8  11
ENDBRANCH   3   5
TORSDOF 10
ENDMDL
