MODEL 1
REMARK VINA RESULT: -7.442485671      0.000      0.000
REMARK  5 active torsions:
REMARK  status: ('A' for Active; 'I' for Inactive)
REMARK    1  A    between atoms: C2_2  and  C3_3 
REMARK    2  A    between atoms: N1_4  and  N2_6 
REMARK       I    between atoms: N2_6  and  C4_8 
REMARK       I    between atoms: C4_8  and  N3_10 
REMARK    3  A    between atoms: N3_10  and  N4_12 
REMARK    4  A    between atoms: N4_12  and  C6_14 
REMARK    5  A    between atoms: C11_19  and  S1_20 
ROOT
HETATM    1  N2  UNL     1       1.243   4.340  -3.133  1.00  0.00    -0.251 N 
ATOM      2  H2  UNL     1       1.708   5.203  -3.416  1.00  0.00     0.191 HD
HETATM    3  C4  UNL     1       1.802   3.493  -2.148  1.00  0.00     0.355 C 
HETATM    4  O1  UNL     1       1.244   2.431  -1.789  1.00  0.00    -0.244 OA
HETATM    5  N3  UNL     1       3.034   3.842  -1.543  1.00  0.00    -0.245 N 
HETATM    6  C5  UNL     1       3.682   5.070  -1.921  1.00  0.00     0.183 C 
ENDROOT
BRANCH   5   7
HETATM    7  N4  UNL     1       3.629   2.998  -0.621  1.00  0.00    -0.294 N 
ATOM      8  H4  UNL     1       4.019   2.131  -0.990  1.00  0.00     0.187 HD
BRANCH   7   9
HETATM    9  C6  UNL     1       3.757   3.201   0.765  1.00  0.00     0.070 A 
HETATM   10  C7  UNL     1       2.625   3.301   1.535  1.00  0.00     0.032 A 
HETATM   11  C8  UNL     1       2.748   3.484   2.895  1.00  0.00     0.002 A 
HETATM   12  C9  UNL     1       3.991   3.566   3.473  1.00  0.00     0.002 A 
HETATM   13  C10 UNL     1       5.132   3.467   2.704  1.00  0.00     0.026 A 
HETATM   14  C11 UNL     1       5.032   3.281   1.324  1.00  0.00     0.086 A 
BRANCH  14  15
HETATM   15  S1  UNL     1       6.476   3.171   0.337  1.00  0.00     0.174 S 
HETATM   16  C12 UNL     1       6.902   4.735  -0.392  1.00  0.00     0.167 C 
HETATM   17  O2  UNL     1       7.628   2.755   1.207  1.00  0.00    -0.223 OA
HETATM   18  O3  UNL     1       6.241   2.103  -0.722  1.00  0.00    -0.223 OA
ENDBRANCH  14  15
ENDBRANCH   7   9
ENDBRANCH   5   7
BRANCH   1  19
HETATM   19  N1  UNL     1       0.024   3.946  -3.707  1.00  0.00    -0.307 N 
HETATM   20  C3  UNL     1      -0.464   4.502  -4.763  1.00  0.00     0.114 C 
ATOM     21  H1  UNL     1      -0.497   3.186  -3.269  1.00  0.00     0.186 HD
BRANCH  20  22
HETATM   22  C2  UNL     1      -1.723   4.015  -5.267  1.00  0.00    -0.034 C 
HETATM   23  C1  UNL     1      -2.279   2.739  -4.758  1.00  0.00     0.050 C 
HETATM   24  C13 UNL     1      -2.384   4.682  -6.166  1.00  0.00     0.092 C 
HETATM   25 CL1  UNL     1      -1.792   6.186  -6.811  1.00  0.00    -0.096 Cl
ENDBRANCH  20  22
ENDBRANCH   1  19
TORSDOF 5
ENDMDL
MODEL 2
REMARK VINA RESULT: -7.401515138      3.908      7.853
REMARK  5 active torsions:
REMARK  status: ('A' for Active; 'I' for Inactive)
REMARK    1  A    between atoms: C2_2  and  C3_3 
REMARK    2  A    between atoms: N1_4  and  N2_6 
REMARK       I    between atoms: N2_6  and  C4_8 
REMARK       I    between atoms: C4_8  and  N3_10 
REMARK    3  A    between atoms: N3_10  and  N4_12 
REMARK    4  A    between atoms: N4_12  and  C6_14 
REMARK    5  A    between atoms: C11_19  and  S1_20 
ROOT
HETATM    1  N2  UNL     1       2.361   1.900  -1.205  1.00  0.00    -0.251 N 
ATOM      2  H2  UNL     1       1.696   1.135  -1.323  1.00  0.00     0.191 HD
HETATM    3  C4  UNL     1       2.063   3.209  -1.649  1.00  0.00     0.355 C 
HETATM    4  O1  UNL     1       2.869   4.158  -1.510  1.00  0.00    -0.244 OA
HETATM    5  N3  UNL     1       0.820   3.469  -2.275  1.00  0.00    -0.245 N 
HETATM    6  C5  UNL     1      -0.132   2.401  -2.424  1.00  0.00     0.183 C 
ENDROOT
BRANCH   5   7
HETATM    7  N4  UNL     1       0.532   4.729  -2.771  1.00  0.00    -0.294 N 
ATOM      8  H4  UNL     1       0.910   5.518  -2.246  1.00  0.00     0.187 HD
BRANCH   7   9
HETATM    9  C6  UNL     1      -0.224   5.045  -3.914  1.00  0.00     0.070 A 
HETATM   10  C7  UNL     1      -1.562   4.739  -3.939  1.00  0.00     0.032 A 
HETATM   11  C8  UNL     1      -2.307   5.062  -5.052  1.00  0.00     0.002 A 
HETATM   12  C9  UNL     1      -1.717   5.683  -6.124  1.00  0.00     0.002 A 
HETATM   13  C10 UNL     1      -0.373   5.992  -6.105  1.00  0.00     0.026 A 
HETATM   14  C11 UNL     1       0.403   5.675  -4.989  1.00  0.00     0.086 A 
BRANCH  14  15
HETATM   15  S1  UNL     1       2.115   6.050  -4.963  1.00  0.00     0.174 S 
HETATM   16  C12 UNL     1       2.623   6.931  -6.421  1.00  0.00     0.167 C 
HETATM   17  O2  UNL     1       2.400   6.936  -3.784  1.00  0.00    -0.223 OA
HETATM   18  O3  UNL     1       2.880   4.744  -4.801  1.00  0.00    -0.223 OA
ENDBRANCH  14  15
ENDBRANCH   7   9
ENDBRANCH   5   7
BRANCH   1  19
HETATM   19  N1  UNL     1       3.610   1.694  -0.597  1.00  0.00    -0.307 N 
HETATM   20  C3  UNL     1       3.810   1.870   0.665  1.00  0.00     0.114 C 
ATOM     21  H1  UNL     1       4.391   1.392  -1.179  1.00  0.00     0.186 HD
BRANCH  20  22
HETATM   22  C2  UNL     1       5.133   1.627   1.183  1.00  0.00    -0.034 C 
HETATM   23  C1  UNL     1       6.274   1.466   0.251  1.00  0.00     0.050 C 
HETATM   24  C13 UNL     1       5.342   1.547   2.464  1.00  0.00     0.092 C 
HETATM   25 CL1  UNL     1       4.051   1.723   3.616  1.00  0.00    -0.096 Cl
ENDBRANCH  20  22
ENDBRANCH   1  19
TORSDOF 5
ENDMDL
MODEL 3
REMARK VINA RESULT: -7.394579349      4.430      8.032
REMARK  5 active torsions:
REMARK  status: ('A' for Active; 'I' for Inactive)
REMARK    1  A    between atoms: C2_2  and  C3_3 
REMARK    2  A    between atoms: N1_4  and  N2_6 
REMARK       I    between atoms: N2_6  and  C4_8 
REMARK       I    between atoms: C4_8  and  N3_10 
REMARK    3  A    between atoms: N3_10  and  N4_12 
REMARK    4  A    between atoms: N4_12  and  C6_14 
REMARK    5  A    between atoms: C11_19  and  S1_20 
ROOT
HETATM    1  N2  UNL     1       5.208   3.005  -2.446  1.00  0.00    -0.251 N 
ATOM      2  H2  UNL     1       5.765   2.962  -3.299  1.00  0.00     0.191 HD
HETATM    3  C4  UNL     1       4.050   3.813  -2.362  1.00  0.00     0.355 C 
HETATM    4  O1  UNL     1       3.355   3.875  -1.322  1.00  0.00    -0.244 OA
HETATM    5  N3  UNL     1       3.656   4.587  -3.480  1.00  0.00    -0.245 N 
HETATM    6  C5  UNL     1       4.424   4.514  -4.695  1.00  0.00     0.183 C 
ENDROOT
BRANCH   5   7
HETATM    7  N4  UNL     1       2.562   5.430  -3.402  1.00  0.00    -0.294 N 
ATOM      8  H4  UNL     1       2.749   6.384  -3.090  1.00  0.00     0.187 HD
BRANCH   7   9
HETATM    9  C6  UNL     1       1.222   5.124  -3.703  1.00  0.00     0.070 A 
HETATM   10  C7  UNL     1       0.517   4.304  -2.859  1.00  0.00     0.032 A 
HETATM   11  C8  UNL     1      -0.801   4.015  -3.143  1.00  0.00     0.002 A 
HETATM   12  C9  UNL     1      -1.399   4.542  -4.259  1.00  0.00     0.002 A 
HETATM   13  C10 UNL     1      -0.695   5.367  -5.112  1.00  0.00     0.026 A 
HETATM   14  C11 UNL     1       0.641   5.674  -4.844  1.00  0.00     0.086 A 
BRANCH  14  15
HETATM   15  S1  UNL     1       1.547   6.708  -5.931  1.00  0.00     0.174 S 
HETATM   16  C12 UNL     1       0.491   7.523  -7.106  1.00  0.00     0.167 C 
HETATM   17  O2  UNL     1       2.230   7.778  -5.127  1.00  0.00    -0.223 OA
HETATM   18  O3  UNL     1       2.602   5.855  -6.621  1.00  0.00    -0.223 OA
ENDBRANCH  14  15
ENDBRANCH   7   9
ENDBRANCH   5   7
BRANCH   1  19
HETATM   19  N1  UNL     1       5.560   2.263  -1.307  1.00  0.00    -0.307 N 
HETATM   20  C3  UNL     1       6.456   2.655  -0.467  1.00  0.00     0.114 C 
ATOM     21  H1  UNL     1       5.085   1.376  -1.137  1.00  0.00     0.186 HD
BRANCH  20  22
HETATM   22  C2  UNL     1       6.736   1.815   0.670  1.00  0.00    -0.034 C 
HETATM   23  C1  UNL     1       5.644   1.444   1.601  1.00  0.00     0.050 C 
HETATM   24  C13 UNL     1       7.938   1.372   0.892  1.00  0.00     0.092 C 
HETATM   25 CL1  UNL     1       9.269   1.768  -0.157  1.00  0.00    -0.096 Cl
ENDBRANCH  20  22
ENDBRANCH   1  19
TORSDOF 5
ENDMDL
MODEL 4
REMARK VINA RESULT: -7.384468138      4.306      8.111
REMARK  5 active torsions:
REMARK  status: ('A' for Active; 'I' for Inactive)
REMARK    1  A    between atoms: C2_2  and  C3_3 
REMARK    2  A    between atoms: N1_4  and  N2_6 
REMARK       I    between atoms: N2_6  and  C4_8 
REMARK       I    between atoms: C4_8  and  N3_10 
REMARK    3  A    between atoms: N3_10  and  N4_12 
REMARK    4  A    between atoms: N4_12  and  C6_14 
REMARK    5  A    between atoms: C11_19  and  S1_20 
ROOT
HETATM    1  N2  UNL     1       5.370   4.200  -1.693  1.00  0.00    -0.251 N 
ATOM      2  H2  UNL     1       5.451   5.130  -1.282  1.00  0.00     0.191 HD
HETATM    3  C4  UNL     1       4.503   3.951  -2.783  1.00  0.00     0.355 C 
HETATM    4  O1  UNL     1       4.393   2.815  -3.300  1.00  0.00    -0.244 OA
HETATM    5  N3  UNL     1       3.724   5.008  -3.313  1.00  0.00    -0.245 N 
HETATM    6  C5  UNL     1       3.851   6.327  -2.752  1.00  0.00     0.183 C 
ENDROOT
BRANCH   5   7
HETATM    7  N4  UNL     1       2.825   4.774  -4.338  1.00  0.00    -0.294 N 
ATOM      8  H4  UNL     1       3.227   4.602  -5.260  1.00  0.00     0.187 HD
BRANCH   7   9
HETATM    9  C6  UNL     1       1.421   4.746  -4.254  1.00  0.00     0.070 A 
HETATM   10  C7  UNL     1       0.819   3.876  -3.380  1.00  0.00     0.032 A 
HETATM   11  C8  UNL     1      -0.555   3.857  -3.285  1.00  0.00     0.002 A 
HETATM   12  C9  UNL     1      -1.314   4.702  -4.056  1.00  0.00     0.002 A 
HETATM   13  C10 UNL     1      -0.714   5.578  -4.937  1.00  0.00     0.026 A 
HETATM   14  C11 UNL     1       0.677   5.615  -5.051  1.00  0.00     0.086 A 
BRANCH  14  15
HETATM   15  S1  UNL     1       1.445   6.715  -6.178  1.00  0.00     0.174 S 
HETATM   16  C12 UNL     1       0.270   7.455  -7.288  1.00  0.00     0.167 C 
HETATM   17  O2  UNL     1       2.093   7.828  -5.406  1.00  0.00    -0.223 OA
HETATM   18  O3  UNL     1       2.518   5.941  -6.932  1.00  0.00    -0.223 OA
ENDBRANCH  14  15
ENDBRANCH   7   9
ENDBRANCH   5   7
BRANCH   1  19
HETATM   19  N1  UNL     1       6.114   3.117  -1.201  1.00  0.00    -0.307 N 
HETATM   20  C3  UNL     1       6.759   3.161  -0.084  1.00  0.00     0.114 C 
ATOM     21  H1  UNL     1       6.147   2.258  -1.750  1.00  0.00     0.186 HD
BRANCH  20  22
HETATM   22  C2  UNL     1       7.489   1.988   0.326  1.00  0.00    -0.034 C 
HETATM   23  C1  UNL     1       8.955   1.922   0.125  1.00  0.00     0.050 C 
HETATM   24  C13 UNL     1       6.876   0.981   0.876  1.00  0.00     0.092 C 
HETATM   25 CL1  UNL     1       5.157   0.987   1.142  1.00  0.00    -0.096 Cl
ENDBRANCH  20  22
ENDBRANCH   1  19
TORSDOF 5
ENDMDL
MODEL 5
REMARK VINA RESULT: -7.377581449      1.289      1.477
REMARK  5 active torsions:
REMARK  status: ('A' for Active; 'I' for Inactive)
REMARK    1  A    between atoms: C2_2  and  C3_3 
REMARK    2  A    between atoms: N1_4  and  N2_6 
REMARK       I    between atoms: N2_6  and  C4_8 
REMARK       I    between atoms: C4_8  and  N3_10 
REMARK    3  A    between atoms: N3_10  and  N4_12 
REMARK    4  A    between atoms: N4_12  and  C6_14 
REMARK    5  A    between atoms: C11_19  and  S1_20 
ROOT
HETATM    1  N2  UNL     1       1.740   4.518  -3.302  1.00  0.00    -0.251 N 
ATOM      2  H2  UNL     1       2.204   5.414  -3.448  1.00  0.00     0.191 HD
HETATM    3  C4  UNL     1       2.195   3.605  -2.321  1.00  0.00     0.355 C 
HETATM    4  O1  UNL     1       1.636   2.501  -2.128  1.00  0.00    -0.244 OA
HETATM    5  N3  UNL     1       3.321   3.936  -1.528  1.00  0.00    -0.245 N 
HETATM    6  C5  UNL     1       3.965   5.209  -1.713  1.00  0.00     0.183 C 
ENDROOT
BRANCH   5   7
HETATM    7  N4  UNL     1       3.820   3.034  -0.605  1.00  0.00    -0.294 N 
ATOM      8  H4  UNL     1       4.132   2.136  -0.974  1.00  0.00     0.187 HD
BRANCH   7   9
HETATM    9  C6  UNL     1       3.947   3.215   0.785  1.00  0.00     0.070 A 
HETATM   10  C7  UNL     1       2.815   3.357   1.548  1.00  0.00     0.032 A 
HETATM   11  C8  UNL     1       2.935   3.519   2.911  1.00  0.00     0.002 A 
HETATM   12  C9  UNL     1       4.176   3.537   3.498  1.00  0.00     0.002 A 
HETATM   13  C10 UNL     1       5.317   3.395   2.736  1.00  0.00     0.026 A 
HETATM   14  C11 UNL     1       5.220   3.230   1.354  1.00  0.00     0.086 A 
BRANCH  14  15
HETATM   15  S1  UNL     1       6.665   3.064   0.376  1.00  0.00     0.174 S 
HETATM   16  C12 UNL     1       7.130   4.603  -0.384  1.00  0.00     0.167 C 
HETATM   17  O2  UNL     1       7.803   2.641   1.260  1.00  0.00    -0.223 OA
HETATM   18  O3  UNL     1       6.409   1.980  -0.661  1.00  0.00    -0.223 OA
ENDBRANCH  14  15
ENDBRANCH   7   9
ENDBRANCH   5   7
BRANCH   1  19
HETATM   19  N1  UNL     1       0.625   4.139  -4.066  1.00  0.00    -0.307 N 
HETATM   20  C3  UNL     1      -0.581   4.474  -3.755  1.00  0.00     0.114 C 
ATOM     21  H1  UNL     1       0.776   3.575  -4.902  1.00  0.00     0.186 HD
BRANCH  20  22
HETATM   22  C2  UNL     1      -1.651   4.032  -4.614  1.00  0.00    -0.034 C 
HETATM   23  C1  UNL     1      -2.099   4.887  -5.738  1.00  0.00     0.050 C 
HETATM   24  C13 UNL     1      -2.232   2.885  -4.418  1.00  0.00     0.092 C 
HETATM   25 CL1  UNL     1      -1.761   1.829  -3.117  1.00  0.00    -0.096 Cl
ENDBRANCH  20  22
ENDBRANCH   1  19
TORSDOF 5
ENDMDL
