MODEL 1
REMARK VINA RESULT: -5.925330380      0.000      0.000
REMARK  3 active torsions:
REMARK  status: ('A' for Active; 'I' for Inactive)
REMARK    1  A    between atoms: O1_1  and  C1_3 
REMARK    2  A    between atoms: C1_3  and  C2_4 
REMARK    3  A    between atoms: C1_3  and  C6_8 
ROOT
HETATM    1  C1  UNL     1      -4.907   1.804  16.015  1.00  0.00     0.151 C 
ENDROOT
BRANCH   1   2
HETATM    2  O1  UNL     1      -3.734   1.090  16.226  1.00  0.00    -0.393 OA
ATOM      3  H1  UNL     1      -3.746   0.348  15.632  1.00  0.00     0.210 HD
ENDBRANCH   1   2
BRANCH   1   4
HETATM    4  C2  UNL     1      -5.818   1.541  17.210  1.00  0.00     0.017 C 
HETATM    5  C3  UNL     1      -6.121   2.763  18.033  1.00  0.00     0.007 C 
HETATM    6  C4  UNL     1      -7.434   2.878  17.316  1.00  0.00     0.001 C 
HETATM    7  C5  UNL     1      -7.286   1.441  16.891  1.00  0.00     0.007 C 
ENDBRANCH   1   4
BRANCH   1   8
HETATM    8  C6  UNL     1      -4.593   3.259  15.897  1.00  0.00     0.152 C 
HETATM    9  C7  UNL     1      -5.068   3.934  14.645  1.00  0.00     0.061 C 
HETATM   10  C8  UNL     1      -3.712   4.638  14.718  1.00  0.00     0.171 C 
HETATM   11  O2  UNL     1      -3.291   3.563  15.526  1.00  0.00    -0.383 OA
ENDBRANCH   1   8
TORSDOF 3
ENDMDL
MODEL 2
REMARK VINA RESULT: -5.588733332      2.011      2.455
REMARK  3 active torsions:
REMARK  status: ('A' for Active; 'I' for Inactive)
REMARK    1  A    between atoms: O1_1  and  C1_3 
REMARK    2  A    between atoms: C1_3  and  C2_4 
REMARK    3  A    between atoms: C1_3  and  C6_8 
ROOT
HETATM    1  C1  UNL     1      -5.666   1.440  16.058  1.00  0.00     0.151 C 
ENDROOT
BRANCH   1   2
HETATM    2  O1  UNL     1      -5.732   0.337  16.900  1.00  0.00    -0.393 OA
ATOM      3  H1  UNL     1      -5.503   0.635  17.773  1.00  0.00     0.210 HD
ENDBRANCH   1   2
BRANCH   1   4
HETATM    4  C2  UNL     1      -5.373   2.658  16.930  1.00  0.00     0.017 C 
HETATM    5  C3  UNL     1      -5.851   3.960  16.349  1.00  0.00     0.007 C 
HETATM    6  C4  UNL     1      -7.060   3.871  17.233  1.00  0.00     0.001 C 
HETATM    7  C5  UNL     1      -6.321   2.869  18.080  1.00  0.00     0.007 C 
ENDBRANCH   1   4
BRANCH   1   8
HETATM    8  C6  UNL     1      -4.584   1.237  15.050  1.00  0.00     0.152 C 
HETATM    9  C7  UNL     1      -4.721   2.014  13.775  1.00  0.00     0.061 C 
HETATM   10  C8  UNL     1      -4.229   0.714  13.134  1.00  0.00     0.171 C 
HETATM   11  O2  UNL     1      -4.669   0.068  14.307  1.00  0.00    -0.383 OA
ENDBRANCH   1   8
TORSDOF 3
ENDMDL
MODEL 3
REMARK VINA RESULT: -5.397579210      1.282      1.620
REMARK  3 active torsions:
REMARK  status: ('A' for Active; 'I' for Inactive)
REMARK    1  A    between atoms: O1_1  and  C1_3 
REMARK    2  A    between atoms: C1_3  and  C2_4 
REMARK    3  A    between atoms: C1_3  and  C6_8 
ROOT
HETATM    1  C1  UNL     1      -4.844   2.411  15.573  1.00  0.00     0.151 C 
ENDROOT
BRANCH   1   2
HETATM    2  O1  UNL     1      -3.710   1.879  16.172  1.00  0.00    -0.393 OA
ATOM      3  H1  UNL     1      -3.148   1.559  15.477  1.00  0.00     0.210 HD
ENDBRANCH   1   2
BRANCH   1   4
HETATM    4  C2  UNL     1      -5.703   3.012  16.682  1.00  0.00     0.017 C 
HETATM    5  C3  UNL     1      -7.180   2.985  16.400  1.00  0.00     0.007 C 
HETATM    6  C4  UNL     1      -7.286   1.760  17.260  1.00  0.00     0.001 C 
HETATM    7  C5  UNL     1      -5.952   2.112  17.862  1.00  0.00     0.007 C 
ENDBRANCH   1   4
BRANCH   1   8
HETATM    8  C6  UNL     1      -4.445   3.457  14.585  1.00  0.00     0.152 C 
HETATM    9  C7  UNL     1      -4.388   4.862  15.105  1.00  0.00     0.061 C 
HETATM   10  C8  UNL     1      -5.016   5.204  13.752  1.00  0.00     0.171 C 
HETATM   11  O2  UNL     1      -5.439   3.860  13.704  1.00  0.00    -0.383 OA
ENDBRANCH   1   8
TORSDOF 3
ENDMDL
MODEL 4
REMARK VINA RESULT: -5.385169741      1.131      3.835
REMARK  3 active torsions:
REMARK  status: ('A' for Active; 'I' for Inactive)
REMARK    1  A    between atoms: O1_1  and  C1_3 
REMARK    2  A    between atoms: C1_3  and  C2_4 
REMARK    3  A    between atoms: C1_3  and  C6_8 
ROOT
HETATM    1  C1  UNL     1      -4.578   3.009  16.067  1.00  0.00     0.151 C 
ENDROOT
BRANCH   1   2
HETATM    2  O1  UNL     1      -3.749   1.901  16.182  1.00  0.00    -0.393 OA
ATOM      3  H1  UNL     1      -4.119   1.341  16.854  1.00  0.00     0.210 HD
ENDBRANCH   1   2
BRANCH   1   4
HETATM    4  C2  UNL     1      -4.244   3.689  14.742  1.00  0.00     0.017 C 
HETATM    5  C3  UNL     1      -5.285   4.667  14.272  1.00  0.00     0.007 C 
HETATM    6  C4  UNL     1      -4.440   5.778  14.823  1.00  0.00     0.001 C 
HETATM    7  C5  UNL     1      -3.269   4.832  14.834  1.00  0.00     0.007 C 
ENDBRANCH   1   4
BRANCH   1   8
HETATM    8  C6  UNL     1      -6.006   2.571  16.092  1.00  0.00     0.152 C 
HETATM    9  C7  UNL     1      -6.738   2.797  17.381  1.00  0.00     0.061 C 
HETATM   10  C8  UNL     1      -7.331   1.418  17.084  1.00  0.00     0.171 C 
HETATM   11  O2  UNL     1      -6.212   1.208  16.254  1.00  0.00    -0.383 OA
ENDBRANCH   1   8
TORSDOF 3
ENDMDL
MODEL 5
REMARK VINA RESULT: -5.211565613      1.540      1.710
REMARK  3 active torsions:
REMARK  status: ('A' for Active; 'I' for Inactive)
REMARK    1  A    between atoms: O1_1  and  C1_3 
REMARK    2  A    between atoms: C1_3  and  C2_4 
REMARK    3  A    between atoms: C1_3  and  C6_8 
ROOT
HETATM    1  C1  UNL     1      -5.022   1.721  15.619  1.00  0.00     0.151 C 
ENDROOT
BRANCH   1   2
HETATM    2  O1  UNL     1      -3.794   1.136  15.902  1.00  0.00    -0.393 OA
ATOM      3  H1  UNL     1      -3.434   0.827  15.079  1.00  0.00     0.210 HD
ENDBRANCH   1   2
BRANCH   1   4
HETATM    4  C2  UNL     1      -5.319   2.714  16.738  1.00  0.00     0.017 C 
HETATM    5  C3  UNL     1      -6.492   3.617  16.465  1.00  0.00     0.007 C 
HETATM    6  C4  UNL     1      -7.338   2.715  17.316  1.00  0.00     0.001 C 
HETATM    7  C5  UNL     1      -6.075   2.154  17.912  1.00  0.00     0.007 C 
ENDBRANCH   1   4
BRANCH   1   8
HETATM    8  C6  UNL     1      -4.954   2.414  14.298  1.00  0.00     0.152 C 
HETATM    9  C7  UNL     1      -4.441   1.594  13.152  1.00  0.00     0.061 C 
HETATM   10  C8  UNL     1      -3.716   2.888  12.777  1.00  0.00     0.171 C 
HETATM   11  O2  UNL     1      -3.874   3.268  14.125  1.00  0.00    -0.383 OA
ENDBRANCH   1   8
TORSDOF 3
ENDMDL
