MODEL 1
REMARK VINA RESULT: -7.534965540      0.000      0.000
REMARK  4 active torsions:
REMARK  status: ('A' for Active; 'I' for Inactive)
REMARK    1  A    between atoms: C7_9  and  N2_10 
REMARK    2  A    between atoms: N2_10  and  C8_12 
REMARK    3  A    between atoms: C8_12  and  C9_13 
REMARK    4  A    between atoms: C9_13  and  N3_14 
ROOT
HETATM    1  C1  UNL     1      -3.361  -0.165   9.969  1.00  0.00     0.010 C 
HETATM    2  C2  UNL     1      -4.264   0.220  11.101  1.00  0.00    -0.009 C 
HETATM    3  C3  UNL     1      -3.858  -0.385  12.405  1.00  0.00     0.062 C 
HETATM    4  C4  UNL     1      -4.323   0.599  13.404  1.00  0.00     0.018 A 
HETATM    5  N1  UNL     1      -4.569   0.470  14.700  1.00  0.00    -0.362 N 
ATOM      6  H1  UNL     1      -4.431  -0.443  15.132  1.00  0.00     0.165 HD
HETATM    7  C5  UNL     1      -4.989   1.484  15.467  1.00  0.00     0.018 A 
HETATM    8  C6  UNL     1      -5.174   2.704  14.889  1.00  0.00    -0.008 A 
HETATM    9  C7  UNL     1      -4.943   2.944  13.529  1.00  0.00     0.048 A 
HETATM   10  C15 UNL     1      -4.513   1.845  12.819  1.00  0.00    -0.008 A 
HETATM   11  C16 UNL     1      -4.172   1.709  11.402  1.00  0.00     0.047 C 
HETATM   12  C17 UNL     1      -5.634   3.938  15.576  1.00  0.00     0.043 C 
HETATM   13  C18 UNL     1      -6.882   3.671  16.417  1.00  0.00     0.005 C 
HETATM   14  C19 UNL     1      -6.539   2.895  17.666  1.00  0.00     0.001 C 
HETATM   15  C20 UNL     1      -6.538   1.390  17.398  1.00  0.00     0.006 C 
HETATM   16  C21 UNL     1      -5.180   1.030  16.890  1.00  0.00     0.057 C 
ENDROOT
BRANCH   9  17
HETATM   17  N2  UNL     1      -5.143   4.101  13.120  1.00  0.00    -0.367 N 
ATOM     18  H2  UNL     1      -6.105   4.390  13.299  1.00  0.00     0.165 HD
BRANCH  17  19
HETATM   19  C8  UNL     1      -4.430   5.114  12.488  1.00  0.00     0.080 C 
BRANCH  19  20
HETATM   20  C9  UNL     1      -3.034   5.384  13.074  1.00  0.00     0.161 C 
BRANCH  20  21
HETATM   21  N3  UNL     1      -2.085   5.200  12.033  1.00  0.00    -0.405 N 
HETATM   22  C10 UNL     1      -2.618   5.100  10.725  1.00  0.00     0.147 C 
HETATM   23  C11 UNL     1      -1.544   4.723   9.751  1.00  0.00     0.291 C 
HETATM   24  N4  UNL     1      -0.786   3.561  10.098  1.00  0.00     0.087 N 
HETATM   25  C12 UNL     1       0.604   3.757   9.689  1.00  0.00     0.310 C 
HETATM   26  C13 UNL     1      -0.824   3.194  11.485  1.00  0.00     0.291 C 
HETATM   27  C14 UNL     1      -0.921   4.455  12.334  1.00  0.00     0.147 C 
ENDBRANCH  20  21
ENDBRANCH  19  20
ENDBRANCH  17  19
ENDBRANCH   9  17
TORSDOF 4
ENDMDL
MODEL 2
REMARK VINA RESULT: -7.393140770      0.923      1.182
REMARK  4 active torsions:
REMARK  status: ('A' for Active; 'I' for Inactive)
REMARK    1  A    between atoms: C7_9  and  N2_10 
REMARK    2  A    between atoms: N2_10  and  C8_12 
REMARK    3  A    between atoms: C8_12  and  C9_13 
REMARK    4  A    between atoms: C9_13  and  N3_14 
ROOT
HETATM    1  C1  UNL     1      -3.363  -0.174   9.974  1.00  0.00     0.010 C 
HETATM    2  C2  UNL     1      -4.267   0.215  11.104  1.00  0.00    -0.009 C 
HETATM    3  C3  UNL     1      -3.872  -0.398  12.408  1.00  0.00     0.062 C 
HETATM    4  C4  UNL     1      -4.333   0.588  13.408  1.00  0.00     0.018 A 
HETATM    5  N1  UNL     1      -4.585   0.457  14.702  1.00  0.00    -0.362 N 
ATOM      6  H1  UNL     1      -4.456  -0.459  15.132  1.00  0.00     0.165 HD
HETATM    7  C5  UNL     1      -5.000   1.472  15.471  1.00  0.00     0.018 A 
HETATM    8  C6  UNL     1      -5.172   2.695  14.896  1.00  0.00    -0.008 A 
HETATM    9  C7  UNL     1      -4.933   2.938  13.537  1.00  0.00     0.048 A 
HETATM   10  C15 UNL     1      -4.509   1.836  12.826  1.00  0.00    -0.008 A 
HETATM   11  C16 UNL     1      -4.163   1.703  11.410  1.00  0.00     0.047 C 
HETATM   12  C17 UNL     1      -5.623   3.931  15.584  1.00  0.00     0.043 C 
HETATM   13  C18 UNL     1      -6.877   3.673  16.420  1.00  0.00     0.005 C 
HETATM   14  C19 UNL     1      -6.546   2.889  17.667  1.00  0.00     0.001 C 
HETATM   15  C20 UNL     1      -6.557   1.386  17.395  1.00  0.00     0.006 C 
HETATM   16  C21 UNL     1      -5.200   1.015  16.891  1.00  0.00     0.057 C 
ENDROOT
BRANCH   9  17
HETATM   17  N2  UNL     1      -5.121   4.097  13.131  1.00  0.00    -0.367 N 
ATOM     18  H2  UNL     1      -6.081   4.393  13.305  1.00  0.00     0.165 HD
BRANCH  17  19
HETATM   19  C8  UNL     1      -4.396   5.106  12.506  1.00  0.00     0.080 C 
BRANCH  19  20
HETATM   20  C9  UNL     1      -3.064   5.462  13.187  1.00  0.00     0.161 C 
BRANCH  20  21
HETATM   21  N3  UNL     1      -2.022   5.225  12.250  1.00  0.00    -0.405 N 
HETATM   22  C10 UNL     1      -1.390   3.961  12.341  1.00  0.00     0.147 C 
HETATM   23  C11 UNL     1      -0.199   3.907  11.434  1.00  0.00     0.291 C 
HETATM   24  N4  UNL     1       0.739   4.974  11.596  1.00  0.00     0.087 N 
HETATM   25  C12 UNL     1       1.286   5.333  10.288  1.00  0.00     0.310 C 
HETATM   26  C13 UNL     1       0.226   6.153  12.233  1.00  0.00     0.291 C 
HETATM   27  C14 UNL     1      -1.238   6.332  11.850  1.00  0.00     0.147 C 
ENDBRANCH  20  21
ENDBRANCH  19  20
ENDBRANCH  17  19
ENDBRANCH   9  17
TORSDOF 4
ENDMDL
MODEL 3
REMARK VINA RESULT: -7.300316606      2.633      5.297
REMARK  4 active torsions:
REMARK  status: ('A' for Active; 'I' for Inactive)
REMARK    1  A    between atoms: C7_9  and  N2_10 
REMARK    2  A    between atoms: N2_10  and  C8_12 
REMARK    3  A    between atoms: C8_12  and  C9_13 
REMARK    4  A    between atoms: C9_13  and  N3_14 
ROOT
HETATM    1  C1  UNL     1      -6.243   2.069  17.903  1.00  0.00     0.010 C 
HETATM    2  C2  UNL     1      -5.151   2.072  16.877  1.00  0.00    -0.009 C 
HETATM    3  C3  UNL     1      -5.209   0.897  15.956  1.00  0.00     0.062 C 
HETATM    4  C4  UNL     1      -4.622   1.411  14.701  1.00  0.00     0.018 A 
HETATM    5  N1  UNL     1      -4.090   0.775  13.669  1.00  0.00    -0.362 N 
ATOM      6  H1  UNL     1      -4.052  -0.244  13.692  1.00  0.00     0.165 HD
HETATM    7  C5  UNL     1      -3.599   1.407  12.595  1.00  0.00     0.018 A 
HETATM    8  C6  UNL     1      -3.649   2.769  12.563  1.00  0.00    -0.008 A 
HETATM    9  C7  UNL     1      -4.191   3.535  13.603  1.00  0.00     0.048 A 
HETATM   10  C15 UNL     1      -4.671   2.799  14.665  1.00  0.00    -0.008 A 
HETATM   11  C16 UNL     1      -5.301   3.239  15.911  1.00  0.00     0.047 C 
HETATM   12  C17 UNL     1      -3.158   3.638  11.465  1.00  0.00     0.043 C 
HETATM   13  C18 UNL     1      -1.738   3.255  11.048  1.00  0.00     0.005 C 
HETATM   14  C19 UNL     1      -1.733   1.964  10.265  1.00  0.00     0.001 C 
HETATM   15  C20 UNL     1      -1.664   0.753  11.194  1.00  0.00     0.006 C 
HETATM   16  C21 UNL     1      -3.065   0.419  11.593  1.00  0.00     0.057 C 
ENDROOT
BRANCH   9  17
HETATM   17  N2  UNL     1      -4.185   4.769  13.456  1.00  0.00    -0.367 N 
ATOM     18  H2  UNL     1      -4.678   5.037  12.605  1.00  0.00     0.165 HD
BRANCH  17  19
HETATM   19  C8  UNL     1      -3.697   5.889  14.121  1.00  0.00     0.080 C 
BRANCH  19  20
HETATM   20  C9  UNL     1      -2.165   5.958  14.232  1.00  0.00     0.161 C 
BRANCH  20  21
HETATM   21  N3  UNL     1      -1.775   7.306  14.004  1.00  0.00    -0.405 N 
HETATM   22  C10 UNL     1      -0.579   7.483  13.266  1.00  0.00     0.147 C 
HETATM   23  C11 UNL     1      -0.182   8.928  13.256  1.00  0.00     0.291 C 
HETATM   24  N4  UNL     1      -0.100   9.546  14.543  1.00  0.00     0.087 N 
HETATM   25  C12 UNL     1      -0.559  10.931  14.438  1.00  0.00     0.310 C 
HETATM   26  C13 UNL     1      -0.825   8.885  15.591  1.00  0.00     0.291 C 
HETATM   27  C14 UNL     1      -2.082   8.254  15.007  1.00  0.00     0.147 C 
ENDBRANCH  20  21
ENDBRANCH  19  20
ENDBRANCH  17  19
ENDBRANCH   9  17
TORSDOF 4
ENDMDL
MODEL 4
REMARK VINA RESULT: -7.297681689      1.774      2.787
REMARK  4 active torsions:
REMARK  status: ('A' for Active; 'I' for Inactive)
REMARK    1  A    between atoms: C7_9  and  N2_10 
REMARK    2  A    between atoms: N2_10  and  C8_12 
REMARK    3  A    between atoms: C8_12  and  C9_13 
REMARK    4  A    between atoms: C9_13  and  N3_14 
ROOT
HETATM    1  C1  UNL     1      -3.190  -0.192   9.992  1.00  0.00     0.010 C 
HETATM    2  C2  UNL     1      -4.126   0.220  11.088  1.00  0.00    -0.009 C 
HETATM    3  C3  UNL     1      -3.845  -0.464  12.386  1.00  0.00     0.062 C 
HETATM    4  C4  UNL     1      -4.291   0.515  13.398  1.00  0.00     0.018 A 
HETATM    5  N1  UNL     1      -4.621   0.357  14.671  1.00  0.00    -0.362 N 
ATOM      6  H1  UNL     1      -4.579  -0.580  15.072  1.00  0.00     0.165 HD
HETATM    7  C5  UNL     1      -5.007   1.371  15.457  1.00  0.00     0.018 A 
HETATM    8  C6  UNL     1      -5.063   2.623  14.922  1.00  0.00    -0.008 A 
HETATM    9  C7  UNL     1      -4.735   2.896  13.588  1.00  0.00     0.048 A 
HETATM   10  C15 UNL     1      -4.350   1.793  12.857  1.00  0.00    -0.008 A 
HETATM   11  C16 UNL     1      -3.938   1.685  11.456  1.00  0.00     0.047 C 
HETATM   12  C17 UNL     1      -5.466   3.862  15.633  1.00  0.00     0.043 C 
HETATM   13  C18 UNL     1      -6.778   3.664  16.392  1.00  0.00     0.005 C 
HETATM   14  C19 UNL     1      -6.569   2.816  17.623  1.00  0.00     0.001 C 
HETATM   15  C20 UNL     1      -6.668   1.328  17.293  1.00  0.00     0.006 C 
HETATM   16  C21 UNL     1      -5.314   0.880  16.846  1.00  0.00     0.057 C 
ENDROOT
BRANCH   9  17
HETATM   17  N2  UNL     1      -4.821   4.079  13.217  1.00  0.00    -0.367 N 
ATOM     18  H2  UNL     1      -5.795   4.382  13.189  1.00  0.00     0.165 HD
BRANCH  17  19
HETATM   19  C8  UNL     1      -3.970   5.108  12.830  1.00  0.00     0.080 C 
BRANCH  19  20
HETATM   20  C9  UNL     1      -2.477   4.845  13.092  1.00  0.00     0.161 C 
BRANCH  20  21
HETATM   21  N3  UNL     1      -1.939   5.998  13.726  1.00  0.00    -0.405 N 
HETATM   22  C10 UNL     1      -2.824   6.698  14.583  1.00  0.00     0.147 C 
HETATM   23  C11 UNL     1      -2.203   7.983  15.036  1.00  0.00     0.291 C 
HETATM   24  N4  UNL     1      -1.711   8.825  13.990  1.00  0.00     0.087 N 
HETATM   25  C12 UNL     1      -0.489   9.489  14.445  1.00  0.00     0.310 C 
HETATM   26  C13 UNL     1      -1.454   8.168  12.740  1.00  0.00     0.291 C 
HETATM   27  C14 UNL     1      -0.976   6.747  13.012  1.00  0.00     0.147 C 
ENDBRANCH  20  21
ENDBRANCH  19  20
ENDBRANCH  17  19
ENDBRANCH   9  17
TORSDOF 4
ENDMDL
MODEL 5
REMARK VINA RESULT: -7.261463704      2.346      3.509
REMARK  4 active torsions:
REMARK  status: ('A' for Active; 'I' for Inactive)
REMARK    1  A    between atoms: C7_9  and  N2_10 
REMARK    2  A    between atoms: N2_10  and  C8_12 
REMARK    3  A    between atoms: C8_12  and  C9_13 
REMARK    4  A    between atoms: C9_13  and  N3_14 
ROOT
HETATM    1  C1  UNL     1      -3.300  -0.191   9.990  1.00  0.00     0.010 C 
HETATM    2  C2  UNL     1      -4.219   0.206  11.106  1.00  0.00    -0.009 C 
HETATM    3  C3  UNL     1      -3.831  -0.385  12.421  1.00  0.00     0.062 C 
HETATM    4  C4  UNL     1      -4.310   0.609  13.404  1.00  0.00     0.018 A 
HETATM    5  N1  UNL     1      -4.573   0.494  14.697  1.00  0.00    -0.362 N 
ATOM      6  H1  UNL     1      -4.441  -0.415  15.141  1.00  0.00     0.165 HD
HETATM    7  C5  UNL     1      -5.005   1.516  15.448  1.00  0.00     0.018 A 
HETATM    8  C6  UNL     1      -5.182   2.730  14.854  1.00  0.00    -0.008 A 
HETATM    9  C7  UNL     1      -4.932   2.956  13.495  1.00  0.00     0.048 A 
HETATM   10  C15 UNL     1      -4.492   1.848  12.803  1.00  0.00    -0.008 A 
HETATM   11  C16 UNL     1      -4.131   1.698  11.392  1.00  0.00     0.047 C 
HETATM   12  C17 UNL     1      -5.651   3.970  15.521  1.00  0.00     0.043 C 
HETATM   13  C18 UNL     1      -6.910   3.712  16.348  1.00  0.00     0.005 C 
HETATM   14  C19 UNL     1      -6.585   2.949  17.609  1.00  0.00     0.001 C 
HETATM   15  C20 UNL     1      -6.579   1.442  17.358  1.00  0.00     0.006 C 
HETATM   16  C21 UNL     1      -5.214   1.077  16.872  1.00  0.00     0.057 C 
ENDROOT
BRANCH   9  17
HETATM   17  N2  UNL     1      -5.127   4.107  13.071  1.00  0.00    -0.367 N 
ATOM     18  H2  UNL     1      -6.106   4.373  13.174  1.00  0.00     0.165 HD
BRANCH  17  19
HETATM   19  C8  UNL     1      -4.391   5.138  12.496  1.00  0.00     0.080 C 
BRANCH  19  20
HETATM   20  C9  UNL     1      -4.423   5.174  10.958  1.00  0.00     0.161 C 
BRANCH  20  21
HETATM   21  N3  UNL     1      -4.958   6.431  10.566  1.00  0.00    -0.405 N 
HETATM   22  C10 UNL     1      -5.763   7.085  11.530  1.00  0.00     0.147 C 
HETATM   23  C11 UNL     1      -6.413   8.295  10.933  1.00  0.00     0.291 C 
HETATM   24  N4  UNL     1      -7.132   8.065   9.719  1.00  0.00     0.087 N 
HETATM   25  C12 UNL     1      -6.967   9.221   8.839  1.00  0.00     0.310 C 
HETATM   26  C13 UNL     1      -6.771   6.872   9.007  1.00  0.00     0.291 C 
HETATM   27  C14 UNL     1      -5.284   6.605   9.201  1.00  0.00     0.147 C 
ENDBRANCH  20  21
ENDBRANCH  19  20
ENDBRANCH  17  19
ENDBRANCH   9  17
TORSDOF 4
ENDMDL
