MODEL 1
REMARK VINA RESULT: -7.284147470      0.000      0.000
REMARK  4 active torsions:
REMARK  status: ('A' for Active; 'I' for Inactive)
REMARK    1  A    between atoms: N1_2  and  C3_4 
REMARK    2  A    between atoms: C3_4  and  C4_5 
REMARK    3  A    between atoms: C4_5  and  N2_6 
REMARK    4  A    between atoms: C10_19  and  C11_20 
ROOT
HETATM    1  N2  UNL     1      16.959  21.880   5.840  1.00  0.00    -0.373 N 
ATOM      2  H2  UNL     1      17.392  21.518   4.991  1.00  0.00     0.161 HD
HETATM    3  C5  UNL     1      16.915  23.183   5.986  1.00  0.00     0.124 C 
HETATM    4  N3  UNL     1      16.325  23.757   7.144  1.00  0.00    -0.252 N 
ATOM      5  H3  UNL     1      15.692  23.212   7.730  1.00  0.00     0.182 HD
HETATM    6  S1  UNL     1      16.704  25.414   7.544  1.00  0.00     0.326 S 
HETATM    7  O1  UNL     1      17.940  25.497   8.381  1.00  0.00    -0.182 OA
HETATM    8  O2  UNL     1      15.551  26.062   8.244  1.00  0.00    -0.182 OA
HETATM    9  N4  UNL     1      16.978  26.179   6.018  1.00  0.00    -0.262 N 
HETATM   10  C6  UNL     1      16.672  27.562   5.828  1.00  0.00     0.171 C 
HETATM   11  C7  UNL     1      17.510  25.397   4.960  1.00  0.00     0.060 A 
HETATM   12  C8  UNL     1      18.078  26.131   3.914  1.00  0.00     0.032 A 
HETATM   13  C9  UNL     1      18.621  25.452   2.844  1.00  0.00     0.010 A 
HETATM   14  C10 UNL     1      18.606  24.075   2.801  1.00  0.00    -0.050 A 
HETATM   15  C15 UNL     1      18.043  23.358   3.837  1.00  0.00     0.025 A 
HETATM   16  C16 UNL     1      17.485  24.017   4.940  1.00  0.00     0.036 A 
ENDROOT
BRANCH   1  17
HETATM   17  C4  UNL     1      16.451  20.932   6.769  1.00  0.00     0.151 C 
BRANCH  17  18
HETATM   18  C3  UNL     1      15.235  20.182   6.310  1.00  0.00     0.290 C 
BRANCH  18  19
HETATM   19  N1  UNL     1      14.043  20.549   7.038  1.00  0.00     0.081 N 
HETATM   20  C1  UNL     1      13.391  21.626   6.320  1.00  0.00     0.309 C 
HETATM   21  C2  UNL     1      14.320  21.013   8.379  1.00  0.00     0.309 C 
ENDBRANCH  18  19
ENDBRANCH  17  18
ENDBRANCH   1  17
BRANCH  14  22
HETATM   22  C11 UNL     1      19.177  23.290   1.679  1.00  0.00    -0.024 C 
HETATM   23  C12 UNL     1      20.385  23.955   1.054  1.00  0.00     0.019 C 
HETATM   24  C13 UNL     1      19.601  21.934   2.195  1.00  0.00     0.019 C 
HETATM   25  C14 UNL     1      18.126  23.051   0.617  1.00  0.00     0.019 C 
ENDBRANCH  14  22
TORSDOF 4
ENDMDL
MODEL 2
REMARK VINA RESULT: -7.068976671      2.224      4.784
REMARK  4 active torsions:
REMARK  status: ('A' for Active; 'I' for Inactive)
REMARK    1  A    between atoms: N1_2  and  C3_4 
REMARK    2  A    between atoms: C3_4  and  C4_5 
REMARK    3  A    between atoms: C4_5  and  N2_6 
REMARK    4  A    between atoms: C10_19  and  C11_20 
ROOT
HETATM    1  N2  UNL     1      17.005  25.592   5.907  1.00  0.00    -0.373 N 
ATOM      2  H2  UNL     1      17.712  25.830   5.212  1.00  0.00     0.161 HD
HETATM    3  C5  UNL     1      16.676  24.327   6.023  1.00  0.00     0.124 C 
HETATM    4  N3  UNL     1      15.698  23.924   6.971  1.00  0.00    -0.252 N 
ATOM      5  H3  UNL     1      15.445  24.533   7.749  1.00  0.00     0.182 HD
HETATM    6  S1  UNL     1      14.938  22.363   6.779  1.00  0.00     0.326 S 
HETATM    7  O1  UNL     1      13.743  22.453   5.886  1.00  0.00    -0.182 OA
HETATM    8  O2  UNL     1      14.559  21.796   8.110  1.00  0.00    -0.182 OA
HETATM    9  N4  UNL     1      16.150  21.377   6.037  1.00  0.00    -0.262 N 
HETATM   10  C6  UNL     1      16.207  19.972   6.292  1.00  0.00     0.171 C 
HETATM   11  C7  UNL     1      17.086  22.000   5.172  1.00  0.00     0.060 A 
HETATM   12  C8  UNL     1      17.759  21.130   4.308  1.00  0.00     0.032 A 
HETATM   13  C9  UNL     1      18.688  21.650   3.431  1.00  0.00     0.010 A 
HETATM   14  C10 UNL     1      18.951  23.002   3.402  1.00  0.00    -0.050 A 
HETATM   15  C15 UNL     1      18.283  23.854   4.258  1.00  0.00     0.025 A 
HETATM   16  C16 UNL     1      17.333  23.359   5.160  1.00  0.00     0.036 A 
ENDROOT
BRANCH   1  17
HETATM   17  C4  UNL     1      16.456  26.657   6.670  1.00  0.00     0.151 C 
BRANCH  17  18
HETATM   18  C3  UNL     1      17.123  26.901   7.992  1.00  0.00     0.290 C 
BRANCH  18  19
HETATM   19  N1  UNL     1      16.678  28.118   8.628  1.00  0.00     0.081 N 
HETATM   20  C1  UNL     1      15.290  28.333   8.270  1.00  0.00     0.309 C 
HETATM   21  C2  UNL     1      17.428  29.282   8.210  1.00  0.00     0.309 C 
ENDBRANCH  18  19
ENDBRANCH  17  18
ENDBRANCH   1  17
BRANCH  14  22
HETATM   22  C11 UNL     1      19.935  23.619   2.479  1.00  0.00    -0.024 C 
HETATM   23  C12 UNL     1      19.599  23.383   1.022  1.00  0.00     0.019 C 
HETATM   24  C13 UNL     1      19.964  25.112   2.719  1.00  0.00     0.019 C 
HETATM   25  C14 UNL     1      21.326  23.097   2.768  1.00  0.00     0.019 C 
ENDBRANCH  14  22
TORSDOF 4
ENDMDL
MODEL 3
REMARK VINA RESULT: -6.793840494      2.956      6.093
REMARK  4 active torsions:
REMARK  status: ('A' for Active; 'I' for Inactive)
REMARK    1  A    between atoms: N1_2  and  C3_4 
REMARK    2  A    between atoms: C3_4  and  C4_5 
REMARK    3  A    between atoms: C4_5  and  N2_6 
REMARK    4  A    between atoms: C10_19  and  C11_20 
ROOT
HETATM    1  N2  UNL     1      16.404  25.232   5.367  1.00  0.00    -0.373 N 
ATOM      2  H2  UNL     1      15.700  24.869   6.009  1.00  0.00     0.161 HD
HETATM    3  C5  UNL     1      17.255  24.373   4.858  1.00  0.00     0.124 C 
HETATM    4  N3  UNL     1      18.262  24.808   3.956  1.00  0.00    -0.252 N 
ATOM      5  H3  UNL     1      18.179  25.705   3.477  1.00  0.00     0.182 HD
HETATM    6  S1  UNL     1      19.645  23.777   3.684  1.00  0.00     0.326 S 
HETATM    7  O1  UNL     1      20.719  24.039   4.690  1.00  0.00    -0.182 OA
HETATM    8  O2  UNL     1      20.171  23.960   2.295  1.00  0.00    -0.182 OA
HETATM    9  N4  UNL     1      19.037  22.171   3.881  1.00  0.00    -0.262 N 
HETATM   10  C6  UNL     1      19.598  21.081   3.147  1.00  0.00     0.171 C 
HETATM   11  C7  UNL     1      17.965  21.965   4.788  1.00  0.00     0.060 A 
HETATM   12  C8  UNL     1      17.793  20.641   5.204  1.00  0.00     0.032 A 
HETATM   13  C9  UNL     1      16.774  20.348   6.087  1.00  0.00     0.010 A 
HETATM   14  C10 UNL     1      15.939  21.340   6.553  1.00  0.00    -0.050 A 
HETATM   15  C15 UNL     1      16.115  22.644   6.137  1.00  0.00     0.025 A 
HETATM   16  C16 UNL     1      17.141  22.975   5.242  1.00  0.00     0.036 A 
ENDROOT
BRANCH   1  17
HETATM   17  C4  UNL     1      16.384  26.627   5.097  1.00  0.00     0.151 C 
BRANCH  17  18
HETATM   18  C3  UNL     1      16.624  27.508   6.288  1.00  0.00     0.290 C 
BRANCH  18  19
HETATM   19  N1  UNL     1      15.831  27.130   7.433  1.00  0.00     0.081 N 
HETATM   20  C1  UNL     1      15.224  28.329   7.977  1.00  0.00     0.309 C 
HETATM   21  C2  UNL     1      16.611  26.513   8.482  1.00  0.00     0.309 C 
ENDBRANCH  18  19
ENDBRANCH  17  18
ENDBRANCH   1  17
BRANCH  14  22
HETATM   22  C11 UNL     1      14.830  21.088   7.506  1.00  0.00    -0.024 C 
HETATM   23  C12 UNL     1      15.256  20.250   8.693  1.00  0.00     0.019 C 
HETATM   24  C13 UNL     1      14.318  22.412   8.025  1.00  0.00     0.019 C 
HETATM   25  C14 UNL     1      13.674  20.412   6.800  1.00  0.00     0.019 C 
ENDBRANCH  14  22
TORSDOF 4
ENDMDL
MODEL 4
REMARK VINA RESULT: -6.734558265      3.099      4.900
REMARK  4 active torsions:
REMARK  status: ('A' for Active; 'I' for Inactive)
REMARK    1  A    between atoms: N1_2  and  C3_4 
REMARK    2  A    between atoms: C3_4  and  C4_5 
REMARK    3  A    between atoms: C4_5  and  N2_6 
REMARK    4  A    between atoms: C10_19  and  C11_20 
ROOT
HETATM    1  N2  UNL     1      17.383  24.417   5.844  1.00  0.00    -0.373 N 
ATOM      2  H2  UNL     1      17.992  25.054   5.330  1.00  0.00     0.161 HD
HETATM    3  C5  UNL     1      17.439  23.145   5.529  1.00  0.00     0.124 C 
HETATM    4  N3  UNL     1      16.620  22.201   6.205  1.00  0.00    -0.252 N 
ATOM      5  H3  UNL     1      16.198  22.429   7.106  1.00  0.00     0.182 HD
HETATM    6  S1  UNL     1      16.350  20.643   5.464  1.00  0.00     0.326 S 
HETATM    7  O1  UNL     1      15.182  20.685   4.532  1.00  0.00    -0.182 OA
HETATM    8  O2  UNL     1      16.150  19.591   6.509  1.00  0.00    -0.182 OA
HETATM    9  N4  UNL     1      17.798  20.327   4.573  1.00  0.00    -0.262 N 
HETATM   10  C6  UNL     1      18.262  18.989   4.384  1.00  0.00     0.171 C 
HETATM   11  C7  UNL     1      18.513  21.431   4.040  1.00  0.00     0.060 A 
HETATM   12  C8  UNL     1      19.412  21.111   3.018  1.00  0.00     0.032 A 
HETATM   13  C9  UNL     1      20.150  22.123   2.441  1.00  0.00     0.010 A 
HETATM   14  C10 UNL     1      20.006  23.427   2.860  1.00  0.00    -0.050 A 
HETATM   15  C15 UNL     1      19.117  23.735   3.869  1.00  0.00     0.025 A 
HETATM   16  C16 UNL     1      18.352  22.731   4.475  1.00  0.00     0.036 A 
ENDROOT
BRANCH   1  17
HETATM   17  C4  UNL     1      16.545  24.980   6.844  1.00  0.00     0.151 C 
BRANCH  17  18
HETATM   18  C3  UNL     1      17.261  25.761   7.907  1.00  0.00     0.290 C 
BRANCH  18  19
HETATM   19  N1  UNL     1      16.984  27.177   7.844  1.00  0.00     0.081 N 
HETATM   20  C1  UNL     1      16.104  27.514   8.945  1.00  0.00     0.309 C 
HETATM   21  C2  UNL     1      16.330  27.571   6.616  1.00  0.00     0.309 C 
ENDBRANCH  18  19
ENDBRANCH  17  18
ENDBRANCH   1  17
BRANCH  14  22
HETATM   22  C11 UNL     1      20.769  24.558   2.274  1.00  0.00    -0.024 C 
HETATM   23  C12 UNL     1      22.227  24.555   2.681  1.00  0.00     0.019 C 
HETATM   24  C13 UNL     1      20.701  24.468   0.766  1.00  0.00     0.019 C 
HETATM   25  C14 UNL     1      20.137  25.876   2.668  1.00  0.00     0.019 C 
ENDBRANCH  14  22
TORSDOF 4
ENDMDL
MODEL 5
REMARK VINA RESULT: -6.532219583      3.897      7.267
REMARK  4 active torsions:
REMARK  status: ('A' for Active; 'I' for Inactive)
REMARK    1  A    between atoms: N1_2  and  C3_4 
REMARK    2  A    between atoms: C3_4  and  C4_5 
REMARK    3  A    between atoms: C4_5  and  N2_6 
REMARK    4  A    between atoms: C10_19  and  C11_20 
ROOT
HETATM    1  N2  UNL     1      19.073  23.068   4.954  1.00  0.00    -0.373 N 
ATOM      2  H2  UNL     1      18.268  23.405   5.481  1.00  0.00     0.161 HD
HETATM    3  C5  UNL     1      19.075  21.804   4.601  1.00  0.00     0.124 C 
HETATM    4  N3  UNL     1      20.165  21.267   3.864  1.00  0.00    -0.252 N 
ATOM      5  H3  UNL     1      20.807  21.880   3.363  1.00  0.00     0.182 HD
HETATM    6  S1  UNL     1      20.381  19.534   3.833  1.00  0.00     0.326 S 
HETATM    7  O1  UNL     1      21.203  19.073   4.994  1.00  0.00    -0.182 OA
HETATM    8  O2  UNL     1      21.007  19.106   2.543  1.00  0.00    -0.182 OA
HETATM    9  N4  UNL     1      18.780  18.892   3.958  1.00  0.00    -0.262 N 
HETATM   10  C6  UNL     1      18.441  17.649   3.340  1.00  0.00     0.171 C 
HETATM   11  C7  UNL     1      17.814  19.634   4.685  1.00  0.00     0.060 A 
HETATM   12  C8  UNL     1      16.693  18.902   5.090  1.00  0.00     0.032 A 
HETATM   13  C9  UNL     1      15.703  19.543   5.804  1.00  0.00     0.010 A 
HETATM   14  C10 UNL     1      15.811  20.881   6.114  1.00  0.00    -0.050 A 
HETATM   15  C15 UNL     1      16.919  21.596   5.710  1.00  0.00     0.025 A 
HETATM   16  C16 UNL     1      17.944  20.975   4.985  1.00  0.00     0.036 A 
ENDROOT
BRANCH   1  17
HETATM   17  C4  UNL     1      20.100  24.005   4.661  1.00  0.00     0.151 C 
BRANCH  17  18
HETATM   18  C3  UNL     1      19.744  25.035   3.629  1.00  0.00     0.290 C 
BRANCH  18  19
HETATM   19  N1  UNL     1      20.566  24.950   2.446  1.00  0.00     0.081 N 
HETATM   20  C1  UNL     1      19.956  23.997   1.540  1.00  0.00     0.309 C 
HETATM   21  C2  UNL     1      21.912  24.498   2.724  1.00  0.00     0.309 C 
ENDBRANCH  18  19
ENDBRANCH  17  18
ENDBRANCH   1  17
BRANCH  14  22
HETATM   22  C11 UNL     1      14.780  21.624   6.882  1.00  0.00    -0.024 C 
HETATM   23  C12 UNL     1      14.611  21.101   8.293  1.00  0.00     0.019 C 
HETATM   24  C13 UNL     1      15.184  23.078   6.965  1.00  0.00     0.019 C 
HETATM   25  C14 UNL     1      13.450  21.573   6.161  1.00  0.00     0.019 C 
ENDBRANCH  14  22
TORSDOF 4
ENDMDL
