MODEL 1
REMARK VINA RESULT: -7.160264423      0.000      0.000
REMARK  3 active torsions:
REMARK  status: ('A' for Active; 'I' for Inactive)
REMARK    1  A    between atoms: C4_4  and  C5_5 
REMARK       I    between atoms: C5_5  and  N1_7 
REMARK    2  A    between atoms: N1_7  and  N2_9 
REMARK       I    between atoms: N3_17  and  C12_18 
REMARK       I    between atoms: C12_18  and  N4_20 
REMARK    3  A    between atoms: N4_20  and  C13_22 
ROOT
HETATM    1  C1  UNL     1      15.602  20.705   7.801  1.00  0.00     0.032 C 
HETATM    2  C2  UNL     1      16.099  20.896   6.348  1.00  0.00     0.085 C 
HETATM    3  C3  UNL     1      16.262  19.534   5.792  1.00  0.00     0.039 C 
HETATM    4  C4  UNL     1      15.962  19.384   4.350  1.00  0.00     0.083 C 
HETATM    5  C10 UNL     1      15.354  20.567   3.658  1.00  0.00     0.034 C 
HETATM    6  C11 UNL     1      14.337  21.191   4.630  1.00  0.00     0.129 C 
HETATM    7  N3  UNL     1      15.220  21.773   5.663  1.00  0.00    -0.330 N 
HETATM    8  C12 UNL     1      15.112  23.166   5.874  1.00  0.00     0.319 C 
HETATM    9  O3  UNL     1      14.241  23.800   5.163  1.00  0.00    -0.247 OA
HETATM   10  N4  UNL     1      15.872  23.922   6.787  1.00  0.00    -0.338 N 
ATOM     11  H4  UNL     1      16.574  23.451   7.357  1.00  0.00     0.164 HD
ENDROOT
BRANCH   4  12
HETATM   12  C5  UNL     1      17.135  18.875   3.586  1.00  0.00     0.240 C 
HETATM   13  O1  UNL     1      16.907  18.152   2.599  1.00  0.00    -0.271 OA
HETATM   14  N1  UNL     1      18.434  19.202   3.971  1.00  0.00    -0.268 N 
ATOM     15  H1  UNL     1      18.492  19.804   4.793  1.00  0.00     0.190 HD
BRANCH  14  16
HETATM   16  N2  UNL     1      19.639  18.856   3.438  1.00  0.00    -0.300 N 
HETATM   17  C6  UNL     1      20.626  18.252   4.235  1.00  0.00     0.109 C 
HETATM   18  C7  UNL     1      21.767  19.106   4.679  1.00  0.00     0.213 C 
HETATM   19  O2  UNL     1      22.181  20.072   3.793  1.00  0.00    -0.384 OA
HETATM   20  C8  UNL     1      21.087  20.828   3.400  1.00  0.00     0.189 C 
HETATM   21  C9  UNL     1      20.211  19.881   2.586  1.00  0.00     0.174 C 
ENDBRANCH  14  16
ENDBRANCH   4  12
BRANCH  10  22
HETATM   22  C13 UNL     1      15.681  25.366   6.941  1.00  0.00     0.086 C 
HETATM   23  C14 UNL     1      16.474  26.162   5.938  1.00  0.00     0.025 C 
HETATM   24  C15 UNL     1      16.117  27.614   6.067  1.00  0.00     0.002 C 
HETATM   25  C16 UNL     1      16.159  28.131   7.481  1.00  0.00     0.000 C 
HETATM   26  C17 UNL     1      16.796  27.076   8.362  1.00  0.00     0.002 C 
HETATM   27  C18 UNL     1      15.927  25.830   8.346  1.00  0.00     0.025 C 
ENDBRANCH  10  22
TORSDOF 3
ENDMDL
MODEL 2
REMARK VINA RESULT: -7.039940068      1.511      1.904
REMARK  3 active torsions:
REMARK  status: ('A' for Active; 'I' for Inactive)
REMARK    1  A    between atoms: C4_4  and  C5_5 
REMARK       I    between atoms: C5_5  and  N1_7 
REMARK    2  A    between atoms: N1_7  and  N2_9 
REMARK       I    between atoms: N3_17  and  C12_18 
REMARK       I    between atoms: C12_18  and  N4_20 
REMARK    3  A    between atoms: N4_20  and  C13_22 
ROOT
HETATM    1  C1  UNL     1      16.404  20.376   6.655  1.00  0.00     0.032 C 
HETATM    2  C2  UNL     1      17.225  20.910   5.456  1.00  0.00     0.085 C 
HETATM    3  C3  UNL     1      17.769  19.716   4.771  1.00  0.00     0.039 C 
HETATM    4  C4  UNL     1      17.893  19.815   3.299  1.00  0.00     0.083 C 
HETATM    5  C10 UNL     1      17.288  21.022   2.648  1.00  0.00     0.034 C 
HETATM    6  C11 UNL     1      15.956  21.307   3.365  1.00  0.00     0.129 C 
HETATM    7  N3  UNL     1      16.416  21.784   4.686  1.00  0.00    -0.330 N 
HETATM    8  C12 UNL     1      16.010  23.083   5.065  1.00  0.00     0.319 C 
HETATM    9  O3  UNL     1      15.258  23.727   4.237  1.00  0.00    -0.247 OA
HETATM   10  N4  UNL     1      16.353  23.737   6.264  1.00  0.00    -0.338 N 
ATOM     11  H4  UNL     1      16.952  23.257   6.936  1.00  0.00     0.164 HD
ENDROOT
BRANCH   4  12
HETATM   12  C5  UNL     1      19.297  19.621   2.843  1.00  0.00     0.240 C 
HETATM   13  O1  UNL     1      19.669  20.263   1.844  1.00  0.00    -0.271 OA
HETATM   14  N1  UNL     1      20.151  18.749   3.515  1.00  0.00    -0.268 N 
ATOM     15  H1  UNL     1      19.732  18.283   4.319  1.00  0.00     0.190 HD
BRANCH  14  16
HETATM   16  N2  UNL     1      21.451  18.414   3.281  1.00  0.00    -0.300 N 
HETATM   17  C6  UNL     1      21.880  17.082   3.413  1.00  0.00     0.109 C 
HETATM   18  C7  UNL     1      22.657  16.728   4.638  1.00  0.00     0.213 C 
HETATM   19  O2  UNL     1      23.488  17.707   5.130  1.00  0.00    -0.384 OA
HETATM   20  C8  UNL     1      22.765  18.879   5.293  1.00  0.00     0.189 C 
HETATM   21  C9  UNL     1      22.403  19.330   3.882  1.00  0.00     0.174 C 
ENDBRANCH  14  16
ENDBRANCH   4  12
BRANCH  10  22
HETATM   22  C13 UNL     1      15.874  25.086   6.574  1.00  0.00     0.086 C 
HETATM   23  C14 UNL     1      16.616  26.150   5.809  1.00  0.00     0.025 C 
HETATM   24  C15 UNL     1      15.976  27.482   6.070  1.00  0.00     0.002 C 
HETATM   25  C16 UNL     1      15.748  27.776   7.529  1.00  0.00     0.000 C 
HETATM   26  C17 UNL     1      16.464  26.722   8.351  1.00  0.00     0.002 C 
HETATM   27  C18 UNL     1      15.856  25.364   8.047  1.00  0.00     0.025 C 
ENDBRANCH  10  22
TORSDOF 3
ENDMDL
MODEL 3
REMARK VINA RESULT: -6.933126669      2.907      8.374
REMARK  3 active torsions:
REMARK  status: ('A' for Active; 'I' for Inactive)
REMARK    1  A    between atoms: C4_4  and  C5_5 
REMARK       I    between atoms: C5_5  and  N1_7 
REMARK    2  A    between atoms: N1_7  and  N2_9 
REMARK       I    between atoms: N3_17  and  C12_18 
REMARK       I    between atoms: C12_18  and  N4_20 
REMARK    3  A    between atoms: N4_20  and  C13_22 
ROOT
HETATM    1  C1  UNL     1      20.920  24.448   3.299  1.00  0.00     0.032 C 
HETATM    2  C2  UNL     1      19.564  23.856   3.754  1.00  0.00     0.085 C 
HETATM    3  C3  UNL     1      18.622  24.997   3.813  1.00  0.00     0.039 C 
HETATM    4  C4  UNL     1      17.218  24.695   3.452  1.00  0.00     0.083 C 
HETATM    5  C10 UNL     1      16.940  23.333   2.893  1.00  0.00     0.034 C 
HETATM    6  C11 UNL     1      18.105  22.979   1.953  1.00  0.00     0.129 C 
HETATM    7  N3  UNL     1      19.216  22.774   2.906  1.00  0.00    -0.330 N 
HETATM    8  C12 UNL     1      19.834  21.504   2.892  1.00  0.00     0.319 C 
HETATM    9  O3  UNL     1      19.390  20.646   2.036  1.00  0.00    -0.247 OA
HETATM   10  N4  UNL     1      20.889  21.091   3.728  1.00  0.00    -0.338 N 
ATOM     11  H4  UNL     1      21.257  21.744   4.420  1.00  0.00     0.164 HD
ENDROOT
BRANCH   4  12
HETATM   12  C5  UNL     1      16.277  25.009   4.564  1.00  0.00     0.240 C 
HETATM   13  O1  UNL     1      15.293  24.261   4.709  1.00  0.00    -0.271 OA
HETATM   14  N1  UNL     1      16.500  26.100   5.400  1.00  0.00    -0.268 N 
ATOM     15  H1  UNL     1      17.341  26.635   5.182  1.00  0.00     0.190 HD
BRANCH  14  16
HETATM   16  N2  UNL     1      15.787  26.576   6.460  1.00  0.00    -0.300 N 
HETATM   17  C6  UNL     1      15.907  27.918   6.857  1.00  0.00     0.109 C 
HETATM   18  C7  UNL     1      16.723  28.203   8.074  1.00  0.00     0.213 C 
HETATM   19  O2  UNL     1      16.677  27.255   9.069  1.00  0.00    -0.384 OA
HETATM   20  C8  UNL     1      16.967  26.012   8.528  1.00  0.00     0.189 C 
HETATM   21  C9  UNL     1      15.794  25.688   7.608  1.00  0.00     0.174 C 
ENDBRANCH  14  16
ENDBRANCH   4  12
BRANCH  10  22
HETATM   22  C13 UNL     1      21.473  19.752   3.633  1.00  0.00     0.086 C 
HETATM   23  C14 UNL     1      20.707  18.731   4.431  1.00  0.00     0.025 C 
HETATM   24  C15 UNL     1      21.279  17.368   4.169  1.00  0.00     0.002 C 
HETATM   25  C16 UNL     1      22.777  17.298   4.299  1.00  0.00     0.000 C 
HETATM   26  C17 UNL     1      23.271  18.597   4.905  1.00  0.00     0.002 C 
HETATM   27  C18 UNL     1      22.936  19.739   3.962  1.00  0.00     0.025 C 
ENDBRANCH  10  22
TORSDOF 3
ENDMDL
MODEL 4
REMARK VINA RESULT: -6.863234069      1.167      1.575
REMARK  3 active torsions:
REMARK  status: ('A' for Active; 'I' for Inactive)
REMARK    1  A    between atoms: C4_4  and  C5_5 
REMARK       I    between atoms: C5_5  and  N1_7 
REMARK    2  A    between atoms: N1_7  and  N2_9 
REMARK       I    between atoms: N3_17  and  C12_18 
REMARK       I    between atoms: C12_18  and  N4_20 
REMARK    3  A    between atoms: N4_20  and  C13_22 
ROOT
HETATM    1  C1  UNL     1      14.259  21.757   7.303  1.00  0.00     0.032 C 
HETATM    2  C2  UNL     1      15.495  21.588   6.386  1.00  0.00     0.085 C 
HETATM    3  C3  UNL     1      15.390  20.228   5.810  1.00  0.00     0.039 C 
HETATM    4  C4  UNL     1      15.896  20.072   4.427  1.00  0.00     0.083 C 
HETATM    5  C10 UNL     1      16.281  21.325   3.701  1.00  0.00     0.034 C 
HETATM    6  C11 UNL     1      15.237  22.398   4.059  1.00  0.00     0.129 C 
HETATM    7  N3  UNL     1      15.556  22.673   5.476  1.00  0.00    -0.330 N 
HETATM    8  C12 UNL     1      15.902  24.004   5.799  1.00  0.00     0.319 C 
HETATM    9  O3  UNL     1      15.888  24.863   4.835  1.00  0.00    -0.247 OA
HETATM   10  N4  UNL     1      16.261  24.476   7.076  1.00  0.00    -0.338 N 
ATOM     11  H4  UNL     1      16.289  23.819   7.856  1.00  0.00     0.164 HD
ENDROOT
BRANCH   4  12
HETATM   12  C5  UNL     1      16.987  19.060   4.343  1.00  0.00     0.240 C 
HETATM   13  O1  UNL     1      16.664  17.861   4.429  1.00  0.00    -0.271 OA
HETATM   14  N1  UNL     1      18.313  19.453   4.177  1.00  0.00    -0.268 N 
ATOM     15  H1  UNL     1      18.450  20.463   4.118  1.00  0.00     0.190 HD
BRANCH  14  16
HETATM   16  N2  UNL     1      19.458  18.720   4.080  1.00  0.00    -0.300 N 
HETATM   17  C6  UNL     1      20.641  19.159   4.698  1.00  0.00     0.109 C 
HETATM   18  C7  UNL     1      21.689  19.762   3.823  1.00  0.00     0.213 C 
HETATM   19  O2  UNL     1      21.800  19.234   2.559  1.00  0.00    -0.384 OA
HETATM   20  C8  UNL     1      20.553  19.236   1.953  1.00  0.00     0.189 C 
HETATM   21  C9  UNL     1      19.719  18.229   2.740  1.00  0.00     0.174 C 
ENDBRANCH  14  16
ENDBRANCH   4  12
BRANCH  10  22
HETATM   22  C13 UNL     1      16.596  25.881   7.315  1.00  0.00     0.086 C 
HETATM   23  C14 UNL     1      16.062  26.384   8.630  1.00  0.00     0.025 C 
HETATM   24  C15 UNL     1      16.566  27.779   8.866  1.00  0.00     0.002 C 
HETATM   25  C16 UNL     1      16.375  28.704   7.694  1.00  0.00     0.000 C 
HETATM   26  C17 UNL     1      15.493  28.015   6.673  1.00  0.00     0.002 C 
HETATM   27  C18 UNL     1      16.201  26.768   6.172  1.00  0.00     0.025 C 
ENDBRANCH  10  22
TORSDOF 3
ENDMDL
MODEL 5
REMARK VINA RESULT: -6.836432470      3.674      5.622
REMARK  3 active torsions:
REMARK  status: ('A' for Active; 'I' for Inactive)
REMARK    1  A    between atoms: C4_4  and  C5_5 
REMARK       I    between atoms: C5_5  and  N1_7 
REMARK    2  A    between atoms: N1_7  and  N2_9 
REMARK       I    between atoms: N3_17  and  C12_18 
REMARK       I    between atoms: C12_18  and  N4_20 
REMARK    3  A    between atoms: N4_20  and  C13_22 
ROOT
HETATM    1  C1  UNL     1      16.236  24.203   1.493  1.00  0.00     0.032 C 
HETATM    2  C2  UNL     1      15.961  22.962   2.376  1.00  0.00     0.085 C 
HETATM    3  C3  UNL     1      15.769  21.831   1.440  1.00  0.00     0.039 C 
HETATM    4  C4  UNL     1      16.251  20.513   1.911  1.00  0.00     0.083 C 
HETATM    5  C10 UNL     1      17.041  20.496   3.185  1.00  0.00     0.034 C 
HETATM    6  C11 UNL     1      17.960  21.730   3.168  1.00  0.00     0.129 C 
HETATM    7  N3  UNL     1      16.993  22.834   3.341  1.00  0.00    -0.330 N 
HETATM    8  C12 UNL     1      17.180  23.669   4.465  1.00  0.00     0.319 C 
HETATM    9  O3  UNL     1      18.188  23.407   5.227  1.00  0.00    -0.247 OA
HETATM   10  N4  UNL     1      16.365  24.758   4.828  1.00  0.00    -0.338 N 
ATOM     11  H4  UNL     1      15.555  24.985   4.251  1.00  0.00     0.164 HD
ENDROOT
BRANCH   4  12
HETATM   12  C5  UNL     1      15.158  19.502   1.957  1.00  0.00     0.240 C 
HETATM   13  O1  UNL     1      15.074  18.795   2.978  1.00  0.00    -0.271 OA
HETATM   14  N1  UNL     1      14.270  19.363   0.893  1.00  0.00    -0.268 N 
ATOM     15  H1  UNL     1      14.440  20.001   0.115  1.00  0.00     0.190 HD
BRANCH  14  16
HETATM   16  N2  UNL     1      13.215  18.520   0.713  1.00  0.00    -0.300 N 
HETATM   17  C6  UNL     1      13.367  17.331  -0.020  1.00  0.00     0.109 C 
HETATM   18  C7  UNL     1      12.824  17.307  -1.411  1.00  0.00     0.213 C 
HETATM   19  O2  UNL     1      11.677  18.034  -1.625  1.00  0.00    -0.384 OA
HETATM   20  C8  UNL     1      11.864  19.328  -1.161  1.00  0.00     0.189 C 
HETATM   21  C9  UNL     1      11.985  19.200   0.355  1.00  0.00     0.174 C 
ENDBRANCH  14  16
ENDBRANCH   4  12
BRANCH  10  22
HETATM   22  C13 UNL     1      16.646  25.573   6.012  1.00  0.00     0.086 C 
HETATM   23  C14 UNL     1      15.959  25.051   7.247  1.00  0.00     0.025 C 
HETATM   24  C15 UNL     1      16.408  25.850   8.436  1.00  0.00     0.002 C 
HETATM   25  C16 UNL     1      16.332  27.340   8.235  1.00  0.00     0.000 C 
HETATM   26  C17 UNL     1      15.582  27.617   6.948  1.00  0.00     0.002 C 
HETATM   27  C18 UNL     1      16.364  27.028   5.786  1.00  0.00     0.025 C 
ENDBRANCH  10  22
TORSDOF 3
ENDMDL
