MODEL 1
REMARK VINA RESULT: -9.734112154      0.000      0.000
REMARK  7 active torsions:
REMARK  status: ('A' for Active; 'I' for Inactive)
REMARK    1  A    between atoms: C2_2  and  C3_3 
REMARK    2  A    between atoms: C3_3  and  N1_4 
REMARK    3  A    between atoms: N1_4  and  C4_6 
REMARK    4  A    between atoms: C5_9  and  C6_10 
REMARK    5  A    between atoms: C15_21  and  S1_22 
REMARK    6  A    between atoms: S1_22  and  N4_25 
REMARK    7  A    between atoms: N4_25  and  C16_27 
ROOT
HETATM    1  C4  UNL     1     -47.763  90.539  30.811  1.00  0.00     0.112 A 
HETATM    2  N2  UNL     1     -46.486  90.109  30.569  1.00  0.00    -0.341 N 
ATOM      3  H2  UNL     1     -45.877  89.925  31.367  1.00  0.00     0.167 HD
HETATM    4  C5  UNL     1     -45.998  89.919  29.348  1.00  0.00     0.044 A 
HETATM    5  C11 UNL     1     -46.771  90.152  28.230  1.00  0.00     0.042 A 
HETATM    6  C12 UNL     1     -48.083  90.593  28.419  1.00  0.00    -0.020 A 
HETATM    7  C13 UNL     1     -48.902  90.842  27.323  1.00  0.00     0.014 A 
HETATM    8  C14 UNL     1     -50.202  91.280  27.548  1.00  0.00     0.026 A 
HETATM    9  C15 UNL     1     -50.665  91.462  28.816  1.00  0.00     0.081 A 
HETATM   10  C18 UNL     1     -49.831  91.207  29.876  1.00  0.00     0.041 A 
HETATM   11  C19 UNL     1     -48.543  90.775  29.701  1.00  0.00     0.019 A 
ENDROOT
BRANCH   9  12
HETATM   12  S1  UNL     1     -52.314  92.016  29.076  1.00  0.00     0.276 S 
HETATM   13  O1  UNL     1     -52.637  93.096  28.052  1.00  0.00    -0.200 OA
HETATM   14  O2  UNL     1     -52.464  92.658  30.417  1.00  0.00    -0.200 OA
BRANCH  12  15
HETATM   15  N4  UNL     1     -53.460  90.777  28.882  1.00  0.00    -0.111 N 
ATOM     16  H4  UNL     1     -53.653  90.477  27.926  1.00  0.00     0.197 HD
BRANCH  15  17
HETATM   17  C16 UNL     1     -54.098  90.187  29.804  1.00  0.00     0.707 A 
HETATM   18  N5  UNL     1     -54.761  89.016  29.568  1.00  0.00    -0.185 N 
HETATM   19  C17 UNL     1     -55.345  88.624  30.718  1.00  0.00     0.215 A 
ATOM     20  H5  UNL     1     -54.806  88.524  28.676  1.00  0.00     0.185 HD
HETATM   21  N6  UNL     1     -55.039  89.545  31.643  1.00  0.00    -0.281 N 
HETATM   22  N7  UNL     1     -54.293  90.484  31.099  1.00  0.00    -0.130 N 
ATOM     23  H6  UNL     1     -55.339  89.522  32.617  1.00  0.00     0.188 HD
ATOM     24  H7  UNL     1     -53.923  91.302  31.582  1.00  0.00     0.205 HD
ENDBRANCH  15  17
ENDBRANCH  12  15
ENDBRANCH   9  12
BRANCH   1  25
HETATM   25  N1  UNL     1     -48.196  90.710  32.019  1.00  0.00    -0.376 N 
ATOM     26  H1  UNL     1     -48.747  91.532  32.266  1.00  0.00     0.161 HD
BRANCH  25  27
HETATM   27  C3  UNL     1     -47.880  89.712  32.999  1.00  0.00     0.121 C 
BRANCH  27  28
HETATM   28  C2  UNL     1     -48.910  89.572  34.069  1.00  0.00     0.015 C 
HETATM   29  C1  UNL     1     -48.490  88.611  35.161  1.00  0.00     0.006 C 
ENDBRANCH  27  28
ENDBRANCH  25  27
ENDBRANCH   1  25
BRANCH   4  30
HETATM   30  C6  UNL     1     -44.603  89.450  29.151  1.00  0.00    -0.007 A 
HETATM   31  C7  UNL     1     -43.517  90.261  29.390  1.00  0.00     0.030 A 
HETATM   32  C8  UNL     1     -42.233  89.771  29.191  1.00  0.00     0.088 A 
HETATM   33  N3  UNL     1     -42.019  88.519  28.769  1.00  0.00    -0.375 N 
HETATM   34  C9  UNL     1     -43.038  87.680  28.521  1.00  0.00     0.088 A 
ATOM     35  H3  UNL     1     -41.061  88.194  28.635  1.00  0.00     0.164 HD
HETATM   36  C10 UNL     1     -44.336  88.171  28.720  1.00  0.00     0.030 A 
ENDBRANCH   4  30
TORSDOF 7
ENDMDL
MODEL 2
REMARK VINA RESULT: -9.584191209     11.279     13.056
REMARK  7 active torsions:
REMARK  status: ('A' for Active; 'I' for Inactive)
REMARK    1  A    between atoms: C2_2  and  C3_3 
REMARK    2  A    between atoms: C3_3  and  N1_4 
REMARK    3  A    between atoms: N1_4  and  C4_6 
REMARK    4  A    between atoms: C5_9  and  C6_10 
REMARK    5  A    between atoms: C15_21  and  S1_22 
REMARK    6  A    between atoms: S1_22  and  N4_25 
REMARK    7  A    between atoms: N4_25  and  C16_27 
ROOT
HETATM    1  C4  UNL     1     -51.517 100.361  21.865  1.00  0.00     0.112 A 
HETATM    2  N2  UNL     1     -50.323 100.645  22.472  1.00  0.00    -0.341 N 
ATOM      3  H2  UNL     1     -49.794 101.455  22.147  1.00  0.00     0.167 HD
HETATM    4  C5  UNL     1     -49.817  99.919  23.464  1.00  0.00     0.044 A 
HETATM    5  C11 UNL     1     -50.483  98.813  23.946  1.00  0.00     0.042 A 
HETATM    6  C12 UNL     1     -51.707  98.477  23.362  1.00  0.00    -0.020 A 
HETATM    7  C13 UNL     1     -52.416  97.369  23.814  1.00  0.00     0.014 A 
HETATM    8  C14 UNL     1     -53.631  97.064  23.210  1.00  0.00     0.026 A 
HETATM    9  C15 UNL     1     -54.116  97.833  22.196  1.00  0.00     0.081 A 
HETATM   10  C18 UNL     1     -53.391  98.920  21.773  1.00  0.00     0.041 A 
HETATM   11  C19 UNL     1     -52.190  99.257  22.339  1.00  0.00     0.019 A 
ENDROOT
BRANCH   9  12
HETATM   12  S1  UNL     1     -55.655  97.428  21.447  1.00  0.00     0.276 S 
HETATM   13  O1  UNL     1     -56.476  96.599  22.426  1.00  0.00    -0.200 OA
HETATM   14  O2  UNL     1     -55.460  96.569  20.238  1.00  0.00    -0.200 OA
BRANCH  12  15
HETATM   15  N4  UNL     1     -56.574  98.801  21.053  1.00  0.00    -0.111 N 
ATOM     16  H4  UNL     1     -56.611  99.061  20.067  1.00  0.00     0.197 HD
BRANCH  15  17
HETATM   17  C16 UNL     1     -57.219  99.536  21.860  1.00  0.00     0.707 A 
HETATM   18  N5  UNL     1     -58.126 100.453  21.412  1.00  0.00    -0.185 N 
HETATM   19  C17 UNL     1     -58.651 101.084  22.481  1.00  0.00     0.215 A 
ATOM     20  H5  UNL     1     -58.364 100.630  20.436  1.00  0.00     0.185 HD
HETATM   21  N6  UNL     1     -58.070 100.555  23.568  1.00  0.00    -0.281 N 
HETATM   22  N7  UNL     1     -57.211  99.627  23.200  1.00  0.00    -0.130 N 
ATOM     23  H6  UNL     1     -58.264 100.829  24.531  1.00  0.00     0.188 HD
ATOM     24  H7  UNL     1     -56.634  99.069  23.830  1.00  0.00     0.205 HD
ENDBRANCH  15  17
ENDBRANCH  12  15
ENDBRANCH   9  12
BRANCH   1  25
HETATM   25  N1  UNL     1     -51.972 101.096  20.902  1.00  0.00    -0.376 N 
ATOM     26  H1  UNL     1     -52.900 101.516  20.957  1.00  0.00     0.161 HD
BRANCH  25  27
HETATM   27  C3  UNL     1     -51.135 101.304  19.756  1.00  0.00     0.121 C 
BRANCH  27  28
HETATM   28  C2  UNL     1     -50.969 100.091  18.903  1.00  0.00     0.015 C 
HETATM   29  C1  UNL     1     -49.532  99.623  18.827  1.00  0.00     0.006 C 
ENDBRANCH  27  28
ENDBRANCH  25  27
ENDBRANCH   1  25
BRANCH   4  30
HETATM   30  C6  UNL     1     -48.516 100.280  24.083  1.00  0.00    -0.007 A 
HETATM   31  C7  UNL     1     -48.425 101.175  25.125  1.00  0.00     0.030 A 
HETATM   32  C8  UNL     1     -47.183 101.477  25.668  1.00  0.00     0.088 A 
HETATM   33  N3  UNL     1     -46.060 100.916  25.202  1.00  0.00    -0.375 N 
HETATM   34  C9  UNL     1     -46.085 100.036  24.189  1.00  0.00     0.088 A 
ATOM     35  H3  UNL     1     -45.166 101.163  25.627  1.00  0.00     0.164 HD
HETATM   36  C10 UNL     1     -47.337  99.729  23.637  1.00  0.00     0.030 A 
ENDBRANCH   4  30
TORSDOF 7
ENDMDL
MODEL 3
REMARK VINA RESULT: -9.560836351      9.436     12.394
REMARK  7 active torsions:
REMARK  status: ('A' for Active; 'I' for Inactive)
REMARK    1  A    between atoms: C2_2  and  C3_3 
REMARK    2  A    between atoms: C3_3  and  N1_4 
REMARK    3  A    between atoms: N1_4  and  C4_6 
REMARK    4  A    between atoms: C5_9  and  C6_10 
REMARK    5  A    between atoms: C15_21  and  S1_22 
REMARK    6  A    between atoms: S1_22  and  N4_25 
REMARK    7  A    between atoms: N4_25  and  C16_27 
ROOT
HETATM    1  C4  UNL     1     -52.009  98.063  20.911  1.00  0.00     0.112 A 
HETATM    2  N2  UNL     1     -51.672  99.271  20.360  1.00  0.00    -0.341 N 
ATOM      3  H2  UNL     1     -51.978  99.471  19.408  1.00  0.00     0.167 HD
HETATM    4  C5  UNL     1     -50.966 100.195  21.002  1.00  0.00     0.044 A 
HETATM    5  C11 UNL     1     -50.522  99.983  22.290  1.00  0.00     0.042 A 
HETATM    6  C12 UNL     1     -50.838  98.766  22.901  1.00  0.00    -0.020 A 
HETATM    7  C13 UNL     1     -50.412  98.505  24.199  1.00  0.00     0.014 A 
HETATM    8  C14 UNL     1     -50.744  97.285  24.777  1.00  0.00     0.026 A 
HETATM    9  C15 UNL     1     -51.470  96.363  24.085  1.00  0.00     0.081 A 
HETATM   10  C18 UNL     1     -51.875  96.652  22.805  1.00  0.00     0.041 A 
HETATM   11  C19 UNL     1     -51.570  97.841  22.197  1.00  0.00     0.019 A 
ENDROOT
BRANCH   9  12
HETATM   12  S1  UNL     1     -51.878  94.826  24.836  1.00  0.00     0.276 S 
HETATM   13  O1  UNL     1     -50.955  93.748  24.285  1.00  0.00    -0.200 OA
HETATM   14  O2  UNL     1     -53.268  94.402  24.484  1.00  0.00    -0.200 OA
BRANCH  12  15
HETATM   15  N4  UNL     1     -51.678  94.848  26.523  1.00  0.00    -0.111 N 
ATOM     16  H4  UNL     1     -51.334  95.717  26.933  1.00  0.00     0.197 HD
BRANCH  15  17
HETATM   17  C16 UNL     1     -51.913  93.895  27.325  1.00  0.00     0.707 A 
HETATM   18  N5  UNL     1     -52.054  92.612  26.877  1.00  0.00    -0.185 N 
HETATM   19  C17 UNL     1     -52.297  91.819  27.940  1.00  0.00     0.215 A 
ATOM     20  H5  UNL     1     -51.986  92.307  25.907  1.00  0.00     0.185 HD
HETATM   21  N6  UNL     1     -52.303  92.611  29.022  1.00  0.00    -0.281 N 
HETATM   22  N7  UNL     1     -52.074  93.856  28.657  1.00  0.00    -0.130 N 
ATOM     23  H6  UNL     1     -52.460  92.298  29.980  1.00  0.00     0.188 HD
ATOM     24  H7  UNL     1     -52.026  94.658  29.285  1.00  0.00     0.205 HD
ENDBRANCH  15  17
ENDBRANCH  12  15
ENDBRANCH   9  12
BRANCH   1  25
HETATM   25  N1  UNL     1     -52.700  97.192  20.248  1.00  0.00    -0.376 N 
ATOM     26  H1  UNL     1     -52.306  96.280  20.015  1.00  0.00     0.161 HD
BRANCH  25  27
HETATM   27  C3  UNL     1     -54.032  97.544  19.851  1.00  0.00     0.121 C 
BRANCH  27  28
HETATM   28  C2  UNL     1     -54.905  96.370  19.565  1.00  0.00     0.015 C 
HETATM   29  C1  UNL     1     -54.440  95.111  20.264  1.00  0.00     0.006 C 
ENDBRANCH  27  28
ENDBRANCH  25  27
ENDBRANCH   1  25
BRANCH   4  30
HETATM   30  C6  UNL     1     -50.633 101.486  20.349  1.00  0.00    -0.007 A 
HETATM   31  C7  UNL     1     -49.998 102.505  21.023  1.00  0.00     0.030 A 
HETATM   32  C8  UNL     1     -49.709 103.693  20.364  1.00  0.00     0.088 A 
HETATM   33  N3  UNL     1     -50.034 103.878  19.079  1.00  0.00    -0.375 N 
HETATM   34  C9  UNL     1     -50.654 102.921  18.369  1.00  0.00     0.088 A 
ATOM     35  H3  UNL     1     -49.806 104.765  18.629  1.00  0.00     0.164 HD
HETATM   36  C10 UNL     1     -50.948 101.721  19.030  1.00  0.00     0.030 A 
ENDBRANCH   4  30
TORSDOF 7
ENDMDL
MODEL 4
REMARK VINA RESULT: -9.552557657     11.254     13.194
REMARK  7 active torsions:
REMARK  status: ('A' for Active; 'I' for Inactive)
REMARK    1  A    between atoms: C2_2  and  C3_3 
REMARK    2  A    between atoms: C3_3  and  N1_4 
REMARK    3  A    between atoms: N1_4  and  C4_6 
REMARK    4  A    between atoms: C5_9  and  C6_10 
REMARK    5  A    between atoms: C15_21  and  S1_22 
REMARK    6  A    between atoms: S1_22  and  N4_25 
REMARK    7  A    between atoms: N4_25  and  C16_27 
ROOT
HETATM    1  C4  UNL     1     -51.738 100.286  21.998  1.00  0.00     0.112 A 
HETATM    2  N2  UNL     1     -50.544 100.608  22.586  1.00  0.00    -0.341 N 
ATOM      3  H2  UNL     1     -50.077 101.467  22.296  1.00  0.00     0.167 HD
HETATM    4  C5  UNL     1     -49.962  99.857  23.516  1.00  0.00     0.044 A 
HETATM    5  C11 UNL     1     -50.543  98.685  23.949  1.00  0.00     0.042 A 
HETATM    6  C12 UNL     1     -51.763  98.308  23.381  1.00  0.00    -0.020 A 
HETATM    7  C13 UNL     1     -52.389  97.133  23.785  1.00  0.00     0.014 A 
HETATM    8  C14 UNL     1     -53.602  96.788  23.199  1.00  0.00     0.026 A 
HETATM    9  C15 UNL     1     -54.166  97.585  22.249  1.00  0.00     0.081 A 
HETATM   10  C18 UNL     1     -53.523  98.738  21.874  1.00  0.00     0.041 A 
HETATM   11  C19 UNL     1     -52.326  99.116  22.423  1.00  0.00     0.019 A 
ENDROOT
BRANCH   9  12
HETATM   12  S1  UNL     1     -55.702  97.129  21.523  1.00  0.00     0.276 S 
HETATM   13  O1  UNL     1     -56.657  96.690  22.625  1.00  0.00    -0.200 OA
HETATM   14  O2  UNL     1     -55.544  95.950  20.617  1.00  0.00    -0.200 OA
BRANCH  12  15
HETATM   15  N4  UNL     1     -56.442  98.414  20.695  1.00  0.00    -0.111 N 
ATOM     16  H4  UNL     1     -56.381  98.400  19.676  1.00  0.00     0.197 HD
BRANCH  15  17
HETATM   17  C16 UNL     1     -57.063  99.390  21.214  1.00  0.00     0.707 A 
HETATM   18  N5  UNL     1     -57.320  99.432  22.555  1.00  0.00    -0.185 N 
HETATM   19  C17 UNL     1     -57.988 100.572  22.820  1.00  0.00     0.215 A 
ATOM     20  H5  UNL     1     -57.053  98.723  23.237  1.00  0.00     0.185 HD
HETATM   21  N6  UNL     1     -58.135 101.217  21.654  1.00  0.00    -0.281 N 
HETATM   22  N7  UNL     1     -57.582 100.511  20.689  1.00  0.00    -0.130 N 
ATOM     23  H6  UNL     1     -58.602 102.115  21.532  1.00  0.00     0.188 HD
ATOM     24  H7  UNL     1     -57.553 100.774  19.703  1.00  0.00     0.205 HD
ENDBRANCH  15  17
ENDBRANCH  12  15
ENDBRANCH   9  12
BRANCH   1  25
HETATM   25  N1  UNL     1     -52.269 101.047  21.096  1.00  0.00    -0.376 N 
ATOM     26  H1  UNL     1     -53.064 101.646  21.318  1.00  0.00     0.161 HD
BRANCH  25  27
HETATM   27  C3  UNL     1     -51.708 101.024  19.776  1.00  0.00     0.121 C 
BRANCH  27  28
HETATM   28  C2  UNL     1     -52.682 100.637  18.715  1.00  0.00     0.015 C 
HETATM   29  C1  UNL     1     -54.092 101.091  19.023  1.00  0.00     0.006 C 
ENDBRANCH  27  28
ENDBRANCH  25  27
ENDBRANCH   1  25
BRANCH   4  30
HETATM   30  C6  UNL     1     -48.666 100.262  24.117  1.00  0.00    -0.007 A 
HETATM   31  C7  UNL     1     -48.585 101.209  25.113  1.00  0.00     0.030 A 
HETATM   32  C8  UNL     1     -47.346 101.549  25.641  1.00  0.00     0.088 A 
HETATM   33  N3  UNL     1     -46.218 100.977  25.206  1.00  0.00    -0.375 N 
HETATM   34  C9  UNL     1     -46.233 100.047  24.237  1.00  0.00     0.088 A 
ATOM     35  H3  UNL     1     -45.326 101.254  25.619  1.00  0.00     0.164 HD
HETATM   36  C10 UNL     1     -47.481  99.700  23.701  1.00  0.00     0.030 A 
ENDBRANCH   4  30
TORSDOF 7
ENDMDL
MODEL 5
REMARK VINA RESULT: -9.482867296      4.117      6.432
REMARK  7 active torsions:
REMARK  status: ('A' for Active; 'I' for Inactive)
REMARK    1  A    between atoms: C2_2  and  C3_3 
REMARK    2  A    between atoms: C3_3  and  N1_4 
REMARK    3  A    between atoms: N1_4  and  C4_6 
REMARK    4  A    between atoms: C5_9  and  C6_10 
REMARK    5  A    between atoms: C15_21  and  S1_22 
REMARK    6  A    between atoms: S1_22  and  N4_25 
REMARK    7  A    between atoms: N4_25  and  C16_27 
ROOT
HETATM    1  C4  UNL     1     -51.268  91.818  29.790  1.00  0.00     0.112 A 
HETATM    2  N2  UNL     1     -50.605  90.994  30.659  1.00  0.00    -0.341 N 
ATOM      3  H2  UNL     1     -51.041  90.786  31.558  1.00  0.00     0.167 HD
HETATM    4  C5  UNL     1     -49.422  90.451  30.393  1.00  0.00     0.044 A 
HETATM    5  C11 UNL     1     -48.782  90.694  29.197  1.00  0.00     0.042 A 
HETATM    6  C12 UNL     1     -49.414  91.529  28.271  1.00  0.00    -0.020 A 
HETATM    7  C13 UNL     1     -48.808  91.805  27.051  1.00  0.00     0.014 A 
HETATM    8  C14 UNL     1     -49.465  92.640  26.153  1.00  0.00     0.026 A 
HETATM    9  C15 UNL     1     -50.678  93.177  26.464  1.00  0.00     0.081 A 
HETATM   10  C18 UNL     1     -51.248  92.884  27.678  1.00  0.00     0.041 A 
HETATM   11  C19 UNL     1     -50.637  92.068  28.592  1.00  0.00     0.019 A 
ENDROOT
BRANCH   9  12
HETATM   12  S1  UNL     1     -51.491  94.230  25.314  1.00  0.00     0.276 S 
HETATM   13  O1  UNL     1     -52.993  93.999  25.410  1.00  0.00    -0.200 OA
HETATM   14  O2  UNL     1     -51.108  93.895  23.908  1.00  0.00    -0.200 OA
BRANCH  12  15
HETATM   15  N4  UNL     1     -51.213  95.877  25.624  1.00  0.00    -0.111 N 
ATOM     16  H4  UNL     1     -50.844  96.115  26.546  1.00  0.00     0.197 HD
BRANCH  15  17
HETATM   17  C16 UNL     1     -51.416  96.841  24.827  1.00  0.00     0.707 A 
HETATM   18  N5  UNL     1     -52.506  96.862  24.005  1.00  0.00    -0.185 N 
HETATM   19  C17 UNL     1     -52.463  97.995  23.275  1.00  0.00     0.215 A 
ATOM     20  H5  UNL     1     -53.229  96.145  23.952  1.00  0.00     0.185 HD
HETATM   21  N6  UNL     1     -51.358  98.656  23.650  1.00  0.00    -0.281 N 
HETATM   22  N7  UNL     1     -50.728  97.968  24.580  1.00  0.00    -0.130 N 
ATOM     23  H6  UNL     1     -51.054  99.553  23.274  1.00  0.00     0.188 HD
ATOM     24  H7  UNL     1     -49.859  98.245  25.037  1.00  0.00     0.205 HD
ENDBRANCH  15  17
ENDBRANCH  12  15
ENDBRANCH   9  12
BRANCH   1  25
HETATM   25  N1  UNL     1     -52.421  92.325  30.091  1.00  0.00    -0.376 N 
ATOM     26  H1  UNL     1     -52.650  93.288  29.845  1.00  0.00     0.161 HD
BRANCH  25  27
HETATM   27  C3  UNL     1     -53.365  91.495  30.781  1.00  0.00     0.121 C 
BRANCH  27  28
HETATM   28  C2  UNL     1     -53.896  90.372  29.956  1.00  0.00     0.015 C 
HETATM   29  C1  UNL     1     -54.994  89.600  30.657  1.00  0.00     0.006 C 
ENDBRANCH  27  28
ENDBRANCH  25  27
ENDBRANCH   1  25
BRANCH   4  30
HETATM   30  C6  UNL     1     -48.754  89.564  31.378  1.00  0.00    -0.007 A 
HETATM   31  C7  UNL     1     -48.583  88.216  31.152  1.00  0.00     0.030 A 
HETATM   32  C8  UNL     1     -47.950  87.432  32.108  1.00  0.00     0.088 A 
HETATM   33  N3  UNL     1     -47.496  87.953  33.253  1.00  0.00    -0.375 N 
HETATM   34  C9  UNL     1     -47.632  89.260  33.530  1.00  0.00     0.088 A 
ATOM     35  H3  UNL     1     -47.036  87.345  33.931  1.00  0.00     0.164 HD
HETATM   36  C10 UNL     1     -48.271  90.056  32.569  1.00  0.00     0.030 A 
ENDBRANCH   4  30
TORSDOF 7
ENDMDL
