MODEL 1
REMARK VINA RESULT: -7.376740972      0.000      0.000
REMARK  5 active torsions:
REMARK  status: ('A' for Active; 'I' for Inactive)
REMARK    1  A    between atoms: O1_2  and  C2_3 
REMARK    2  A    between atoms: C2_3  and  C3_4 
REMARK       I    between atoms: C3_4  and  N1_6 
REMARK    3  A    between atoms: N1_6  and  C4_8 
REMARK    4  A    between atoms: C4_8  and  C5_9 
REMARK       I    between atoms: C5_9  and  N2_11 
REMARK    5  A    between atoms: N2_11  and  C6_13 
ROOT
HETATM    1  C4  UNL     1      21.989  43.790  55.147  1.00  0.00     0.150 C 
HETATM    2  C16 UNL     1      22.033  42.867  56.321  1.00  0.00     0.123 C 
HETATM    3  C17 UNL     1      21.926  43.689  57.557  1.00  0.00     0.249 C 
HETATM    4  F1  UNL     1      20.734  43.481  58.264  1.00  0.00    -0.206 F 
HETATM    5  F2  UNL     1      22.956  43.340  58.422  1.00  0.00    -0.206 F 
HETATM    6  C18 UNL     1      22.112  45.115  57.156  1.00  0.00     0.119 C 
HETATM    7  C19 UNL     1      21.818  45.162  55.701  1.00  0.00     0.213 C 
HETATM    8  F3  UNL     1      22.760  46.003  55.113  1.00  0.00    -0.246 F 
ENDROOT
BRANCH   1   9
HETATM    9  N1  UNL     1      23.130  43.624  54.270  1.00  0.00    -0.339 N 
HETATM   10  C3  UNL     1      24.476  43.480  54.641  1.00  0.00     0.242 C 
HETATM   11  O2  UNL     1      24.821  43.481  55.836  1.00  0.00    -0.271 OA
ATOM     12  H1  UNL     1      22.932  43.609  53.269  1.00  0.00     0.164 HD
BRANCH  10  13
HETATM   13  C2  UNL     1      25.504  43.326  53.584  1.00  0.00     0.269 C 
BRANCH  13  14
HETATM   14  O1  UNL     1      25.347  44.057  52.460  1.00  0.00    -0.387 OA
HETATM   15  C1  UNL     1      26.442  44.605  51.859  1.00  0.00     0.202 C 
ENDBRANCH  13  14
ENDBRANCH  10  13
ENDBRANCH   1   9
BRANCH   1  16
HETATM   16  C5  UNL     1      20.777  43.422  54.321  1.00  0.00     0.249 C 
HETATM   17  O3  UNL     1      19.663  43.856  54.699  1.00  0.00    -0.271 OA
HETATM   18  N2  UNL     1      20.863  42.615  53.155  1.00  0.00    -0.353 N 
ATOM     19  H2  UNL     1      21.768  42.259  52.846  1.00  0.00     0.163 HD
BRANCH  18  20
HETATM   20  C6  UNL     1      19.670  42.297  52.405  1.00  0.00     0.092 C 
HETATM   21  C7  UNL     1      18.838  41.231  53.083  1.00  0.00     0.009 C 
HETATM   22  C8  UNL     1      19.428  39.863  52.976  1.00  0.00     0.011 C 
HETATM   23  C12 UNL     1      17.472  41.256  52.423  1.00  0.00     0.011 C 
HETATM   24  C9  UNL     1      19.565  39.495  51.514  1.00  0.00    -0.013 C 
HETATM   25  C10 UNL     1      18.202  39.517  50.884  1.00  0.00     0.009 C 
HETATM   26  C15 UNL     1      20.505  40.481  50.884  1.00  0.00     0.011 C 
HETATM   27  C11 UNL     1      17.640  40.926  50.961  1.00  0.00    -0.013 C 
HETATM   28  C13 UNL     1      18.595  41.857  50.272  1.00  0.00     0.011 C 
HETATM   29  C14 UNL     1      19.949  41.881  50.993  1.00  0.00     0.009 C 
ENDBRANCH  18  20
ENDBRANCH   1  16
TORSDOF 5
ENDMDL
MODEL 2
REMARK VINA RESULT: -7.281013416      1.291      2.117
REMARK  5 active torsions:
REMARK  status: ('A' for Active; 'I' for Inactive)
REMARK    1  A    between atoms: O1_2  and  C2_3 
REMARK    2  A    between atoms: C2_3  and  C3_4 
REMARK       I    between atoms: C3_4  and  N1_6 
REMARK    3  A    between atoms: N1_6  and  C4_8 
REMARK    4  A    between atoms: C4_8  and  C5_9 
REMARK       I    between atoms: C5_9  and  N2_11 
REMARK    5  A    between atoms: N2_11  and  C6_13 
ROOT
HETATM    1  C4  UNL     1      22.859  44.102  55.209  1.00  0.00     0.150 C 
HETATM    2  C16 UNL     1      23.661  43.631  56.378  1.00  0.00     0.123 C 
HETATM    3  C17 UNL     1      23.160  44.331  57.592  1.00  0.00     0.249 C 
HETATM    4  F1  UNL     1      22.531  43.478  58.508  1.00  0.00    -0.206 F 
HETATM    5  F2  UNL     1      24.238  44.895  58.265  1.00  0.00    -0.206 F 
HETATM    6  C18 UNL     1      22.266  45.433  57.128  1.00  0.00     0.119 C 
HETATM    7  C19 UNL     1      21.856  45.062  55.751  1.00  0.00     0.213 C 
HETATM    8  F3  UNL     1      21.885  46.221  54.980  1.00  0.00    -0.246 F 
ENDROOT
BRANCH   1   9
HETATM    9  N1  UNL     1      23.690  44.625  54.144  1.00  0.00    -0.339 N 
HETATM   10  C3  UNL     1      24.658  43.932  53.399  1.00  0.00     0.242 C 
HETATM   11  O2  UNL     1      24.893  42.728  53.606  1.00  0.00    -0.271 OA
ATOM     12  H1  UNL     1      23.557  45.609  53.908  1.00  0.00     0.164 HD
BRANCH  10  13
HETATM   13  C2  UNL     1      25.412  44.653  52.347  1.00  0.00     0.269 C 
BRANCH  13  14
HETATM   14  O1  UNL     1      26.393  43.975  51.715  1.00  0.00    -0.387 OA
HETATM   15  C1  UNL     1      27.108  44.591  50.730  1.00  0.00     0.202 C 
ENDBRANCH  13  14
ENDBRANCH  10  13
ENDBRANCH   1   9
BRANCH   1  16
HETATM   16  C5  UNL     1      22.149  42.902  54.626  1.00  0.00     0.249 C 
HETATM   17  O3  UNL     1      21.962  41.916  55.378  1.00  0.00    -0.271 OA
HETATM   18  N2  UNL     1      21.700  42.858  53.279  1.00  0.00    -0.353 N 
ATOM     19  H2  UNL     1      21.854  43.658  52.664  1.00  0.00     0.163 HD
BRANCH  18  20
HETATM   20  C6  UNL     1      21.026  41.683  52.778  1.00  0.00     0.092 C 
HETATM   21  C7  UNL     1      20.634  41.828  51.324  1.00  0.00     0.009 C 
HETATM   22  C8  UNL     1      19.474  42.743  51.112  1.00  0.00     0.011 C 
HETATM   23  C12 UNL     1      20.292  40.438  50.822  1.00  0.00     0.011 C 
HETATM   24  C9  UNL     1      18.278  42.212  51.872  1.00  0.00    -0.013 C 
HETATM   25  C10 UNL     1      17.950  40.841  51.354  1.00  0.00     0.009 C 
HETATM   26  C15 UNL     1      18.632  42.206  53.330  1.00  0.00     0.011 C 
HETATM   27  C11 UNL     1      19.124  39.914  51.622  1.00  0.00    -0.013 C 
HETATM   28  C13 UNL     1      19.399  39.909  53.097  1.00  0.00     0.011 C 
HETATM   29  C14 UNL     1      19.818  41.303  53.578  1.00  0.00     0.009 C 
ENDBRANCH  18  20
ENDBRANCH   1  16
TORSDOF 5
ENDMDL
MODEL 3
REMARK VINA RESULT: -7.153719623      1.813      6.924
REMARK  5 active torsions:
REMARK  status: ('A' for Active; 'I' for Inactive)
REMARK    1  A    between atoms: O1_2  and  C2_3 
REMARK    2  A    between atoms: C2_3  and  C3_4 
REMARK       I    between atoms: C3_4  and  N1_6 
REMARK    3  A    between atoms: N1_6  and  C4_8 
REMARK    4  A    between atoms: C4_8  and  C5_9 
REMARK       I    between atoms: C5_9  and  N2_11 
REMARK    5  A    between atoms: N2_11  and  C6_13 
ROOT
HETATM    1  C4  UNL     1      22.755  43.772  54.348  1.00  0.00     0.150 C 
HETATM    2  C16 UNL     1      22.592  45.205  54.738  1.00  0.00     0.123 C 
HETATM    3  C17 UNL     1      22.572  45.279  56.224  1.00  0.00     0.249 C 
HETATM    4  F1  UNL     1      23.686  45.935  56.764  1.00  0.00    -0.206 F 
HETATM    5  F2  UNL     1      21.460  46.009  56.625  1.00  0.00    -0.206 F 
HETATM    6  C18 UNL     1      22.427  43.883  56.733  1.00  0.00     0.119 C 
HETATM    7  C19 UNL     1      22.867  43.004  55.621  1.00  0.00     0.213 C 
HETATM    8  F3  UNL     1      21.989  41.924  55.570  1.00  0.00    -0.246 F 
ENDROOT
BRANCH   1   9
HETATM    9  N1  UNL     1      21.709  43.320  53.454  1.00  0.00    -0.339 N 
HETATM   10  C3  UNL     1      20.322  43.376  53.666  1.00  0.00     0.242 C 
HETATM   11  O2  UNL     1      19.847  43.855  54.710  1.00  0.00    -0.271 OA
ATOM     12  H1  UNL     1      22.015  42.914  52.569  1.00  0.00     0.164 HD
BRANCH  10  13
HETATM   13  C2  UNL     1      19.410  42.852  52.622  1.00  0.00     0.269 C 
BRANCH  13  14
HETATM   14  O1  UNL     1      18.458  41.981  53.015  1.00  0.00    -0.387 OA
HETATM   15  C1  UNL     1      17.847  41.190  52.086  1.00  0.00     0.202 C 
ENDBRANCH  13  14
ENDBRANCH  10  13
ENDBRANCH   1   9
BRANCH   1  16
HETATM   16  C5  UNL     1      24.044  43.653  53.569  1.00  0.00     0.249 C 
HETATM   17  O3  UNL     1      24.634  42.547  53.585  1.00  0.00    -0.271 OA
HETATM   18  N2  UNL     1      24.597  44.737  52.836  1.00  0.00    -0.353 N 
ATOM     19  H2  UNL     1      24.120  45.639  52.822  1.00  0.00     0.163 HD
BRANCH  18  20
HETATM   20  C6  UNL     1      25.833  44.564  52.108  1.00  0.00     0.092 C 
HETATM   21  C7  UNL     1      27.013  45.166  52.840  1.00  0.00     0.009 C 
HETATM   22  C8  UNL     1      27.042  46.658  52.792  1.00  0.00     0.011 C 
HETATM   23  C12 UNL     1      28.264  44.606  52.188  1.00  0.00     0.011 C 
HETATM   24  C9  UNL     1      27.104  47.106  51.347  1.00  0.00    -0.013 C 
HETATM   25  C10 UNL     1      28.352  46.550  50.725  1.00  0.00     0.009 C 
HETATM   26  C15 UNL     1      25.857  46.622  50.667  1.00  0.00     0.011 C 
HETATM   27  C11 UNL     1      28.282  45.032  50.741  1.00  0.00    -0.013 C 
HETATM   28  C13 UNL     1      27.045  44.605  50.005  1.00  0.00     0.011 C 
HETATM   29  C14 UNL     1      25.785  45.114  50.715  1.00  0.00     0.009 C 
ENDBRANCH  18  20
ENDBRANCH   1  16
TORSDOF 5
ENDMDL
MODEL 4
REMARK VINA RESULT: -7.075631887      3.154      7.143
REMARK  5 active torsions:
REMARK  status: ('A' for Active; 'I' for Inactive)
REMARK    1  A    between atoms: O1_2  and  C2_3 
REMARK    2  A    between atoms: C2_3  and  C3_4 
REMARK       I    between atoms: C3_4  and  N1_6 
REMARK    3  A    between atoms: N1_6  and  C4_8 
REMARK    4  A    between atoms: C4_8  and  C5_9 
REMARK       I    between atoms: C5_9  and  N2_11 
REMARK    5  A    between atoms: N2_11  and  C6_13 
ROOT
HETATM    1  C4  UNL     1      23.142  43.910  55.343  1.00  0.00     0.150 C 
HETATM    2  C16 UNL     1      22.672  42.557  54.915  1.00  0.00     0.123 C 
HETATM    3  C17 UNL     1      21.444  42.735  54.095  1.00  0.00     0.249 C 
HETATM    4  F1  UNL     1      21.616  42.383  52.749  1.00  0.00    -0.206 F 
HETATM    5  F2  UNL     1      20.447  41.901  54.588  1.00  0.00    -0.206 F 
HETATM    6  C18 UNL     1      21.000  44.150  54.265  1.00  0.00     0.119 C 
HETATM    7  C19 UNL     1      22.197  44.890  54.736  1.00  0.00     0.213 C 
HETATM    8  F3  UNL     1      21.777  45.776  55.725  1.00  0.00    -0.246 F 
ENDROOT
BRANCH   1   9
HETATM    9  N1  UNL     1      23.290  44.015  56.780  1.00  0.00    -0.339 N 
HETATM   10  C3  UNL     1      22.349  43.664  57.761  1.00  0.00     0.242 C 
HETATM   11  O2  UNL     1      21.237  43.199  57.455  1.00  0.00    -0.271 OA
ATOM     12  H1  UNL     1      24.179  44.385  57.117  1.00  0.00     0.164 HD
BRANCH  10  13
HETATM   13  C2  UNL     1      22.693  43.853  59.191  1.00  0.00     0.269 C 
BRANCH  13  14
HETATM   14  O1  UNL     1      22.700  42.755  59.975  1.00  0.00    -0.387 OA
HETATM   15  C1  UNL     1      21.615  42.481  60.755  1.00  0.00     0.202 C 
ENDBRANCH  13  14
ENDBRANCH  10  13
ENDBRANCH   1   9
BRANCH   1  16
HETATM   16  C5  UNL     1      24.525  44.117  54.769  1.00  0.00     0.249 C 
HETATM   17  O3  UNL     1      25.477  43.511  55.314  1.00  0.00    -0.271 OA
HETATM   18  N2  UNL     1      24.772  44.963  53.655  1.00  0.00    -0.353 N 
ATOM     19  H2  UNL     1      23.999  45.459  53.210  1.00  0.00     0.163 HD
BRANCH  18  20
HETATM   20  C6  UNL     1      26.115  45.122  53.149  1.00  0.00     0.092 C 
HETATM   21  C7  UNL     1      26.631  46.532  53.334  1.00  0.00     0.009 C 
HETATM   22  C8  UNL     1      26.020  47.514  52.390  1.00  0.00     0.011 C 
HETATM   23  C12 UNL     1      28.133  46.480  53.124  1.00  0.00     0.011 C 
HETATM   24  C9  UNL     1      26.317  47.087  50.969  1.00  0.00    -0.013 C 
HETATM   25  C10 UNL     1      27.806  47.051  50.779  1.00  0.00     0.009 C 
HETATM   26  C15 UNL     1      25.679  45.746  50.755  1.00  0.00     0.011 C 
HETATM   27  C11 UNL     1      28.403  46.013  51.714  1.00  0.00    -0.013 C 
HETATM   28  C13 UNL     1      27.765  44.687  51.421  1.00  0.00     0.011 C 
HETATM   29  C14 UNL     1      26.260  44.729  51.710  1.00  0.00     0.009 C 
ENDBRANCH  18  20
ENDBRANCH   1  16
TORSDOF 5
ENDMDL
MODEL 5
REMARK VINA RESULT: -7.056047567      3.365      6.973
REMARK  5 active torsions:
REMARK  status: ('A' for Active; 'I' for Inactive)
REMARK    1  A    between atoms: O1_2  and  C2_3 
REMARK    2  A    between atoms: C2_3  and  C3_4 
REMARK       I    between atoms: C3_4  and  N1_6 
REMARK    3  A    between atoms: N1_6  and  C4_8 
REMARK    4  A    between atoms: C4_8  and  C5_9 
REMARK       I    between atoms: C5_9  and  N2_11 
REMARK    5  A    between atoms: N2_11  and  C6_13 
ROOT
HETATM    1  C4  UNL     1      23.735  43.579  54.727  1.00  0.00     0.150 C 
HETATM    2  C16 UNL     1      23.020  42.376  54.203  1.00  0.00     0.123 C 
HETATM    3  C17 UNL     1      21.657  42.797  53.783  1.00  0.00     0.249 C 
HETATM    4  F1  UNL     1      21.449  42.716  52.400  1.00  0.00    -0.206 F 
HETATM    5  F2  UNL     1      20.723  41.947  54.365  1.00  0.00    -0.206 F 
HETATM    6  C18 UNL     1      21.436  44.174  54.316  1.00  0.00     0.119 C 
HETATM    7  C19 UNL     1      22.790  44.722  54.578  1.00  0.00     0.213 C 
HETATM    8  F3  UNL     1      22.733  45.415  55.785  1.00  0.00    -0.246 F 
ENDROOT
BRANCH   1   9
HETATM    9  N1  UNL     1      24.244  43.380  56.068  1.00  0.00    -0.339 N 
HETATM   10  C3  UNL     1      25.239  44.126  56.721  1.00  0.00     0.242 C 
HETATM   11  O2  UNL     1      25.798  45.086  56.164  1.00  0.00    -0.271 OA
ATOM     12  H1  UNL     1      23.835  42.610  56.597  1.00  0.00     0.164 HD
BRANCH  10  13
HETATM   13  C2  UNL     1      25.627  43.755  58.103  1.00  0.00     0.269 C 
BRANCH  13  14
HETATM   14  O1  UNL     1      24.632  43.445  58.962  1.00  0.00    -0.387 OA
HETATM   15  C1  UNL     1      23.949  44.447  59.586  1.00  0.00     0.202 C 
ENDBRANCH  13  14
ENDBRANCH  10  13
ENDBRANCH   1   9
BRANCH   1  16
HETATM   16  C5  UNL     1      24.948  43.807  53.854  1.00  0.00     0.249 C 
HETATM   17  O3  UNL     1      25.691  42.825  53.623  1.00  0.00    -0.271 OA
HETATM   18  N2  UNL     1      25.264  45.078  53.302  1.00  0.00    -0.353 N 
ATOM     19  H2  UNL     1      24.662  45.880  53.490  1.00  0.00     0.163 HD
BRANCH  18  20
HETATM   20  C6  UNL     1      26.437  45.235  52.474  1.00  0.00     0.092 C 
HETATM   21  C7  UNL     1      27.017  46.630  52.566  1.00  0.00     0.009 C 
HETATM   22  C8  UNL     1      26.208  47.656  51.843  1.00  0.00     0.011 C 
HETATM   23  C12 UNL     1      28.412  46.564  51.975  1.00  0.00     0.011 C 
HETATM   24  C9  UNL     1      26.121  47.278  50.380  1.00  0.00    -0.013 C 
HETATM   25  C10 UNL     1      27.510  47.228  49.813  1.00  0.00     0.009 C 
HETATM   26  C15 UNL     1      25.417  45.955  50.294  1.00  0.00     0.011 C 
HETATM   27  C11 UNL     1      28.302  46.146  50.529  1.00  0.00    -0.013 C 
HETATM   28  C13 UNL     1      27.578  44.842  50.367  1.00  0.00     0.011 C 
HETATM   29  C14 UNL     1      26.199  44.895  51.034  1.00  0.00     0.009 C 
ENDBRANCH  18  20
ENDBRANCH   1  16
TORSDOF 5
ENDMDL
