MODEL 1
REMARK VINA RESULT: -6.147398951      0.000      0.000
REMARK  18 active torsions:
REMARK  status: ('A' for Active; 'I' for Inactive)
REMARK       I    between atoms: C2_2  and  N1_4 
REMARK    1  A    between atoms: N1_4  and  C3_5 
REMARK    2  A    between atoms: C4_6  and  O2_7 
REMARK    3  A    between atoms: O2_7  and  N2_8 
REMARK    4  A    between atoms: C5_10  and  O3_11 
REMARK    5  A    between atoms: C5_10  and  C6_13 
REMARK    6  A    between atoms: C6_13  and  O4_14 
REMARK    7  A    between atoms: C6_13  and  C7_16 
REMARK    8  A    between atoms: C7_16  and  C8_17 
REMARK    9  A    between atoms: C8_17  and  N3_18 
REMARK   10  A    between atoms: C8_17  and  O5_22 
REMARK   11  A    between atoms: C13_31  and  O7_32 
REMARK   12  A    between atoms: C13_31  and  C14_34 
REMARK   13  A    between atoms: C14_34  and  O8_35 
REMARK   14  A    between atoms: C15_37  and  C16_38 
REMARK   15  A    between atoms: C15_37  and  O10_41 
REMARK   16  A    between atoms: C16_38  and  O9_39 
REMARK   17  A    between atoms: O10_41  and  C17_42 
REMARK   18  A    between atoms: C18_46  and  O11_47 
ROOT
HETATM    1  C3  UNL     1      -7.325  -4.336  -3.850  1.00  0.00     0.234 C 
HETATM    2  C4  UNL     1      -6.779  -3.701  -5.215  1.00  0.00     0.252 C 
HETATM    3  S1  UNL     1      -5.168  -4.294  -4.689  1.00  0.00    -0.111 SA
HETATM    4  C9  UNL     1      -6.258  -5.371  -3.626  1.00  0.00     0.125 C 
HETATM    5  C10 UNL     1      -6.306  -6.672  -4.273  1.00  0.00     0.153 A 
HETATM    6  C11 UNL     1      -7.171  -7.754  -4.376  1.00  0.00     0.221 A 
HETATM    7  O6  UNL     1      -6.944  -6.846  -5.491  1.00  0.00    -0.361 OA
HETATM    8  S2  UNL     1      -4.493  -7.151  -4.338  1.00  0.00    -0.124 SA
HETATM    9  C12 UNL     1      -4.111  -7.209  -2.587  1.00  0.00     0.120 C 
HETATM   10  C13 UNL     1      -4.456  -5.896  -1.885  1.00  0.00     0.122 C 
HETATM   11  C15 UNL     1      -5.767  -5.343  -2.169  1.00  0.00     0.144 C 
ENDROOT
BRANCH   1  12
HETATM   12  N1  UNL     1      -8.631  -4.524  -3.871  1.00  0.00    -0.404 NA
HETATM   13  C2  UNL     1     -10.035  -4.717  -3.900  1.00  0.00     0.282 C 
HETATM   14  C1  UNL     1     -10.623  -5.973  -3.245  1.00  0.00     0.134 C 
HETATM   15  O1  UNL     1     -10.917  -3.992  -4.393  1.00  0.00    -0.258 OA
ENDBRANCH   1  12
BRANCH  11  16
HETATM   16  C16 UNL     1      -6.884  -6.016  -1.348  1.00  0.00     0.207 C 
BRANCH  16  17
HETATM   17  O9  UNL     1      -6.723  -7.345  -1.172  1.00  0.00    -0.398 OA
ATOM     18  H9  UNL     1      -7.493  -7.864  -1.374  1.00  0.00     0.209 HD
ENDBRANCH  16  17
ENDBRANCH  11  16
BRANCH  11  19
HETATM   19  O10 UNL     1      -5.804  -3.985  -1.916  1.00  0.00    -0.320 OA
BRANCH  19  20
HETATM   20  C17 UNL     1      -6.203  -3.457  -0.760  1.00  0.00     0.479 C 
HETATM   21  N4  UNL     1      -7.032  -2.212  -0.976  1.00  0.00     0.025 N 
HETATM   22  C18 UNL     1      -6.277  -1.742   0.142  1.00  0.00     0.476 C 
ATOM     23  H42 UNL     1      -7.080  -1.719  -1.867  1.00  0.00     0.289 HD
ATOM     24  H41 UNL     1      -8.051  -2.215  -1.003  1.00  0.00     0.289 HD
HETATM   25  O12 UNL     1      -5.309  -2.661  -0.122  1.00  0.00    -0.284 OA
BRANCH  22  26
HETATM   26  O11 UNL     1      -5.860  -0.403   0.030  1.00  0.00    -0.349 OA
ATOM     27  H11 UNL     1      -5.004  -0.231   0.405  1.00  0.00     0.214 HD
ENDBRANCH  22  26
ENDBRANCH  19  20
ENDBRANCH  11  19
BRANCH   2  28
HETATM   28  O2  UNL     1      -7.277  -4.281  -6.342  1.00  0.00    -0.259 OA
BRANCH  28  29
HETATM   29  N2  UNL     1      -8.114  -4.181  -7.265  1.00  0.00    -0.245 N 
HETATM   30  C5  UNL     1      -9.211  -3.671  -7.556  1.00  0.00     0.165 C 
ATOM     31  H2  UNL     1      -7.775  -4.707  -8.071  1.00  0.00     0.196 HD
BRANCH  30  32
HETATM   32  O3  UNL     1      -9.889  -2.903  -6.642  1.00  0.00    -0.346 OA
ATOM     33  H3  UNL     1     -10.710  -2.485  -6.875  1.00  0.00     0.219 HD
ENDBRANCH  30  32
BRANCH  30  34
HETATM   34  C6  UNL     1      -9.747  -3.931  -8.912  1.00  0.00     0.198 C 
BRANCH  34  35
HETATM   35  O4  UNL     1      -8.846  -4.708  -9.678  1.00  0.00    -0.387 OA
ATOM     36  H4  UNL     1      -8.548  -4.231 -10.444  1.00  0.00     0.210 HD
ENDBRANCH  34  35
BRANCH  34  37
HETATM   37  C7  UNL     1     -10.172  -2.770  -9.711  1.00  0.00     0.101 C 
BRANCH  37  38
HETATM   38  C8  UNL     1      -9.285  -1.546  -9.606  1.00  0.00     0.318 C 
BRANCH  38  39
HETATM   39  N3  UNL     1      -9.289  -0.959 -10.959  1.00  0.00    -0.053 N 
ATOM     40  H33 UNL     1      -8.855  -1.551 -11.667  1.00  0.00     0.277 HD
ATOM     41  H32 UNL     1     -10.213  -0.920 -11.390  1.00  0.00     0.277 HD
ATOM     42  H31 UNL     1      -8.844  -0.048 -10.850  1.00  0.00     0.277 HD
ENDBRANCH  38  39
BRANCH  38  43
HETATM   43  O5  UNL     1      -9.894  -0.661  -8.699  1.00  0.00    -0.370 OA
ATOM     44  H5  UNL     1      -9.244  -0.013  -8.453  1.00  0.00     0.212 HD
ENDBRANCH  38  43
ENDBRANCH  37  38
ENDBRANCH  34  37
ENDBRANCH  30  34
ENDBRANCH  28  29
ENDBRANCH   2  28
BRANCH  10  45
HETATM   45  O7  UNL     1      -4.411  -6.327  -0.520  1.00  0.00    -0.384 OA
ATOM     46  H7  UNL     1      -5.150  -5.843  -0.171  1.00  0.00     0.210 HD
ENDBRANCH  10  45
BRANCH  10  47
HETATM   47  C14 UNL     1      -3.254  -5.007  -2.048  1.00  0.00     0.206 C 
BRANCH  47  48
HETATM   48  O8  UNL     1      -2.958  -4.368  -0.801  1.00  0.00    -0.398 OA
ATOM     49  H8  UNL     1      -2.474  -3.566  -0.962  1.00  0.00     0.209 HD
ENDBRANCH  47  48
ENDBRANCH  10  47
TORSDOF 18
ENDMDL
MODEL 2
REMARK VINA RESULT: -5.837285465      0.909      1.020
REMARK  18 active torsions:
REMARK  status: ('A' for Active; 'I' for Inactive)
REMARK       I    between atoms: C2_2  and  N1_4 
REMARK    1  A    between atoms: N1_4  and  C3_5 
REMARK    2  A    between atoms: C4_6  and  O2_7 
REMARK    3  A    between atoms: O2_7  and  N2_8 
REMARK    4  A    between atoms: C5_10  and  O3_11 
REMARK    5  A    between atoms: C5_10  and  C6_13 
REMARK    6  A    between atoms: C6_13  and  O4_14 
REMARK    7  A    between atoms: C6_13  and  C7_16 
REMARK    8  A    between atoms: C7_16  and  C8_17 
REMARK    9  A    between atoms: C8_17  and  N3_18 
REMARK   10  A    between atoms: C8_17  and  O5_22 
REMARK   11  A    between atoms: C13_31  and  O7_32 
REMARK   12  A    between atoms: C13_31  and  C14_34 
REMARK   13  A    between atoms: C14_34  and  O8_35 
REMARK   14  A    between atoms: C15_37  and  C16_38 
REMARK   15  A    between atoms: C15_37  and  O10_41 
REMARK   16  A    between atoms: C16_38  and  O9_39 
REMARK   17  A    between atoms: O10_41  and  C17_42 
REMARK   18  A    between atoms: C18_46  and  O11_47 
ROOT
HETATM    1  C3  UNL     1      -7.489  -4.378  -3.456  1.00  0.00     0.234 C 
HETATM    2  C4  UNL     1      -6.817  -3.546  -4.649  1.00  0.00     0.252 C 
HETATM    3  S1  UNL     1      -5.255  -4.175  -4.027  1.00  0.00    -0.111 SA
HETATM    4  C9  UNL     1      -6.417  -5.413  -3.255  1.00  0.00     0.125 C 
HETATM    5  C10 UNL     1      -6.346  -6.611  -4.077  1.00  0.00     0.153 A 
HETATM    6  C11 UNL     1      -7.156  -7.684  -4.427  1.00  0.00     0.221 A 
HETATM    7  O6  UNL     1      -6.838  -6.624  -5.372  1.00  0.00    -0.361 OA
HETATM    8  S2  UNL     1      -4.521  -7.040  -3.998  1.00  0.00    -0.124 SA
HETATM    9  C12 UNL     1      -4.335  -7.336  -2.239  1.00  0.00     0.120 C 
HETATM   10  C13 UNL     1      -4.803  -6.142  -1.407  1.00  0.00     0.122 C 
HETATM   11  C15 UNL     1      -6.092  -5.581  -1.762  1.00  0.00     0.144 C 
ENDROOT
BRANCH   1  12
HETATM   12  N1  UNL     1      -8.776  -4.586  -3.654  1.00  0.00    -0.404 NA
HETATM   13  C2  UNL     1     -10.161  -4.803  -3.872  1.00  0.00     0.282 C 
HETATM   14  C1  UNL     1     -10.837  -6.005  -3.201  1.00  0.00     0.134 C 
HETATM   15  O1  UNL     1     -10.960  -4.137  -4.553  1.00  0.00    -0.258 OA
ENDBRANCH   1  12
BRANCH  11  16
HETATM   16  C16 UNL     1      -7.270  -6.384  -1.176  1.00  0.00     0.207 C 
BRANCH  16  17
HETATM   17  O9  UNL     1      -7.079  -7.722  -1.160  1.00  0.00    -0.398 OA
ATOM     18  H9  UNL     1      -7.474  -8.165  -0.419  1.00  0.00     0.209 HD
ENDBRANCH  16  17
ENDBRANCH  11  16
BRANCH  11  19
HETATM   19  O10 UNL     1      -6.206  -4.273  -1.330  1.00  0.00    -0.320 OA
BRANCH  19  20
HETATM   20  C17 UNL     1      -6.881  -3.908  -0.241  1.00  0.00     0.479 C 
HETATM   21  N4  UNL     1      -7.217  -2.435  -0.265  1.00  0.00     0.025 N 
HETATM   22  C18 UNL     1      -6.870  -2.524   1.118  1.00  0.00     0.476 C 
ATOM     23  H42 UNL     1      -6.786  -1.773  -0.909  1.00  0.00     0.289 HD
ATOM     24  H41 UNL     1      -8.109  -2.069  -0.597  1.00  0.00     0.289 HD
HETATM   25  O12 UNL     1      -6.141  -3.645   0.865  1.00  0.00    -0.284 OA
BRANCH  22  26
HETATM   26  O11 UNL     1      -6.122  -1.433   1.593  1.00  0.00    -0.349 OA
ATOM     27  H11 UNL     1      -5.364  -1.678   2.112  1.00  0.00     0.214 HD
ENDBRANCH  22  26
ENDBRANCH  19  20
ENDBRANCH  11  19
BRANCH   2  28
HETATM   28  O2  UNL     1      -7.166  -3.971  -5.894  1.00  0.00    -0.259 OA
BRANCH  28  29
HETATM   29  N2  UNL     1      -8.050  -3.947  -6.778  1.00  0.00    -0.245 N 
HETATM   30  C5  UNL     1      -8.628  -4.658  -7.619  1.00  0.00     0.165 C 
ATOM     31  H2  UNL     1      -8.436  -3.004  -6.828  1.00  0.00     0.196 HD
BRANCH  30  32
HETATM   32  O3  UNL     1      -8.298  -5.983  -7.760  1.00  0.00    -0.346 OA
ATOM     33  H3  UNL     1      -7.408  -6.240  -7.971  1.00  0.00     0.219 HD
ENDBRANCH  30  32
BRANCH  30  34
HETATM   34  C6  UNL     1      -9.671  -4.018  -8.454  1.00  0.00     0.198 C 
BRANCH  34  35
HETATM   35  O4  UNL     1     -10.652  -4.956  -8.855  1.00  0.00    -0.387 OA
ATOM     36  H4  UNL     1     -11.528  -4.609  -8.735  1.00  0.00     0.210 HD
ENDBRANCH  34  35
BRANCH  34  37
HETATM   37  C7  UNL     1      -9.228  -3.258  -9.633  1.00  0.00     0.101 C 
BRANCH  37  38
HETATM   38  C8  UNL     1      -9.173  -1.754  -9.458  1.00  0.00     0.318 C 
BRANCH  38  39
HETATM   39  N3  UNL     1      -9.735  -1.206 -10.706  1.00  0.00    -0.053 N 
ATOM     40  H33 UNL     1      -9.032  -0.868 -11.363  1.00  0.00     0.277 HD
ATOM     41  H32 UNL     1     -10.139  -1.912 -11.322  1.00  0.00     0.277 HD
ATOM     42  H31 UNL     1     -10.398  -0.493 -10.404  1.00  0.00     0.277 HD
ENDBRANCH  38  39
BRANCH  38  43
HETATM   43  O5  UNL     1     -10.005  -1.425  -8.374  1.00  0.00    -0.370 OA
ATOM     44  H5  UNL     1     -10.062  -0.477  -8.336  1.00  0.00     0.212 HD
ENDBRANCH  38  43
ENDBRANCH  37  38
ENDBRANCH  34  37
ENDBRANCH  30  34
ENDBRANCH  28  29
ENDBRANCH   2  28
BRANCH  10  45
HETATM   45  O7  UNL     1      -4.895  -6.760  -0.119  1.00  0.00    -0.384 OA
ATOM     46  H7  UNL     1      -5.413  -7.525  -0.340  1.00  0.00     0.210 HD
ENDBRANCH  10  45
BRANCH  10  47
HETATM   47  C14 UNL     1      -3.622  -5.216  -1.307  1.00  0.00     0.206 C 
BRANCH  47  48
HETATM   48  O8  UNL     1      -3.525  -4.706   0.028  1.00  0.00    -0.398 OA
ATOM     49  H8  UNL     1      -3.313  -5.416   0.624  1.00  0.00     0.209 HD
ENDBRANCH  47  48
ENDBRANCH  10  47
TORSDOF 18
ENDMDL
MODEL 3
REMARK VINA RESULT: -5.685872431      2.806      5.339
REMARK  18 active torsions:
REMARK  status: ('A' for Active; 'I' for Inactive)
REMARK       I    between atoms: C2_2  and  N1_4 
REMARK    1  A    between atoms: N1_4  and  C3_5 
REMARK    2  A    between atoms: C4_6  and  O2_7 
REMARK    3  A    between atoms: O2_7  and  N2_8 
REMARK    4  A    between atoms: C5_10  and  O3_11 
REMARK    5  A    between atoms: C5_10  and  C6_13 
REMARK    6  A    between atoms: C6_13  and  O4_14 
REMARK    7  A    between atoms: C6_13  and  C7_16 
REMARK    8  A    between atoms: C7_16  and  C8_17 
REMARK    9  A    between atoms: C8_17  and  N3_18 
REMARK   10  A    between atoms: C8_17  and  O5_22 
REMARK   11  A    between atoms: C13_31  and  O7_32 
REMARK   12  A    between atoms: C13_31  and  C14_34 
REMARK   13  A    between atoms: C14_34  and  O8_35 
REMARK   14  A    between atoms: C15_37  and  C16_38 
REMARK   15  A    between atoms: C15_37  and  O10_41 
REMARK   16  A    between atoms: C16_38  and  O9_39 
REMARK   17  A    between atoms: O10_41  and  C17_42 
REMARK   18  A    between atoms: C18_46  and  O11_47 
ROOT
HETATM    1  C3  UNL     1      -6.971  -5.688  -5.909  1.00  0.00     0.234 C 
HETATM    2  C4  UNL     1      -8.403  -5.010  -6.141  1.00  0.00     0.252 C 
HETATM    3  S1  UNL     1      -8.810  -5.628  -4.505  1.00  0.00    -0.111 SA
HETATM    4  C9  UNL     1      -6.948  -5.690  -4.406  1.00  0.00     0.125 C 
HETATM    5  C10 UNL     1      -6.539  -4.520  -3.645  1.00  0.00     0.153 A 
HETATM    6  C11 UNL     1      -5.443  -3.673  -3.545  1.00  0.00     0.221 A 
HETATM    7  O6  UNL     1      -6.691  -3.241  -4.156  1.00  0.00    -0.361 OA
HETATM    8  S2  UNL     1      -7.455  -4.759  -2.025  1.00  0.00    -0.124 SA
HETATM    9  C12 UNL     1      -6.726  -6.298  -1.465  1.00  0.00     0.120 C 
HETATM   10  C13 UNL     1      -6.863  -7.406  -2.509  1.00  0.00     0.122 C 
HETATM   11  C15 UNL     1      -6.495  -7.057  -3.867  1.00  0.00     0.144 C 
ENDROOT
BRANCH   1  12
HETATM   12  N1  UNL     1      -6.050  -5.207  -6.723  1.00  0.00    -0.404 NA
HETATM   13  C2  UNL     1      -5.059  -4.700  -7.600  1.00  0.00     0.282 C 
HETATM   14  C1  UNL     1      -4.875  -3.181  -7.711  1.00  0.00     0.134 C 
HETATM   15  O1  UNL     1      -4.267  -5.320  -8.331  1.00  0.00    -0.258 OA
ENDBRANCH   1  12
BRANCH  11  16
HETATM   16  C16 UNL     1      -4.971  -7.100  -4.097  1.00  0.00     0.207 C 
BRANCH  16  17
HETATM   17  O9  UNL     1      -4.236  -6.664  -3.051  1.00  0.00    -0.398 OA
ATOM     18  H9  UNL     1      -3.790  -7.352  -2.571  1.00  0.00     0.209 HD
ENDBRANCH  16  17
ENDBRANCH  11  16
BRANCH  11  19
HETATM   19  O10 UNL     1      -7.093  -7.901  -4.783  1.00  0.00    -0.320 OA
BRANCH  19  20
HETATM   20  C17 UNL     1      -6.470  -8.924  -5.365  1.00  0.00     0.479 C 
HETATM   21  N4  UNL     1      -7.036  -9.209  -6.737  1.00  0.00     0.025 N 
HETATM   22  C18 UNL     1      -6.879 -10.564  -6.316  1.00  0.00     0.476 C 
ATOM     23  H42 UNL     1      -7.919  -8.824  -7.070  1.00  0.00     0.289 HD
ATOM     24  H41 UNL     1      -6.633  -8.839  -7.598  1.00  0.00     0.289 HD
HETATM   25  O12 UNL     1      -6.893 -10.164  -5.015  1.00  0.00    -0.284 OA
BRANCH  22  26
HETATM   26  O11 UNL     1      -7.944 -11.406  -6.682  1.00  0.00    -0.349 OA
ATOM     27  H11 UNL     1      -7.673 -12.208  -7.114  1.00  0.00     0.214 HD
ENDBRANCH  22  26
ENDBRANCH  19  20
ENDBRANCH  11  19
BRANCH   2  28
HETATM   28  O2  UNL     1      -8.367  -3.654  -6.262  1.00  0.00    -0.259 OA
BRANCH  28  29
HETATM   29  N2  UNL     1      -8.342  -2.694  -7.064  1.00  0.00    -0.245 N 
HETATM   30  C5  UNL     1      -9.050  -2.050  -7.859  1.00  0.00     0.165 C 
ATOM     31  H2  UNL     1      -7.403  -2.296  -7.066  1.00  0.00     0.196 HD
BRANCH  30  32
HETATM   32  O3  UNL     1     -10.369  -2.380  -8.046  1.00  0.00    -0.346 OA
ATOM     33  H3  UNL     1     -10.634  -3.290  -8.122  1.00  0.00     0.219 HD
ENDBRANCH  30  32
BRANCH  30  34
HETATM   34  C6  UNL     1      -8.411  -0.930  -8.588  1.00  0.00     0.198 C 
BRANCH  34  35
HETATM   35  O4  UNL     1      -8.672   0.308  -7.954  1.00  0.00    -0.387 OA
ATOM     36  H4  UNL     1      -8.256   1.025  -8.418  1.00  0.00     0.210 HD
ENDBRANCH  34  35
BRANCH  34  37
HETATM   37  C7  UNL     1      -8.702  -0.799 -10.025  1.00  0.00     0.101 C 
BRANCH  37  38
HETATM   38  C8  UNL     1      -7.720   0.042 -10.816  1.00  0.00     0.318 C 
BRANCH  38  39
HETATM   39  N3  UNL     1      -6.442  -0.090 -10.093  1.00  0.00    -0.053 N 
ATOM     40  H33 UNL     1      -6.452   0.317  -9.157  1.00  0.00     0.277 HD
ATOM     41  H32 UNL     1      -6.227  -1.044  -9.803  1.00  0.00     0.277 HD
ATOM     42  H31 UNL     1      -5.746   0.320 -10.716  1.00  0.00     0.277 HD
ENDBRANCH  38  39
BRANCH  38  43
HETATM   43  O5  UNL     1      -7.608  -0.532 -12.094  1.00  0.00    -0.370 OA
ATOM     44  H5  UNL     1      -8.131  -0.006 -12.689  1.00  0.00     0.212 HD
ENDBRANCH  38  43
ENDBRANCH  37  38
ENDBRANCH  34  37
ENDBRANCH  30  34
ENDBRANCH  28  29
ENDBRANCH   2  28
BRANCH  10  45
HETATM   45  O7  UNL     1      -5.920  -8.351  -1.991  1.00  0.00    -0.384 OA
ATOM     46  H7  UNL     1      -5.773  -8.878  -2.768  1.00  0.00     0.210 HD
ENDBRANCH  10  45
BRANCH  10  47
HETATM   47  C14 UNL     1      -8.209  -8.037  -2.273  1.00  0.00     0.206 C 
BRANCH  47  48
HETATM   48  O8  UNL     1      -8.103  -9.458  -2.414  1.00  0.00    -0.398 OA
ATOM     49  H8  UNL     1      -8.724  -9.759  -3.068  1.00  0.00     0.209 HD
ENDBRANCH  47  48
ENDBRANCH  10  47
TORSDOF 18
ENDMDL
MODEL 4
REMARK VINA RESULT: -5.557359047      2.746      4.979
REMARK  18 active torsions:
REMARK  status: ('A' for Active; 'I' for Inactive)
REMARK       I    between atoms: C2_2  and  N1_4 
REMARK    1  A    between atoms: N1_4  and  C3_5 
REMARK    2  A    between atoms: C4_6  and  O2_7 
REMARK    3  A    between atoms: O2_7  and  N2_8 
REMARK    4  A    between atoms: C5_10  and  O3_11 
REMARK    5  A    between atoms: C5_10  and  C6_13 
REMARK    6  A    between atoms: C6_13  and  O4_14 
REMARK    7  A    between atoms: C6_13  and  C7_16 
REMARK    8  A    between atoms: C7_16  and  C8_17 
REMARK    9  A    between atoms: C8_17  and  N3_18 
REMARK   10  A    between atoms: C8_17  and  O5_22 
REMARK   11  A    between atoms: C13_31  and  O7_32 
REMARK   12  A    between atoms: C13_31  and  C14_34 
REMARK   13  A    between atoms: C14_34  and  O8_35 
REMARK   14  A    between atoms: C15_37  and  C16_38 
REMARK   15  A    between atoms: C15_37  and  O10_41 
REMARK   16  A    between atoms: C16_38  and  O9_39 
REMARK   17  A    between atoms: O10_41  and  C17_42 
REMARK   18  A    between atoms: C18_46  and  O11_47 
ROOT
HETATM    1  C3  UNL     1      -6.270  -4.749  -7.031  1.00  0.00     0.234 C 
HETATM    2  C4  UNL     1      -7.417  -5.449  -7.902  1.00  0.00     0.252 C 
HETATM    3  S1  UNL     1      -7.783  -6.389  -6.417  1.00  0.00    -0.111 SA
HETATM    4  C9  UNL     1      -6.847  -4.964  -5.660  1.00  0.00     0.125 C 
HETATM    5  C10 UNL     1      -7.846  -4.067  -5.100  1.00  0.00     0.153 A 
HETATM    6  C11 UNL     1      -7.993  -2.715  -4.823  1.00  0.00     0.221 A 
HETATM    7  O6  UNL     1      -8.710  -3.355  -5.916  1.00  0.00    -0.361 OA
HETATM    8  S2  UNL     1      -8.753  -5.185  -3.896  1.00  0.00    -0.124 SA
HETATM    9  C12 UNL     1      -7.419  -5.600  -2.772  1.00  0.00     0.120 C 
HETATM   10  C13 UNL     1      -6.221  -6.201  -3.508  1.00  0.00     0.122 C 
HETATM   11  C15 UNL     1      -5.775  -5.493  -4.692  1.00  0.00     0.144 C 
ENDROOT
BRANCH   1  12
HETATM   12  N1  UNL     1      -5.864  -3.610  -7.559  1.00  0.00    -0.404 NA
HETATM   13  C2  UNL     1      -5.438  -2.382  -8.126  1.00  0.00     0.282 C 
HETATM   14  C1  UNL     1      -3.940  -2.160  -8.371  1.00  0.00     0.134 C 
HETATM   15  O1  UNL     1      -6.119  -1.405  -8.482  1.00  0.00    -0.258 OA
ENDBRANCH   1  12
BRANCH  11  16
HETATM   16  C16 UNL     1      -4.892  -4.275  -4.357  1.00  0.00     0.207 C 
BRANCH  16  17
HETATM   17  O9  UNL     1      -5.296  -3.575  -3.274  1.00  0.00    -0.398 OA
ATOM     18  H9  UNL     1      -5.057  -3.967  -2.443  1.00  0.00     0.209 HD
ENDBRANCH  16  17
ENDBRANCH  11  16
BRANCH  11  19
HETATM   19  O10 UNL     1      -5.062  -6.324  -5.535  1.00  0.00    -0.320 OA
BRANCH  19  20
HETATM   20  C17 UNL     1      -3.731  -6.360  -5.587  1.00  0.00     0.479 C 
HETATM   21  N4  UNL     1      -3.245  -7.292  -6.673  1.00  0.00     0.025 N 
HETATM   22  C18 UNL     1      -2.284  -7.648  -5.678  1.00  0.00     0.476 C 
ATOM     23  H42 UNL     1      -3.846  -7.970  -7.140  1.00  0.00     0.289 HD
ATOM     24  H41 UNL     1      -2.992  -6.978  -7.610  1.00  0.00     0.289 HD
HETATM   25  O12 UNL     1      -3.117  -7.188  -4.706  1.00  0.00    -0.284 OA
BRANCH  22  26
HETATM   26  O11 UNL     1      -2.010  -9.026  -5.612  1.00  0.00    -0.349 OA
ATOM     27  H11 UNL     1      -1.283  -9.304  -6.157  1.00  0.00     0.214 HD
ENDBRANCH  22  26
ENDBRANCH  19  20
ENDBRANCH  11  19
BRANCH   2  28
HETATM   28  O2  UNL     1      -8.400  -4.603  -8.316  1.00  0.00    -0.259 OA
BRANCH  28  29
HETATM   29  N2  UNL     1      -8.660  -3.447  -8.716  1.00  0.00    -0.245 N 
HETATM   30  C5  UNL     1      -9.594  -2.715  -9.089  1.00  0.00     0.165 C 
ATOM     31  H2  UNL     1      -7.793  -2.909  -8.745  1.00  0.00     0.196 HD
BRANCH  30  32
HETATM   32  O3  UNL     1     -10.879  -3.195  -9.140  1.00  0.00    -0.346 OA
ATOM     33  H3  UNL     1     -11.046  -4.118  -9.288  1.00  0.00     0.219 HD
ENDBRANCH  30  32
BRANCH  30  34
HETATM   34  C6  UNL     1      -9.261  -1.325  -9.476  1.00  0.00     0.198 C 
BRANCH  34  35
HETATM   35  O4  UNL     1      -9.875  -0.391  -8.607  1.00  0.00    -0.387 OA
ATOM     36  H4  UNL     1     -10.315   0.294  -9.097  1.00  0.00     0.210 HD
ENDBRANCH  34  35
BRANCH  34  37
HETATM   37  C7  UNL     1      -9.522  -0.923 -10.867  1.00  0.00     0.101 C 
BRANCH  37  38
HETATM   38  C8  UNL     1      -8.512   0.031 -11.472  1.00  0.00     0.318 C 
BRANCH  38  39
HETATM   39  N3  UNL     1      -7.587   0.352 -10.370  1.00  0.00    -0.053 N 
ATOM     40  H33 UNL     1      -8.029   0.831  -9.585  1.00  0.00     0.277 HD
ATOM     41  H32 UNL     1      -7.271  -0.464  -9.844  1.00  0.00     0.277 HD
ATOM     42  H31 UNL     1      -6.832   0.880 -10.807  1.00  0.00     0.277 HD
ENDBRANCH  38  39
BRANCH  38  43
HETATM   43  O5  UNL     1      -7.827  -0.665 -12.483  1.00  0.00    -0.370 OA
ATOM     44  H5  UNL     1      -6.988  -0.237 -12.606  1.00  0.00     0.212 HD
ENDBRANCH  38  43
ENDBRANCH  37  38
ENDBRANCH  34  37
ENDBRANCH  30  34
ENDBRANCH  28  29
ENDBRANCH   2  28
BRANCH  10  45
HETATM   45  O7  UNL     1      -5.223  -6.090  -2.487  1.00  0.00    -0.384 OA
ATOM     46  H7  UNL     1      -5.623  -5.425  -1.939  1.00  0.00     0.210 HD
ENDBRANCH  10  45
BRANCH  10  47
HETATM   47  C14 UNL     1      -6.497  -7.676  -3.617  1.00  0.00     0.206 C 
BRANCH  47  48
HETATM   48  O8  UNL     1      -5.301  -8.409  -3.326  1.00  0.00    -0.398 OA
ATOM     49  H8  UNL     1      -4.580  -8.056  -3.835  1.00  0.00     0.209 HD
ENDBRANCH  47  48
ENDBRANCH  10  47
TORSDOF 18
ENDMDL
MODEL 5
REMARK VINA RESULT: -5.548188271      2.455      3.687
REMARK  18 active torsions:
REMARK  status: ('A' for Active; 'I' for Inactive)
REMARK       I    between atoms: C2_2  and  N1_4 
REMARK    1  A    between atoms: N1_4  and  C3_5 
REMARK    2  A    between atoms: C4_6  and  O2_7 
REMARK    3  A    between atoms: O2_7  and  N2_8 
REMARK    4  A    between atoms: C5_10  and  O3_11 
REMARK    5  A    between atoms: C5_10  and  C6_13 
REMARK    6  A    between atoms: C6_13  and  O4_14 
REMARK    7  A    between atoms: C6_13  and  C7_16 
REMARK    8  A    between atoms: C7_16  and  C8_17 
REMARK    9  A    between atoms: C8_17  and  N3_18 
REMARK   10  A    between atoms: C8_17  and  O5_22 
REMARK   11  A    between atoms: C13_31  and  O7_32 
REMARK   12  A    between atoms: C13_31  and  C14_34 
REMARK   13  A    between atoms: C14_34  and  O8_35 
REMARK   14  A    between atoms: C15_37  and  C16_38 
REMARK   15  A    between atoms: C15_37  and  O10_41 
REMARK   16  A    between atoms: C16_38  and  O9_39 
REMARK   17  A    between atoms: O10_41  and  C17_42 
REMARK   18  A    between atoms: C18_46  and  O11_47 
ROOT
HETATM    1  C3  UNL     1      -7.755  -5.248  -4.235  1.00  0.00     0.234 C 
HETATM    2  C4  UNL     1      -8.484  -3.833  -4.409  1.00  0.00     0.252 C 
HETATM    3  S1  UNL     1      -7.745  -3.410  -2.829  1.00  0.00    -0.111 SA
HETATM    4  C9  UNL     1      -6.640  -4.831  -3.318  1.00  0.00     0.125 C 
HETATM    5  C10 UNL     1      -5.412  -4.240  -3.826  1.00  0.00     0.153 A 
HETATM    6  C11 UNL     1      -4.400  -4.550  -4.726  1.00  0.00     0.221 A 
HETATM    7  O6  UNL     1      -5.395  -3.527  -5.014  1.00  0.00    -0.361 OA
HETATM    8  S2  UNL     1      -4.831  -3.214  -2.365  1.00  0.00    -0.124 SA
HETATM    9  C12 UNL     1      -4.582  -4.503  -1.144  1.00  0.00     0.120 C 
HETATM   10  C13 UNL     1      -5.841  -5.347  -0.941  1.00  0.00     0.122 C 
HETATM   11  C15 UNL     1      -6.498  -5.816  -2.146  1.00  0.00     0.144 C 
ENDROOT
BRANCH   1  12
HETATM   12  N1  UNL     1      -7.651  -5.902  -5.376  1.00  0.00    -0.404 NA
HETATM   13  C2  UNL     1      -7.542  -6.597  -6.608  1.00  0.00     0.282 C 
HETATM   14  C1  UNL     1      -6.981  -8.024  -6.605  1.00  0.00     0.134 C 
HETATM   15  O1  UNL     1      -7.849  -6.218  -7.751  1.00  0.00    -0.258 OA
ENDBRANCH   1  12
BRANCH  11  16
HETATM   16  C16 UNL     1      -5.820  -7.065  -2.743  1.00  0.00     0.207 C 
BRANCH  16  17
HETATM   17  O9  UNL     1      -4.472  -7.067  -2.646  1.00  0.00    -0.398 OA
ATOM     18  H9  UNL     1      -4.076  -6.204  -2.666  1.00  0.00     0.209 HD
ENDBRANCH  16  17
ENDBRANCH  11  16
BRANCH  11  19
HETATM   19  O10 UNL     1      -7.825  -6.119  -1.908  1.00  0.00    -0.320 OA
BRANCH  19  20
HETATM   20  C17 UNL     1      -8.279  -7.355  -1.711  1.00  0.00     0.479 C 
HETATM   21  N4  UNL     1      -9.773  -7.438  -1.929  1.00  0.00     0.025 N 
HETATM   22  C18 UNL     1      -9.705  -8.282  -0.779  1.00  0.00     0.476 C 
ATOM     23  H42 UNL     1     -10.376  -6.619  -1.989  1.00  0.00     0.289 HD
ATOM     24  H41 UNL     1     -10.195  -7.726  -2.812  1.00  0.00     0.289 HD
HETATM   25  O12 UNL     1      -8.523  -7.708  -0.425  1.00  0.00    -0.284 OA
BRANCH  22  26
HETATM   26  O11 UNL     1     -10.751  -8.083   0.140  1.00  0.00    -0.349 OA
ATOM     27  H11 UNL     1     -11.295  -8.850   0.280  1.00  0.00     0.214 HD
ENDBRANCH  22  26
ENDBRANCH  19  20
ENDBRANCH  11  19
BRANCH   2  28
HETATM   28  O2  UNL     1      -8.045  -3.105  -5.473  1.00  0.00    -0.259 OA
BRANCH  28  29
HETATM   29  N2  UNL     1      -8.289  -2.754  -6.649  1.00  0.00    -0.245 N 
HETATM   30  C5  UNL     1      -9.010  -3.012  -7.629  1.00  0.00     0.165 C 
ATOM     31  H2  UNL     1      -7.674  -1.977  -6.892  1.00  0.00     0.196 HD
BRANCH  30  32
HETATM   32  O3  UNL     1      -9.938  -4.021  -7.568  1.00  0.00    -0.346 OA
ATOM     33  H3  UNL     1     -10.833  -3.841  -7.303  1.00  0.00     0.219 HD
ENDBRANCH  30  32
BRANCH  30  34
HETATM   34  C6  UNL     1      -8.822  -2.193  -8.850  1.00  0.00     0.198 C 
BRANCH  34  35
HETATM   35  O4  UNL     1      -9.040  -2.961 -10.018  1.00  0.00    -0.387 OA
ATOM     36  H4  UNL     1      -9.556  -2.479 -10.654  1.00  0.00     0.210 HD
ENDBRANCH  34  35
BRANCH  34  37
HETATM   37  C7  UNL     1      -7.553  -1.463  -8.990  1.00  0.00     0.101 C 
BRANCH  37  38
HETATM   38  C8  UNL     1      -7.681   0.030  -9.224  1.00  0.00     0.318 C 
BRANCH  38  39
HETATM   39  N3  UNL     1      -8.272   0.153 -10.568  1.00  0.00    -0.053 N 
ATOM     40  H33 UNL     1      -8.962  -0.567 -10.784  1.00  0.00     0.277 HD
ATOM     41  H32 UNL     1      -8.900   0.950 -10.673  1.00  0.00     0.277 HD
ATOM     42  H31 UNL     1      -7.475   0.168 -11.204  1.00  0.00     0.277 HD
ENDBRANCH  38  39
BRANCH  38  43
HETATM   43  O5  UNL     1      -8.573   0.532  -8.261  1.00  0.00    -0.370 OA
ATOM     44  H5  UNL     1      -9.452   0.294  -8.536  1.00  0.00     0.212 HD
ENDBRANCH  38  43
ENDBRANCH  37  38
ENDBRANCH  34  37
ENDBRANCH  30  34
ENDBRANCH  28  29
ENDBRANCH   2  28
BRANCH  10  45
HETATM   45  O7  UNL     1      -5.279  -6.464  -0.243  1.00  0.00    -0.384 OA
ATOM     46  H7  UNL     1      -5.066  -7.026  -0.978  1.00  0.00     0.210 HD
ENDBRANCH  10  45
BRANCH  10  47
HETATM   47  C14 UNL     1      -6.665  -4.624   0.088  1.00  0.00     0.206 C 
BRANCH  47  48
HETATM   48  O8  UNL     1      -7.130  -5.557   1.071  1.00  0.00    -0.398 OA
ATOM     49  H8  UNL     1      -7.475  -5.085   1.820  1.00  0.00     0.209 HD
ENDBRANCH  47  48
ENDBRANCH  10  47
TORSDOF 18
ENDMDL
