MODEL 1
REMARK VINA RESULT: -7.161387023      0.000      0.000
REMARK  17 active torsions:
REMARK  status: ('A' for Active; 'I' for Inactive)
REMARK    1  A    between atoms: N1_2  and  C2_5 
REMARK    2  A    between atoms: C3_6  and  O1_7 
REMARK    3  A    between atoms: C4_9  and  O2_10 
REMARK    4  A    between atoms: O2_10  and  C5_11 
REMARK    5  A    between atoms: C6_12  and  N2_13 
REMARK    6  A    between atoms: C8_18  and  O3_19 
REMARK    7  A    between atoms: O3_19  and  C9_20 
REMARK    8  A    between atoms: C9_20  and  O4_22 
REMARK    9  A    between atoms: O4_22  and  C11_23 
REMARK   10  A    between atoms: C12_25  and  C13_26 
REMARK   11  A    between atoms: C13_26  and  O6_27 
REMARK   12  A    between atoms: C14_29  and  O7_30 
REMARK   13  A    between atoms: O7_30  and  N3_31 
REMARK   14  A    between atoms: C15_34  and  O8_35 
REMARK   15  A    between atoms: C15_34  and  O9_37 
REMARK   16  A    between atoms: C16_39  and  N4_40 
REMARK   17  A    between atoms: C21_50  and  O12_52 
ROOT
HETATM    1  C5  UNL     1      -7.630  -5.000  -4.605  1.00  0.00     0.183 C 
HETATM    2  C6  UNL     1      -7.177  -5.568  -5.926  1.00  0.00     0.219 C 
HETATM    3  C7  UNL     1      -8.154  -5.294  -7.045  1.00  0.00     0.096 C 
HETATM    4  C8  UNL     1      -8.499  -3.854  -7.209  1.00  0.00     0.265 C 
HETATM    5  O10 UNL     1      -8.409  -3.203  -6.013  1.00  0.00    -0.354 OA
HETATM    6  C17 UNL     1      -8.695  -3.940  -4.904  1.00  0.00     0.151 C 
HETATM    7  C18 UNL     1     -10.073  -4.504  -4.980  1.00  0.00     0.042 C 
ENDROOT
BRANCH   4   8
HETATM    8  O3  UNL     1      -7.590  -3.313  -8.123  1.00  0.00    -0.332 OA
BRANCH   8   9
HETATM    9  C9  UNL     1      -7.883  -1.998  -8.403  1.00  0.00     0.262 C 
HETATM   10  C10 UNL     1      -8.931  -1.862  -9.491  1.00  0.00     0.071 C 
BRANCH   9  11
HETATM   11  O4  UNL     1      -6.730  -1.318  -8.789  1.00  0.00    -0.330 OA
BRANCH  11  12
HETATM   12  C11 UNL     1      -6.940  -0.364  -9.765  1.00  0.00     0.299 C 
HETATM   13  O5  UNL     1      -6.148  -0.533 -10.880  1.00  0.00    -0.349 OA
HETATM   14  C12 UNL     1      -4.832  -0.207 -10.713  1.00  0.00     0.185 C 
HETATM   15  C14 UNL     1      -4.611   1.184 -10.150  1.00  0.00     0.246 C 
HETATM   16  C15 UNL     1      -5.423   1.464  -8.931  1.00  0.00     0.225 C 
HETATM   17  C16 UNL     1      -6.828   1.015  -9.161  1.00  0.00     0.302 C 
BRANCH  14  18
HETATM   18  C13 UNL     1      -4.028  -1.238  -9.947  1.00  0.00     0.199 C 
BRANCH  18  19
HETATM   19  O6  UNL     1      -2.919  -1.610 -10.676  1.00  0.00    -0.398 OA
ATOM     20  H6  UNL     1      -2.603  -2.456 -10.379  1.00  0.00     0.209 HD
ENDBRANCH  18  19
ENDBRANCH  14  18
BRANCH  15  21
HETATM   21  O7  UNL     1      -3.249   1.288  -9.831  1.00  0.00    -0.274 OA
BRANCH  21  22
HETATM   22  N3  UNL     1      -2.530   1.493 -10.971  1.00  0.00    -0.310 N 
ATOM     23  H32 UNL     1      -2.939   1.619 -11.898  1.00  0.00     0.184 HD
ATOM     24  H31 UNL     1      -1.535   1.498 -10.748  1.00  0.00     0.184 HD
ENDBRANCH  21  22
ENDBRANCH  15  21
BRANCH  16  25
HETATM   25  O8  UNL     1      -5.460   2.868  -8.767  1.00  0.00    -0.362 OA
ATOM     26  H8  UNL     1      -5.506   3.040  -7.835  1.00  0.00     0.213 HD
ENDBRANCH  16  25
BRANCH  16  27
HETATM   27  O9  UNL     1      -4.862   0.937  -7.774  1.00  0.00    -0.362 OA
ATOM     28  H9  UNL     1      -5.413   1.054  -7.009  1.00  0.00     0.213 HD
ENDBRANCH  16  27
BRANCH  17  29
HETATM   29  N4  UNL     1      -7.608   1.975  -9.914  1.00  0.00    -0.065 N 
ATOM     30  H43 UNL     1      -7.148   2.234 -10.787  1.00  0.00     0.275 HD
ATOM     31  H42 UNL     1      -8.451   1.553 -10.304  1.00  0.00     0.275 HD
ATOM     32  H41 UNL     1      -7.826   2.794  -9.345  1.00  0.00     0.275 HD
ENDBRANCH  17  29
ENDBRANCH  11  12
ENDBRANCH   9  11
ENDBRANCH   8   9
ENDBRANCH   4   8
BRANCH   2  33
HETATM   33  N2  UNL     1      -7.016  -7.010  -5.876  1.00  0.00    -0.072 N 
ATOM     34  H23 UNL     1      -7.106  -7.360  -4.922  1.00  0.00     0.274 HD
ATOM     35  H22 UNL     1      -7.814  -7.485  -6.298  1.00  0.00     0.274 HD
ATOM     36  H21 UNL     1      -6.140  -7.315  -6.300  1.00  0.00     0.274 HD
ENDBRANCH   2  33
BRANCH   1  37
HETATM   37  O2  UNL     1      -8.194  -5.975  -3.856  1.00  0.00    -0.349 OA
BRANCH  37  38
HETATM   38  C4  UNL     1      -8.175  -5.858  -2.508  1.00  0.00     0.291 C 
HETATM   39  C3  UNL     1      -7.187  -6.624  -1.741  1.00  0.00     0.207 C 
HETATM   40  C2  UNL     1      -7.591  -8.085  -1.721  1.00  0.00     0.255 C 
HETATM   41  C21 UNL     1      -8.996  -8.296  -1.266  1.00  0.00     0.111 C 
HETATM   42  C19 UNL     1      -9.874  -7.396  -2.137  1.00  0.00     0.157 C 
HETATM   43  C22 UNL     1      -9.351  -9.753  -1.520  1.00  0.00     0.051 C 
HETATM   44  O11 UNL     1      -9.449  -6.094  -2.006  1.00  0.00    -0.351 OA
HETATM   45  C20 UNL     1     -11.327  -7.582  -1.841  1.00  0.00     0.042 C 
BRANCH  39  46
HETATM   46  O1  UNL     1      -7.147  -6.166  -0.408  1.00  0.00    -0.388 OA
ATOM     47  H1  UNL     1      -7.447  -5.265  -0.400  1.00  0.00     0.210 HD
ENDBRANCH  39  46
BRANCH  40  48
HETATM   48  N1  UNL     1      -6.637  -8.920  -1.026  1.00  0.00    -0.069 N 
HETATM   49  C1  UNL     1      -5.418  -9.085  -1.793  1.00  0.00     0.267 C 
ATOM     50  H12 UNL     1      -7.043  -9.820  -0.773  1.00  0.00     0.277 HD
ATOM     51  H11 UNL     1      -6.443  -8.565  -0.090  1.00  0.00     0.277 HD
ENDBRANCH  40  48
BRANCH  41  52
HETATM   52  O12 UNL     1      -9.191  -8.047   0.077  1.00  0.00    -0.385 OA
ATOM     53  H12 UNL     1     -10.027  -7.640   0.276  1.00  0.00     0.210 HD
ENDBRANCH  41  52
ENDBRANCH  37  38
ENDBRANCH   1  37
TORSDOF 17
ENDMDL
MODEL 2
REMARK VINA RESULT: -7.136445638      2.199      3.405
REMARK  17 active torsions:
REMARK  status: ('A' for Active; 'I' for Inactive)
REMARK    1  A    between atoms: N1_2  and  C2_5 
REMARK    2  A    between atoms: C3_6  and  O1_7 
REMARK    3  A    between atoms: C4_9  and  O2_10 
REMARK    4  A    between atoms: O2_10  and  C5_11 
REMARK    5  A    between atoms: C6_12  and  N2_13 
REMARK    6  A    between atoms: C8_18  and  O3_19 
REMARK    7  A    between atoms: O3_19  and  C9_20 
REMARK    8  A    between atoms: C9_20  and  O4_22 
REMARK    9  A    between atoms: O4_22  and  C11_23 
REMARK   10  A    between atoms: C12_25  and  C13_26 
REMARK   11  A    between atoms: C13_26  and  O6_27 
REMARK   12  A    between atoms: C14_29  and  O7_30 
REMARK   13  A    between atoms: O7_30  and  N3_31 
REMARK   14  A    between atoms: C15_34  and  O8_35 
REMARK   15  A    between atoms: C15_34  and  O9_37 
REMARK   16  A    between atoms: C16_39  and  N4_40 
REMARK   17  A    between atoms: C21_50  and  O12_52 
ROOT
HETATM    1  C5  UNL     1      -8.370  -4.212  -5.628  1.00  0.00     0.183 C 
HETATM    2  C6  UNL     1      -7.183  -3.487  -6.210  1.00  0.00     0.219 C 
HETATM    3  C7  UNL     1      -7.334  -3.210  -7.688  1.00  0.00     0.096 C 
HETATM    4  C8  UNL     1      -8.587  -2.487  -8.043  1.00  0.00     0.265 C 
HETATM    5  O10 UNL     1      -9.578  -2.784  -7.153  1.00  0.00    -0.354 OA
HETATM    6  C17 UNL     1      -9.539  -4.030  -6.603  1.00  0.00     0.151 C 
HETATM    7  C18 UNL     1      -9.586  -5.081  -7.659  1.00  0.00     0.042 C 
ENDROOT
BRANCH   4   8
HETATM    8  O3  UNL     1      -8.300  -1.120  -8.008  1.00  0.00    -0.332 OA
BRANCH   8   9
HETATM    9  C9  UNL     1      -8.467  -0.541  -9.245  1.00  0.00     0.262 C 
HETATM   10  C10 UNL     1      -8.826  -1.557 -10.311  1.00  0.00     0.071 C 
BRANCH   9  11
HETATM   11  O4  UNL     1      -7.305   0.129  -9.623  1.00  0.00    -0.330 OA
BRANCH  11  12
HETATM   12  C11 UNL     1      -6.251  -0.034  -8.746  1.00  0.00     0.299 C 
HETATM   13  O5  UNL     1      -5.732   1.155  -8.282  1.00  0.00    -0.349 OA
HETATM   14  C12 UNL     1      -4.991   1.860  -9.188  1.00  0.00     0.185 C 
HETATM   15  C14 UNL     1      -3.883   1.050  -9.836  1.00  0.00     0.246 C 
HETATM   16  C15 UNL     1      -4.347  -0.259 -10.378  1.00  0.00     0.225 C 
HETATM   17  C16 UNL     1      -5.209  -0.934  -9.365  1.00  0.00     0.302 C 
BRANCH  14  18
HETATM   18  C13 UNL     1      -5.813   2.590 -10.231  1.00  0.00     0.199 C 
BRANCH  18  19
HETATM   19  O6  UNL     1      -6.877   3.227  -9.633  1.00  0.00    -0.398 OA
ATOM     20  H6  UNL     1      -7.504   3.503 -10.291  1.00  0.00     0.209 HD
ENDBRANCH  18  19
ENDBRANCH  14  18
BRANCH  15  21
HETATM   21  O7  UNL     1      -3.364   1.826 -10.883  1.00  0.00    -0.274 OA
BRANCH  21  22
HETATM   22  N3  UNL     1      -2.135   1.352 -11.233  1.00  0.00    -0.310 N 
ATOM     23  H32 UNL     1      -1.941   0.384 -11.493  1.00  0.00     0.184 HD
ATOM     24  H31 UNL     1      -1.455   2.111 -11.193  1.00  0.00     0.184 HD
ENDBRANCH  21  22
ENDBRANCH  15  21
BRANCH  16  25
HETATM   25  O8  UNL     1      -3.201  -1.068 -10.552  1.00  0.00    -0.362 OA
ATOM     26  H8  UNL     1      -3.463  -1.815 -11.077  1.00  0.00     0.213 HD
ENDBRANCH  16  25
BRANCH  16  27
HETATM   27  O9  UNL     1      -4.954  -0.144 -11.624  1.00  0.00    -0.362 OA
ATOM     28  H9  UNL     1      -5.492  -0.895 -11.844  1.00  0.00     0.213 HD
ENDBRANCH  16  27
BRANCH  17  29
HETATM   29  N4  UNL     1      -4.443  -1.619  -8.343  1.00  0.00    -0.065 N 
ATOM     30  H43 UNL     1      -3.925  -2.410  -8.726  1.00  0.00     0.275 HD
ATOM     31  H42 UNL     1      -3.653  -1.057  -8.024  1.00  0.00     0.275 HD
ATOM     32  H41 UNL     1      -5.042  -1.901  -7.565  1.00  0.00     0.275 HD
ENDBRANCH  17  29
ENDBRANCH  11  12
ENDBRANCH   9  11
ENDBRANCH   8   9
ENDBRANCH   4   8
BRANCH   2  33
HETATM   33  N2  UNL     1      -5.953  -4.246  -6.067  1.00  0.00    -0.072 N 
ATOM     34  H23 UNL     1      -5.929  -4.746  -5.178  1.00  0.00     0.274 HD
ATOM     35  H22 UNL     1      -5.937  -5.045  -6.701  1.00  0.00     0.274 HD
ATOM     36  H21 UNL     1      -5.125  -3.663  -6.186  1.00  0.00     0.274 HD
ENDBRANCH   2  33
BRANCH   1  37
HETATM   37  O2  UNL     1      -8.097  -5.533  -5.529  1.00  0.00    -0.349 OA
BRANCH  37  38
HETATM   38  C4  UNL     1      -8.355  -6.167  -4.362  1.00  0.00     0.291 C 
HETATM   39  C3  UNL     1      -8.430  -5.381  -3.126  1.00  0.00     0.207 C 
HETATM   40  C2  UNL     1      -7.034  -4.957  -2.717  1.00  0.00     0.255 C 
HETATM   41  C21 UNL     1      -6.074  -6.096  -2.643  1.00  0.00     0.111 C 
HETATM   42  C19 UNL     1      -6.159  -6.823  -3.986  1.00  0.00     0.157 C 
HETATM   43  C22 UNL     1      -4.679  -5.518  -2.464  1.00  0.00     0.051 C 
HETATM   44  O11 UNL     1      -7.460  -7.218  -4.199  1.00  0.00    -0.351 OA
HETATM   45  C20 UNL     1      -5.173  -7.942  -4.076  1.00  0.00     0.042 C 
BRANCH  39  46
HETATM   46  O1  UNL     1      -8.968  -6.165  -2.085  1.00  0.00    -0.388 OA
ATOM     47  H1  UNL     1      -9.735  -5.716  -1.749  1.00  0.00     0.210 HD
ENDBRANCH  39  46
BRANCH  40  48
HETATM   48  N1  UNL     1      -7.026  -4.129  -1.531  1.00  0.00    -0.069 N 
HETATM   49  C1  UNL     1      -7.083  -2.720  -1.866  1.00  0.00     0.267 C 
ATOM     50  H12 UNL     1      -6.225  -4.339  -0.935  1.00  0.00     0.277 HD
ATOM     51  H11 UNL     1      -7.773  -4.390  -0.888  1.00  0.00     0.277 HD
ENDBRANCH  40  48
BRANCH  41  52
HETATM   52  O12 UNL     1      -6.307  -6.955  -1.587  1.00  0.00    -0.385 OA
ATOM     53  H12 UNL     1      -5.751  -6.798  -0.833  1.00  0.00     0.210 HD
ENDBRANCH  41  52
ENDBRANCH  37  38
ENDBRANCH   1  37
TORSDOF 17
ENDMDL
MODEL 3
REMARK VINA RESULT: -7.028218546      1.548      2.384
REMARK  17 active torsions:
REMARK  status: ('A' for Active; 'I' for Inactive)
REMARK    1  A    between atoms: N1_2  and  C2_5 
REMARK    2  A    between atoms: C3_6  and  O1_7 
REMARK    3  A    between atoms: C4_9  and  O2_10 
REMARK    4  A    between atoms: O2_10  and  C5_11 
REMARK    5  A    between atoms: C6_12  and  N2_13 
REMARK    6  A    between atoms: C8_18  and  O3_19 
REMARK    7  A    between atoms: O3_19  and  C9_20 
REMARK    8  A    between atoms: C9_20  and  O4_22 
REMARK    9  A    between atoms: O4_22  and  C11_23 
REMARK   10  A    between atoms: C12_25  and  C13_26 
REMARK   11  A    between atoms: C13_26  and  O6_27 
REMARK   12  A    between atoms: C14_29  and  O7_30 
REMARK   13  A    between atoms: O7_30  and  N3_31 
REMARK   14  A    between atoms: C15_34  and  O8_35 
REMARK   15  A    between atoms: C15_34  and  O9_37 
REMARK   16  A    between atoms: C16_39  and  N4_40 
REMARK   17  A    between atoms: C21_50  and  O12_52 
ROOT
HETATM    1  C5  UNL     1      -7.407  -4.081  -5.810  1.00  0.00     0.183 C 
HETATM    2  C6  UNL     1      -6.944  -4.615  -7.142  1.00  0.00     0.219 C 
HETATM    3  C7  UNL     1      -8.065  -4.722  -8.150  1.00  0.00     0.096 C 
HETATM    4  C8  UNL     1      -8.820  -3.454  -8.353  1.00  0.00     0.265 C 
HETATM    5  O10 UNL     1      -8.802  -2.701  -7.215  1.00  0.00    -0.354 OA
HETATM    6  C17 UNL     1      -8.755  -3.388  -6.040  1.00  0.00     0.151 C 
HETATM    7  C18 UNL     1      -9.915  -4.316  -5.918  1.00  0.00     0.042 C 
ENDROOT
BRANCH   4   8
HETATM    8  O3  UNL     1      -8.198  -2.764  -9.398  1.00  0.00    -0.332 OA
BRANCH   8   9
HETATM    9  C9  UNL     1      -8.463  -1.415  -9.336  1.00  0.00     0.262 C 
HETATM   10  C10 UNL     1      -9.640  -1.020 -10.207  1.00  0.00     0.071 C 
BRANCH   9  11
HETATM   11  O4  UNL     1      -7.341  -0.686  -9.722  1.00  0.00    -0.330 OA
BRANCH  11  12
HETATM   12  C11 UNL     1      -6.334  -0.660  -8.778  1.00  0.00     0.299 C 
HETATM   13  O5  UNL     1      -6.141   0.581  -8.211  1.00  0.00    -0.349 OA
HETATM   14  C12 UNL     1      -5.534   1.501  -9.019  1.00  0.00     0.185 C 
HETATM   15  C14 UNL     1      -4.229   1.020  -9.624  1.00  0.00     0.246 C 
HETATM   16  C15 UNL     1      -4.335  -0.319 -10.270  1.00  0.00     0.225 C 
HETATM   17  C16 UNL     1      -5.072  -1.247  -9.364  1.00  0.00     0.302 C 
BRANCH  14  18
HETATM   18  C13 UNL     1      -6.441   2.092 -10.079  1.00  0.00     0.199 C 
BRANCH  18  19
HETATM   19  O6  UNL     1      -7.747   2.086  -9.642  1.00  0.00    -0.398 OA
ATOM     20  H6  UNL     1      -8.333   2.291 -10.361  1.00  0.00     0.209 HD
ENDBRANCH  18  19
ENDBRANCH  14  18
BRANCH  15  21
HETATM   21  O7  UNL     1      -3.847   1.968 -10.584  1.00  0.00    -0.274 OA
BRANCH  21  22
HETATM   22  N3  UNL     1      -2.703   1.553 -11.201  1.00  0.00    -0.310 N 
ATOM     23  H32 UNL     1      -1.880   1.198 -10.714  1.00  0.00     0.184 HD
ATOM     24  H31 UNL     1      -2.806   1.656 -12.210  1.00  0.00     0.184 HD
ENDBRANCH  21  22
ENDBRANCH  15  21
BRANCH  16  25
HETATM   25  O8  UNL     1      -3.022  -0.825 -10.401  1.00  0.00    -0.362 OA
ATOM     26  H8  UNL     1      -3.084  -1.773 -10.383  1.00  0.00     0.213 HD
ENDBRANCH  16  25
BRANCH  16  27
HETATM   27  O9  UNL     1      -4.875  -0.261 -11.550  1.00  0.00    -0.362 OA
ATOM     28  H9  UNL     1      -4.892  -1.106 -11.983  1.00  0.00     0.213 HD
ENDBRANCH  16  27
BRANCH  17  29
HETATM   29  N4  UNL     1      -4.230  -1.805  -8.325  1.00  0.00    -0.065 N 
ATOM     30  H43 UNL     1      -3.609  -1.101  -7.925  1.00  0.00     0.275 HD
ATOM     31  H42 UNL     1      -4.765  -2.032  -7.487  1.00  0.00     0.275 HD
ATOM     32  H41 UNL     1      -3.711  -2.613  -8.671  1.00  0.00     0.275 HD
ENDBRANCH  17  29
ENDBRANCH  11  12
ENDBRANCH   9  11
ENDBRANCH   8   9
ENDBRANCH   4   8
BRANCH   2  33
HETATM   33  N2  UNL     1      -6.375  -5.947  -7.031  1.00  0.00    -0.072 N 
ATOM     34  H23 UNL     1      -5.478  -5.925  -6.547  1.00  0.00     0.274 HD
ATOM     35  H22 UNL     1      -6.901  -6.519  -6.371  1.00  0.00     0.274 HD
ATOM     36  H21 UNL     1      -6.295  -6.408  -7.938  1.00  0.00     0.274 HD
ENDBRANCH   2  33
BRANCH   1  37
HETATM   37  O2  UNL     1      -7.593  -5.105  -4.947  1.00  0.00    -0.349 OA
BRANCH  37  38
HETATM   38  C4  UNL     1      -7.448  -4.875  -3.621  1.00  0.00     0.291 C 
HETATM   39  C3  UNL     1      -6.321  -5.490  -2.911  1.00  0.00     0.207 C 
HETATM   40  C2  UNL     1      -6.586  -6.973  -2.740  1.00  0.00     0.255 C 
HETATM   41  C21 UNL     1      -7.912  -7.262  -2.121  1.00  0.00     0.111 C 
HETATM   42  C19 UNL     1      -8.953  -6.514  -2.956  1.00  0.00     0.157 C 
HETATM   43  C22 UNL     1      -8.156  -8.760  -2.227  1.00  0.00     0.051 C 
HETATM   44  O11 UNL     1      -8.637  -5.174  -2.967  1.00  0.00    -0.351 OA
HETATM   45  C20 UNL     1     -10.345  -6.795  -2.490  1.00  0.00     0.042 C 
BRANCH  39  46
HETATM   46  O1  UNL     1      -6.188  -4.922  -1.627  1.00  0.00    -0.388 OA
ATOM     47  H1  UNL     1      -6.896  -4.300  -1.509  1.00  0.00     0.210 HD
ENDBRANCH  39  46
BRANCH  40  48
HETATM   48  N1  UNL     1      -5.493  -7.665  -2.093  1.00  0.00    -0.069 N 
HETATM   49  C1  UNL     1      -4.338  -7.765  -2.963  1.00  0.00     0.267 C 
ATOM     50  H12 UNL     1      -5.783  -8.581  -1.750  1.00  0.00     0.277 HD
ATOM     51  H11 UNL     1      -5.252  -7.232  -1.202  1.00  0.00     0.277 HD
ENDBRANCH  40  48
BRANCH  41  52
HETATM   52  O12 UNL     1      -7.992  -6.920  -0.786  1.00  0.00    -0.385 OA
ATOM     53  H12 UNL     1      -7.790  -7.635  -0.193  1.00  0.00     0.210 HD
ENDBRANCH  41  52
ENDBRANCH  37  38
ENDBRANCH   1  37
TORSDOF 17
ENDMDL
MODEL 4
REMARK VINA RESULT: -6.940535779      1.650      2.018
REMARK  17 active torsions:
REMARK  status: ('A' for Active; 'I' for Inactive)
REMARK    1  A    between atoms: N1_2  and  C2_5 
REMARK    2  A    between atoms: C3_6  and  O1_7 
REMARK    3  A    between atoms: C4_9  and  O2_10 
REMARK    4  A    between atoms: O2_10  and  C5_11 
REMARK    5  A    between atoms: C6_12  and  N2_13 
REMARK    6  A    between atoms: C8_18  and  O3_19 
REMARK    7  A    between atoms: O3_19  and  C9_20 
REMARK    8  A    between atoms: C9_20  and  O4_22 
REMARK    9  A    between atoms: O4_22  and  C11_23 
REMARK   10  A    between atoms: C12_25  and  C13_26 
REMARK   11  A    between atoms: C13_26  and  O6_27 
REMARK   12  A    between atoms: C14_29  and  O7_30 
REMARK   13  A    between atoms: O7_30  and  N3_31 
REMARK   14  A    between atoms: C15_34  and  O8_35 
REMARK   15  A    between atoms: C15_34  and  O9_37 
REMARK   16  A    between atoms: C16_39  and  N4_40 
REMARK   17  A    between atoms: C21_50  and  O12_52 
ROOT
HETATM    1  C5  UNL     1      -7.527  -3.611  -6.342  1.00  0.00     0.183 C 
HETATM    2  C6  UNL     1      -7.011  -4.169  -7.644  1.00  0.00     0.219 C 
HETATM    3  C7  UNL     1      -8.106  -4.380  -8.664  1.00  0.00     0.096 C 
HETATM    4  C8  UNL     1      -8.929  -3.166  -8.928  1.00  0.00     0.265 C 
HETATM    5  O10 UNL     1      -8.974  -2.370  -7.821  1.00  0.00    -0.354 OA
HETATM    6  C17 UNL     1      -8.908  -3.007  -6.619  1.00  0.00     0.151 C 
HETATM    7  C18 UNL     1     -10.015  -3.995  -6.478  1.00  0.00     0.042 C 
ENDROOT
BRANCH   4   8
HETATM    8  O3  UNL     1      -8.330  -2.484  -9.991  1.00  0.00    -0.332 OA
BRANCH   8   9
HETATM    9  C9  UNL     1      -8.549  -1.128  -9.902  1.00  0.00     0.262 C 
HETATM   10  C10 UNL     1      -8.911  -0.516 -11.241  1.00  0.00     0.071 C 
BRANCH   9  11
HETATM   11  O4  UNL     1      -7.418  -0.490  -9.397  1.00  0.00    -0.330 OA
BRANCH  11  12
HETATM   12  C11 UNL     1      -6.628   0.101 -10.363  1.00  0.00     0.299 C 
HETATM   13  O5  UNL     1      -5.537  -0.659 -10.722  1.00  0.00    -0.349 OA
HETATM   14  C12 UNL     1      -4.532  -0.709  -9.797  1.00  0.00     0.185 C 
HETATM   15  C14 UNL     1      -4.058   0.655  -9.332  1.00  0.00     0.246 C 
HETATM   16  C15 UNL     1      -5.171   1.555  -8.913  1.00  0.00     0.225 C 
HETATM   17  C16 UNL     1      -6.259   1.501  -9.932  1.00  0.00     0.302 C 
BRANCH  14  18
HETATM   18  C13 UNL     1      -4.816  -1.618  -8.619  1.00  0.00     0.199 C 
BRANCH  18  19
HETATM   19  O6  UNL     1      -3.727  -2.423  -8.369  1.00  0.00    -0.398 OA
ATOM     20  H6  UNL     1      -3.605  -2.526  -7.432  1.00  0.00     0.209 HD
ENDBRANCH  18  19
ENDBRANCH  14  18
BRANCH  15  21
HETATM   21  O7  UNL     1      -3.200   0.443  -8.243  1.00  0.00    -0.274 OA
BRANCH  21  22
HETATM   22  N3  UNL     1      -1.938   0.201  -8.700  1.00  0.00    -0.310 N 
ATOM     23  H32 UNL     1      -1.110   0.724  -8.414  1.00  0.00     0.184 HD
ATOM     24  H31 UNL     1      -1.960  -0.575  -9.362  1.00  0.00     0.184 HD
ENDBRANCH  21  22
ENDBRANCH  15  21
BRANCH  16  25
HETATM   25  O8  UNL     1      -4.664   2.875  -8.920  1.00  0.00    -0.362 OA
ATOM     26  H8  UNL     1      -4.843   3.239  -9.778  1.00  0.00     0.213 HD
ENDBRANCH  16  25
BRANCH  16  27
HETATM   27  O9  UNL     1      -5.616   1.300  -7.621  1.00  0.00    -0.362 OA
ATOM     28  H9  UNL     1      -6.092   2.030  -7.243  1.00  0.00     0.213 HD
ENDBRANCH  16  27
BRANCH  17  29
HETATM   29  N4  UNL     1      -5.997   2.344 -11.080  1.00  0.00    -0.065 N 
ATOM     30  H43 UNL     1      -6.682   3.095 -11.161  1.00  0.00     0.275 HD
ATOM     31  H42 UNL     1      -5.161   2.913 -10.947  1.00  0.00     0.275 HD
ATOM     32  H41 UNL     1      -5.942   1.789 -11.935  1.00  0.00     0.275 HD
ENDBRANCH  17  29
ENDBRANCH  11  12
ENDBRANCH   9  11
ENDBRANCH   8   9
ENDBRANCH   4   8
BRANCH   2  33
HETATM   33  N2  UNL     1      -6.369  -5.459  -7.472  1.00  0.00    -0.072 N 
ATOM     34  H23 UNL     1      -5.367  -5.401  -7.659  1.00  0.00     0.274 HD
ATOM     35  H22 UNL     1      -6.333  -5.725  -6.488  1.00  0.00     0.274 HD
ATOM     36  H21 UNL     1      -6.809  -6.187  -8.035  1.00  0.00     0.274 HD
ENDBRANCH   2  33
BRANCH   1  37
HETATM   37  O2  UNL     1      -7.668  -4.609  -5.441  1.00  0.00    -0.349 OA
BRANCH  37  38
HETATM   38  C4  UNL     1      -7.501  -4.331  -4.127  1.00  0.00     0.291 C 
HETATM   39  C3  UNL     1      -6.327  -4.868  -3.430  1.00  0.00     0.207 C 
HETATM   40  C2  UNL     1      -6.515  -6.356  -3.207  1.00  0.00     0.255 C 
HETATM   41  C21 UNL     1      -7.809  -6.689  -2.544  1.00  0.00     0.111 C 
HETATM   42  C19 UNL     1      -8.906  -6.018  -3.372  1.00  0.00     0.157 C 
HETATM   43  C22 UNL     1      -7.983  -8.199  -2.598  1.00  0.00     0.051 C 
HETATM   44  O11 UNL     1      -8.657  -4.666  -3.432  1.00  0.00    -0.351 OA
HETATM   45  C20 UNL     1     -10.271  -6.350  -2.861  1.00  0.00     0.042 C 
BRANCH  39  46
HETATM   46  O1  UNL     1      -6.189  -4.254  -2.168  1.00  0.00    -0.388 OA
ATOM     47  H1  UNL     1      -5.286  -4.354  -1.892  1.00  0.00     0.210 HD
ENDBRANCH  39  46
BRANCH  40  48
HETATM   48  N1  UNL     1      -5.374  -6.975  -2.569  1.00  0.00    -0.069 N 
HETATM   49  C1  UNL     1      -4.214  -6.971  -3.438  1.00  0.00     0.267 C 
ATOM     50  H12 UNL     1      -5.594  -7.916  -2.244  1.00  0.00     0.277 HD
ATOM     51  H11 UNL     1      -5.168  -6.540  -1.670  1.00  0.00     0.277 HD
ENDBRANCH  40  48
BRANCH  41  52
HETATM   52  O12 UNL     1      -7.872  -6.309  -1.218  1.00  0.00    -0.385 OA
ATOM     53  H12 UNL     1      -8.543  -6.760  -0.720  1.00  0.00     0.210 HD
ENDBRANCH  41  52
ENDBRANCH  37  38
ENDBRANCH   1  37
TORSDOF 17
ENDMDL
MODEL 5
REMARK VINA RESULT: -6.848855044      2.345      3.090
REMARK  17 active torsions:
REMARK  status: ('A' for Active; 'I' for Inactive)
REMARK    1  A    between atoms: N1_2  and  C2_5 
REMARK    2  A    between atoms: C3_6  and  O1_7 
REMARK    3  A    between atoms: C4_9  and  O2_10 
REMARK    4  A    between atoms: O2_10  and  C5_11 
REMARK    5  A    between atoms: C6_12  and  N2_13 
REMARK    6  A    between atoms: C8_18  and  O3_19 
REMARK    7  A    between atoms: O3_19  and  C9_20 
REMARK    8  A    between atoms: C9_20  and  O4_22 
REMARK    9  A    between atoms: O4_22  and  C11_23 
REMARK   10  A    between atoms: C12_25  and  C13_26 
REMARK   11  A    between atoms: C13_26  and  O6_27 
REMARK   12  A    between atoms: C14_29  and  O7_30 
REMARK   13  A    between atoms: O7_30  and  N3_31 
REMARK   14  A    between atoms: C15_34  and  O8_35 
REMARK   15  A    between atoms: C15_34  and  O9_37 
REMARK   16  A    between atoms: C16_39  and  N4_40 
REMARK   17  A    between atoms: C21_50  and  O12_52 
ROOT
HETATM    1  C5  UNL     1      -7.024  -3.524  -4.016  1.00  0.00     0.183 C 
HETATM    2  C6  UNL     1      -6.077  -4.175  -4.992  1.00  0.00     0.219 C 
HETATM    3  C7  UNL     1      -6.794  -4.904  -6.105  1.00  0.00     0.096 C 
HETATM    4  C8  UNL     1      -7.777  -4.063  -6.844  1.00  0.00     0.265 C 
HETATM    5  O10 UNL     1      -8.287  -3.096  -6.027  1.00  0.00    -0.354 OA
HETATM    6  C17 UNL     1      -8.388  -3.415  -4.707  1.00  0.00     0.151 C 
HETATM    7  C18 UNL     1      -9.236  -4.625  -4.515  1.00  0.00     0.042 C 
ENDROOT
BRANCH   4   8
HETATM    8  O3  UNL     1      -7.098  -3.479  -7.918  1.00  0.00    -0.332 OA
BRANCH   8   9
HETATM    9  C9  UNL     1      -7.556  -2.206  -8.168  1.00  0.00     0.262 C 
HETATM   10  C10 UNL     1      -8.644  -2.184  -9.224  1.00  0.00     0.071 C 
BRANCH   9  11
HETATM   11  O4  UNL     1      -6.505  -1.388  -8.576  1.00  0.00    -0.330 OA
BRANCH  11  12
HETATM   12  C11 UNL     1      -6.844  -0.490  -9.568  1.00  0.00     0.299 C 
HETATM   13  O5  UNL     1      -6.134  -0.665 -10.736  1.00  0.00    -0.349 OA
HETATM   14  C12 UNL     1      -4.829  -0.263 -10.689  1.00  0.00     0.185 C 
HETATM   15  C14 UNL     1      -4.643   1.161 -10.200  1.00  0.00     0.246 C 
HETATM   16  C15 UNL     1      -5.371   1.450  -8.932  1.00  0.00     0.225 C 
HETATM   17  C16 UNL     1      -6.762   0.918  -9.030  1.00  0.00     0.302 C 
BRANCH  14  18
HETATM   18  C13 UNL     1      -3.911  -1.216  -9.951  1.00  0.00     0.199 C 
BRANCH  18  19
HETATM   19  O6  UNL     1      -2.767  -1.437 -10.687  1.00  0.00    -0.398 OA
ATOM     20  H6  UNL     1      -2.128  -0.756 -10.509  1.00  0.00     0.209 HD
ENDBRANCH  18  19
ENDBRANCH  14  18
BRANCH  15  21
HETATM   21  O7  UNL     1      -3.268   1.350  -9.997  1.00  0.00    -0.274 OA
BRANCH  21  22
HETATM   22  N3  UNL     1      -2.667   1.628 -11.189  1.00  0.00    -0.310 N 
ATOM     23  H32 UNL     1      -2.721   2.527 -11.668  1.00  0.00     0.184 HD
ATOM     24  H31 UNL     1      -2.164   0.803 -11.515  1.00  0.00     0.184 HD
ENDBRANCH  21  22
ENDBRANCH  15  21
BRANCH  16  25
HETATM   25  O8  UNL     1      -5.474   2.856  -8.821  1.00  0.00    -0.362 OA
ATOM     26  H8  UNL     1      -6.260   3.041  -8.322  1.00  0.00     0.213 HD
ENDBRANCH  16  25
BRANCH  16  27
HETATM   27  O9  UNL     1      -4.692   1.005  -7.804  1.00  0.00    -0.362 OA
ATOM     28  H9  UNL     1      -5.060   1.339  -6.995  1.00  0.00     0.213 HD
ENDBRANCH  16  27
BRANCH  17  29
HETATM   29  N4  UNL     1      -7.652   1.803  -9.754  1.00  0.00    -0.065 N 
ATOM     30  H43 UNL     1      -8.618   1.705  -9.440  1.00  0.00     0.275 HD
ATOM     31  H42 UNL     1      -7.505   2.779  -9.498  1.00  0.00     0.275 HD
ATOM     32  H41 UNL     1      -7.567   1.661 -10.761  1.00  0.00     0.275 HD
ENDBRANCH  17  29
ENDBRANCH  11  12
ENDBRANCH   9  11
ENDBRANCH   8   9
ENDBRANCH   4   8
BRANCH   2  33
HETATM   33  N2  UNL     1      -5.222  -5.159  -4.353  1.00  0.00    -0.072 N 
ATOM     34  H23 UNL     1      -4.238  -4.903  -4.436  1.00  0.00     0.274 HD
ATOM     35  H22 UNL     1      -5.313  -5.123  -3.338  1.00  0.00     0.274 HD
ATOM     36  H21 UNL     1      -5.389  -6.101  -4.705  1.00  0.00     0.274 HD
ENDBRANCH   2  33
BRANCH   1  37
HETATM   37  O2  UNL     1      -7.159  -4.304  -2.920  1.00  0.00    -0.349 OA
BRANCH  37  38
HETATM   38  C4  UNL     1      -7.255  -3.715  -1.706  1.00  0.00     0.291 C 
HETATM   39  C3  UNL     1      -6.227  -2.750  -1.301  1.00  0.00     0.207 C 
HETATM   40  C2  UNL     1      -4.948  -3.492  -0.965  1.00  0.00     0.255 C 
HETATM   41  C21 UNL     1      -5.153  -4.595   0.017  1.00  0.00     0.111 C 
HETATM   42  C19 UNL     1      -6.278  -5.469  -0.540  1.00  0.00     0.157 C 
HETATM   43  C22 UNL     1      -3.866  -5.402   0.083  1.00  0.00     0.051 C 
HETATM   44  O11 UNL     1      -7.397  -4.691  -0.728  1.00  0.00    -0.351 OA
HETATM   45  C20 UNL     1      -6.522  -6.671   0.314  1.00  0.00     0.042 C 
BRANCH  39  46
HETATM   46  O1  UNL     1      -6.642  -2.055  -0.146  1.00  0.00    -0.388 OA
ATOM     47  H1  UNL     1      -6.489  -1.129  -0.292  1.00  0.00     0.210 HD
ENDBRANCH  39  46
BRANCH  40  48
HETATM   48  N1  UNL     1      -3.865  -2.604  -0.606  1.00  0.00    -0.069 N 
HETATM   49  C1  UNL     1      -3.063  -2.249  -1.760  1.00  0.00     0.267 C 
ATOM     50  H12 UNL     1      -3.291  -2.999   0.140  1.00  0.00     0.277 HD
ATOM     51  H11 UNL     1      -4.206  -1.775  -0.120  1.00  0.00     0.277 HD
ENDBRANCH  40  48
BRANCH  41  52
HETATM   52  O12 UNL     1      -5.437  -4.159   1.296  1.00  0.00    -0.385 OA
ATOM     53  H12 UNL     1      -5.980  -3.379   1.325  1.00  0.00     0.210 HD
ENDBRANCH  41  52
ENDBRANCH  37  38
ENDBRANCH   1  37
TORSDOF 17
ENDMDL
