MODEL 1
REMARK VINA RESULT: -8.331619789      0.000      0.000
REMARK  15 active torsions:
REMARK  status: ('A' for Active; 'I' for Inactive)
REMARK    1  A    between atoms: C3_6  and  N2_7 
REMARK    2  A    between atoms: N3_10  and  C6_11 
REMARK    3  A    between atoms: C6_11  and  C7_12 
REMARK    4  A    between atoms: C7_12  and  N4_13 
REMARK    5  A    between atoms: C10_16  and  C11_17 
REMARK    6  A    between atoms: C11_17  and  O1_18 
REMARK    7  A    between atoms: C11_17  and  C12_20 
REMARK    8  A    between atoms: C12_20  and  O2_21 
REMARK    9  A    between atoms: C12_20  and  C13_23 
REMARK   10  A    between atoms: C13_23  and  N5_24 
REMARK   11  A    between atoms: C16_28  and  C17_29 
REMARK   12  A    between atoms: C17_29  and  O4_30 
REMARK   13  A    between atoms: C17_29  and  O5_32 
REMARK   14  A    between atoms: N6_34  and  N7_35 
REMARK   15  A    between atoms: C19_40  and  O7_41 
ROOT
HETATM    1  N4  UNL     1     -10.277   5.780   8.667  1.00  0.00    -0.336 N 
HETATM    2  C8  UNL     1     -10.513   6.564   7.630  1.00  0.00     0.094 A 
HETATM    3  C9  UNL     1     -11.855   6.558   7.287  1.00  0.00     0.031 A 
HETATM    4  C10 UNL     1     -12.468   5.713   8.179  1.00  0.00     0.025 A 
HETATM    5  C19 UNL     1     -11.452   5.244   9.027  1.00  0.00     0.151 A 
ENDROOT
BRANCH   4   6
HETATM    6  C11 UNL     1     -13.898   5.301   8.302  1.00  0.00     0.185 C 
BRANCH   6   7
HETATM    7  O1  UNL     1     -14.287   5.548   9.635  1.00  0.00    -0.388 OA
ATOM      8  H1  UNL     1     -15.044   6.121   9.604  1.00  0.00     0.210 HD
ENDBRANCH   6   7
BRANCH   6   9
HETATM    9  C12 UNL     1     -14.135   3.879   7.920  1.00  0.00     0.170 C 
BRANCH   9  10
HETATM   10  O2  UNL     1     -14.106   3.667   6.542  1.00  0.00    -0.391 OA
ATOM     11  H2  UNL     1     -13.733   2.828   6.300  1.00  0.00     0.210 HD
ENDBRANCH   9  10
BRANCH   9  12
HETATM   12  C13 UNL     1     -15.369   3.309   8.581  1.00  0.00     0.171 C 
BRANCH  12  13
HETATM   13  N5  UNL     1     -14.990   2.374   9.643  1.00  0.00    -0.262 N 
HETATM   14  C14 UNL     1     -15.363   2.507  10.923  1.00  0.00     0.253 A 
HETATM   15  O3  UNL     1     -16.067   3.471  11.269  1.00  0.00    -0.268 OA
HETATM   16  C15 UNL     1     -14.967   1.571  11.887  1.00  0.00     0.107 A 
HETATM   17  C16 UNL     1     -14.187   0.504  11.506  1.00  0.00     0.098 A 
HETATM   18  N6  UNL     1     -13.820   0.383  10.219  1.00  0.00    -0.211 N 
HETATM   19  C18 UNL     1     -14.218   1.301   9.316  1.00  0.00     0.350 A 
HETATM   20  O6  UNL     1     -13.858   1.157   8.127  1.00  0.00    -0.244 OA
BRANCH  17  21
HETATM   21  C17 UNL     1     -13.764  -0.489  12.518  1.00  0.00     0.307 C 
BRANCH  21  22
HETATM   22  O4  UNL     1     -12.374  -0.459  12.574  1.00  0.00    -0.366 OA
ATOM     23  H4  UNL     1     -12.109  -0.992  13.314  1.00  0.00     0.213 HD
ENDBRANCH  21  22
BRANCH  21  24
HETATM   24  O5  UNL     1     -14.229  -0.119  13.777  1.00  0.00    -0.366 OA
ATOM     25  H5  UNL     1     -13.579  -0.325  14.440  1.00  0.00     0.213 HD
ENDBRANCH  21  24
ENDBRANCH  17  21
BRANCH  18  26
HETATM   26  N7  UNL     1     -13.031  -0.703   9.858  1.00  0.00    -0.334 N 
ATOM     27  H72 UNL     1     -12.335  -1.095  10.493  1.00  0.00     0.177 HD
ATOM     28  H71 UNL     1     -13.162  -1.109   8.931  1.00  0.00     0.177 HD
ENDBRANCH  18  26
ENDBRANCH  12  13
ENDBRANCH   9  12
ENDBRANCH   6   9
ENDBRANCH   4   6
BRANCH   5  29
HETATM   29  O7  UNL     1     -11.657   4.360  10.075  1.00  0.00    -0.345 OA
ATOM     30  H7  UNL     1     -11.579   3.414  10.030  1.00  0.00     0.219 HD
ENDBRANCH   5  29
BRANCH   1  31
HETATM   31  C7  UNL     1      -8.999   5.513   9.329  1.00  0.00     0.152 C 
BRANCH  31  32
HETATM   32  C6  UNL     1      -8.349   4.356   8.559  1.00  0.00     0.162 C 
BRANCH  32  33
HETATM   33  N3  UNL     1      -8.128   3.318   9.510  1.00  0.00    -0.328 N 
HETATM   34  C5  UNL     1      -7.106   2.385   9.231  1.00  0.00     0.162 C 
HETATM   35  C4  UNL     1      -7.493   0.947   9.184  1.00  0.00     0.147 C 
HETATM   36  N2  UNL     1      -8.647   0.684  10.062  1.00  0.00    -0.348 N 
HETATM   37  C20 UNL     1      -9.726   1.604   9.941  1.00  0.00     0.265 C 
HETATM   38  N8  UNL     1      -9.209   2.925  10.229  1.00  0.00    -0.320 N 
ATOM     39  H8  UNL     1      -9.634   3.527  10.934  1.00  0.00     0.182 HD
BRANCH  36  40
HETATM   40  C3  UNL     1      -8.615  -0.431  10.951  1.00  0.00     0.108 A 
HETATM   41  C2  UNL     1      -9.599  -1.369  10.936  1.00  0.00     0.096 A 
HETATM   42  C1  UNL     1      -9.525  -2.439  11.829  1.00  0.00     0.103 A 
HETATM   43  N1  UNL     1     -10.442  -3.353  11.848  1.00  0.00    -0.385 N 
HETATM   44  N10 UNL     1      -8.496  -2.525  12.678  1.00  0.00    -0.339 N 
ATOM     45  H12 UNL     1     -11.227  -3.288  11.200  1.00  0.00     0.157 HD
ATOM     46  H11 UNL     1     -10.388  -4.135  12.501  1.00  0.00     0.157 HD
HETATM   47  C21 UNL     1      -7.548  -1.583  12.661  1.00  0.00     0.183 A 
ATOM     48  H10 UNL     1      -8.434  -3.304  13.333  1.00  0.00     0.168 HD
HETATM   49  N9  UNL     1      -7.571  -0.539  11.828  1.00  0.00    -0.339 N 
ATOM     50  H9  UNL     1      -6.827   0.160  11.845  1.00  0.00     0.168 HD
ENDBRANCH  36  40
ENDBRANCH  32  33
ENDBRANCH  31  32
ENDBRANCH   1  31
TORSDOF 15
ENDMDL
MODEL 2
REMARK VINA RESULT: -8.203137355      1.372      2.238
REMARK  15 active torsions:
REMARK  status: ('A' for Active; 'I' for Inactive)
REMARK    1  A    between atoms: C3_6  and  N2_7 
REMARK    2  A    between atoms: N3_10  and  C6_11 
REMARK    3  A    between atoms: C6_11  and  C7_12 
REMARK    4  A    between atoms: C7_12  and  N4_13 
REMARK    5  A    between atoms: C10_16  and  C11_17 
REMARK    6  A    between atoms: C11_17  and  O1_18 
REMARK    7  A    between atoms: C11_17  and  C12_20 
REMARK    8  A    between atoms: C12_20  and  O2_21 
REMARK    9  A    between atoms: C12_20  and  C13_23 
REMARK   10  A    between atoms: C13_23  and  N5_24 
REMARK   11  A    between atoms: C16_28  and  C17_29 
REMARK   12  A    between atoms: C17_29  and  O4_30 
REMARK   13  A    between atoms: C17_29  and  O5_32 
REMARK   14  A    between atoms: N6_34  and  N7_35 
REMARK   15  A    between atoms: C19_40  and  O7_41 
ROOT
HETATM    1  N4  UNL     1      -9.272   5.944   9.361  1.00  0.00    -0.336 N 
HETATM    2  C8  UNL     1      -8.982   6.912   8.509  1.00  0.00     0.094 A 
HETATM    3  C9  UNL     1     -10.120   7.385   7.875  1.00  0.00     0.031 A 
HETATM    4  C10 UNL     1     -11.165   6.650   8.379  1.00  0.00     0.025 A 
HETATM    5  C19 UNL     1     -10.599   5.760   9.306  1.00  0.00     0.151 A 
ENDROOT
BRANCH   4   6
HETATM    6  C11 UNL     1     -12.625   6.700   8.070  1.00  0.00     0.185 C 
BRANCH   6   7
HETATM    7  O1  UNL     1     -13.299   6.919   9.290  1.00  0.00    -0.388 OA
ATOM      8  H1  UNL     1     -13.935   6.219   9.386  1.00  0.00     0.210 HD
ENDBRANCH   6   7
BRANCH   6   9
HETATM    9  C12 UNL     1     -13.122   5.471   7.387  1.00  0.00     0.170 C 
BRANCH   9  10
HETATM   10  O2  UNL     1     -12.953   5.504   6.004  1.00  0.00    -0.391 OA
ATOM     11  H2  UNL     1     -12.874   4.641   5.615  1.00  0.00     0.210 HD
ENDBRANCH   9  10
BRANCH   9  12
HETATM   12  C13 UNL     1     -14.531   5.118   7.803  1.00  0.00     0.171 C 
BRANCH  12  13
HETATM   13  N5  UNL     1     -14.550   3.819   8.482  1.00  0.00    -0.262 N 
HETATM   14  C14 UNL     1     -14.292   2.654   7.872  1.00  0.00     0.253 A 
HETATM   15  O3  UNL     1     -14.021   2.633   6.659  1.00  0.00    -0.268 OA
HETATM   16  C15 UNL     1     -14.324   1.448   8.584  1.00  0.00     0.107 A 
HETATM   17  C16 UNL     1     -14.625   1.470   9.926  1.00  0.00     0.098 A 
HETATM   18  N6  UNL     1     -14.881   2.645  10.525  1.00  0.00    -0.211 N 
HETATM   19  C18 UNL     1     -14.842   3.788   9.811  1.00  0.00     0.350 A 
HETATM   20  O6  UNL     1     -15.087   4.863  10.400  1.00  0.00    -0.244 OA
BRANCH  17  21
HETATM   21  C17 UNL     1     -14.661   0.200  10.687  1.00  0.00     0.307 C 
BRANCH  21  22
HETATM   22  O4  UNL     1     -14.370  -0.827   9.793  1.00  0.00    -0.366 OA
ATOM     23  H4  UNL     1     -14.208  -1.610  10.306  1.00  0.00     0.213 HD
ENDBRANCH  21  22
BRANCH  21  24
HETATM   24  O5  UNL     1     -13.660   0.192  11.654  1.00  0.00    -0.366 OA
ATOM     25  H5  UNL     1     -13.052  -0.520  11.490  1.00  0.00     0.213 HD
ENDBRANCH  21  24
ENDBRANCH  17  21
BRANCH  18  26
HETATM   26  N7  UNL     1     -15.184   2.641  11.882  1.00  0.00    -0.334 N 
ATOM     27  H72 UNL     1     -15.912   3.240  12.271  1.00  0.00     0.177 HD
ATOM     28  H71 UNL     1     -14.655   2.019  12.494  1.00  0.00     0.177 HD
ENDBRANCH  18  26
ENDBRANCH  12  13
ENDBRANCH   9  12
ENDBRANCH   6   9
ENDBRANCH   4   6
BRANCH   5  29
HETATM   29  O7  UNL     1     -11.324   4.835  10.042  1.00  0.00    -0.345 OA
ATOM     30  H7  UNL     1     -12.109   4.385   9.755  1.00  0.00     0.219 HD
ENDBRANCH   5  29
BRANCH   1  31
HETATM   31  C7  UNL     1      -8.358   5.188  10.218  1.00  0.00     0.152 C 
BRANCH  31  32
HETATM   32  C6  UNL     1      -7.852   4.010   9.375  1.00  0.00     0.162 C 
BRANCH  32  33
HETATM   33  N3  UNL     1      -8.110   2.833  10.137  1.00  0.00    -0.328 N 
HETATM   34  C5  UNL     1      -7.205   1.759  10.003  1.00  0.00     0.162 C 
HETATM   35  C4  UNL     1      -7.767   0.447   9.576  1.00  0.00     0.147 C 
HETATM   36  N2  UNL     1      -9.168   0.309  10.008  1.00  0.00    -0.348 N 
HETATM   37  C20 UNL     1      -9.999   1.434   9.747  1.00  0.00     0.265 C 
HETATM   38  N8  UNL     1      -9.412   2.575  10.418  1.00  0.00    -0.320 N 
ATOM     39  H8  UNL     1      -9.948   3.153  11.064  1.00  0.00     0.182 HD
BRANCH  36  40
HETATM   40  C3  UNL     1      -9.593  -0.897  10.641  1.00  0.00     0.108 A 
HETATM   41  C2  UNL     1     -10.837  -1.402  10.425  1.00  0.00     0.096 A 
HETATM   42  C1  UNL     1     -11.208  -2.582  11.072  1.00  0.00     0.103 A 
HETATM   43  N1  UNL     1     -12.383  -3.095  10.894  1.00  0.00    -0.385 N 
HETATM   44  N10 UNL     1     -10.342  -3.192  11.887  1.00  0.00    -0.339 N 
ATOM     45  H12 UNL     1     -13.044  -2.631  10.272  1.00  0.00     0.157 HD
ATOM     46  H11 UNL     1     -12.654  -3.958  11.368  1.00  0.00     0.157 HD
HETATM   47  C21 UNL     1      -9.129  -2.663  12.074  1.00  0.00     0.183 A 
ATOM     48  H10 UNL     1     -10.605  -4.054  12.364  1.00  0.00     0.168 HD
HETATM   49  N9  UNL     1      -8.723  -1.538  11.480  1.00  0.00    -0.339 N 
ATOM     50  H9  UNL     1      -7.788  -1.166  11.647  1.00  0.00     0.168 HD
ENDBRANCH  36  40
ENDBRANCH  32  33
ENDBRANCH  31  32
ENDBRANCH   1  31
TORSDOF 15
ENDMDL
MODEL 3
REMARK VINA RESULT: -8.165167231      1.808      2.597
REMARK  15 active torsions:
REMARK  status: ('A' for Active; 'I' for Inactive)
REMARK    1  A    between atoms: C3_6  and  N2_7 
REMARK    2  A    between atoms: N3_10  and  C6_11 
REMARK    3  A    between atoms: C6_11  and  C7_12 
REMARK    4  A    between atoms: C7_12  and  N4_13 
REMARK    5  A    between atoms: C10_16  and  C11_17 
REMARK    6  A    between atoms: C11_17  and  O1_18 
REMARK    7  A    between atoms: C11_17  and  C12_20 
REMARK    8  A    between atoms: C12_20  and  O2_21 
REMARK    9  A    between atoms: C12_20  and  C13_23 
REMARK   10  A    between atoms: C13_23  and  N5_24 
REMARK   11  A    between atoms: C16_28  and  C17_29 
REMARK   12  A    between atoms: C17_29  and  O4_30 
REMARK   13  A    between atoms: C17_29  and  O5_32 
REMARK   14  A    between atoms: N6_34  and  N7_35 
REMARK   15  A    between atoms: C19_40  and  O7_41 
ROOT
HETATM    1  N4  UNL     1     -10.831   5.040   9.090  1.00  0.00    -0.336 N 
HETATM    2  C8  UNL     1     -11.217   6.266   8.780  1.00  0.00     0.094 A 
HETATM    3  C9  UNL     1     -12.581   6.428   8.962  1.00  0.00     0.031 A 
HETATM    4  C10 UNL     1     -13.047   5.216   9.411  1.00  0.00     0.025 A 
HETATM    5  C19 UNL     1     -11.926   4.373   9.480  1.00  0.00     0.151 A 
ENDROOT
BRANCH   4   6
HETATM    6  C11 UNL     1     -14.430   4.779   9.769  1.00  0.00     0.185 C 
BRANCH   6   7
HETATM    7  O1  UNL     1     -14.428   4.491  11.150  1.00  0.00    -0.388 OA
ATOM      8  H1  UNL     1     -14.384   3.546  11.237  1.00  0.00     0.210 HD
ENDBRANCH   6   7
BRANCH   6   9
HETATM    9  C12 UNL     1     -14.902   3.612   8.970  1.00  0.00     0.170 C 
BRANCH   9  10
HETATM   10  O2  UNL     1     -15.629   3.978   7.838  1.00  0.00    -0.391 OA
ATOM     11  H2  UNL     1     -16.305   3.353   7.609  1.00  0.00     0.210 HD
ENDBRANCH   9  10
BRANCH   9  12
HETATM   12  C13 UNL     1     -15.611   2.587   9.824  1.00  0.00     0.171 C 
BRANCH  12  13
HETATM   13  N5  UNL     1     -14.723   1.455  10.101  1.00  0.00    -0.262 N 
HETATM   14  C14 UNL     1     -13.880   0.929   9.202  1.00  0.00     0.253 A 
HETATM   15  O3  UNL     1     -13.823   1.399   8.053  1.00  0.00    -0.268 OA
HETATM   16  C15 UNL     1     -13.055  -0.152   9.538  1.00  0.00     0.107 A 
HETATM   17  C16 UNL     1     -13.117  -0.674  10.809  1.00  0.00     0.098 A 
HETATM   18  N6  UNL     1     -13.967  -0.137  11.701  1.00  0.00    -0.211 N 
HETATM   19  C18 UNL     1     -14.747   0.903  11.345  1.00  0.00     0.350 A 
HETATM   20  O6  UNL     1     -15.526   1.378  12.201  1.00  0.00    -0.244 OA
BRANCH  17  21
HETATM   21  C17 UNL     1     -12.249  -1.817  11.172  1.00  0.00     0.307 C 
BRANCH  21  22
HETATM   22  O4  UNL     1     -11.728  -2.334   9.990  1.00  0.00    -0.366 OA
ATOM     23  H4  UNL     1     -10.807  -2.103   9.962  1.00  0.00     0.213 HD
ENDBRANCH  21  22
BRANCH  21  24
HETATM   24  O5  UNL     1     -11.169  -1.376  11.933  1.00  0.00    -0.366 OA
ATOM     25  H5  UNL     1     -11.176  -1.796  12.785  1.00  0.00     0.213 HD
ENDBRANCH  21  24
ENDBRANCH  17  21
BRANCH  18  26
HETATM   26  N7  UNL     1     -14.013  -0.682  12.979  1.00  0.00    -0.334 N 
ATOM     27  H72 UNL     1     -14.879  -0.718  13.516  1.00  0.00     0.177 HD
ATOM     28  H71 UNL     1     -13.150  -1.053  13.378  1.00  0.00     0.177 HD
ENDBRANCH  18  26
ENDBRANCH  12  13
ENDBRANCH   9  12
ENDBRANCH   6   9
ENDBRANCH   4   6
BRANCH   5  29
HETATM   29  O7  UNL     1     -11.970   3.050   9.892  1.00  0.00    -0.345 OA
ATOM     30  H7  UNL     1     -11.981   2.745  10.792  1.00  0.00     0.219 HD
ENDBRANCH   5  29
BRANCH   1  31
HETATM   31  C7  UNL     1      -9.483   4.474   9.032  1.00  0.00     0.152 C 
BRANCH  31  32
HETATM   32  C6  UNL     1      -8.820   4.800  10.377  1.00  0.00     0.162 C 
BRANCH  32  33
HETATM   33  N3  UNL     1      -8.806   3.585  11.121  1.00  0.00    -0.328 N 
HETATM   34  C5  UNL     1      -8.046   3.558  12.310  1.00  0.00     0.162 C 
HETATM   35  C4  UNL     1      -6.988   2.515  12.417  1.00  0.00     0.147 C 
HETATM   36  N2  UNL     1      -7.341   1.325  11.625  1.00  0.00    -0.348 N 
HETATM   37  C20 UNL     1      -7.799   1.587  10.304  1.00  0.00     0.265 C 
HETATM   38  N8  UNL     1      -8.961   2.443  10.405  1.00  0.00    -0.320 N 
ATOM     39  H8  UNL     1      -9.848   2.202   9.962  1.00  0.00     0.182 HD
BRANCH  36  40
HETATM   40  C3  UNL     1      -7.213   0.029  12.208  1.00  0.00     0.108 A 
HETATM   41  C2  UNL     1      -6.120  -0.304  12.945  1.00  0.00     0.096 A 
HETATM   42  C1  UNL     1      -6.039  -1.586  13.490  1.00  0.00     0.103 A 
HETATM   43  N1  UNL     1      -5.014  -1.943  14.198  1.00  0.00    -0.385 N 
HETATM   44  N10 UNL     1      -7.028  -2.460  13.281  1.00  0.00    -0.339 N 
ATOM     45  H12 UNL     1      -4.259  -1.276  14.358  1.00  0.00     0.157 HD
ATOM     46  H11 UNL     1      -4.954  -2.881  14.596  1.00  0.00     0.157 HD
HETATM   47  C21 UNL     1      -8.085  -2.095  12.550  1.00  0.00     0.183 A 
ATOM     48  H10 UNL     1      -6.976  -3.399  13.675  1.00  0.00     0.168 HD
HETATM   49  N9  UNL     1      -8.213  -0.882  12.006  1.00  0.00    -0.339 N 
ATOM     50  H9  UNL     1      -9.037  -0.641  11.455  1.00  0.00     0.168 HD
ENDBRANCH  36  40
ENDBRANCH  32  33
ENDBRANCH  31  32
ENDBRANCH   1  31
TORSDOF 15
ENDMDL
MODEL 4
REMARK VINA RESULT: -8.058216368      2.439      5.961
REMARK  15 active torsions:
REMARK  status: ('A' for Active; 'I' for Inactive)
REMARK    1  A    between atoms: C3_6  and  N2_7 
REMARK    2  A    between atoms: N3_10  and  C6_11 
REMARK    3  A    between atoms: C6_11  and  C7_12 
REMARK    4  A    between atoms: C7_12  and  N4_13 
REMARK    5  A    between atoms: C10_16  and  C11_17 
REMARK    6  A    between atoms: C11_17  and  O1_18 
REMARK    7  A    between atoms: C11_17  and  C12_20 
REMARK    8  A    between atoms: C12_20  and  O2_21 
REMARK    9  A    between atoms: C12_20  and  C13_23 
REMARK   10  A    between atoms: C13_23  and  N5_24 
REMARK   11  A    between atoms: C16_28  and  C17_29 
REMARK   12  A    between atoms: C17_29  and  O4_30 
REMARK   13  A    between atoms: C17_29  and  O5_32 
REMARK   14  A    between atoms: N6_34  and  N7_35 
REMARK   15  A    between atoms: C19_40  and  O7_41 
ROOT
HETATM    1  N4  UNL     1     -13.722  -0.420  11.598  1.00  0.00    -0.336 N 
HETATM    2  C8  UNL     1     -14.314  -0.273  12.770  1.00  0.00     0.094 A 
HETATM    3  C9  UNL     1     -15.200   0.792  12.759  1.00  0.00     0.031 A 
HETATM    4  C10 UNL     1     -15.135   1.322  11.493  1.00  0.00     0.025 A 
HETATM    5  C19 UNL     1     -14.202   0.539  10.794  1.00  0.00     0.151 A 
ENDROOT
BRANCH   4   6
HETATM    6  C11 UNL     1     -15.852   2.484  10.889  1.00  0.00     0.185 C 
BRANCH   6   7
HETATM    7  O1  UNL     1     -16.341   2.063   9.635  1.00  0.00    -0.388 OA
ATOM      8  H1  UNL     1     -16.901   2.757   9.307  1.00  0.00     0.210 HD
ENDBRANCH   6   7
BRANCH   6   9
HETATM    9  C12 UNL     1     -14.996   3.698  10.760  1.00  0.00     0.170 C 
BRANCH   9  10
HETATM   10  O2  UNL     1     -14.566   4.202  11.986  1.00  0.00    -0.391 OA
ATOM     11  H2  UNL     1     -13.796   4.754  11.916  1.00  0.00     0.210 HD
ENDBRANCH   9  10
BRANCH   9  12
HETATM   12  C13 UNL     1     -15.627   4.749   9.876  1.00  0.00     0.171 C 
BRANCH  12  13
HETATM   13  N5  UNL     1     -14.812   4.962   8.677  1.00  0.00    -0.262 N 
HETATM   14  C14 UNL     1     -15.180   4.578   7.447  1.00  0.00     0.253 A 
HETATM   15  O3  UNL     1     -16.267   4.001   7.274  1.00  0.00    -0.268 OA
HETATM   16  C15 UNL     1     -14.351   4.818   6.343  1.00  0.00     0.107 A 
HETATM   17  C16 UNL     1     -13.147   5.456   6.533  1.00  0.00     0.098 A 
HETATM   18  N6  UNL     1     -12.792   5.835   7.773  1.00  0.00    -0.211 N 
HETATM   19  C18 UNL     1     -13.612   5.590   8.814  1.00  0.00     0.350 A 
HETATM   20  O6  UNL     1     -13.249   5.956   9.952  1.00  0.00    -0.244 OA
BRANCH  17  21
HETATM   21  C17 UNL     1     -12.266   5.713   5.372  1.00  0.00     0.307 C 
BRANCH  21  22
HETATM   22  O4  UNL     1     -12.836   5.081   4.271  1.00  0.00    -0.366 OA
ATOM     23  H4  UNL     1     -12.775   5.681   3.537  1.00  0.00     0.213 HD
ENDBRANCH  21  22
BRANCH  21  24
HETATM   24  O5  UNL     1     -12.234   7.075   5.087  1.00  0.00    -0.366 OA
ATOM     25  H5  UNL     1     -11.831   7.551   5.804  1.00  0.00     0.213 HD
ENDBRANCH  21  24
ENDBRANCH  17  21
BRANCH  18  26
HETATM   26  N7  UNL     1     -11.570   6.477   7.940  1.00  0.00    -0.334 N 
ATOM     27  H72 UNL     1     -11.474   7.486   7.821  1.00  0.00     0.177 HD
ATOM     28  H71 UNL     1     -10.757   5.913   8.188  1.00  0.00     0.177 HD
ENDBRANCH  18  26
ENDBRANCH  12  13
ENDBRANCH   9  12
ENDBRANCH   6   9
ENDBRANCH   4   6
BRANCH   5  29
HETATM   29  O7  UNL     1     -13.846   0.747   9.471  1.00  0.00    -0.345 OA
ATOM     30  H7  UNL     1     -14.007   0.150   8.749  1.00  0.00     0.219 HD
ENDBRANCH   5  29
BRANCH   1  31
HETATM   31  C7  UNL     1     -12.727  -1.419  11.205  1.00  0.00     0.152 C 
BRANCH  31  32
HETATM   32  C6  UNL     1     -11.526  -0.638  10.655  1.00  0.00     0.162 C 
BRANCH  32  33
HETATM   33  N3  UNL     1     -10.539  -0.647  11.683  1.00  0.00    -0.328 N 
HETATM   34  C5  UNL     1      -9.535   0.344  11.630  1.00  0.00     0.162 C 
HETATM   35  C4  UNL     1      -8.121  -0.122  11.594  1.00  0.00     0.147 C 
HETATM   36  N2  UNL     1      -7.978  -1.421  12.275  1.00  0.00    -0.348 N 
HETATM   37  C20 UNL     1      -8.946  -2.402  11.924  1.00  0.00     0.265 C 
HETATM   38  N8  UNL     1     -10.252  -1.855  12.227  1.00  0.00    -0.320 N 
ATOM     39  H8  UNL     1     -10.919  -2.352  12.817  1.00  0.00     0.182 HD
BRANCH  36  40
HETATM   40  C3  UNL     1      -6.920  -1.609  13.213  1.00  0.00     0.108 A 
HETATM   41  C2  UNL     1      -5.864  -0.753  13.263  1.00  0.00     0.096 A 
HETATM   42  C1  UNL     1      -4.852  -0.984  14.195  1.00  0.00     0.103 A 
HETATM   43  N1  UNL     1      -3.829  -0.192  14.274  1.00  0.00    -0.385 N 
HETATM   44  N10 UNL     1      -4.934  -2.034  15.018  1.00  0.00    -0.339 N 
ATOM     45  H12 UNL     1      -3.767   0.609  13.647  1.00  0.00     0.157 HD
ATOM     46  H11 UNL     1      -3.089  -0.361  14.956  1.00  0.00     0.157 HD
HETATM   47  C21 UNL     1      -5.987  -2.853  14.937  1.00  0.00     0.183 A 
ATOM     48  H10 UNL     1      -4.198  -2.209  15.701  1.00  0.00     0.168 HD
HETATM   49  N9  UNL     1      -6.983  -2.678  14.065  1.00  0.00    -0.339 N 
ATOM     50  H9  UNL     1      -7.771  -3.325  14.034  1.00  0.00     0.168 HD
ENDBRANCH  36  40
ENDBRANCH  32  33
ENDBRANCH  31  32
ENDBRANCH   1  31
TORSDOF 15
ENDMDL
MODEL 5
REMARK VINA RESULT: -8.023254042      3.182      5.907
REMARK  15 active torsions:
REMARK  status: ('A' for Active; 'I' for Inactive)
REMARK    1  A    between atoms: C3_6  and  N2_7 
REMARK    2  A    between atoms: N3_10  and  C6_11 
REMARK    3  A    between atoms: C6_11  and  C7_12 
REMARK    4  A    between atoms: C7_12  and  N4_13 
REMARK    5  A    between atoms: C10_16  and  C11_17 
REMARK    6  A    between atoms: C11_17  and  O1_18 
REMARK    7  A    between atoms: C11_17  and  C12_20 
REMARK    8  A    between atoms: C12_20  and  O2_21 
REMARK    9  A    between atoms: C12_20  and  C13_23 
REMARK   10  A    between atoms: C13_23  and  N5_24 
REMARK   11  A    between atoms: C16_28  and  C17_29 
REMARK   12  A    between atoms: C17_29  and  O4_30 
REMARK   13  A    between atoms: C17_29  and  O5_32 
REMARK   14  A    between atoms: N6_34  and  N7_35 
REMARK   15  A    between atoms: C19_40  and  O7_41 
ROOT
HETATM    1  N4  UNL     1      -8.776   0.721  10.803  1.00  0.00    -0.336 N 
HETATM    2  C8  UNL     1      -8.362  -0.265  11.578  1.00  0.00     0.094 A 
HETATM    3  C9  UNL     1      -9.324  -1.255  11.694  1.00  0.00     0.031 A 
HETATM    4  C10 UNL     1     -10.390  -0.835  10.937  1.00  0.00     0.025 A 
HETATM    5  C19 UNL     1     -10.012   0.404  10.393  1.00  0.00     0.151 A 
ENDROOT
BRANCH   4   6
HETATM    6  C11 UNL     1     -11.716  -1.474  10.685  1.00  0.00     0.185 C 
BRANCH   6   7
HETATM    7  O1  UNL     1     -11.897  -1.515   9.287  1.00  0.00    -0.388 OA
ATOM      8  H1  UNL     1     -11.654  -2.388   9.000  1.00  0.00     0.210 HD
ENDBRANCH   6   7
BRANCH   6   9
HETATM    9  C12 UNL     1     -12.844  -0.771  11.360  1.00  0.00     0.170 C 
BRANCH   9  10
HETATM   10  O2  UNL     1     -13.115  -1.262  12.636  1.00  0.00    -0.391 OA
ATOM     11  H2  UNL     1     -13.918  -1.766  12.681  1.00  0.00     0.210 HD
ENDBRANCH   9  10
BRANCH   9  12
HETATM   12  C13 UNL     1     -14.072  -0.691  10.484  1.00  0.00     0.171 C 
BRANCH  12  13
HETATM   13  N5  UNL     1     -14.556   0.690  10.409  1.00  0.00    -0.262 N 
HETATM   14  C14 UNL     1     -15.295   1.274  11.362  1.00  0.00     0.253 A 
HETATM   15  O3  UNL     1     -15.614   0.638  12.381  1.00  0.00    -0.268 OA
HETATM   16  C15 UNL     1     -15.720   2.602  11.227  1.00  0.00     0.107 A 
HETATM   17  C16 UNL     1     -15.369   3.308  10.100  1.00  0.00     0.098 A 
HETATM   18  N6  UNL     1     -14.627   2.710   9.153  1.00  0.00    -0.211 N 
HETATM   19  C18 UNL     1     -14.234   1.430   9.313  1.00  0.00     0.350 A 
HETATM   20  O6  UNL     1     -13.545   0.905   8.412  1.00  0.00    -0.244 OA
BRANCH  17  21
HETATM   21  C17 UNL     1     -15.814   4.712   9.950  1.00  0.00     0.307 C 
BRANCH  21  22
HETATM   22  O4  UNL     1     -16.661   4.995  11.017  1.00  0.00    -0.366 OA
ATOM     23  H4  UNL     1     -16.480   5.886  11.294  1.00  0.00     0.213 HD
ENDBRANCH  21  22
BRANCH  21  24
HETATM   24  O5  UNL     1     -14.726   5.574  10.056  1.00  0.00    -0.366 OA
ATOM     25  H5  UNL     1     -15.013   6.427  10.361  1.00  0.00     0.213 HD
ENDBRANCH  21  24
ENDBRANCH  17  21
BRANCH  18  26
HETATM   26  N7  UNL     1     -14.286   3.443   8.022  1.00  0.00    -0.334 N 
ATOM     27  H72 UNL     1     -14.546   4.424   7.920  1.00  0.00     0.177 HD
ATOM     28  H71 UNL     1     -13.760   2.976   7.283  1.00  0.00     0.177 HD
ENDBRANCH  18  26
ENDBRANCH  12  13
ENDBRANCH   9  12
ENDBRANCH   6   9
ENDBRANCH   4   6
BRANCH   5  29
HETATM   29  O7  UNL     1     -10.816   1.169   9.561  1.00  0.00    -0.345 OA
ATOM     30  H7  UNL     1     -11.709   1.436   9.740  1.00  0.00     0.219 HD
ENDBRANCH   5  29
BRANCH   1  31
HETATM   31  C7  UNL     1      -8.061   1.945  10.434  1.00  0.00     0.152 C 
BRANCH  31  32
HETATM   32  C6  UNL     1      -6.576   1.675  10.710  1.00  0.00     0.162 C 
BRANCH  32  33
HETATM   33  N3  UNL     1      -5.957   1.513   9.436  1.00  0.00    -0.328 N 
HETATM   34  C5  UNL     1      -6.249   2.472   8.443  1.00  0.00     0.162 C 
HETATM   35  C4  UNL     1      -6.817   1.971   7.160  1.00  0.00     0.147 C 
HETATM   36  N2  UNL     1      -6.364   0.596   6.886  1.00  0.00    -0.348 N 
HETATM   37  C20 UNL     1      -6.459  -0.306   7.982  1.00  0.00     0.265 C 
HETATM   38  N8  UNL     1      -5.671   0.239   9.068  1.00  0.00    -0.320 N 
ATOM     39  H8  UNL     1      -4.943  -0.304   9.529  1.00  0.00     0.182 HD
BRANCH  36  40
HETATM   40  C3  UNL     1      -5.871   0.264   5.589  1.00  0.00     0.108 A 
HETATM   41  C2  UNL     1      -6.576  -0.548   4.757  1.00  0.00     0.096 A 
HETATM   42  C1  UNL     1      -6.048  -0.848   3.500  1.00  0.00     0.103 A 
HETATM   43  N1  UNL     1      -6.688  -1.618   2.678  1.00  0.00    -0.385 N 
HETATM   44  N10 UNL     1      -4.869  -0.336   3.137  1.00  0.00    -0.339 N 
ATOM     45  H12 UNL     1      -7.589  -2.008   2.956  1.00  0.00     0.157 HD
ATOM     46  H11 UNL     1      -6.302  -1.837   1.760  1.00  0.00     0.157 HD
HETATM   47  C21 UNL     1      -4.206   0.458   3.983  1.00  0.00     0.183 A 
ATOM     48  H10 UNL     1      -4.477  -0.550   2.220  1.00  0.00     0.168 HD
HETATM   49  N9  UNL     1      -4.665   0.776   5.196  1.00  0.00    -0.339 N 
ATOM     50  H9  UNL     1      -4.129   1.387   5.814  1.00  0.00     0.168 HD
ENDBRANCH  36  40
ENDBRANCH  32  33
ENDBRANCH  31  32
ENDBRANCH   1  31
TORSDOF 15
ENDMDL
