MODEL 1
REMARK VINA RESULT: -8.605736899      0.000      0.000
REMARK  8 active torsions:
REMARK  status: ('A' for Active; 'I' for Inactive)
REMARK    1  A    between atoms: C1_2  and  C2_4 
REMARK    2  A    between atoms: C5_9  and  N3_10 
REMARK    3  A    between atoms: N3_10  and  S1_12 
REMARK    4  A    between atoms: S1_12  and  N4_15 
REMARK    5  A    between atoms: N4_15  and  N5_17 
REMARK    6  A    between atoms: N5_17  and  C6_18 
REMARK    7  A    between atoms: C6_18  and  N6_19 
REMARK    8  A    between atoms: C6_18  and  C7_23 
ROOT
HETATM    1  S1  UNL     1      84.664 -30.251   0.943  1.00  0.00     0.334 S 
HETATM    2  O2  UNL     1      85.806 -30.998   1.508  1.00  0.00    -0.181 OA
HETATM    3  O3  UNL     1      83.441 -31.161   0.983  1.00  0.00    -0.181 OA
ENDROOT
BRANCH   1   4
HETATM    4  N3  UNL     1      84.949 -29.829  -0.688  1.00  0.00    -0.266 N 
ATOM      5  H3  UNL     1      84.247 -29.274  -1.178  1.00  0.00     0.180 HD
BRANCH   4   6
HETATM    6  C5  UNL     1      86.121 -30.215  -1.390  1.00  0.00     0.060 A 
HETATM    7  C4  UNL     1      87.030 -29.182  -1.658  1.00  0.00     0.117 A 
HETATM    8  N2  UNL     1      88.152 -29.504  -2.312  1.00  0.00    -0.372 N 
HETATM    9  C3  UNL     1      88.428 -30.779  -2.713  1.00  0.00     0.104 A 
ATOM     10  H2  UNL     1      88.828 -28.768  -2.517  1.00  0.00     0.164 HD
HETATM   11  C2  UNL     1      87.558 -31.807  -2.465  1.00  0.00     0.046 A 
HETATM   12  C8  UNL     1      86.394 -31.503  -1.794  1.00  0.00     0.049 A 
BRANCH  11  13
HETATM   13  C1  UNL     1      87.873 -33.150  -2.901  1.00  0.00     0.266 C 
HETATM   14  N1  UNL     1      87.668 -33.598  -4.234  1.00  0.00    -0.057 NA
HETATM   15  O1  UNL     1      88.351 -33.969  -2.079  1.00  0.00    -0.271 OA
ENDBRANCH  11  13
ENDBRANCH   4   6
ENDBRANCH   1   4
BRANCH   1  16
HETATM   16  N4  UNL     1      84.234 -28.874   1.892  1.00  0.00    -0.211 N 
ATOM     17  H4  UNL     1      84.236 -27.919   1.535  1.00  0.00     0.197 HD
BRANCH  16  18
HETATM   18  N5  UNL     1      83.886 -29.206   3.191  1.00  0.00    -0.087 NA
BRANCH  18  19
HETATM   19  C6  UNL     1      84.924 -28.750   4.087  1.00  0.00     0.384 C 
BRANCH  19  20
HETATM   20  N6  UNL     1      85.764 -29.845   4.526  1.00  0.00    -0.051 N 
ATOM     21  H63 UNL     1      86.501 -29.522   5.151  1.00  0.00     0.276 HD
ATOM     22  H62 UNL     1      85.268 -30.460   5.171  1.00  0.00     0.276 HD
ATOM     23  H61 UNL     1      86.145 -30.364   3.735  1.00  0.00     0.276 HD
ENDBRANCH  19  20
BRANCH  19  24
HETATM   24  C7  UNL     1      85.782 -27.759   3.389  1.00  0.00     0.279 C 
HETATM   25  N7  UNL     1      85.400 -26.396   3.270  1.00  0.00    -0.059 NA
HETATM   26  O4  UNL     1      86.863 -28.105   2.892  1.00  0.00    -0.273 OA
ENDBRANCH  19  24
ENDBRANCH  18  19
ENDBRANCH  16  18
ENDBRANCH   1  16
TORSDOF 8
ENDMDL
MODEL 2
REMARK VINA RESULT: -8.245298765      1.936      2.834
REMARK  8 active torsions:
REMARK  status: ('A' for Active; 'I' for Inactive)
REMARK    1  A    between atoms: C1_2  and  C2_4 
REMARK    2  A    between atoms: C5_9  and  N3_10 
REMARK    3  A    between atoms: N3_10  and  S1_12 
REMARK    4  A    between atoms: S1_12  and  N4_15 
REMARK    5  A    between atoms: N4_15  and  N5_17 
REMARK    6  A    between atoms: N5_17  and  C6_18 
REMARK    7  A    between atoms: C6_18  and  N6_19 
REMARK    8  A    between atoms: C6_18  and  C7_23 
ROOT
HETATM    1  S1  UNL     1      84.092 -30.630   1.240  1.00  0.00     0.334 S 
HETATM    2  O2  UNL     1      85.031 -31.455   2.029  1.00  0.00    -0.181 OA
HETATM    3  O3  UNL     1      82.674 -31.056   1.605  1.00  0.00    -0.181 OA
ENDROOT
BRANCH   1   4
HETATM    4  N3  UNL     1      84.302 -30.888  -0.435  1.00  0.00    -0.266 N 
ATOM      5  H3  UNL     1      83.507 -31.221  -0.981  1.00  0.00     0.180 HD
BRANCH   4   6
HETATM    6  C5  UNL     1      85.534 -30.658  -1.102  1.00  0.00     0.060 A 
HETATM    7  C4  UNL     1      86.281 -31.806  -1.400  1.00  0.00     0.117 A 
HETATM    8  N2  UNL     1      87.445 -31.635  -2.037  1.00  0.00    -0.372 N 
HETATM    9  C3  UNL     1      87.913 -30.404  -2.395  1.00  0.00     0.104 A 
ATOM     10  H2  UNL     1      88.005 -32.457  -2.264  1.00  0.00     0.164 HD
HETATM   11  C2  UNL     1      87.205 -29.265  -2.116  1.00  0.00     0.046 A 
HETATM   12  C8  UNL     1      86.002 -29.412  -1.461  1.00  0.00     0.049 A 
BRANCH  11  13
HETATM   13  C1  UNL     1      87.721 -27.972  -2.506  1.00  0.00     0.266 C 
HETATM   14  N1  UNL     1      86.951 -26.779  -2.437  1.00  0.00    -0.057 NA
HETATM   15  O1  UNL     1      88.900 -27.879  -2.926  1.00  0.00    -0.271 OA
ENDBRANCH  11  13
ENDBRANCH   4   6
ENDBRANCH   1   4
BRANCH   1  16
HETATM   16  N4  UNL     1      84.180 -28.954   1.644  1.00  0.00    -0.211 N 
ATOM     17  H4  UNL     1      84.161 -28.205   0.952  1.00  0.00     0.197 HD
BRANCH  16  18
HETATM   18  N5  UNL     1      84.277 -28.735   3.008  1.00  0.00    -0.087 NA
BRANCH  18  19
HETATM   19  C6  UNL     1      85.075 -27.552   3.238  1.00  0.00     0.384 C 
BRANCH  19  20
HETATM   20  N6  UNL     1      85.172 -27.245   4.650  1.00  0.00    -0.051 N 
ATOM     21  H63 UNL     1      85.982 -27.695   5.075  1.00  0.00     0.276 HD
ATOM     22  H62 UNL     1      85.435 -26.272   4.803  1.00  0.00     0.276 HD
ATOM     23  H61 UNL     1      84.312 -27.481   5.144  1.00  0.00     0.276 HD
ENDBRANCH  19  20
BRANCH  19  24
HETATM   24  C7  UNL     1      86.448 -27.768   2.715  1.00  0.00     0.279 C 
HETATM   25  N7  UNL     1      87.223 -26.698   2.194  1.00  0.00    -0.059 NA
HETATM   26  O4  UNL     1      86.950 -28.901   2.722  1.00  0.00    -0.273 OA
ENDBRANCH  19  24
ENDBRANCH  18  19
ENDBRANCH  16  18
ENDBRANCH   1  16
TORSDOF 8
ENDMDL
MODEL 3
REMARK VINA RESULT: -8.144851928      1.237      1.270
REMARK  8 active torsions:
REMARK  status: ('A' for Active; 'I' for Inactive)
REMARK    1  A    between atoms: C1_2  and  C2_4 
REMARK    2  A    between atoms: C5_9  and  N3_10 
REMARK    3  A    between atoms: N3_10  and  S1_12 
REMARK    4  A    between atoms: S1_12  and  N4_15 
REMARK    5  A    between atoms: N4_15  and  N5_17 
REMARK    6  A    between atoms: N5_17  and  C6_18 
REMARK    7  A    between atoms: C6_18  and  N6_19 
REMARK    8  A    between atoms: C6_18  and  C7_23 
ROOT
HETATM    1  S1  UNL     1      84.257 -30.610   0.686  1.00  0.00     0.334 S 
HETATM    2  O2  UNL     1      83.697 -31.798   0.010  1.00  0.00    -0.181 OA
HETATM    3  O3  UNL     1      83.099 -29.831   1.302  1.00  0.00    -0.181 OA
ENDROOT
BRANCH   1   4
HETATM    4  N3  UNL     1      85.047 -29.582  -0.426  1.00  0.00    -0.266 N 
ATOM      5  H3  UNL     1      84.710 -28.625  -0.529  1.00  0.00     0.180 HD
BRANCH   4   6
HETATM    6  C5  UNL     1      86.152 -30.001  -1.213  1.00  0.00     0.060 A 
HETATM    7  C4  UNL     1      87.030 -28.982  -1.608  1.00  0.00     0.117 A 
HETATM    8  N2  UNL     1      88.090 -29.335  -2.344  1.00  0.00    -0.372 N 
HETATM    9  C3  UNL     1      88.333 -30.626  -2.710  1.00  0.00     0.104 A 
ATOM     10  H2  UNL     1      88.743 -28.609  -2.642  1.00  0.00     0.164 HD
HETATM   11  C2  UNL     1      87.492 -31.642  -2.339  1.00  0.00     0.046 A 
HETATM   12  C8  UNL     1      86.392 -31.307  -1.581  1.00  0.00     0.049 A 
BRANCH  11  13
HETATM   13  C1  UNL     1      87.771 -33.003  -2.740  1.00  0.00     0.266 C 
HETATM   14  N1  UNL     1      87.562 -33.477  -4.063  1.00  0.00    -0.057 NA
HETATM   15  O1  UNL     1      88.219 -33.815  -1.895  1.00  0.00    -0.271 OA
ENDBRANCH  11  13
ENDBRANCH   4   6
ENDBRANCH   1   4
BRANCH   1  16
HETATM   16  N4  UNL     1      85.282 -31.022   2.014  1.00  0.00    -0.211 N 
ATOM     17  H4  UNL     1      85.336 -31.957   2.416  1.00  0.00     0.197 HD
BRANCH  16  18
HETATM   18  N5  UNL     1      86.023 -29.946   2.473  1.00  0.00    -0.087 NA
BRANCH  18  19
HETATM   19  C6  UNL     1      85.334 -29.344   3.591  1.00  0.00     0.384 C 
BRANCH  19  20
HETATM   20  N6  UNL     1      85.832 -29.847   4.854  1.00  0.00    -0.051 N 
ATOM     21  H63 UNL     1      86.587 -29.264   5.216  1.00  0.00     0.276 HD
ATOM     22  H62 UNL     1      85.155 -29.711   5.604  1.00  0.00     0.276 HD
ATOM     23  H61 UNL     1      86.117 -30.823   4.782  1.00  0.00     0.276 HD
ENDBRANCH  19  20
BRANCH  19  24
HETATM   24  C7  UNL     1      85.535 -27.873   3.566  1.00  0.00     0.279 C 
HETATM   25  N7  UNL     1      86.661 -27.286   2.928  1.00  0.00    -0.059 NA
HETATM   26  O4  UNL     1      84.714 -27.119   4.108  1.00  0.00    -0.273 OA
ENDBRANCH  19  24
ENDBRANCH  18  19
ENDBRANCH  16  18
ENDBRANCH   1  16
TORSDOF 8
ENDMDL
MODEL 4
REMARK VINA RESULT: -8.009328737      1.190      1.711
REMARK  8 active torsions:
REMARK  status: ('A' for Active; 'I' for Inactive)
REMARK    1  A    between atoms: C1_2  and  C2_4 
REMARK    2  A    between atoms: C5_9  and  N3_10 
REMARK    3  A    between atoms: N3_10  and  S1_12 
REMARK    4  A    between atoms: S1_12  and  N4_15 
REMARK    5  A    between atoms: N4_15  and  N5_17 
REMARK    6  A    between atoms: N5_17  and  C6_18 
REMARK    7  A    between atoms: C6_18  and  N6_19 
REMARK    8  A    between atoms: C6_18  and  C7_23 
ROOT
HETATM    1  S1  UNL     1      84.344 -30.459   0.607  1.00  0.00     0.334 S 
HETATM    2  O2  UNL     1      83.855 -31.799   0.224  1.00  0.00    -0.181 OA
HETATM    3  O3  UNL     1      83.154 -29.654   1.120  1.00  0.00    -0.181 OA
ENDROOT
BRANCH   1   4
HETATM    4  N3  UNL     1      84.996 -29.632  -0.738  1.00  0.00    -0.266 N 
ATOM      5  H3  UNL     1      84.529 -28.785  -1.062  1.00  0.00     0.180 HD
BRANCH   4   6
HETATM    6  C5  UNL     1      86.158 -30.071  -1.424  1.00  0.00     0.060 A 
HETATM    7  C4  UNL     1      87.088 -29.070  -1.734  1.00  0.00     0.117 A 
HETATM    8  N2  UNL     1      88.203 -29.442  -2.374  1.00  0.00    -0.372 N 
HETATM    9  C3  UNL     1      88.451 -30.737  -2.724  1.00  0.00     0.104 A 
ATOM     10  H2  UNL     1      88.895 -28.730  -2.609  1.00  0.00     0.164 HD
HETATM   11  C2  UNL     1      87.560 -31.736  -2.434  1.00  0.00     0.046 A 
HETATM   12  C8  UNL     1      86.403 -31.381  -1.776  1.00  0.00     0.049 A 
BRANCH  11  13
HETATM   13  C1  UNL     1      87.846 -33.102  -2.815  1.00  0.00     0.266 C 
HETATM   14  N1  UNL     1      87.608 -33.606  -4.123  1.00  0.00    -0.057 NA
HETATM   15  O1  UNL     1      88.326 -33.891  -1.966  1.00  0.00    -0.271 OA
ENDBRANCH  11  13
ENDBRANCH   4   6
ENDBRANCH   1   4
BRANCH   1  16
HETATM   16  N4  UNL     1      85.458 -30.509   1.926  1.00  0.00    -0.211 N 
ATOM     17  H4  UNL     1      85.538 -31.297   2.567  1.00  0.00     0.197 HD
BRANCH  16  18
HETATM   18  N5  UNL     1      86.231 -29.363   2.019  1.00  0.00    -0.087 NA
BRANCH  18  19
HETATM   19  C6  UNL     1      85.836 -28.625   3.197  1.00  0.00     0.384 C 
BRANCH  19  20
HETATM   20  N6  UNL     1      84.766 -27.694   2.906  1.00  0.00    -0.051 N 
ATOM     21  H63 UNL     1      85.101 -26.896   2.368  1.00  0.00     0.276 HD
ATOM     22  H62 UNL     1      84.111 -28.079   2.225  1.00  0.00     0.276 HD
ATOM     23  H61 UNL     1      84.288 -27.396   3.756  1.00  0.00     0.276 HD
ENDBRANCH  19  20
BRANCH  19  24
HETATM   24  C7  UNL     1      85.357 -29.570   4.239  1.00  0.00     0.279 C 
HETATM   25  N7  UNL     1      83.984 -29.910   4.361  1.00  0.00    -0.059 NA
HETATM   26  O4  UNL     1      86.157 -30.086   5.031  1.00  0.00    -0.273 OA
ENDBRANCH  19  24
ENDBRANCH  18  19
ENDBRANCH  16  18
ENDBRANCH   1  16
TORSDOF 8
ENDMDL
MODEL 5
REMARK VINA RESULT: -7.915884005      2.393      6.048
REMARK  8 active torsions:
REMARK  status: ('A' for Active; 'I' for Inactive)
REMARK    1  A    between atoms: C1_2  and  C2_4 
REMARK    2  A    between atoms: C5_9  and  N3_10 
REMARK    3  A    between atoms: N3_10  and  S1_12 
REMARK    4  A    between atoms: S1_12  and  N4_15 
REMARK    5  A    between atoms: N4_15  and  N5_17 
REMARK    6  A    between atoms: N5_17  and  C6_18 
REMARK    7  A    between atoms: C6_18  and  N6_19 
REMARK    8  A    between atoms: C6_18  and  C7_23 
ROOT
HETATM    1  S1  UNL     1      84.207 -31.316  -0.006  1.00  0.00     0.334 S 
HETATM    2  O2  UNL     1      83.162 -30.309   0.275  1.00  0.00    -0.181 OA
HETATM    3  O3  UNL     1      83.520 -32.664  -0.198  1.00  0.00    -0.181 OA
ENDROOT
BRANCH   1   4
HETATM    4  N3  UNL     1      85.291 -31.462   1.307  1.00  0.00    -0.266 N 
ATOM      5  H3  UNL     1      85.811 -32.333   1.414  1.00  0.00     0.180 HD
BRANCH   4   6
HETATM    6  C5  UNL     1      85.499 -30.426   2.254  1.00  0.00     0.060 A 
HETATM    7  C4  UNL     1      85.132 -30.732   3.571  1.00  0.00     0.117 A 
HETATM    8  N2  UNL     1      85.320 -29.786   4.499  1.00  0.00    -0.372 N 
HETATM    9  C3  UNL     1      85.846 -28.562   4.203  1.00  0.00     0.104 A 
ATOM     10  H2  UNL     1      85.059 -29.987   5.464  1.00  0.00     0.164 HD
HETATM   11  C2  UNL     1      86.214 -28.235   2.924  1.00  0.00     0.046 A 
HETATM   12  C8  UNL     1      86.031 -29.192   1.950  1.00  0.00     0.049 A 
BRANCH  11  13
HETATM   13  C1  UNL     1      86.770 -26.932   2.636  1.00  0.00     0.266 C 
HETATM   14  N1  UNL     1      87.576 -26.671   1.494  1.00  0.00    -0.057 NA
HETATM   15  O1  UNL     1      86.542 -25.977   3.417  1.00  0.00    -0.271 OA
ENDBRANCH  11  13
ENDBRANCH   4   6
ENDBRANCH   1   4
BRANCH   1  16
HETATM   16  N4  UNL     1      85.038 -31.016  -1.489  1.00  0.00    -0.211 N 
ATOM     17  H4  UNL     1      85.236 -31.739  -2.181  1.00  0.00     0.197 HD
BRANCH  16  18
HETATM   18  N5  UNL     1      85.406 -29.690  -1.640  1.00  0.00    -0.087 NA
BRANCH  18  19
HETATM   19  C6  UNL     1      86.849 -29.600  -1.639  1.00  0.00     0.384 C 
BRANCH  19  20
HETATM   20  N6  UNL     1      87.451 -30.743  -2.293  1.00  0.00    -0.051 N 
ATOM     21  H63 UNL     1      86.849 -31.563  -2.240  1.00  0.00     0.276 HD
ATOM     22  H62 UNL     1      87.471 -30.626  -3.306  1.00  0.00     0.276 HD
ATOM     23  H61 UNL     1      88.381 -30.938  -1.922  1.00  0.00     0.276 HD
ENDBRANCH  19  20
BRANCH  19  24
HETATM   24  C7  UNL     1      87.271 -28.375  -2.365  1.00  0.00     0.279 C 
HETATM   25  N7  UNL     1      86.330 -27.394  -2.780  1.00  0.00    -0.059 NA
HETATM   26  O4  UNL     1      88.466 -28.182  -2.627  1.00  0.00    -0.273 OA
ENDBRANCH  19  24
ENDBRANCH  18  19
ENDBRANCH  16  18
ENDBRANCH   1  16
TORSDOF 8
ENDMDL
