MODEL 1
REMARK VINA RESULT: -10.010294742      0.000      0.000
REMARK  12 active torsions:
REMARK  status: ('A' for Active; 'I' for Inactive)
REMARK    1  A    between atoms: N1_1  and  C1_5 
REMARK    2  A    between atoms: C4_11  and  O2_12 
REMARK    3  A    between atoms: C6_18  and  C7_19 
REMARK    4  A    between atoms: C7_19  and  O3_20 
REMARK    5  A    between atoms: O3_20  and  S1_21 
REMARK    6  A    between atoms: S1_21  and  N4_24 
REMARK       I    between atoms: N4_24  and  C8_26 
REMARK    7  A    between atoms: C8_26  and  C9_28 
REMARK    8  A    between atoms: C9_28  and  C10_29 
REMARK    9  A    between atoms: C10_29  and  C11_30 
REMARK   10  A    between atoms: C11_30  and  O8_32 
REMARK   11  A    between atoms: O8_32  and  C12_33 
REMARK   12  A    between atoms: C12_33  and  C13_34 
ROOT
HETATM    1  S1  UNL     1      16.538  -7.965 -14.428  1.00  0.00     0.364 S 
HETATM    2  O4  UNL     1      16.126  -8.653 -15.702  1.00  0.00    -0.175 OA
HETATM    3  O5  UNL     1      16.386  -6.455 -14.577  1.00  0.00    -0.175 OA
ENDROOT
BRANCH   1   4
HETATM    4  O3  UNL     1      18.091  -8.383 -14.062  1.00  0.00    -0.257 OA
BRANCH   4   5
HETATM    5  C7  UNL     1      18.453  -8.213 -12.750  1.00  0.00     0.225 C 
BRANCH   5   6
HETATM    6  C6  UNL     1      19.356  -6.970 -12.605  1.00  0.00     0.219 C 
HETATM    7  N3  UNL     1      18.484  -5.891 -12.262  1.00  0.00    -0.066 N 
HETATM    8  C5  UNL     1      19.056  -5.162 -11.174  1.00  0.00     0.266 C 
ATOM      9  H32 UNL     1      17.534  -6.205 -12.062  1.00  0.00     0.277 HD
ATOM     10  H31 UNL     1      18.271  -5.293 -13.061  1.00  0.00     0.277 HD
HETATM   11  C4  UNL     1      19.800  -3.926 -11.565  1.00  0.00     0.168 C 
HETATM   12  C3  UNL     1      20.955  -4.148 -12.486  1.00  0.00     0.137 C 
HETATM   13  N2  UNL     1      21.814  -5.129 -11.918  1.00  0.00    -0.350 N 
HETATM   14  C21 UNL     1      20.690  -4.285 -13.922  1.00  0.00     0.143 C 
HETATM   15  C2  UNL     1      22.331  -6.315 -12.483  1.00  0.00     0.249 C 
ATOM     16  H2  UNL     1      22.101  -4.948 -10.955  1.00  0.00     0.163 HD
HETATM   17  C1  UNL     1      21.679  -7.228 -13.412  1.00  0.00     0.282 C 
HETATM   18  O1  UNL     1      23.506  -6.661 -12.166  1.00  0.00    -0.271 OA
HETATM   19  C19 UNL     1      20.242  -6.799 -13.755  1.00  0.00     0.080 C 
HETATM   20  C20 UNL     1      20.309  -5.555 -14.514  1.00  0.00     0.128 C 
HETATM   21  N9  UNL     1      19.088  -5.220 -15.276  1.00  0.00    -0.123 NA
HETATM   22  N10 UNL     1      19.250  -3.885 -15.641  1.00  0.00    -0.039 NA
HETATM   23  N11 UNL     1      19.718  -3.342 -14.431  1.00  0.00    -0.121 NA
BRANCH  11  24
HETATM   24  O2  UNL     1      20.378  -3.451 -10.353  1.00  0.00    -0.392 OA
ATOM     25  H2  UNL     1      19.728  -2.866  -9.982  1.00  0.00     0.210 HD
ENDBRANCH  11  24
BRANCH  17  26
HETATM   26  N1  UNL     1      22.425  -7.529 -14.602  1.00  0.00    -0.066 N 
ATOM     27  H13 UNL     1      22.216  -6.845 -15.329  1.00  0.00     0.275 HD
ATOM     28  H12 UNL     1      23.416  -7.336 -14.453  1.00  0.00     0.275 HD
ATOM     29  H11 UNL     1      22.303  -8.474 -14.965  1.00  0.00     0.275 HD
ENDBRANCH  17  26
ENDBRANCH   5   6
ENDBRANCH   4   5
ENDBRANCH   1   4
BRANCH   1  30
HETATM   30  N4  UNL     1      15.463  -8.431 -13.178  1.00  0.00    -0.231 N 
HETATM   31  C8  UNL     1      15.118  -7.484 -12.175  1.00  0.00     0.233 C 
HETATM   32  O6  UNL     1      15.596  -6.328 -12.222  1.00  0.00    -0.273 OA
ATOM     33  H4  UNL     1      15.076  -9.374 -13.154  1.00  0.00     0.183 HD
BRANCH  31  34
HETATM   34  C9  UNL     1      14.197  -7.864 -11.077  1.00  0.00     0.113 C 
BRANCH  34  35
HETATM   35  C10 UNL     1      14.468  -6.996  -9.888  1.00  0.00     0.120 C 
BRANCH  35  36
HETATM   36  C11 UNL     1      15.728  -7.353  -9.210  1.00  0.00     0.259 C 
HETATM   37  O7  UNL     1      16.574  -6.452  -8.988  1.00  0.00    -0.265 OA
BRANCH  36  38
HETATM   38  O8  UNL     1      16.007  -8.628  -8.814  1.00  0.00    -0.315 OA
BRANCH  38  39
HETATM   39  C12 UNL     1      17.079  -9.427  -9.197  1.00  0.00     0.237 C 
BRANCH  39  40
HETATM   40  C13 UNL     1      16.958 -10.834  -8.809  1.00  0.00     0.051 A 
HETATM   41  C14 UNL     1      17.755 -11.819  -9.362  1.00  0.00     0.116 A 
HETATM   42  N5  UNL     1      17.560 -13.077  -8.934  1.00  0.00    -0.356 N 
HETATM   43  C15 UNL     1      16.636 -13.398  -8.011  1.00  0.00     0.145 A 
ATOM     44  H5  UNL     1      18.137 -13.820  -9.327  1.00  0.00     0.165 HD
HETATM   45  C16 UNL     1      16.424 -14.685  -7.568  1.00  0.00     0.280 A 
HETATM   46  C18 UNL     1      15.845 -12.403  -7.467  1.00  0.00     0.142 A 
HETATM   47  O9  UNL     1      17.147 -15.593  -8.063  1.00  0.00    -0.265 OA
HETATM   48  N6  UNL     1      15.476 -14.949  -6.636  1.00  0.00    -0.273 N 
HETATM   49  C17 UNL     1      14.711 -13.981  -6.111  1.00  0.00     0.328 A 
ATOM     50  H6  UNL     1      15.341 -15.911  -6.325  1.00  0.00     0.173 HD
HETATM   51  O10 UNL     1      13.835 -14.238  -5.248  1.00  0.00    -0.247 OA
HETATM   52  N7  UNL     1      14.904 -12.719  -6.533  1.00  0.00    -0.292 N 
ATOM     53  H7  UNL     1      14.328 -11.974  -6.140  1.00  0.00     0.172 HD
HETATM   54  N8  UNL     1      16.020 -11.138  -7.876  1.00  0.00    -0.341 N 
ATOM     55  H8  UNL     1      15.442 -10.396  -7.481  1.00  0.00     0.167 HD
ENDBRANCH  39  40
ENDBRANCH  38  39
ENDBRANCH  36  38
ENDBRANCH  35  36
ENDBRANCH  34  35
ENDBRANCH  31  34
ENDBRANCH   1  30
TORSDOF 12
ENDMDL
MODEL 2
REMARK VINA RESULT: -9.966964026      2.538      4.538
REMARK  12 active torsions:
REMARK  status: ('A' for Active; 'I' for Inactive)
REMARK    1  A    between atoms: N1_1  and  C1_5 
REMARK    2  A    between atoms: C4_11  and  O2_12 
REMARK    3  A    between atoms: C6_18  and  C7_19 
REMARK    4  A    between atoms: C7_19  and  O3_20 
REMARK    5  A    between atoms: O3_20  and  S1_21 
REMARK    6  A    between atoms: S1_21  and  N4_24 
REMARK       I    between atoms: N4_24  and  C8_26 
REMARK    7  A    between atoms: C8_26  and  C9_28 
REMARK    8  A    between atoms: C9_28  and  C10_29 
REMARK    9  A    between atoms: C10_29  and  C11_30 
REMARK   10  A    between atoms: C11_30  and  O8_32 
REMARK   11  A    between atoms: O8_32  and  C12_33 
REMARK   12  A    between atoms: C12_33  and  C13_34 
ROOT
HETATM    1  S1  UNL     1      17.502  -4.283 -16.486  1.00  0.00     0.364 S 
HETATM    2  O4  UNL     1      17.521  -4.294 -17.992  1.00  0.00    -0.175 OA
HETATM    3  O5  UNL     1      16.333  -3.441 -15.984  1.00  0.00    -0.175 OA
ENDROOT
BRANCH   1   4
HETATM    4  O3  UNL     1      18.944  -3.709 -15.928  1.00  0.00    -0.257 OA
BRANCH   4   5
HETATM    5  C7  UNL     1      19.014  -3.512 -14.572  1.00  0.00     0.225 C 
BRANCH   5   6
HETATM    6  C6  UNL     1      20.310  -4.133 -14.011  1.00  0.00     0.219 C 
HETATM    7  N3  UNL     1      20.773  -5.042 -15.012  1.00  0.00    -0.066 N 
HETATM    8  C5  UNL     1      22.174  -4.840 -15.208  1.00  0.00     0.266 C 
ATOM      9  H32 UNL     1      20.244  -4.968 -15.881  1.00  0.00     0.277 HD
ATOM     10  H31 UNL     1      20.547  -6.012 -14.791  1.00  0.00     0.277 HD
HETATM   11  C4  UNL     1      23.058  -5.799 -14.479  1.00  0.00     0.168 C 
HETATM   12  C3  UNL     1      22.906  -5.794 -12.992  1.00  0.00     0.137 C 
HETATM   13  N2  UNL     1      23.062  -4.461 -12.519  1.00  0.00    -0.350 N 
HETATM   14  C21 UNL     1      21.805  -6.558 -12.397  1.00  0.00     0.143 C 
HETATM   15  C2  UNL     1      22.224  -3.696 -11.679  1.00  0.00     0.249 C 
ATOM     16  H2  UNL     1      23.908  -3.986 -12.836  1.00  0.00     0.163 HD
HETATM   17  C1  UNL     1      20.769  -3.691 -11.622  1.00  0.00     0.282 C 
HETATM   18  O1  UNL     1      22.770  -2.904 -10.858  1.00  0.00    -0.271 OA
HETATM   19  C19 UNL     1      20.131  -4.639 -12.651  1.00  0.00     0.080 C 
HETATM   20  C20 UNL     1      20.467  -6.008 -12.276  1.00  0.00     0.128 C 
HETATM   21  N9  UNL     1      19.616  -7.052 -12.886  1.00  0.00    -0.123 NA
HETATM   22  N10 UNL     1      20.298  -8.246 -12.658  1.00  0.00    -0.039 NA
HETATM   23  N11 UNL     1      21.608  -7.862 -12.993  1.00  0.00    -0.121 NA
BRANCH  11  24
HETATM   24  O2  UNL     1      24.380  -5.330 -14.718  1.00  0.00    -0.392 OA
ATOM     25  H2  UNL     1      24.715  -5.879 -15.417  1.00  0.00     0.210 HD
ENDBRANCH  11  24
BRANCH  17  26
HETATM   26  N1  UNL     1      20.204  -3.893 -10.317  1.00  0.00    -0.066 N 
ATOM     27  H13 UNL     1      20.947  -4.002  -9.627  1.00  0.00     0.275 HD
ATOM     28  H12 UNL     1      19.775  -3.030  -9.983  1.00  0.00     0.275 HD
ATOM     29  H11 UNL     1      19.542  -4.665 -10.243  1.00  0.00     0.275 HD
ENDBRANCH  17  26
ENDBRANCH   5   6
ENDBRANCH   4   5
ENDBRANCH   1   4
BRANCH   1  30
HETATM   30  N4  UNL     1      17.215  -5.877 -15.927  1.00  0.00    -0.231 N 
HETATM   31  C8  UNL     1      16.001  -6.526 -16.284  1.00  0.00     0.233 C 
HETATM   32  O6  UNL     1      15.167  -5.931 -17.002  1.00  0.00    -0.273 OA
ATOM     33  H4  UNL     1      17.905  -6.353 -15.348  1.00  0.00     0.183 HD
BRANCH  31  34
HETATM   34  C9  UNL     1      15.724  -7.903 -15.806  1.00  0.00     0.113 C 
BRANCH  34  35
HETATM   35  C10 UNL     1      16.482  -8.142 -14.538  1.00  0.00     0.120 C 
BRANCH  35  36
HETATM   36  C11 UNL     1      15.825  -7.528 -13.369  1.00  0.00     0.259 C 
HETATM   37  O7  UNL     1      14.830  -8.101 -12.861  1.00  0.00    -0.265 OA
BRANCH  36  38
HETATM   38  O8  UNL     1      16.262  -6.358 -12.819  1.00  0.00    -0.315 OA
BRANCH  38  39
HETATM   39  C12 UNL     1      16.678  -6.131 -11.512  1.00  0.00     0.237 C 
BRANCH  39  40
HETATM   40  C13 UNL     1      16.722  -7.330 -10.670  1.00  0.00     0.051 A 
HETATM   41  C14 UNL     1      15.973  -7.442  -9.514  1.00  0.00     0.116 A 
HETATM   42  N5  UNL     1      16.090  -8.584  -8.818  1.00  0.00    -0.356 N 
HETATM   43  C15 UNL     1      16.892  -9.594  -9.201  1.00  0.00     0.145 A 
ATOM     44  H5  UNL     1      15.547  -8.691  -7.961  1.00  0.00     0.165 HD
HETATM   45  C16 UNL     1      17.023 -10.768  -8.493  1.00  0.00     0.280 A 
HETATM   46  C18 UNL     1      17.636  -9.467 -10.360  1.00  0.00     0.142 A 
HETATM   47  O9  UNL     1      16.343 -10.884  -7.436  1.00  0.00    -0.265 OA
HETATM   48  N6  UNL     1      17.849 -11.750  -8.927  1.00  0.00    -0.273 N 
HETATM   49  C17 UNL     1      18.569 -11.623 -10.052  1.00  0.00     0.328 A 
ATOM     50  H6  UNL     1      17.926 -12.610  -8.384  1.00  0.00     0.173 HD
HETATM   51  O10 UNL     1      19.332 -12.540 -10.444  1.00  0.00    -0.247 OA
HETATM   52  N7  UNL     1      18.454 -10.483 -10.755  1.00  0.00    -0.292 N 
ATOM     53  H7  UNL     1      18.996 -10.375 -11.612  1.00  0.00     0.172 HD
HETATM   54  N8  UNL     1      17.538  -8.337 -11.074  1.00  0.00    -0.341 N 
ATOM     55  H8  UNL     1      18.081  -8.234 -11.931  1.00  0.00     0.167 HD
ENDBRANCH  39  40
ENDBRANCH  38  39
ENDBRANCH  36  38
ENDBRANCH  35  36
ENDBRANCH  34  35
ENDBRANCH  31  34
ENDBRANCH   1  30
TORSDOF 12
ENDMDL
MODEL 3
REMARK VINA RESULT: -9.923657079      3.065      4.891
REMARK  12 active torsions:
REMARK  status: ('A' for Active; 'I' for Inactive)
REMARK    1  A    between atoms: N1_1  and  C1_5 
REMARK    2  A    between atoms: C4_11  and  O2_12 
REMARK    3  A    between atoms: C6_18  and  C7_19 
REMARK    4  A    between atoms: C7_19  and  O3_20 
REMARK    5  A    between atoms: O3_20  and  S1_21 
REMARK    6  A    between atoms: S1_21  and  N4_24 
REMARK       I    between atoms: N4_24  and  C8_26 
REMARK    7  A    between atoms: C8_26  and  C9_28 
REMARK    8  A    between atoms: C9_28  and  C10_29 
REMARK    9  A    between atoms: C10_29  and  C11_30 
REMARK   10  A    between atoms: C11_30  and  O8_32 
REMARK   11  A    between atoms: O8_32  and  C12_33 
REMARK   12  A    between atoms: C12_33  and  C13_34 
ROOT
HETATM    1  S1  UNL     1      17.443  -4.232 -16.532  1.00  0.00     0.364 S 
HETATM    2  O4  UNL     1      17.722  -4.262 -18.011  1.00  0.00    -0.175 OA
HETATM    3  O5  UNL     1      16.155  -3.461 -16.259  1.00  0.00    -0.175 OA
ENDROOT
BRANCH   1   4
HETATM    4  O3  UNL     1      18.728  -3.556 -15.749  1.00  0.00    -0.257 OA
BRANCH   4   5
HETATM    5  C7  UNL     1      18.849  -3.884 -14.423  1.00  0.00     0.225 C 
BRANCH   5   6
HETATM    6  C6  UNL     1      20.337  -4.053 -14.051  1.00  0.00     0.219 C 
HETATM    7  N3  UNL     1      20.927  -4.792 -15.123  1.00  0.00    -0.066 N 
HETATM    8  C5  UNL     1      22.154  -4.163 -15.498  1.00  0.00     0.266 C 
ATOM      9  H32 UNL     1      20.292  -4.908 -15.913  1.00  0.00     0.277 HD
ATOM     10  H31 UNL     1      21.050  -5.779 -14.894  1.00  0.00     0.277 HD
HETATM   11  C4  UNL     1      23.383  -4.779 -14.911  1.00  0.00     0.168 C 
HETATM   12  C3  UNL     1      23.434  -4.789 -13.418  1.00  0.00     0.137 C 
HETATM   13  N2  UNL     1      23.223  -3.465 -12.942  1.00  0.00    -0.350 N 
HETATM   14  C21 UNL     1      22.719  -5.848 -12.699  1.00  0.00     0.143 C 
HETATM   15  C2  UNL     1      22.305  -2.984 -11.983  1.00  0.00     0.249 C 
ATOM     16  H2  UNL     1      23.827  -2.754 -13.357  1.00  0.00     0.163 HD
HETATM   17  C1  UNL     1      20.943  -3.436 -11.734  1.00  0.00     0.282 C 
HETATM   18  O1  UNL     1      22.677  -2.042 -11.225  1.00  0.00    -0.271 OA
HETATM   19  C19 UNL     1      20.507  -4.560 -12.690  1.00  0.00     0.080 C 
HETATM   20  C20 UNL     1      21.304  -5.745 -12.391  1.00  0.00     0.128 C 
HETATM   21  N9  UNL     1      20.753  -7.016 -12.905  1.00  0.00    -0.123 NA
HETATM   22  N10 UNL     1      21.800  -7.930 -12.793  1.00  0.00    -0.039 NA
HETATM   23  N11 UNL     1      22.866  -7.160 -13.290  1.00  0.00    -0.121 NA
BRANCH  11  24
HETATM   24  O2  UNL     1      24.447  -3.921 -15.313  1.00  0.00    -0.392 OA
ATOM     25  H2  UNL     1      24.338  -3.816 -16.251  1.00  0.00     0.210 HD
ENDBRANCH  11  24
BRANCH  17  26
HETATM   26  N1  UNL     1      20.648  -3.777 -10.371  1.00  0.00    -0.066 N 
ATOM     27  H13 UNL     1      21.514  -3.888  -9.842  1.00  0.00     0.275 HD
ATOM     28  H12 UNL     1      20.245  -2.974  -9.888  1.00  0.00     0.275 HD
ATOM     29  H11 UNL     1      20.054  -4.596 -10.245  1.00  0.00     0.275 HD
ENDBRANCH  17  26
ENDBRANCH   5   6
ENDBRANCH   4   5
ENDBRANCH   1   4
BRANCH   1  30
HETATM   30  N4  UNL     1      17.164  -5.833 -15.991  1.00  0.00    -0.231 N 
HETATM   31  C8  UNL     1      15.962  -6.492 -16.371  1.00  0.00     0.233 C 
HETATM   32  O6  UNL     1      15.132  -5.899 -17.096  1.00  0.00    -0.273 OA
ATOM     33  H4  UNL     1      17.850  -6.308 -15.405  1.00  0.00     0.183 HD
BRANCH  31  34
HETATM   34  C9  UNL     1      15.692  -7.875 -15.909  1.00  0.00     0.113 C 
BRANCH  34  35
HETATM   35  C10 UNL     1      16.574  -8.181 -14.739  1.00  0.00     0.120 C 
BRANCH  35  36
HETATM   36  C11 UNL     1      16.093  -7.551 -13.495  1.00  0.00     0.259 C 
HETATM   37  O7  UNL     1      14.963  -7.872 -13.051  1.00  0.00    -0.265 OA
BRANCH  36  38
HETATM   38  O8  UNL     1      16.832  -6.633 -12.809  1.00  0.00    -0.315 OA
BRANCH  38  39
HETATM   39  C12 UNL     1      17.311  -6.721 -11.507  1.00  0.00     0.237 C 
BRANCH  39  40
HETATM   40  C13 UNL     1      17.640  -8.081 -11.071  1.00  0.00     0.051 A 
HETATM   41  C14 UNL     1      16.879  -8.755 -10.135  1.00  0.00     0.116 A 
HETATM   42  N5  UNL     1      17.271  -9.997  -9.807  1.00  0.00    -0.356 N 
HETATM   43  C15 UNL     1      18.353 -10.586 -10.345  1.00  0.00     0.145 A 
ATOM     44  H5  UNL     1      16.725 -10.515  -9.119  1.00  0.00     0.165 HD
HETATM   45  C16 UNL     1      18.768 -11.858 -10.014  1.00  0.00     0.280 A 
HETATM   46  C18 UNL     1      19.106  -9.899 -11.280  1.00  0.00     0.142 A 
HETATM   47  O9  UNL     1      18.080 -12.485  -9.162  1.00  0.00    -0.265 OA
HETATM   48  N6  UNL     1      19.869 -12.399 -10.588  1.00  0.00    -0.273 N 
HETATM   49  C17 UNL     1      20.595 -11.729 -11.494  1.00  0.00     0.328 A 
ATOM     50  H6  UNL     1      20.152 -13.343 -10.325  1.00  0.00     0.173 HD
HETATM   51  O10 UNL     1      21.615 -12.242 -12.020  1.00  0.00    -0.247 OA
HETATM   52  N7  UNL     1      20.206 -10.487 -11.830  1.00  0.00    -0.292 N 
ATOM     53  H7  UNL     1      20.751  -9.968 -12.518  1.00  0.00     0.172 HD
HETATM   54  N8  UNL     1      18.736  -8.659 -11.626  1.00  0.00    -0.341 N 
ATOM     55  H8  UNL     1      19.284  -8.143 -12.315  1.00  0.00     0.167 HD
ENDBRANCH  39  40
ENDBRANCH  38  39
ENDBRANCH  36  38
ENDBRANCH  35  36
ENDBRANCH  34  35
ENDBRANCH  31  34
ENDBRANCH   1  30
TORSDOF 12
ENDMDL
MODEL 4
REMARK VINA RESULT: -9.872667250      2.078      3.207
REMARK  12 active torsions:
REMARK  status: ('A' for Active; 'I' for Inactive)
REMARK    1  A    between atoms: N1_1  and  C1_5 
REMARK    2  A    between atoms: C4_11  and  O2_12 
REMARK    3  A    between atoms: C6_18  and  C7_19 
REMARK    4  A    between atoms: C7_19  and  O3_20 
REMARK    5  A    between atoms: O3_20  and  S1_21 
REMARK    6  A    between atoms: S1_21  and  N4_24 
REMARK       I    between atoms: N4_24  and  C8_26 
REMARK    7  A    between atoms: C8_26  and  C9_28 
REMARK    8  A    between atoms: C9_28  and  C10_29 
REMARK    9  A    between atoms: C10_29  and  C11_30 
REMARK   10  A    between atoms: C11_30  and  O8_32 
REMARK   11  A    between atoms: O8_32  and  C12_33 
REMARK   12  A    between atoms: C12_33  and  C13_34 
ROOT
HETATM    1  S1  UNL     1      15.196  -7.285 -11.297  1.00  0.00     0.364 S 
HETATM    2  O4  UNL     1      14.495  -8.101 -12.351  1.00  0.00    -0.175 OA
HETATM    3  O5  UNL     1      14.172  -6.565 -10.426  1.00  0.00    -0.175 OA
ENDROOT
BRANCH   1   4
HETATM    4  O3  UNL     1      16.224  -6.221 -12.026  1.00  0.00    -0.257 OA
BRANCH   4   5
HETATM    5  C7  UNL     1      17.239  -5.747 -11.235  1.00  0.00     0.225 C 
BRANCH   5   6
HETATM    6  C6  UNL     1      18.498  -5.484 -12.088  1.00  0.00     0.219 C 
HETATM    7  N3  UNL     1      18.483  -4.087 -12.389  1.00  0.00    -0.066 N 
HETATM    8  C5  UNL     1      19.785  -3.549 -12.154  1.00  0.00     0.266 C 
ATOM      9  H32 UNL     1      17.756  -3.587 -11.877  1.00  0.00     0.277 HD
ATOM     10  H31 UNL     1      18.148  -3.897 -13.333  1.00  0.00     0.277 HD
HETATM   11  C4  UNL     1      20.639  -3.407 -13.372  1.00  0.00     0.168 C 
HETATM   12  C3  UNL     1      20.911  -4.681 -14.104  1.00  0.00     0.137 C 
HETATM   13  N2  UNL     1      21.443  -5.632 -13.189  1.00  0.00    -0.350 N 
HETATM   14  C21 UNL     1      19.896  -5.186 -15.034  1.00  0.00     0.143 C 
HETATM   15  C2  UNL     1      21.034  -6.957 -12.923  1.00  0.00     0.249 C 
ATOM     16  H2  UNL     1      22.241  -5.307 -12.643  1.00  0.00     0.163 HD
HETATM   17  C1  UNL     1      19.681  -7.496 -12.908  1.00  0.00     0.282 C 
HETATM   18  O1  UNL     1      21.928  -7.813 -12.661  1.00  0.00    -0.271 OA
HETATM   19  C19 UNL     1      18.613  -6.427 -13.200  1.00  0.00     0.080 C 
HETATM   20  C20 UNL     1      18.775  -5.990 -14.582  1.00  0.00     0.128 C 
HETATM   21  N9  UNL     1      17.606  -5.294 -15.159  1.00  0.00    -0.123 NA
HETATM   22  N10 UNL     1      18.085  -4.700 -16.326  1.00  0.00    -0.039 NA
HETATM   23  N11 UNL     1      19.297  -4.161 -15.862  1.00  0.00    -0.121 NA
BRANCH  11  24
HETATM   24  O2  UNL     1      21.906  -2.983 -12.881  1.00  0.00    -0.392 OA
ATOM     25  H2  UNL     1      21.853  -3.085 -11.938  1.00  0.00     0.210 HD
ENDBRANCH  11  24
BRANCH  17  26
HETATM   26  N1  UNL     1      19.475  -8.663 -13.719  1.00  0.00    -0.066 N 
ATOM     27  H13 UNL     1      20.262  -8.790 -14.357  1.00  0.00     0.275 HD
ATOM     28  H12 UNL     1      19.567  -9.505 -13.151  1.00  0.00     0.275 HD
ATOM     29  H11 UNL     1      18.598  -8.685 -14.238  1.00  0.00     0.275 HD
ENDBRANCH  17  26
ENDBRANCH   5   6
ENDBRANCH   4   5
ENDBRANCH   1   4
BRANCH   1  30
HETATM   30  N4  UNL     1      16.045  -8.346 -10.254  1.00  0.00    -0.231 N 
HETATM   31  C8  UNL     1      16.941  -9.298 -10.815  1.00  0.00     0.233 C 
HETATM   32  O6  UNL     1      17.101  -9.343 -12.055  1.00  0.00    -0.273 OA
ATOM     33  H4  UNL     1      15.910  -8.296  -9.244  1.00  0.00     0.183 HD
BRANCH  31  34
HETATM   34  C9  UNL     1      17.682 -10.234  -9.935  1.00  0.00     0.113 C 
BRANCH  34  35
HETATM   35  C10 UNL     1      19.031 -10.497 -10.526  1.00  0.00     0.120 C 
BRANCH  35  36
HETATM   36  C11 UNL     1      19.187 -11.895 -10.967  1.00  0.00     0.259 C 
HETATM   37  O7  UNL     1      19.853 -12.134 -12.005  1.00  0.00    -0.265 OA
BRANCH  36  38
HETATM   38  O8  UNL     1      18.632 -12.940 -10.288  1.00  0.00    -0.315 OA
BRANCH  38  39
HETATM   39  C12 UNL     1      19.190 -13.676  -9.249  1.00  0.00     0.237 C 
BRANCH  39  40
HETATM   40  C13 UNL     1      18.307 -13.865  -8.095  1.00  0.00     0.051 A 
HETATM   41  C14 UNL     1      18.688 -14.607  -6.993  1.00  0.00     0.116 A 
HETATM   42  N5  UNL     1      17.800 -14.717  -5.992  1.00  0.00    -0.356 N 
HETATM   43  C15 UNL     1      16.584 -14.142  -6.029  1.00  0.00     0.145 A 
ATOM     44  H5  UNL     1      18.059 -15.259  -5.168  1.00  0.00     0.165 HD
HETATM   45  C16 UNL     1      15.664 -14.250  -5.009  1.00  0.00     0.280 A 
HETATM   46  C18 UNL     1      16.216 -13.402  -7.138  1.00  0.00     0.142 A 
HETATM   47  O9  UNL     1      16.000 -14.924  -3.996  1.00  0.00    -0.265 OA
HETATM   48  N6  UNL     1      14.453 -13.650  -5.103  1.00  0.00    -0.273 N 
HETATM   49  C17 UNL     1      14.100 -12.934  -6.181  1.00  0.00     0.328 A 
ATOM     50  H6  UNL     1      13.791 -13.745  -4.334  1.00  0.00     0.173 HD
HETATM   51  O10 UNL     1      12.974 -12.382  -6.257  1.00  0.00    -0.247 OA
HETATM   52  N7  UNL     1      14.986 -12.818  -7.185  1.00  0.00    -0.292 N 
ATOM     53  H7  UNL     1      14.729 -12.275  -8.010  1.00  0.00     0.172 HD
HETATM   54  N8  UNL     1      17.084 -13.277  -8.151  1.00  0.00    -0.341 N 
ATOM     55  H8  UNL     1      16.823 -12.733  -8.974  1.00  0.00     0.167 HD
ENDBRANCH  39  40
ENDBRANCH  38  39
ENDBRANCH  36  38
ENDBRANCH  35  36
ENDBRANCH  34  35
ENDBRANCH  31  34
ENDBRANCH   1  30
TORSDOF 12
ENDMDL
MODEL 5
REMARK VINA RESULT: -9.741203241      5.240      8.225
REMARK  12 active torsions:
REMARK  status: ('A' for Active; 'I' for Inactive)
REMARK    1  A    between atoms: N1_1  and  C1_5 
REMARK    2  A    between atoms: C4_11  and  O2_12 
REMARK    3  A    between atoms: C6_18  and  C7_19 
REMARK    4  A    between atoms: C7_19  and  O3_20 
REMARK    5  A    between atoms: O3_20  and  S1_21 
REMARK    6  A    between atoms: S1_21  and  N4_24 
REMARK       I    between atoms: N4_24  and  C8_26 
REMARK    7  A    between atoms: C8_26  and  C9_28 
REMARK    8  A    between atoms: C9_28  and  C10_29 
REMARK    9  A    between atoms: C10_29  and  C11_30 
REMARK   10  A    between atoms: C11_30  and  O8_32 
REMARK   11  A    between atoms: O8_32  and  C12_33 
REMARK   12  A    between atoms: C12_33  and  C13_34 
ROOT
HETATM    1  S1  UNL     1      20.913  -4.892 -13.846  1.00  0.00     0.364 S 
HETATM    2  O4  UNL     1      22.019  -5.909 -13.752  1.00  0.00    -0.175 OA
HETATM    3  O5  UNL     1      20.171  -5.049 -15.170  1.00  0.00    -0.175 OA
ENDROOT
BRANCH   1   4
HETATM    4  O3  UNL     1      21.549  -3.378 -13.687  1.00  0.00    -0.257 OA
BRANCH   4   5
HETATM    5  C7  UNL     1      22.835  -3.328 -13.213  1.00  0.00     0.225 C 
BRANCH   5   6
HETATM    6  C6  UNL     1      22.858  -2.688 -11.809  1.00  0.00     0.219 C 
HETATM    7  N3  UNL     1      21.612  -2.003 -11.670  1.00  0.00    -0.066 N 
HETATM    8  C5  UNL     1      21.052  -2.315 -10.393  1.00  0.00     0.266 C 
ATOM      9  H32 UNL     1      20.969  -2.204 -12.436  1.00  0.00     0.277 HD
ATOM     10  H31 UNL     1      21.701  -0.998 -11.820  1.00  0.00     0.277 HD
HETATM   11  C4  UNL     1      21.291  -1.291  -9.332  1.00  0.00     0.168 C 
HETATM   12  C3  UNL     1      22.729  -1.018  -9.029  1.00  0.00     0.137 C 
HETATM   13  N2  UNL     1      23.378  -2.249  -8.736  1.00  0.00    -0.350 N 
HETATM   14  C21 UNL     1      23.466  -0.098  -9.901  1.00  0.00     0.143 C 
HETATM   15  C2  UNL     1      24.559  -2.801  -9.281  1.00  0.00     0.249 C 
ATOM     16  H2  UNL     1      22.922  -2.820  -8.024  1.00  0.00     0.163 HD
HETATM   17  C1  UNL     1      25.044  -2.714 -10.651  1.00  0.00     0.282 C 
HETATM   18  O1  UNL     1      25.316  -3.460  -8.511  1.00  0.00    -0.271 OA
HETATM   19  C19 UNL     1      24.089  -1.934 -11.571  1.00  0.00     0.080 C 
HETATM   20  C20 UNL     1      24.081  -0.541 -11.139  1.00  0.00     0.128 C 
HETATM   21  N9  UNL     1      23.563   0.420 -12.136  1.00  0.00    -0.123 NA
HETATM   22  N10 UNL     1      23.348   1.596 -11.419  1.00  0.00    -0.039 NA
HETATM   23  N11 UNL     1      22.720   1.086 -10.270  1.00  0.00    -0.121 NA
BRANCH  11  24
HETATM   24  O2  UNL     1      20.765  -1.869  -8.142  1.00  0.00    -0.392 OA
ATOM     25  H2  UNL     1      20.934  -2.800  -8.225  1.00  0.00     0.210 HD
ENDBRANCH  11  24
BRANCH  17  26
HETATM   26  N1  UNL     1      26.394  -2.247 -10.797  1.00  0.00    -0.066 N 
ATOM     27  H13 UNL     1      26.497  -1.331 -10.362  1.00  0.00     0.275 HD
ATOM     28  H12 UNL     1      27.020  -2.797 -10.208  1.00  0.00     0.275 HD
ATOM     29  H11 UNL     1      26.746  -2.222 -11.753  1.00  0.00     0.275 HD
ENDBRANCH  17  26
ENDBRANCH   5   6
ENDBRANCH   4   5
ENDBRANCH   1   4
BRANCH   1  30
HETATM   30  N4  UNL     1      19.765  -5.211 -12.616  1.00  0.00    -0.231 N 
HETATM   31  C8  UNL     1      18.554  -4.466 -12.590  1.00  0.00     0.233 C 
HETATM   32  O6  UNL     1      18.341  -3.597 -13.466  1.00  0.00    -0.273 OA
ATOM     33  H4  UNL     1      19.947  -5.925 -11.911  1.00  0.00     0.183 HD
BRANCH  31  34
HETATM   34  C9  UNL     1      17.547  -4.715 -11.531  1.00  0.00     0.113 C 
BRANCH  34  35
HETATM   35  C10 UNL     1      17.573  -6.166 -11.163  1.00  0.00     0.120 C 
BRANCH  35  36
HETATM   36  C11 UNL     1      16.677  -6.975 -12.009  1.00  0.00     0.259 C 
HETATM   37  O7  UNL     1      15.459  -6.673 -12.064  1.00  0.00    -0.265 OA
BRANCH  36  38
HETATM   38  O8  UNL     1      17.123  -8.040 -12.735  1.00  0.00    -0.315 OA
BRANCH  38  39
HETATM   39  C12 UNL     1      17.750  -8.026 -13.976  1.00  0.00     0.237 C 
BRANCH  39  40
HETATM   40  C13 UNL     1      17.029  -7.287 -15.014  1.00  0.00     0.051 A 
HETATM   41  C14 UNL     1      15.947  -7.828 -15.684  1.00  0.00     0.116 A 
HETATM   42  N5  UNL     1      15.361  -7.063 -16.618  1.00  0.00    -0.356 N 
HETATM   43  C15 UNL     1      15.783  -5.821 -16.915  1.00  0.00     0.145 A 
ATOM     44  H5  UNL     1      14.560  -7.440 -17.125  1.00  0.00     0.165 HD
HETATM   45  C16 UNL     1      15.191  -5.028 -17.874  1.00  0.00     0.280 A 
HETATM   46  C18 UNL     1      16.867  -5.292 -16.238  1.00  0.00     0.142 A 
HETATM   47  O9  UNL     1      14.201  -5.510 -18.491  1.00  0.00    -0.265 OA
HETATM   48  N6  UNL     1      15.663  -3.784 -18.132  1.00  0.00    -0.273 N 
HETATM   49  C17 UNL     1      16.714  -3.276 -17.472  1.00  0.00     0.328 A 
ATOM     50  H6  UNL     1      15.205  -3.218 -18.846  1.00  0.00     0.173 HD
HETATM   51  O10 UNL     1      17.142  -2.121 -17.720  1.00  0.00    -0.247 OA
HETATM   52  N7  UNL     1      17.304  -4.035 -16.533  1.00  0.00    -0.292 N 
ATOM     53  H7  UNL     1      18.105  -3.659 -16.025  1.00  0.00     0.172 HD
HETATM   54  N8  UNL     1      17.471  -6.035 -15.300  1.00  0.00    -0.341 N 
ATOM     55  H8  UNL     1      18.271  -5.655 -14.794  1.00  0.00     0.167 HD
ENDBRANCH  39  40
ENDBRANCH  38  39
ENDBRANCH  36  38
ENDBRANCH  35  36
ENDBRANCH  34  35
ENDBRANCH  31  34
ENDBRANCH   1  30
TORSDOF 12
ENDMDL
