MODEL 1
REMARK VINA RESULT: -8.617274740      0.000      0.000
REMARK  6 active torsions:
REMARK  status: ('A' for Active; 'I' for Inactive)
REMARK    1  A    between atoms: C2_2  and  C3_3 
REMARK    2  A    between atoms: C4_4  and  N1_5 
REMARK    3  A    between atoms: C7_8  and  C8_9 
REMARK    4  A    between atoms: C9_12  and  C10_13 
REMARK    5  A    between atoms: C11_15  and  C12_16 
REMARK    6  A    between atoms: C25_37  and  N7_38 
ROOT
HETATM    1  C12 UNL     1      38.496  -3.763 -44.428  1.00  0.00     0.071 A 
HETATM    2  C13 UNL     1      37.585  -4.345 -45.326  1.00  0.00     0.133 A 
HETATM    3  F2  UNL     1      36.632  -5.139 -44.799  1.00  0.00    -0.205 F 
HETATM    4  C14 UNL     1      37.637  -4.081 -46.673  1.00  0.00     0.066 A 
HETATM    5  C15 UNL     1      38.586  -3.234 -47.206  1.00  0.00     0.056 A 
HETATM    6  C16 UNL     1      38.644  -2.953 -48.614  1.00  0.00     0.100 C 
HETATM    7  N3  UNL     1      38.685  -2.708 -49.743  1.00  0.00    -0.191 NA
HETATM    8  C17 UNL     1      39.492  -2.648 -46.363  1.00  0.00    -0.002 A 
HETATM    9  C18 UNL     1      40.524  -1.730 -46.890  1.00  0.00     0.053 C 
HETATM   10  C19 UNL     1      39.420  -2.931 -45.003  1.00  0.00     0.139 A 
HETATM   11  F3  UNL     1      40.404  -2.375 -44.269  1.00  0.00    -0.204 F 
ENDROOT
BRANCH   1  12
HETATM   12  C11 UNL     1      38.484  -4.156 -43.037  1.00  0.00     0.077 A 
HETATM   13  C9  UNL     1      38.258  -3.444 -41.898  1.00  0.00     0.067 A 
HETATM   14  N2  UNL     1      38.479  -4.289 -40.809  1.00  0.00    -0.345 N 
HETATM   15  C8  UNL     1      38.830  -5.487 -41.281  1.00  0.00     0.088 A 
ATOM     16  H2  UNL     1      38.388  -4.036 -39.826  1.00  0.00     0.167 HD
HETATM   17  N4  UNL     1      38.834  -5.407 -42.601  1.00  0.00    -0.338 N 
HETATM   18  C20 UNL     1      39.201  -6.490 -43.485  1.00  0.00     0.158 C 
BRANCH  13  19
HETATM   19  C10 UNL     1      37.807  -2.050 -41.730  1.00  0.00     0.281 C 
HETATM   20  F1  UNL     1      36.655  -1.723 -42.320  1.00  0.00    -0.249 F 
ENDBRANCH  13  19
BRANCH  15  21
HETATM   21  C7  UNL     1      39.166  -6.716 -40.485  1.00  0.00     0.057 C 
HETATM   22  C6  UNL     1      37.934  -7.327 -39.888  1.00  0.00     0.032 C 
HETATM   23  C5  UNL     1      37.597  -6.742 -38.517  1.00  0.00     0.125 C 
HETATM   24  N1  UNL     1      38.690  -6.940 -37.620  1.00  0.00    -0.367 N 
HETATM   25  C22 UNL     1      39.963  -7.326 -38.251  1.00  0.00     0.125 C 
HETATM   26  C21 UNL     1      40.127  -6.334 -39.385  1.00  0.00     0.032 C 
BRANCH  24  27
HETATM   27  C4  UNL     1      38.617  -6.762 -36.251  1.00  0.00     0.114 A 
HETATM   28  C3  UNL     1      38.408  -5.565 -35.632  1.00  0.00     0.029 A 
HETATM   29  C25 UNL     1      38.344  -5.471 -34.228  1.00  0.00     0.110 A 
HETATM   30  N6  UNL     1      38.500  -6.636 -33.558  1.00  0.00    -0.332 N 
HETATM   31  C23 UNL     1      38.704  -7.821 -34.121  1.00  0.00     0.080 A 
ATOM     32  H6  UNL     1      38.456  -6.601 -32.540  1.00  0.00     0.168 HD
HETATM   33  N5  UNL     1      38.760  -7.871 -35.447  1.00  0.00    -0.332 N 
HETATM   34  C24 UNL     1      38.863  -9.041 -33.274  1.00  0.00     0.089 C 
ATOM     35  H5  UNL     1      38.917  -8.775 -35.892  1.00  0.00     0.168 HD
BRANCH  28  36
HETATM   36  C2  UNL     1      38.251  -4.331 -36.432  1.00  0.00     0.042 C 
HETATM   37  C1  UNL     1      39.607  -3.751 -36.726  1.00  0.00     0.010 C 
ENDBRANCH  28  36
BRANCH  29  38
HETATM   38  N7  UNL     1      38.167  -4.368 -33.612  1.00  0.00    -0.385 N 
ATOM     39  H72 UNL     1      37.737  -3.566 -34.072  1.00  0.00     0.157 HD
ATOM     40  H71 UNL     1      38.429  -4.228 -32.636  1.00  0.00     0.157 HD
ENDBRANCH  29  38
ENDBRANCH  24  27
ENDBRANCH  15  21
ENDBRANCH   1  12
TORSDOF 6
ENDMDL
MODEL 2
REMARK VINA RESULT: -8.284333321      2.316      3.174
REMARK  6 active torsions:
REMARK  status: ('A' for Active; 'I' for Inactive)
REMARK    1  A    between atoms: C2_2  and  C3_3 
REMARK    2  A    between atoms: C4_4  and  N1_5 
REMARK    3  A    between atoms: C7_8  and  C8_9 
REMARK    4  A    between atoms: C9_12  and  C10_13 
REMARK    5  A    between atoms: C11_15  and  C12_16 
REMARK    6  A    between atoms: C25_37  and  N7_38 
ROOT
HETATM    1  C12 UNL     1      38.539  -4.862 -43.358  1.00  0.00     0.071 A 
HETATM    2  C13 UNL     1      39.669  -5.354 -44.032  1.00  0.00     0.133 A 
HETATM    3  F2  UNL     1      40.248  -6.460 -43.524  1.00  0.00    -0.205 F 
HETATM    4  C14 UNL     1      40.135  -4.760 -45.180  1.00  0.00     0.066 A 
HETATM    5  C15 UNL     1      39.516  -3.654 -45.723  1.00  0.00     0.056 A 
HETATM    6  C16 UNL     1      39.998  -3.031 -46.924  1.00  0.00     0.100 C 
HETATM    7  N3  UNL     1      40.370  -2.536 -47.900  1.00  0.00    -0.191 NA
HETATM    8  C17 UNL     1      38.411  -3.145 -45.094  1.00  0.00    -0.002 A 
HETATM    9  C18 UNL     1      37.713  -1.964 -45.644  1.00  0.00     0.053 C 
HETATM   10  C19 UNL     1      37.958  -3.763 -43.933  1.00  0.00     0.139 A 
HETATM   11  F3  UNL     1      36.919  -3.139 -43.344  1.00  0.00    -0.204 F 
ENDROOT
BRANCH   1  12
HETATM   12  C11 UNL     1      38.148  -5.440 -42.091  1.00  0.00     0.077 A 
HETATM   13  C9  UNL     1      38.422  -5.076 -40.808  1.00  0.00     0.067 A 
HETATM   14  N2  UNL     1      37.888  -6.048 -39.960  1.00  0.00    -0.345 N 
HETATM   15  C8  UNL     1      37.304  -6.979 -40.716  1.00  0.00     0.088 A 
ATOM     16  H2  UNL     1      37.936  -6.047 -38.942  1.00  0.00     0.167 HD
HETATM   17  N4  UNL     1      37.459  -6.619 -41.980  1.00  0.00    -0.338 N 
HETATM   18  C20 UNL     1      36.998  -7.388 -43.112  1.00  0.00     0.158 C 
BRANCH  13  19
HETATM   19  C10 UNL     1      39.099  -3.872 -40.293  1.00  0.00     0.281 C 
HETATM   20  F1  UNL     1      38.669  -2.700 -40.763  1.00  0.00    -0.249 F 
ENDBRANCH  13  19
BRANCH  15  21
HETATM   21  C7  UNL     1      36.595  -8.219 -40.249  1.00  0.00     0.057 C 
HETATM   22  C6  UNL     1      35.641  -7.908 -39.134  1.00  0.00     0.032 C 
HETATM   23  C5  UNL     1      36.305  -7.978 -37.760  1.00  0.00     0.125 C 
HETATM   24  N1  UNL     1      36.852  -9.280 -37.548  1.00  0.00    -0.367 N 
HETATM   25  C22 UNL     1      36.965 -10.121 -38.751  1.00  0.00     0.125 C 
HETATM   26  C21 UNL     1      37.624  -9.216 -39.773  1.00  0.00     0.032 C 
BRANCH  24  27
HETATM   27  C4  UNL     1      37.291  -9.751 -36.324  1.00  0.00     0.114 A 
HETATM   28  C3  UNL     1      38.507  -9.475 -35.775  1.00  0.00     0.029 A 
HETATM   29  C25 UNL     1      38.875  -9.995 -34.519  1.00  0.00     0.110 A 
HETATM   30  N6  UNL     1      37.946 -10.770 -33.913  1.00  0.00    -0.332 N 
HETATM   31  C23 UNL     1      36.751 -11.063 -34.412  1.00  0.00     0.080 A 
ATOM     32  H6  UNL     1      38.182 -11.159 -33.001  1.00  0.00     0.168 HD
HETATM   33  N5  UNL     1      36.439 -10.556 -35.600  1.00  0.00    -0.332 N 
HETATM   34  C24 UNL     1      35.808 -11.932 -33.649  1.00  0.00     0.089 C 
ATOM     35  H5  UNL     1      35.525 -10.773 -35.995  1.00  0.00     0.168 HD
BRANCH  28  36
HETATM   36  C2  UNL     1      39.475  -8.622 -36.499  1.00  0.00     0.042 C 
HETATM   37  C1  UNL     1      39.363  -7.207 -36.003  1.00  0.00     0.010 C 
ENDBRANCH  28  36
BRANCH  29  38
HETATM   38  N7  UNL     1      40.010  -9.773 -33.979  1.00  0.00    -0.385 N 
ATOM     39  H72 UNL     1      40.687  -9.141 -34.406  1.00  0.00     0.157 HD
ATOM     40  H71 UNL     1      40.299 -10.197 -33.097  1.00  0.00     0.157 HD
ENDBRANCH  29  38
ENDBRANCH  24  27
ENDBRANCH  15  21
ENDBRANCH   1  12
TORSDOF 6
ENDMDL
MODEL 3
REMARK VINA RESULT: -8.194612131      4.818      6.520
REMARK  6 active torsions:
REMARK  status: ('A' for Active; 'I' for Inactive)
REMARK    1  A    between atoms: C2_2  and  C3_3 
REMARK    2  A    between atoms: C4_4  and  N1_5 
REMARK    3  A    between atoms: C7_8  and  C8_9 
REMARK    4  A    between atoms: C9_12  and  C10_13 
REMARK    5  A    between atoms: C11_15  and  C12_16 
REMARK    6  A    between atoms: C25_37  and  N7_38 
ROOT
HETATM    1  C12 UNL     1      39.066  -2.116 -37.959  1.00  0.00     0.071 A 
HETATM    2  C13 UNL     1      40.251  -1.495 -38.389  1.00  0.00     0.133 A 
HETATM    3  F2  UNL     1      41.382  -2.228 -38.325  1.00  0.00    -0.205 F 
HETATM    4  C14 UNL     1      40.251  -0.218 -38.893  1.00  0.00     0.066 A 
HETATM    5  C15 UNL     1      39.087   0.515 -39.000  1.00  0.00     0.056 A 
HETATM    6  C16 UNL     1      39.080   1.851 -39.528  1.00  0.00     0.100 C 
HETATM    7  N3  UNL     1      39.065   2.920 -39.970  1.00  0.00    -0.191 NA
HETATM    8  C17 UNL     1      37.911  -0.055 -38.591  1.00  0.00    -0.002 A 
HETATM    9  C18 UNL     1      36.640   0.692 -38.692  1.00  0.00     0.053 C 
HETATM   10  C19 UNL     1      37.938  -1.350 -38.083  1.00  0.00     0.139 A 
HETATM   11  F3  UNL     1      36.748  -1.790 -37.631  1.00  0.00    -0.204 F 
ENDROOT
BRANCH   1  12
HETATM   12  C11 UNL     1      39.123  -3.415 -37.327  1.00  0.00     0.077 A 
HETATM   13  C9  UNL     1      39.349  -3.783 -36.035  1.00  0.00     0.067 A 
HETATM   14  N2  UNL     1      39.408  -5.177 -35.989  1.00  0.00    -0.345 N 
HETATM   15  C8  UNL     1      39.219  -5.640 -37.225  1.00  0.00     0.088 A 
ATOM     16  H2  UNL     1      39.566  -5.742 -35.155  1.00  0.00     0.167 HD
HETATM   17  N4  UNL     1      39.052  -4.595 -38.019  1.00  0.00    -0.338 N 
HETATM   18  C20 UNL     1      38.858  -4.677 -39.448  1.00  0.00     0.158 C 
BRANCH  13  19
HETATM   19  C10 UNL     1      39.471  -2.951 -34.824  1.00  0.00     0.281 C 
HETATM   20  F1  UNL     1      40.361  -3.350 -33.915  1.00  0.00    -0.249 F 
ENDBRANCH  13  19
BRANCH  15  21
HETATM   21  C7  UNL     1      39.198  -7.077 -37.666  1.00  0.00     0.057 C 
HETATM   22  C6  UNL     1      37.802  -7.526 -37.976  1.00  0.00     0.032 C 
HETATM   23  C5  UNL     1      37.077  -8.074 -36.747  1.00  0.00     0.125 C 
HETATM   24  N1  UNL     1      37.806  -9.174 -36.202  1.00  0.00    -0.367 N 
HETATM   25  C22 UNL     1      39.186  -9.323 -36.690  1.00  0.00     0.125 C 
HETATM   26  C21 UNL     1      39.774  -7.931 -36.563  1.00  0.00     0.032 C 
BRANCH  24  27
HETATM   27  C4  UNL     1      37.304 -10.047 -35.253  1.00  0.00     0.114 A 
HETATM   28  C3  UNL     1      37.934 -10.378 -34.091  1.00  0.00     0.029 A 
HETATM   29  C25 UNL     1      37.351 -11.276 -33.176  1.00  0.00     0.110 A 
HETATM   30  N6  UNL     1      36.143 -11.770 -33.532  1.00  0.00    -0.332 N 
HETATM   31  C23 UNL     1      35.495 -11.473 -34.652  1.00  0.00     0.080 A 
ATOM     32  H6  UNL     1      35.693 -12.421 -32.889  1.00  0.00     0.168 HD
HETATM   33  N5  UNL     1      36.077 -10.624 -35.493  1.00  0.00    -0.332 N 
HETATM   34  C24 UNL     1      34.163 -12.083 -34.938  1.00  0.00     0.089 C 
ATOM     35  H5  UNL     1      35.590 -10.387 -36.357  1.00  0.00     0.168 HD
BRANCH  28  36
HETATM   36  C2  UNL     1      39.259  -9.802 -33.771  1.00  0.00     0.042 C 
HETATM   37  C1  UNL     1      39.074  -8.467 -33.103  1.00  0.00     0.010 C 
ENDBRANCH  28  36
BRANCH  29  38
HETATM   38  N7  UNL     1      37.916 -11.624 -32.086  1.00  0.00    -0.385 N 
ATOM     39  H72 UNL     1      38.870 -11.337 -31.867  1.00  0.00     0.157 HD
ATOM     40  H71 UNL     1      37.453 -12.190 -31.374  1.00  0.00     0.157 HD
ENDBRANCH  29  38
ENDBRANCH  24  27
ENDBRANCH  15  21
ENDBRANCH   1  12
TORSDOF 6
ENDMDL
MODEL 4
REMARK VINA RESULT: -8.160684489      9.292     13.050
REMARK  6 active torsions:
REMARK  status: ('A' for Active; 'I' for Inactive)
REMARK    1  A    between atoms: C2_2  and  C3_3 
REMARK    2  A    between atoms: C4_4  and  N1_5 
REMARK    3  A    between atoms: C7_8  and  C8_9 
REMARK    4  A    between atoms: C9_12  and  C10_13 
REMARK    5  A    between atoms: C11_15  and  C12_16 
REMARK    6  A    between atoms: C25_37  and  N7_38 
ROOT
HETATM    1  C12 UNL     1      36.258   1.016 -47.652  1.00  0.00     0.071 A 
HETATM    2  C13 UNL     1      37.002   0.950 -48.842  1.00  0.00     0.133 A 
HETATM    3  F2  UNL     1      36.764   1.905 -49.764  1.00  0.00    -0.205 F 
HETATM    4  C14 UNL     1      37.957  -0.017 -49.039  1.00  0.00     0.066 A 
HETATM    5  C15 UNL     1      38.230  -0.968 -48.078  1.00  0.00     0.056 A 
HETATM    6  C16 UNL     1      39.229  -1.981 -48.278  1.00  0.00     0.100 C 
HETATM    7  N3  UNL     1      40.046  -2.787 -48.425  1.00  0.00    -0.191 NA
HETATM    8  C17 UNL     1      37.526  -0.937 -46.904  1.00  0.00    -0.002 A 
HETATM    9  C18 UNL     1      37.789  -1.933 -45.844  1.00  0.00     0.053 C 
HETATM   10  C19 UNL     1      36.563   0.052 -46.728  1.00  0.00     0.139 A 
HETATM   11  F3  UNL     1      35.868  -0.052 -45.579  1.00  0.00    -0.204 F 
ENDROOT
BRANCH   1  12
HETATM   12  C11 UNL     1      35.182   1.973 -47.528  1.00  0.00     0.077 A 
HETATM   13  C9  UNL     1      33.872   1.915 -47.898  1.00  0.00     0.067 A 
HETATM   14  N2  UNL     1      33.298   3.162 -47.647  1.00  0.00    -0.345 N 
HETATM   15  C8  UNL     1      34.240   3.956 -47.136  1.00  0.00     0.088 A 
ATOM     16  H2  UNL     1      32.328   3.422 -47.824  1.00  0.00     0.167 HD
HETATM   17  N4  UNL     1      35.357   3.251 -47.066  1.00  0.00    -0.338 N 
HETATM   18  C20 UNL     1      36.623   3.769 -46.601  1.00  0.00     0.158 C 
BRANCH  13  19
HETATM   19  C10 UNL     1      33.090   0.781 -48.424  1.00  0.00     0.281 C 
HETATM   20  F1  UNL     1      33.383  -0.423 -47.931  1.00  0.00    -0.249 F 
ENDBRANCH  13  19
BRANCH  15  21
HETATM   21  C7  UNL     1      34.091   5.390 -46.711  1.00  0.00     0.057 C 
HETATM   22  C6  UNL     1      34.119   5.516 -45.217  1.00  0.00     0.032 C 
HETATM   23  C5  UNL     1      32.734   5.366 -44.590  1.00  0.00     0.125 C 
HETATM   24  N1  UNL     1      31.850   6.356 -45.119  1.00  0.00    -0.367 N 
HETATM   25  C22 UNL     1      32.325   7.044 -46.331  1.00  0.00     0.125 C 
HETATM   26  C21 UNL     1      32.779   5.919 -47.240  1.00  0.00     0.032 C 
BRANCH  24  27
HETATM   27  C4  UNL     1      30.610   6.658 -44.586  1.00  0.00     0.114 A 
HETATM   28  C3  UNL     1      30.365   7.680 -43.718  1.00  0.00     0.029 A 
HETATM   29  C25 UNL     1      29.069   7.922 -43.224  1.00  0.00     0.110 A 
HETATM   30  N6  UNL     1      28.108   7.081 -43.671  1.00  0.00    -0.332 N 
HETATM   31  C23 UNL     1      28.303   6.076 -44.516  1.00  0.00     0.080 A 
ATOM     32  H6  UNL     1      27.158   7.232 -43.333  1.00  0.00     0.168 HD
HETATM   33  N5  UNL     1      29.540   5.877 -44.960  1.00  0.00    -0.332 N 
HETATM   34  C24 UNL     1      27.161   5.213 -44.938  1.00  0.00     0.089 C 
ATOM     35  H5  UNL     1      29.703   5.108 -45.609  1.00  0.00     0.168 HD
BRANCH  28  36
HETATM   36  C2  UNL     1      31.469   8.557 -43.269  1.00  0.00     0.042 C 
HETATM   37  C1  UNL     1      32.085   7.984 -42.022  1.00  0.00     0.010 C 
ENDBRANCH  28  36
BRANCH  29  38
HETATM   38  N7  UNL     1      28.803   8.857 -42.397  1.00  0.00    -0.385 N 
ATOM     39  H72 UNL     1      28.548   9.792 -42.716  1.00  0.00     0.157 HD
ATOM     40  H71 UNL     1      28.817   8.726 -41.385  1.00  0.00     0.157 HD
ENDBRANCH  29  38
ENDBRANCH  24  27
ENDBRANCH  15  21
ENDBRANCH   1  12
TORSDOF 6
ENDMDL
MODEL 5
REMARK VINA RESULT: -8.116425908      3.992      6.189
REMARK  6 active torsions:
REMARK  status: ('A' for Active; 'I' for Inactive)
REMARK    1  A    between atoms: C2_2  and  C3_3 
REMARK    2  A    between atoms: C4_4  and  N1_5 
REMARK    3  A    between atoms: C7_8  and  C8_9 
REMARK    4  A    between atoms: C9_12  and  C10_13 
REMARK    5  A    between atoms: C11_15  and  C12_16 
REMARK    6  A    between atoms: C25_37  and  N7_38 
ROOT
HETATM    1  C12 UNL     1      37.904  -0.859 -38.589  1.00  0.00     0.071 A 
HETATM    2  C13 UNL     1      36.573  -0.590 -38.230  1.00  0.00     0.133 A 
HETATM    3  F2  UNL     1      35.882  -1.594 -37.651  1.00  0.00    -0.205 F 
HETATM    4  C14 UNL     1      36.014   0.650 -38.420  1.00  0.00     0.066 A 
HETATM    5  C15 UNL     1      36.735   1.688 -38.973  1.00  0.00     0.056 A 
HETATM    6  C16 UNL     1      36.156   2.988 -39.173  1.00  0.00     0.100 C 
HETATM    7  N3  UNL     1      35.702   4.042 -39.319  1.00  0.00    -0.191 NA
HETATM    8  C17 UNL     1      38.036   1.466 -39.336  1.00  0.00    -0.002 A 
HETATM    9  C18 UNL     1      38.846   2.551 -39.927  1.00  0.00     0.053 C 
HETATM   10  C19 UNL     1      38.579   0.201 -39.134  1.00  0.00     0.139 A 
HETATM   11  F3  UNL     1      39.835   0.058 -39.600  1.00  0.00    -0.204 F 
ENDROOT
BRANCH   1  12
HETATM   12  C11 UNL     1      38.420  -2.206 -38.482  1.00  0.00     0.077 A 
HETATM   13  C9  UNL     1      38.665  -3.158 -39.425  1.00  0.00     0.067 A 
HETATM   14  N2  UNL     1      39.056  -4.326 -38.766  1.00  0.00    -0.345 N 
HETATM   15  C8  UNL     1      39.049  -4.082 -37.455  1.00  0.00     0.088 A 
ATOM     16  H2  UNL     1      39.303  -5.209 -39.210  1.00  0.00     0.167 HD
HETATM   17  N4  UNL     1      38.671  -2.826 -37.286  1.00  0.00    -0.338 N 
HETATM   18  C20 UNL     1      38.501  -2.188 -36.001  1.00  0.00     0.158 C 
BRANCH  13  19
HETATM   19  C10 UNL     1      38.611  -3.066 -40.895  1.00  0.00     0.281 C 
HETATM   20  F1  UNL     1      39.275  -2.052 -41.452  1.00  0.00    -0.249 F 
ENDBRANCH  13  19
BRANCH  15  21
HETATM   21  C7  UNL     1      39.399  -5.039 -36.350  1.00  0.00     0.057 C 
HETATM   22  C6  UNL     1      39.940  -6.324 -36.899  1.00  0.00     0.032 C 
HETATM   23  C5  UNL     1      38.840  -7.342 -37.197  1.00  0.00     0.125 C 
HETATM   24  N1  UNL     1      38.101  -7.624 -36.008  1.00  0.00    -0.367 N 
HETATM   25  C22 UNL     1      38.309  -6.682 -34.897  1.00  0.00     0.125 C 
HETATM   26  C21 UNL     1      38.157  -5.316 -35.538  1.00  0.00     0.032 C 
BRANCH  24  27
HETATM   27  C4  UNL     1      37.214  -8.676 -35.873  1.00  0.00     0.114 A 
HETATM   28  C3  UNL     1      35.939  -8.686 -36.354  1.00  0.00     0.029 A 
HETATM   29  C25 UNL     1      35.100  -9.803 -36.174  1.00  0.00     0.110 A 
HETATM   30  N6  UNL     1      35.649 -10.843 -35.505  1.00  0.00    -0.332 N 
HETATM   31  C23 UNL     1      36.885 -10.875 -35.022  1.00  0.00     0.080 A 
ATOM     32  H6  UNL     1      35.067 -11.668 -35.361  1.00  0.00     0.168 HD
HETATM   33  N5  UNL     1      37.647  -9.802 -35.209  1.00  0.00    -0.332 N 
HETATM   34  C24 UNL     1      37.380 -12.083 -34.298  1.00  0.00     0.089 C 
ATOM     35  H5  UNL     1      38.598  -9.814 -34.843  1.00  0.00     0.168 HD
BRANCH  28  36
HETATM   36  C2  UNL     1      35.405  -7.508 -37.072  1.00  0.00     0.042 C 
HETATM   37  C1  UNL     1      35.525  -7.731 -38.555  1.00  0.00     0.010 C 
ENDBRANCH  28  36
BRANCH  29  38
HETATM   38  N7  UNL     1      33.896  -9.843 -36.594  1.00  0.00    -0.385 N 
ATOM     39  H72 UNL     1      33.682  -9.996 -37.580  1.00  0.00     0.157 HD
ATOM     40  H71 UNL     1      33.088  -9.740 -35.980  1.00  0.00     0.157 HD
ENDBRANCH  29  38
ENDBRANCH  24  27
ENDBRANCH  15  21
ENDBRANCH   1  12
TORSDOF 6
ENDMDL
