MODEL 1
REMARK VINA RESULT: -5.655275489      0.000      0.000
REMARK  5 active torsions:
REMARK  status: ('A' for Active; 'I' for Inactive)
REMARK    1  A    between atoms: C2_2  and  C3_3 
REMARK    2  A    between atoms: C8_8  and  C10_10 
REMARK       I    between atoms: C10_10  and  N1_12 
REMARK    3  A    between atoms: N1_12  and  C11_14 
REMARK    4  A    between atoms: C11_14  and  C12_15 
REMARK    5  A    between atoms: C19_23  and  O2_24 
ROOT
HETATM    1  C3  UNL     1      -5.289  16.788  24.270  1.00  0.00     0.002 A 
HETATM    2  C4  UNL     1      -4.374  17.923  24.095  1.00  0.00    -0.006 A 
HETATM    3  C5  UNL     1      -3.857  18.214  22.950  1.00  0.00    -0.058 A 
HETATM    4  C6  UNL     1      -2.917  19.289  22.527  1.00  0.00    -0.018 C 
HETATM    5  C7  UNL     1      -2.207  18.856  21.516  1.00  0.00     0.047 C 
HETATM    6  C8  UNL     1      -2.704  17.410  21.239  1.00  0.00     0.049 C 
HETATM    7  C9  UNL     1      -1.787  16.521  22.006  1.00  0.00     0.026 C 
HETATM    8  C13 UNL     1      -4.098  17.459  21.653  1.00  0.00     0.045 A 
HETATM    9  C14 UNL     1      -5.112  16.423  21.708  1.00  0.00    -0.017 A 
HETATM   10  C15 UNL     1      -6.293  16.585  20.723  1.00  0.00     0.022 A 
HETATM   11  C16 UNL     1      -5.363  15.407  20.676  1.00  0.00    -0.031 A 
HETATM   12  C17 UNL     1      -4.844  15.292  19.295  1.00  0.00     0.013 C 
HETATM   13  C18 UNL     1      -5.648  14.333  18.404  1.00  0.00     0.032 C 
HETATM   14  C19 UNL     1      -7.093  14.267  18.837  1.00  0.00     0.118 C 
HETATM   15  C20 UNL     1      -7.112  13.622  20.188  1.00  0.00     0.032 C 
HETATM   16  C21 UNL     1      -5.876  14.018  20.976  1.00  0.00     0.013 C 
HETATM   17  C22 UNL     1      -5.716  16.090  23.057  1.00  0.00     0.037 A 
HETATM   18  C23 UNL     1      -7.201  16.088  23.168  1.00  0.00     0.239 C 
HETATM   19  N2  UNL     1      -7.780  17.430  23.266  1.00  0.00    -0.075 N 
ATOM     20  H21 UNL     1      -8.774  17.436  23.039  1.00  0.00     0.277 HD
ATOM     21  H22 UNL     1      -7.455  18.042  22.518  1.00  0.00     0.277 HD
HETATM   22  C24 UNL     1      -7.519  17.979  24.564  1.00  0.00     0.233 C 
HETATM   23  C25 UNL     1      -6.384  17.281  25.194  1.00  0.00     0.045 C 
ENDROOT
BRANCH   6  24
HETATM   24  C10 UNL     1      -2.311  17.396  19.818  1.00  0.00     0.227 C 
HETATM   25  O1  UNL     1      -2.729  18.259  18.977  1.00  0.00    -0.273 OA
HETATM   26  N1  UNL     1      -1.432  16.401  19.292  1.00  0.00    -0.360 N 
ATOM     27  H1  UNL     1      -1.073  15.691  19.930  1.00  0.00     0.162 HD
BRANCH  26  28
HETATM   28  C11 UNL     1      -1.025  16.346  17.923  1.00  0.00     0.133 C 
BRANCH  28  29
HETATM   29  C12 UNL     1      -1.387  15.052  17.278  1.00  0.00     0.104 C 
HETATM   30 BR1  UNL     1      -1.628  15.243  15.371  1.00  0.00    -0.095 Br
ENDBRANCH  28  29
ENDBRANCH  26  28
ENDBRANCH   6  24
BRANCH   1  31
HETATM   31  C2  UNL     1      -4.566  15.808  25.203  1.00  0.00    -0.023 C 
HETATM   32  C1  UNL     1      -3.332  16.102  25.543  1.00  0.00     0.008 C 
ENDBRANCH   1  31
BRANCH  14  33
HETATM   33  O2  UNL     1      -7.733  13.393  17.956  1.00  0.00    -0.396 OA
ATOM     34  H2  UNL     1      -7.611  12.518  18.305  1.00  0.00     0.210 HD
ENDBRANCH  14  33
TORSDOF 5
ENDMDL
MODEL 2
REMARK VINA RESULT: -5.307633789      2.553      5.422
REMARK  5 active torsions:
REMARK  status: ('A' for Active; 'I' for Inactive)
REMARK    1  A    between atoms: C2_2  and  C3_3 
REMARK    2  A    between atoms: C8_8  and  C10_10 
REMARK       I    between atoms: C10_10  and  N1_12 
REMARK    3  A    between atoms: N1_12  and  C11_14 
REMARK    4  A    between atoms: C11_14  and  C12_15 
REMARK    5  A    between atoms: C19_23  and  O2_24 
ROOT
HETATM    1  C3  UNL     1      -2.488  18.948  22.366  1.00  0.00     0.002 A 
HETATM    2  C4  UNL     1      -3.527  18.380  23.235  1.00  0.00    -0.006 A 
HETATM    3  C5  UNL     1      -4.198  17.331  22.901  1.00  0.00    -0.058 A 
HETATM    4  C6  UNL     1      -5.285  16.584  23.594  1.00  0.00    -0.018 C 
HETATM    5  C7  UNL     1      -6.058  16.032  22.693  1.00  0.00     0.047 C 
HETATM    6  C8  UNL     1      -5.452  16.424  21.318  1.00  0.00     0.049 C 
HETATM    7  C9  UNL     1      -6.180  17.654  20.899  1.00  0.00     0.026 C 
HETATM    8  C13 UNL     1      -4.032  16.548  21.610  1.00  0.00     0.045 A 
HETATM    9  C14 UNL     1      -2.919  16.948  20.771  1.00  0.00    -0.017 A 
HETATM   10  C15 UNL     1      -1.880  15.845  20.459  1.00  0.00     0.022 A 
HETATM   11  C16 UNL     1      -2.685  16.518  19.385  1.00  0.00    -0.031 A 
HETATM   12  C17 UNL     1      -3.344  15.464  18.582  1.00  0.00     0.013 C 
HETATM   13  C18 UNL     1      -2.555  15.044  17.334  1.00  0.00     0.032 C 
HETATM   14  C19 UNL     1      -1.071  15.232  17.537  1.00  0.00     0.118 C 
HETATM   15  C20 UNL     1      -0.831  16.707  17.650  1.00  0.00     0.032 C 
HETATM   16  C21 UNL     1      -2.002  17.376  18.346  1.00  0.00     0.013 C 
HETATM   17  C22 UNL     1      -2.134  18.181  21.172  1.00  0.00     0.037 A 
HETATM   18  C23 UNL     1      -0.653  18.055  21.272  1.00  0.00     0.239 C 
HETATM   19  N2  UNL     1      -0.206  17.398  22.502  1.00  0.00    -0.075 N 
ATOM     20  H21 UNL     1       0.750  17.051  22.427  1.00  0.00     0.277 HD
ATOM     21  H22 UNL     1      -0.675  16.505  22.652  1.00  0.00     0.277 HD
HETATM   22  C24 UNL     1      -0.371  18.286  23.615  1.00  0.00     0.233 C 
HETATM   23  C25 UNL     1      -1.350  19.338  23.288  1.00  0.00     0.045 C 
ENDROOT
BRANCH   6  24
HETATM   24  C10 UNL     1      -6.002  15.268  20.587  1.00  0.00     0.227 C 
HETATM   25  O1  UNL     1      -5.622  14.069  20.804  1.00  0.00    -0.273 OA
HETATM   26  N1  UNL     1      -7.000  15.423  19.578  1.00  0.00    -0.360 N 
ATOM     27  H1  UNL     1      -7.333  16.364  19.372  1.00  0.00     0.162 HD
BRANCH  26  28
HETATM   28  C11 UNL     1      -7.560  14.332  18.842  1.00  0.00     0.133 C 
BRANCH  28  29
HETATM   29  C12 UNL     1      -9.050  14.342  18.864  1.00  0.00     0.104 C 
HETATM   30 BR1  UNL     1      -9.753  16.135  19.031  1.00  0.00    -0.095 Br
ENDBRANCH  28  29
ENDBRANCH  26  28
ENDBRANCH   6  24
BRANCH   1  31
HETATM   31  C2  UNL     1      -2.996  20.336  21.957  1.00  0.00    -0.023 C 
HETATM   32  C1  UNL     1      -3.609  20.433  20.800  1.00  0.00     0.008 C 
ENDBRANCH   1  31
BRANCH  14  33
HETATM   33  O2  UNL     1      -0.450  14.805  16.362  1.00  0.00    -0.396 OA
ATOM     34  H2  UNL     1       0.301  15.372  16.230  1.00  0.00     0.210 HD
ENDBRANCH  14  33
TORSDOF 5
ENDMDL
MODEL 3
REMARK VINA RESULT: -5.256185478      6.754     10.649
REMARK  5 active torsions:
REMARK  status: ('A' for Active; 'I' for Inactive)
REMARK    1  A    between atoms: C2_2  and  C3_3 
REMARK    2  A    between atoms: C8_8  and  C10_10 
REMARK       I    between atoms: C10_10  and  N1_12 
REMARK    3  A    between atoms: N1_12  and  C11_14 
REMARK    4  A    between atoms: C11_14  and  C12_15 
REMARK    5  A    between atoms: C19_23  and  O2_24 
ROOT
HETATM    1  C3  UNL     1     -11.726   7.027  18.840  1.00  0.00     0.002 A 
HETATM    2  C4  UNL     1     -11.967   7.516  17.477  1.00  0.00    -0.006 A 
HETATM    3  C5  UNL     1     -11.443   8.610  17.041  1.00  0.00    -0.058 A 
HETATM    4  C6  UNL     1     -11.540   9.304  15.726  1.00  0.00    -0.018 C 
HETATM    5  C7  UNL     1     -11.400  10.592  15.918  1.00  0.00     0.047 C 
HETATM    6  C8  UNL     1     -11.189  10.772  17.446  1.00  0.00     0.049 C 
HETATM    7  C9  UNL     1     -12.545  11.038  18.004  1.00  0.00     0.026 C 
HETATM    8  C13 UNL     1     -10.533   9.533  17.833  1.00  0.00     0.045 A 
HETATM    9  C14 UNL     1     -10.118   9.041  19.134  1.00  0.00    -0.017 A 
HETATM   10  C15 UNL     1      -8.592   8.911  19.348  1.00  0.00     0.022 A 
HETATM   11  C16 UNL     1      -9.445   9.827  20.178  1.00  0.00    -0.031 A 
HETATM   12  C17 UNL     1      -8.846  11.179  20.127  1.00  0.00     0.013 C 
HETATM   13  C18 UNL     1      -7.888  11.481  21.288  1.00  0.00     0.032 C 
HETATM   14  C19 UNL     1      -7.235  10.220  21.801  1.00  0.00     0.118 C 
HETATM   15  C20 UNL     1      -8.318   9.391  22.419  1.00  0.00     0.032 C 
HETATM   16  C21 UNL     1      -9.619   9.574  21.657  1.00  0.00     0.013 C 
HETATM   17  C22 UNL     1     -10.737   7.753  19.637  1.00  0.00     0.037 A 
HETATM   18  C23 UNL     1      -9.816   6.679  20.102  1.00  0.00     0.239 C 
HETATM   19  N2  UNL     1      -9.199   5.927  19.007  1.00  0.00    -0.075 N 
ATOM     20  H21 UNL     1      -8.368   5.419  19.311  1.00  0.00     0.277 HD
ATOM     21  H22 UNL     1      -8.755   6.541  18.324  1.00  0.00     0.277 HD
HETATM   22  C24 UNL     1     -10.169   5.062  18.404  1.00  0.00     0.233 C 
HETATM   23  C25 UNL     1     -11.532   5.530  18.712  1.00  0.00     0.045 C 
ENDROOT
BRANCH   6  24
HETATM   24  C10 UNL     1     -10.455  12.045  17.338  1.00  0.00     0.227 C 
HETATM   25  O1  UNL     1      -9.342  12.151  16.723  1.00  0.00    -0.273 OA
HETATM   26  N1  UNL     1     -10.949  13.249  17.925  1.00  0.00    -0.360 N 
ATOM     27  H1  UNL     1     -11.836  13.211  18.426  1.00  0.00     0.162 HD
BRANCH  26  28
HETATM   28  C11 UNL     1     -10.270  14.506  17.848  1.00  0.00     0.133 C 
BRANCH  28  29
HETATM   29  C12 UNL     1      -9.579  14.852  19.122  1.00  0.00     0.104 C 
HETATM   30 BR1  UNL     1      -7.662  14.658  18.973  1.00  0.00    -0.095 Br
ENDBRANCH  28  29
ENDBRANCH  26  28
ENDBRANCH   6  24
BRANCH   1  31
HETATM   31  C2  UNL     1     -13.088   7.067  19.546  1.00  0.00    -0.023 C 
HETATM   32  C1  UNL     1     -13.354   8.124  20.278  1.00  0.00     0.008 C 
ENDBRANCH   1  31
BRANCH  14  33
HETATM   33  O2  UNL     1      -6.375  10.606  22.831  1.00  0.00    -0.396 OA
ATOM     34  H2  UNL     1      -5.872   9.836  23.068  1.00  0.00     0.210 HD
ENDBRANCH  14  33
TORSDOF 5
ENDMDL
MODEL 4
REMARK VINA RESULT: -5.178487664      5.652      8.910
REMARK  5 active torsions:
REMARK  status: ('A' for Active; 'I' for Inactive)
REMARK    1  A    between atoms: C2_2  and  C3_3 
REMARK    2  A    between atoms: C8_8  and  C10_10 
REMARK       I    between atoms: C10_10  and  N1_12 
REMARK    3  A    between atoms: N1_12  and  C11_14 
REMARK    4  A    between atoms: C11_14  and  C12_15 
REMARK    5  A    between atoms: C19_23  and  O2_24 
ROOT
HETATM    1  C3  UNL     1      -7.711  12.780  21.377  1.00  0.00     0.002 A 
HETATM    2  C4  UNL     1      -7.115  11.500  21.778  1.00  0.00    -0.006 A 
HETATM    3  C5  UNL     1      -7.579  10.371  21.364  1.00  0.00    -0.058 A 
HETATM    4  C6  UNL     1      -7.161   8.966  21.630  1.00  0.00    -0.018 C 
HETATM    5  C7  UNL     1      -8.212   8.189  21.546  1.00  0.00     0.047 C 
HETATM    6  C8  UNL     1      -9.402   9.125  21.197  1.00  0.00     0.049 C 
HETATM    7  C9  UNL     1     -10.020   9.485  22.504  1.00  0.00     0.026 C 
HETATM    8  C13 UNL     1      -8.767  10.189  20.435  1.00  0.00     0.045 A 
HETATM    9  C14 UNL     1      -9.312  11.407  19.866  1.00  0.00    -0.017 A 
HETATM   10  C15 UNL     1      -9.327  11.481  18.321  1.00  0.00     0.022 A 
HETATM   11  C16 UNL     1     -10.585  11.527  19.140  1.00  0.00    -0.031 A 
HETATM   12  C17 UNL     1     -11.499  10.482  18.628  1.00  0.00     0.013 C 
HETATM   13  C18 UNL     1     -12.500  10.989  17.579  1.00  0.00     0.032 C 
HETATM   14  C19 UNL     1     -11.937  12.158  16.807  1.00  0.00     0.118 C 
HETATM   15  C20 UNL     1     -11.806  13.294  17.774  1.00  0.00     0.032 C 
HETATM   16  C21 UNL     1     -11.441  12.770  19.152  1.00  0.00     0.013 C 
HETATM   17  C22 UNL     1      -8.760  12.730  20.357  1.00  0.00     0.037 A 
HETATM   18  C23 UNL     1      -8.289  13.705  19.334  1.00  0.00     0.239 C 
HETATM   19  N2  UNL     1      -6.970  13.384  18.786  1.00  0.00    -0.075 N 
ATOM     20  H21 UNL     1      -6.796  13.861  17.901  1.00  0.00     0.277 HD
ATOM     21  H22 UNL     1      -6.920  12.423  18.447  1.00  0.00     0.277 HD
HETATM   22  C24 UNL     1      -5.957  13.666  19.759  1.00  0.00     0.233 C 
HETATM   23  C25 UNL     1      -6.545  13.710  21.110  1.00  0.00     0.045 C 
ENDROOT
BRANCH   6  24
HETATM   24  C10 UNL     1     -10.217   8.079  20.552  1.00  0.00     0.227 C 
HETATM   25  O1  UNL     1     -11.377   7.752  20.969  1.00  0.00    -0.273 OA
HETATM   26  N1  UNL     1      -9.750   7.360  19.411  1.00  0.00    -0.360 N 
ATOM     27  H1  UNL     1      -8.826   7.589  19.043  1.00  0.00     0.162 HD
BRANCH  26  28
HETATM   28  C11 UNL     1     -10.503   6.337  18.755  1.00  0.00     0.133 C 
BRANCH  28  29
HETATM   29  C12 UNL     1      -9.824   5.011  18.812  1.00  0.00     0.104 C 
HETATM   30 BR1  UNL     1      -7.940   5.187  19.204  1.00  0.00    -0.095 Br
ENDBRANCH  28  29
ENDBRANCH  26  28
ENDBRANCH   6  24
BRANCH   1  31
HETATM   31  C2  UNL     1      -8.270  13.405  22.662  1.00  0.00    -0.023 C 
HETATM   32  C1  UNL     1      -9.546  13.222  22.911  1.00  0.00     0.008 C 
ENDBRANCH   1  31
BRANCH  14  33
HETATM   33  O2  UNL     1     -12.909  12.524  15.874  1.00  0.00    -0.396 OA
ATOM     34  H2  UNL     1     -12.521  13.197  15.327  1.00  0.00     0.210 HD
ENDBRANCH  14  33
TORSDOF 5
ENDMDL
MODEL 5
REMARK VINA RESULT: -5.146829071      2.658      3.797
REMARK  5 active torsions:
REMARK  status: ('A' for Active; 'I' for Inactive)
REMARK    1  A    between atoms: C2_2  and  C3_3 
REMARK    2  A    between atoms: C8_8  and  C10_10 
REMARK       I    between atoms: C10_10  and  N1_12 
REMARK    3  A    between atoms: N1_12  and  C11_14 
REMARK    4  A    between atoms: C11_14  and  C12_15 
REMARK    5  A    between atoms: C19_23  and  O2_24 
ROOT
HETATM    1  C3  UNL     1      -9.221  18.534  21.079  1.00  0.00     0.002 A 
HETATM    2  C4  UNL     1      -8.128  19.470  20.787  1.00  0.00    -0.006 A 
HETATM    3  C5  UNL     1      -6.933  19.064  20.524  1.00  0.00    -0.058 A 
HETATM    4  C6  UNL     1      -5.678  19.803  20.208  1.00  0.00    -0.018 C 
HETATM    5  C7  UNL     1      -4.657  19.096  20.621  1.00  0.00     0.047 C 
HETATM    6  C8  UNL     1      -5.259  17.806  21.243  1.00  0.00     0.049 C 
HETATM    7  C9  UNL     1      -5.395  18.094  22.699  1.00  0.00     0.026 C 
HETATM    8  C13 UNL     1      -6.481  17.614  20.478  1.00  0.00     0.045 A 
HETATM    9  C14 UNL     1      -7.534  16.624  20.598  1.00  0.00    -0.017 A 
HETATM   10  C15 UNL     1      -7.660  15.629  19.420  1.00  0.00     0.022 A 
HETATM   11  C16 UNL     1      -7.342  15.183  20.818  1.00  0.00    -0.031 A 
HETATM   12  C17 UNL     1      -6.114  14.359  20.765  1.00  0.00     0.013 C 
HETATM   13  C18 UNL     1      -6.379  12.851  20.647  1.00  0.00     0.032 C 
HETATM   14  C19 UNL     1      -7.684  12.579  19.937  1.00  0.00     0.118 C 
HETATM   15  C20 UNL     1      -8.777  13.080  20.830  1.00  0.00     0.032 C 
HETATM   16  C21 UNL     1      -8.315  14.316  21.581  1.00  0.00     0.013 C 
HETATM   17  C22 UNL     1      -8.936  17.110  20.905  1.00  0.00     0.037 A 
HETATM   18  C23 UNL     1     -10.038  16.646  20.017  1.00  0.00     0.239 C 
HETATM   19  N2  UNL     1     -10.096  17.358  18.739  1.00  0.00    -0.075 N 
ATOM     20  H21 UNL     1     -10.636  16.848  18.040  1.00  0.00     0.277 HD
ATOM     21  H22 UNL     1      -9.196  17.358  18.260  1.00  0.00     0.277 HD
HETATM   22  C24 UNL     1     -10.598  18.685  18.944  1.00  0.00     0.233 C 
HETATM   23  C25 UNL     1     -10.434  19.080  20.354  1.00  0.00     0.045 C 
ENDROOT
BRANCH   6  24
HETATM   24  C10 UNL     1      -4.062  16.974  21.027  1.00  0.00     0.227 C 
HETATM   25  O1  UNL     1      -3.413  16.436  21.984  1.00  0.00    -0.273 OA
HETATM   26  N1  UNL     1      -3.548  16.721  19.719  1.00  0.00    -0.360 N 
ATOM     27  H1  UNL     1      -4.036  17.132  18.923  1.00  0.00     0.162 HD
BRANCH  26  28
HETATM   28  C11 UNL     1      -2.389  15.924  19.462  1.00  0.00     0.133 C 
BRANCH  28  29
HETATM   29  C12 UNL     1      -2.570  15.030  18.283  1.00  0.00     0.104 C 
HETATM   30 BR1  UNL     1      -1.175  15.285  16.970  1.00  0.00    -0.095 Br
ENDBRANCH  28  29
ENDBRANCH  26  28
ENDBRANCH   6  24
BRANCH   1  31
HETATM   31  C2  UNL     1      -9.627  18.805  22.534  1.00  0.00    -0.023 C 
HETATM   32  C1  UNL     1      -9.095  18.040  23.458  1.00  0.00     0.008 C 
ENDBRANCH   1  31
BRANCH  14  33
HETATM   33  O2  UNL     1      -7.817  11.191  19.864  1.00  0.00    -0.396 OA
ATOM     34  H2  UNL     1      -8.580  11.020  19.324  1.00  0.00     0.210 HD
ENDBRANCH  14  33
TORSDOF 5
ENDMDL
