MODEL 1
REMARK VINA RESULT: -6.741817062      0.000      0.000
REMARK  5 active torsions:
REMARK  status: ('A' for Active; 'I' for Inactive)
REMARK    1  A    between atoms: C2_2  and  C3_4 
REMARK    2  A    between atoms: C3_4  and  O1_5 
REMARK    3  A    between atoms: C3_4  and  N1_7 
REMARK    4  A    between atoms: C10_14  and  N2_15 
REMARK       I    between atoms: N2_15  and  C11_17 
REMARK       I    between atoms: C11_17  and  N3_19 
REMARK    5  A    between atoms: N3_19  and  C12_21 
ROOT
HETATM    1  N2  UNL     1     -10.829  11.624  16.366  1.00  0.00    -0.331 N 
ATOM      2  H2  UNL     1     -10.446  12.048  15.522  1.00  0.00     0.165 HD
HETATM    3  C11 UNL     1     -10.334  12.038  17.627  1.00  0.00     0.317 C 
HETATM    4  O2  UNL     1     -10.827  11.494  18.645  1.00  0.00    -0.247 OA
HETATM    5  N3  UNL     1      -9.339  13.009  17.769  1.00  0.00    -0.338 N 
ATOM      6  H3  UNL     1      -8.974  13.418  16.909  1.00  0.00     0.164 HD
ENDROOT
BRANCH   1   7
HETATM    7  C10 UNL     1     -11.862  10.615  16.240  1.00  0.00     0.062 C 
HETATM    8  C8  UNL     1     -13.239  11.042  16.611  1.00  0.00     0.021 C 
HETATM    9  C7  UNL     1     -13.763  10.361  15.368  1.00  0.00     0.039 C 
HETATM   10  C9  UNL     1     -13.437  12.528  16.509  1.00  0.00     0.013 C 
HETATM   11  C6  UNL     1     -14.166   8.961  15.603  1.00  0.00    -0.021 C 
HETATM   12  C24 UNL     1     -12.368  10.474  14.789  1.00  0.00     0.123 C 
HETATM   13  C5  UNL     1     -13.284   7.967  15.650  1.00  0.00    -0.005 C 
HETATM   14  C4  UNL     1     -11.862   8.348  15.452  1.00  0.00     0.112 C 
HETATM   15  N1  UNL     1     -11.878   9.257  14.258  1.00  0.00    -0.345 N 
HETATM   16  C23 UNL     1     -11.437   9.229  16.572  1.00  0.00     0.063 C 
BRANCH  15  17
HETATM   17  C3  UNL     1     -11.464   8.859  12.973  1.00  0.00     0.156 C 
BRANCH  17  18
HETATM   18  C2  UNL     1     -12.181   8.636  11.757  1.00  0.00     0.052 C 
HETATM   19  C1  UNL     1     -13.349   9.082  11.386  1.00  0.00     0.036 C 
HETATM   20 BR1  UNL     1     -11.330   7.510  10.384  1.00  0.00    -0.047 Br
ENDBRANCH  17  18
BRANCH  17  21
HETATM   21  O1  UNL     1     -10.177   8.658  12.890  1.00  0.00    -0.345 OA
ATOM     22  H1  UNL     1      -9.816   8.117  13.582  1.00  0.00     0.219 HD
ENDBRANCH  17  21
ENDBRANCH  15  17
ENDBRANCH   1   7
BRANCH   5  23
HETATM   23  C12 UNL     1      -8.779  13.490  18.992  1.00  0.00     0.091 C 
HETATM   24  C13 UNL     1      -7.927  12.505  19.721  1.00  0.00     0.031 C 
HETATM   25  C14 UNL     1      -7.060  13.383  20.621  1.00  0.00    -0.003 C 
HETATM   26  C15 UNL     1      -5.621  13.178  20.118  1.00  0.00     0.014 C 
HETATM   27  C20 UNL     1      -7.408  14.799  20.292  1.00  0.00    -0.034 C 
HETATM   28  C16 UNL     1      -5.467  14.375  19.214  1.00  0.00    -0.043 C 
HETATM   29  C17 UNL     1      -4.119  14.657  18.739  1.00  0.00     0.015 C 
HETATM   30  C18 UNL     1      -6.544  14.290  18.164  1.00  0.00     0.016 C 
HETATM   31  C22 UNL     1      -6.061  15.469  20.121  1.00  0.00     0.019 C 
HETATM   32  C19 UNL     1      -7.851  14.664  18.833  1.00  0.00     0.018 C 
HETATM   33  C21 UNL     1      -8.353  15.473  21.163  1.00  0.00     0.016 C 
ENDBRANCH   5  23
TORSDOF 5
ENDMDL
MODEL 2
REMARK VINA RESULT: -6.698193965      3.028      8.910
REMARK  5 active torsions:
REMARK  status: ('A' for Active; 'I' for Inactive)
REMARK    1  A    between atoms: C2_2  and  C3_4 
REMARK    2  A    between atoms: C3_4  and  O1_5 
REMARK    3  A    between atoms: C3_4  and  N1_7 
REMARK    4  A    between atoms: C10_14  and  N2_15 
REMARK       I    between atoms: N2_15  and  C11_17 
REMARK       I    between atoms: C11_17  and  N3_19 
REMARK    5  A    between atoms: N3_19  and  C12_21 
ROOT
HETATM    1  N2  UNL     1      -9.062  11.780  18.106  1.00  0.00    -0.331 N 
ATOM      2  H2  UNL     1      -8.252  11.328  17.681  1.00  0.00     0.165 HD
HETATM    3  C11 UNL     1     -10.359  11.415  17.670  1.00  0.00     0.317 C 
HETATM    4  O2  UNL     1     -11.331  11.993  18.214  1.00  0.00    -0.247 OA
HETATM    5  N3  UNL     1     -10.584  10.457  16.677  1.00  0.00    -0.338 N 
ATOM      6  H3  UNL     1      -9.757  10.020  16.270  1.00  0.00     0.164 HD
ENDROOT
BRANCH   1   7
HETATM    7  C10 UNL     1      -8.849  12.777  19.138  1.00  0.00     0.062 C 
HETATM    8  C8  UNL     1      -9.150  12.347  20.530  1.00  0.00     0.021 C 
HETATM    9  C7  UNL     1      -7.862  12.991  20.986  1.00  0.00     0.039 C 
HETATM   10  C9  UNL     1      -9.075  10.857  20.712  1.00  0.00     0.013 C 
HETATM   11  C6  UNL     1      -8.038  14.394  21.413  1.00  0.00    -0.021 C 
HETATM   12  C24 UNL     1      -7.368  12.876  19.559  1.00  0.00     0.123 C 
HETATM   13  C5  UNL     1      -8.109  15.396  20.542  1.00  0.00    -0.005 C 
HETATM   14  C4  UNL     1      -8.005  15.023  19.109  1.00  0.00     0.112 C 
HETATM   15  N1  UNL     1      -6.835  14.084  19.048  1.00  0.00    -0.345 N 
HETATM   16  C23 UNL     1      -9.170  14.174  18.743  1.00  0.00     0.063 C 
BRANCH  15  17
HETATM   17  C3  UNL     1      -5.567  14.453  18.562  1.00  0.00     0.156 C 
BRANCH  17  18
HETATM   18  C2  UNL     1      -4.459  15.116  19.174  1.00  0.00     0.052 C 
HETATM   19  C1  UNL     1      -4.402  15.786  20.291  1.00  0.00     0.036 C 
HETATM   20 BR1  UNL     1      -2.719  15.034  18.253  1.00  0.00    -0.047 Br
ENDBRANCH  17  18
BRANCH  17  21
HETATM   21  O1  UNL     1      -5.381  14.121  17.314  1.00  0.00    -0.345 OA
ATOM     22  H1  UNL     1      -5.269  13.190  17.165  1.00  0.00     0.219 HD
ENDBRANCH  17  21
ENDBRANCH  15  17
ENDBRANCH   1   7
BRANCH   5  23
HETATM   23  C12 UNL     1     -11.848  10.025  16.174  1.00  0.00     0.091 C 
HETATM   24  C13 UNL     1     -12.491  10.962  15.207  1.00  0.00     0.031 C 
HETATM   25  C14 UNL     1     -13.472  10.072  14.448  1.00  0.00    -0.003 C 
HETATM   26  C15 UNL     1     -12.963  10.056  12.997  1.00  0.00     0.014 C 
HETATM   27  C20 UNL     1     -13.270   8.684  14.965  1.00  0.00    -0.034 C 
HETATM   28  C16 UNL     1     -12.171   8.773  12.992  1.00  0.00    -0.043 C 
HETATM   29  C17 UNL     1     -11.732   8.289  11.690  1.00  0.00     0.015 C 
HETATM   30  C18 UNL     1     -11.111   8.892  14.055  1.00  0.00     0.016 C 
HETATM   31  C22 UNL     1     -13.169   7.845  13.709  1.00  0.00     0.019 C 
HETATM   32  C19 UNL     1     -11.803   8.739  15.395  1.00  0.00     0.018 C 
HETATM   33  C21 UNL     1     -14.192   8.210  15.980  1.00  0.00     0.016 C 
ENDBRANCH   5  23
TORSDOF 5
ENDMDL
MODEL 3
REMARK VINA RESULT: -6.672236085      3.746      8.987
REMARK  5 active torsions:
REMARK  status: ('A' for Active; 'I' for Inactive)
REMARK    1  A    between atoms: C2_2  and  C3_4 
REMARK    2  A    between atoms: C3_4  and  O1_5 
REMARK    3  A    between atoms: C3_4  and  N1_7 
REMARK    4  A    between atoms: C10_14  and  N2_15 
REMARK       I    between atoms: N2_15  and  C11_17 
REMARK       I    between atoms: C11_17  and  N3_19 
REMARK    5  A    between atoms: N3_19  and  C12_21 
ROOT
HETATM    1  N2  UNL     1     -11.043  11.858  16.176  1.00  0.00    -0.331 N 
ATOM      2  H2  UNL     1     -10.349  12.274  15.557  1.00  0.00     0.165 HD
HETATM    3  C11 UNL     1     -11.909  10.859  15.665  1.00  0.00     0.317 C 
HETATM    4  O2  UNL     1     -12.752  10.370  16.455  1.00  0.00    -0.247 OA
HETATM    5  N3  UNL     1     -11.854  10.414  14.341  1.00  0.00    -0.338 N 
ATOM      6  H3  UNL     1     -11.149  10.846  13.743  1.00  0.00     0.164 HD
ENDROOT
BRANCH   1   7
HETATM    7  C10 UNL     1     -11.116  12.306  17.553  1.00  0.00     0.062 C 
HETATM    8  C8  UNL     1     -10.468  11.423  18.561  1.00  0.00     0.021 C 
HETATM    9  C7  UNL     1      -9.850  12.643  19.202  1.00  0.00     0.039 C 
HETATM   10  C9  UNL     1      -9.396  10.551  17.970  1.00  0.00     0.013 C 
HETATM   11  C6  UNL     1     -10.683  13.213  20.281  1.00  0.00    -0.021 C 
HETATM   12  C24 UNL     1     -10.040  13.361  17.882  1.00  0.00     0.123 C 
HETATM   13  C5  UNL     1     -11.725  14.000  20.031  1.00  0.00    -0.005 C 
HETATM   14  C4  UNL     1     -12.007  14.273  18.599  1.00  0.00     0.112 C 
HETATM   15  N1  UNL     1     -10.670  14.622  18.011  1.00  0.00    -0.345 N 
HETATM   16  C23 UNL     1     -12.377  13.000  17.927  1.00  0.00     0.063 C 
BRANCH  15  17
HETATM   17  C3  UNL     1     -10.277  15.937  17.703  1.00  0.00     0.156 C 
BRANCH  17  18
HETATM   18  C2  UNL     1     -10.055  17.091  18.517  1.00  0.00     0.052 C 
HETATM   19  C1  UNL     1     -10.500  18.308  18.374  1.00  0.00     0.036 C 
HETATM   20 BR1  UNL     1      -8.931  16.880  20.120  1.00  0.00    -0.047 Br
ENDBRANCH  17  18
BRANCH  17  21
HETATM   21  O1  UNL     1     -10.079  16.126  16.427  1.00  0.00    -0.345 OA
ATOM     22  H1  UNL     1      -9.449  15.536  16.032  1.00  0.00     0.219 HD
ENDBRANCH  17  21
ENDBRANCH  15  17
ENDBRANCH   1   7
BRANCH   5  23
HETATM   23  C12 UNL     1     -12.679   9.418  13.737  1.00  0.00     0.091 C 
HETATM   24  C13 UNL     1     -13.367   9.848  12.484  1.00  0.00     0.031 C 
HETATM   25  C14 UNL     1     -13.699   8.530  11.790  1.00  0.00    -0.003 C 
HETATM   26  C15 UNL     1     -12.874   8.538  10.493  1.00  0.00     0.014 C 
HETATM   27  C20 UNL     1     -13.113   7.447  12.638  1.00  0.00    -0.034 C 
HETATM   28  C16 UNL     1     -11.674   7.731  10.919  1.00  0.00    -0.043 C 
HETATM   29  C17 UNL     1     -10.767   7.312   9.858  1.00  0.00     0.015 C 
HETATM   30  C18 UNL     1     -11.049   8.436  12.095  1.00  0.00     0.016 C 
HETATM   31  C22 UNL     1     -12.380   6.571  11.644  1.00  0.00     0.019 C 
HETATM   32  C19 UNL     1     -11.943   8.183  13.293  1.00  0.00     0.018 C 
HETATM   33  C21 UNL     1     -14.004   6.764  13.558  1.00  0.00     0.016 C 
ENDBRANCH   5  23
TORSDOF 5
ENDMDL
MODEL 4
REMARK VINA RESULT: -6.666210047      3.109      8.905
REMARK  5 active torsions:
REMARK  status: ('A' for Active; 'I' for Inactive)
REMARK    1  A    between atoms: C2_2  and  C3_4 
REMARK    2  A    between atoms: C3_4  and  O1_5 
REMARK    3  A    between atoms: C3_4  and  N1_7 
REMARK    4  A    between atoms: C10_14  and  N2_15 
REMARK       I    between atoms: N2_15  and  C11_17 
REMARK       I    between atoms: C11_17  and  N3_19 
REMARK    5  A    between atoms: N3_19  and  C12_21 
ROOT
HETATM    1  N2  UNL     1      -9.563  11.743  17.477  1.00  0.00    -0.331 N 
ATOM      2  H2  UNL     1      -8.841  11.022  17.482  1.00  0.00     0.165 HD
HETATM    3  C11 UNL     1     -10.556  11.712  16.467  1.00  0.00     0.317 C 
HETATM    4  O2  UNL     1     -11.427  12.615  16.490  1.00  0.00    -0.247 OA
HETATM    5  N3  UNL     1     -10.594  10.732  15.470  1.00  0.00    -0.338 N 
ATOM      6  H3  UNL     1      -9.861  10.023  15.500  1.00  0.00     0.164 HD
ENDROOT
BRANCH   1   7
HETATM    7  C10 UNL     1      -9.540  12.768  18.501  1.00  0.00     0.062 C 
HETATM    8  C8  UNL     1     -10.122  12.386  19.817  1.00  0.00     0.021 C 
HETATM    9  C7  UNL     1      -8.938  13.026  20.503  1.00  0.00     0.039 C 
HETATM   10  C9  UNL     1     -10.114  10.902  20.051  1.00  0.00     0.013 C 
HETATM   11  C6  UNL     1      -9.166  14.444  20.847  1.00  0.00    -0.021 C 
HETATM   12  C24 UNL     1      -8.171  12.860  19.208  1.00  0.00     0.123 C 
HETATM   13  C5  UNL     1      -9.043  15.419  19.952  1.00  0.00    -0.005 C 
HETATM   14  C4  UNL     1      -8.662  15.000  18.580  1.00  0.00     0.112 C 
HETATM   15  N1  UNL     1      -7.523  14.043  18.780  1.00  0.00    -0.345 N 
HETATM   16  C23 UNL     1      -9.747  14.157  18.012  1.00  0.00     0.063 C 
BRANCH  15  17
HETATM   17  C3  UNL     1      -6.176  14.379  18.547  1.00  0.00     0.156 C 
BRANCH  17  18
HETATM   18  C2  UNL     1      -5.161  14.924  19.393  1.00  0.00     0.052 C 
HETATM   19  C1  UNL     1      -5.249  15.380  20.611  1.00  0.00     0.036 C 
HETATM   20 BR1  UNL     1      -3.327  15.018  18.680  1.00  0.00    -0.047 Br
ENDBRANCH  17  18
BRANCH  17  21
HETATM   21  O1  UNL     1      -5.794  14.142  17.323  1.00  0.00    -0.345 OA
ATOM     22  H1  UNL     1      -6.468  13.779  16.761  1.00  0.00     0.219 HD
ENDBRANCH  17  21
ENDBRANCH  15  17
ENDBRANCH   1   7
BRANCH   5  23
HETATM   23  C12 UNL     1     -11.550  10.619  14.416  1.00  0.00     0.091 C 
HETATM   24  C13 UNL     1     -11.167   9.682  13.320  1.00  0.00     0.031 C 
HETATM   25  C14 UNL     1     -12.501   9.337  12.664  1.00  0.00    -0.003 C 
HETATM   26  C15 UNL     1     -12.697   7.833  12.914  1.00  0.00     0.014 C 
HETATM   27  C20 UNL     1     -13.557  10.024  13.469  1.00  0.00    -0.034 C 
HETATM   28  C16 UNL     1     -13.582   7.864  14.134  1.00  0.00    -0.043 C 
HETATM   29  C17 UNL     1     -14.188   6.599  14.526  1.00  0.00     0.015 C 
HETATM   30  C18 UNL     1     -12.842   8.615  15.210  1.00  0.00     0.016 C 
HETATM   31  C22 UNL     1     -14.592   8.943  13.700  1.00  0.00     0.019 C 
HETATM   32  C19 UNL     1     -12.890  10.085  14.844  1.00  0.00     0.018 C 
HETATM   33  C21 UNL     1     -14.057  11.292  12.970  1.00  0.00     0.016 C 
ENDBRANCH   5  23
TORSDOF 5
ENDMDL
MODEL 5
REMARK VINA RESULT: -6.647043581      3.121      9.417
REMARK  5 active torsions:
REMARK  status: ('A' for Active; 'I' for Inactive)
REMARK    1  A    between atoms: C2_2  and  C3_4 
REMARK    2  A    between atoms: C3_4  and  O1_5 
REMARK    3  A    between atoms: C3_4  and  N1_7 
REMARK    4  A    between atoms: C10_14  and  N2_15 
REMARK       I    between atoms: N2_15  and  C11_17 
REMARK       I    between atoms: C11_17  and  N3_19 
REMARK    5  A    between atoms: N3_19  and  C12_21 
ROOT
HETATM    1  N2  UNL     1     -11.649   8.919  15.213  1.00  0.00    -0.331 N 
ATOM      2  H2  UNL     1     -10.637   8.803  15.156  1.00  0.00     0.165 HD
HETATM    3  C11 UNL     1     -12.453   8.462  14.140  1.00  0.00     0.317 C 
HETATM    4  O2  UNL     1     -13.693   8.622  14.243  1.00  0.00    -0.247 OA
HETATM    5  N3  UNL     1     -11.921   7.855  12.998  1.00  0.00    -0.338 N 
ATOM      6  H3  UNL     1     -10.907   7.751  12.967  1.00  0.00     0.164 HD
ENDROOT
BRANCH   1   7
HETATM    7  C10 UNL     1     -12.219   9.546  16.389  1.00  0.00     0.062 C 
HETATM    8  C8  UNL     1     -12.893   8.633  17.352  1.00  0.00     0.021 C 
HETATM    9  C7  UNL     1     -12.198   9.348  18.486  1.00  0.00     0.039 C 
HETATM   10  C9  UNL     1     -12.401   7.216  17.256  1.00  0.00     0.013 C 
HETATM   11  C6  UNL     1     -12.991  10.466  19.036  1.00  0.00    -0.021 C 
HETATM   12  C24 UNL     1     -11.163   9.811  17.481  1.00  0.00     0.123 C 
HETATM   13  C5  UNL     1     -13.037  11.658  18.450  1.00  0.00    -0.005 C 
HETATM   14  C4  UNL     1     -12.244  11.803  17.203  1.00  0.00     0.112 C 
HETATM   15  N1  UNL     1     -10.909  11.203  17.533  1.00  0.00    -0.345 N 
HETATM   16  C23 UNL     1     -12.803  10.895  16.166  1.00  0.00     0.063 C 
BRANCH  15  17
HETATM   17  C3  UNL     1      -9.758  11.967  17.800  1.00  0.00     0.156 C 
BRANCH  17  18
HETATM   18  C2  UNL     1      -9.367  12.756  18.926  1.00  0.00     0.052 C 
HETATM   19  C1  UNL     1      -8.650  13.844  18.971  1.00  0.00     0.036 C 
HETATM   20 BR1  UNL     1      -9.980  12.179  20.707  1.00  0.00    -0.047 Br
ENDBRANCH  17  18
BRANCH  17  21
HETATM   21  O1  UNL     1      -8.891  11.944  16.825  1.00  0.00    -0.345 OA
ATOM     22  H1  UNL     1      -9.257  12.113  15.966  1.00  0.00     0.219 HD
ENDBRANCH  17  21
ENDBRANCH  15  17
ENDBRANCH   1   7
BRANCH   5  23
HETATM   23  C12 UNL     1     -12.648   7.366  11.871  1.00  0.00     0.091 C 
HETATM   24  C13 UNL     1     -13.136   8.420  10.933  1.00  0.00     0.031 C 
HETATM   25  C14 UNL     1     -13.362   7.659   9.629  1.00  0.00    -0.003 C 
HETATM   26  C15 UNL     1     -12.349   8.252   8.636  1.00  0.00     0.014 C 
HETATM   27  C20 UNL     1     -12.914   6.254   9.877  1.00  0.00    -0.034 C 
HETATM   28  C16 UNL     1     -11.229   7.248   8.745  1.00  0.00    -0.043 C 
HETATM   29  C17 UNL     1     -10.173   7.347   7.746  1.00  0.00     0.015 C 
HETATM   30  C18 UNL     1     -10.789   7.215  10.185  1.00  0.00     0.016 C 
HETATM   31  C22 UNL     1     -12.041   5.941   8.681  1.00  0.00     0.019 C 
HETATM   32  C19 UNL     1     -11.855   6.467  10.961  1.00  0.00     0.018 C 
HETATM   33  C21 UNL     1     -13.937   5.276  10.198  1.00  0.00     0.016 C 
ENDBRANCH   5  23
TORSDOF 5
ENDMDL
