MODEL 1
REMARK VINA RESULT: -4.851773036      0.000      0.000
REMARK  3 active torsions:
REMARK  status: ('A' for Active; 'I' for Inactive)
REMARK    1  A    between atoms: N1_1  and  C1_5 
REMARK    2  A    between atoms: C1_5  and  C2_6 
REMARK    3  A    between atoms: C2_6  and  N2_7 
ROOT
HETATM    1  C2  UNL     1      43.192  79.647  38.284  1.00  0.00     0.120 C 
HETATM    2  C3  UNL     1      44.341  80.118  37.421  1.00  0.00     0.039 C 
HETATM    3  C4  UNL     1      44.104  79.849  35.953  1.00  0.00     0.003 C 
HETATM    4  C5  UNL     1      44.302  78.345  35.758  1.00  0.00     0.000 C 
HETATM    5  C6  UNL     1      43.626  77.603  36.892  1.00  0.00     0.003 C 
HETATM    6  C7  UNL     1      42.582  78.459  37.576  1.00  0.00     0.039 C 
ENDROOT
BRANCH   1   7
HETATM    7  C1  UNL     1      43.766  79.266  39.629  1.00  0.00     0.267 C 
BRANCH   7   8
HETATM    8  N1  UNL     1      43.051  79.965  40.679  1.00  0.00    -0.077 N 
ATOM      9  H13 UNL     1      43.578  79.987  41.553  1.00  0.00     0.274 HD
ATOM     10  H12 UNL     1      43.005  80.970  40.510  1.00  0.00     0.274 HD
ATOM     11  H11 UNL     1      42.126  79.552  40.799  1.00  0.00     0.274 HD
ENDBRANCH   7   8
ENDBRANCH   1   7
BRANCH   1  12
HETATM   12  N2  UNL     1      42.175  80.626  38.455  1.00  0.00    -0.143 N 
HETATM   13  O1  UNL     1      42.417  81.802  38.132  1.00  0.00    -0.536 OA
HETATM   14  O2  UNL     1      40.921  80.375  38.958  1.00  0.00    -0.536 OA
ENDBRANCH   1  12
TORSDOF 3
ENDMDL
MODEL 2
REMARK VINA RESULT: -4.589917756      2.320      3.040
REMARK  3 active torsions:
REMARK  status: ('A' for Active; 'I' for Inactive)
REMARK    1  A    between atoms: N1_1  and  C1_5 
REMARK    2  A    between atoms: C1_5  and  C2_6 
REMARK    3  A    between atoms: C2_6  and  N2_7 
ROOT
HETATM    1  C2  UNL     1      42.389  79.834  40.096  1.00  0.00     0.120 C 
HETATM    2  C3  UNL     1      42.924  78.614  39.381  1.00  0.00     0.039 C 
HETATM    3  C4  UNL     1      43.982  78.964  38.361  1.00  0.00     0.003 C 
HETATM    4  C5  UNL     1      43.242  79.589  37.177  1.00  0.00     0.000 C 
HETATM    5  C6  UNL     1      42.192  80.549  37.696  1.00  0.00     0.003 C 
HETATM    6  C7  UNL     1      42.486  80.982  39.117  1.00  0.00     0.039 C 
ENDROOT
BRANCH   1   7
HETATM    7  C1  UNL     1      40.957  79.542  40.478  1.00  0.00     0.267 C 
BRANCH   7   8
HETATM    8  N1  UNL     1      40.928  78.769  41.704  1.00  0.00    -0.077 N 
ATOM      9  H13 UNL     1      40.049  78.881  42.209  1.00  0.00     0.274 HD
ATOM     10  H12 UNL     1      40.867  77.766  41.526  1.00  0.00     0.274 HD
ATOM     11  H11 UNL     1      41.735  79.009  42.280  1.00  0.00     0.274 HD
ENDBRANCH   7   8
ENDBRANCH   1   7
BRANCH   1  12
HETATM   12  N2  UNL     1      43.135  80.182  41.255  1.00  0.00    -0.143 N 
HETATM   13  O1  UNL     1      44.209  79.595  41.474  1.00  0.00    -0.536 OA
HETATM   14  O2  UNL     1      42.759  81.134  42.174  1.00  0.00    -0.536 OA
ENDBRANCH   1  12
TORSDOF 3
ENDMDL
MODEL 3
REMARK VINA RESULT: -4.522736061      2.744      3.922
REMARK  3 active torsions:
REMARK  status: ('A' for Active; 'I' for Inactive)
REMARK    1  A    between atoms: N1_1  and  C1_5 
REMARK    2  A    between atoms: C1_5  and  C2_6 
REMARK    3  A    between atoms: C2_6  and  N2_7 
ROOT
HETATM    1  C2  UNL     1      43.567  79.144  37.754  1.00  0.00     0.120 C 
HETATM    2  C3  UNL     1      43.946  79.248  39.214  1.00  0.00     0.039 C 
HETATM    3  C4  UNL     1      42.775  78.984  40.131  1.00  0.00     0.003 C 
HETATM    4  C5  UNL     1      41.888  80.229  40.059  1.00  0.00     0.000 C 
HETATM    5  C6  UNL     1      41.772  80.674  38.616  1.00  0.00     0.003 C 
HETATM    6  C7  UNL     1      42.115  79.555  37.657  1.00  0.00     0.039 C 
ENDROOT
BRANCH   1   7
HETATM    7  C1  UNL     1      44.469  80.083  36.986  1.00  0.00     0.267 C 
BRANCH   7   8
HETATM    8  N1  UNL     1      43.971  80.240  35.634  1.00  0.00    -0.077 N 
ATOM      9  H13 UNL     1      43.072  80.721  35.609  1.00  0.00     0.274 HD
ATOM     10  H12 UNL     1      44.515  80.917  35.100  1.00  0.00     0.274 HD
ATOM     11  H11 UNL     1      43.932  79.330  35.175  1.00  0.00     0.274 HD
ENDBRANCH   7   8
ENDBRANCH   1   7
BRANCH   1  12
HETATM   12  N2  UNL     1      43.687  77.828  37.231  1.00  0.00    -0.143 N 
HETATM   13  O1  UNL     1      43.161  76.887  37.852  1.00  0.00    -0.536 OA
HETATM   14  O2  UNL     1      44.352  77.501  36.072  1.00  0.00    -0.536 OA
ENDBRANCH   1  12
TORSDOF 3
ENDMDL
MODEL 4
REMARK VINA RESULT: -4.337694495      2.372      3.455
REMARK  3 active torsions:
REMARK  status: ('A' for Active; 'I' for Inactive)
REMARK    1  A    between atoms: N1_1  and  C1_5 
REMARK    2  A    between atoms: C1_5  and  C2_6 
REMARK    3  A    between atoms: C2_6  and  N2_7 
ROOT
HETATM    1  C2  UNL     1      43.587  79.149  37.823  1.00  0.00     0.120 C 
HETATM    2  C3  UNL     1      42.087  79.335  37.836  1.00  0.00     0.039 C 
HETATM    3  C4  UNL     1      41.661  80.506  38.691  1.00  0.00     0.003 C 
HETATM    4  C5  UNL     1      41.826  80.055  40.144  1.00  0.00     0.000 C 
HETATM    5  C6  UNL     1      43.137  79.312  40.289  1.00  0.00     0.003 C 
HETATM    6  C7  UNL     1      44.092  79.640  39.161  1.00  0.00     0.039 C 
ENDROOT
BRANCH   1   7
HETATM    7  C1  UNL     1      43.857  77.675  37.628  1.00  0.00     0.267 C 
BRANCH   7   8
HETATM    8  N1  UNL     1      42.743  76.903  38.141  1.00  0.00    -0.077 N 
ATOM      9  H13 UNL     1      42.718  76.896  39.161  1.00  0.00     0.274 HD
ATOM     10  H12 UNL     1      41.848  77.363  37.975  1.00  0.00     0.274 HD
ATOM     11  H11 UNL     1      42.769  75.961  37.751  1.00  0.00     0.274 HD
ENDBRANCH   7   8
ENDBRANCH   1   7
BRANCH   1  12
HETATM   12  N2  UNL     1      44.241  79.897  36.806  1.00  0.00    -0.143 N 
HETATM   13  O1  UNL     1      44.750  80.993  37.102  1.00  0.00    -0.536 OA
HETATM   14  O2  UNL     1      44.359  79.502  35.494  1.00  0.00    -0.536 OA
ENDBRANCH   1  12
TORSDOF 3
ENDMDL
MODEL 5
REMARK VINA RESULT: -4.268510648      1.557      2.488
REMARK  3 active torsions:
REMARK  status: ('A' for Active; 'I' for Inactive)
REMARK    1  A    between atoms: N1_1  and  C1_5 
REMARK    2  A    between atoms: C1_5  and  C2_6 
REMARK    3  A    between atoms: C2_6  and  N2_7 
ROOT
HETATM    1  C2  UNL     1      42.996  79.552  38.141  1.00  0.00     0.120 C 
HETATM    2  C3  UNL     1      42.609  78.245  37.486  1.00  0.00     0.039 C 
HETATM    3  C4  UNL     1      43.806  77.496  36.949  1.00  0.00     0.003 C 
HETATM    4  C5  UNL     1      44.241  78.240  35.684  1.00  0.00     0.000 C 
HETATM    5  C6  UNL     1      44.202  79.731  35.946  1.00  0.00     0.003 C 
HETATM    6  C7  UNL     1      44.236  80.039  37.427  1.00  0.00     0.039 C 
ENDROOT
BRANCH   1   7
HETATM    7  C1  UNL     1      41.836  80.505  37.966  1.00  0.00     0.267 C 
BRANCH   7   8
HETATM    8  N1  UNL     1      42.316  81.872  38.019  1.00  0.00    -0.077 N 
ATOM      9  H13 UNL     1      43.330  81.919  38.122  1.00  0.00     0.274 HD
ATOM     10  H12 UNL     1      42.238  82.342  37.117  1.00  0.00     0.274 HD
ATOM     11  H11 UNL     1      41.831  82.377  38.760  1.00  0.00     0.274 HD
ENDBRANCH   7   8
ENDBRANCH   1   7
BRANCH   1  12
HETATM   12  N2  UNL     1      43.307  79.421  39.522  1.00  0.00    -0.143 N 
HETATM   13  O1  UNL     1      44.369  78.860  39.846  1.00  0.00    -0.536 OA
HETATM   14  O2  UNL     1      42.515  79.873  40.551  1.00  0.00    -0.536 OA
ENDBRANCH   1  12
TORSDOF 3
ENDMDL
