MODEL 1
REMARK VINA RESULT: -4.497800761      0.000      0.000
REMARK  4 active torsions:
REMARK  status: ('A' for Active; 'I' for Inactive)
REMARK    1  A    between atoms: C2_2  and  N1_4 
REMARK    2  A    between atoms: C6_7  and  N2_8 
REMARK    3  A    between atoms: C9_11  and  C10_12 
REMARK    4  A    between atoms: C11_13  and  C12_15 
ROOT
HETATM    1  N1  UNL     1      29.118  23.784   9.799  1.00  0.00    -0.383 N 
HETATM    2  C4  UNL     1      29.842  24.901  10.237  1.00  0.00     0.062 C 
HETATM    3  C5  UNL     1      31.284  24.828   9.857  1.00  0.00     0.087 C 
HETATM    4  C6  UNL     1      31.616  23.682   8.946  1.00  0.00     0.180 C 
HETATM    5  C9  UNL     1      31.152  22.392   9.588  1.00  0.00     0.074 C 
HETATM    6  C13 UNL     1      29.772  22.775   9.094  1.00  0.00     0.104 C 
HETATM    7  C14 UNL     1      30.533  23.412   7.918  1.00  0.00     0.011 C 
HETATM    8  C15 UNL     1      29.861  24.586   7.305  1.00  0.00     0.020 C 
HETATM    9  C16 UNL     1      30.973  22.321   6.981  1.00  0.00     0.020 C 
ENDROOT
BRANCH   5  10
HETATM   10  C10 UNL     1      31.362  22.247  11.010  1.00  0.00     0.026 C 
HETATM   11  C11 UNL     1      31.961  21.212  11.546  1.00  0.00     0.154 C 
HETATM   12  F1  UNL     1      32.110  21.174  12.928  1.00  0.00    -0.205 F 
BRANCH  11  13
HETATM   13  C12 UNL     1      32.524  20.032  10.876  1.00  0.00     0.414 C 
HETATM   14  F2  UNL     1      33.902  20.043  10.824  1.00  0.00    -0.207 F 
HETATM   15  F3  UNL     1      32.205  18.851  11.571  1.00  0.00    -0.207 F 
ENDBRANCH  11  13
ENDBRANCH   5  10
BRANCH   4  16
HETATM   16  N2  UNL     1      32.901  23.666   8.362  1.00  0.00     0.091 N 
HETATM   17  C7  UNL     1      33.419  24.904   7.899  1.00  0.00     0.310 C 
HETATM   18  C8  UNL     1      33.939  23.012   9.126  1.00  0.00     0.310 C 
ENDBRANCH   4  16
BRANCH   1  19
HETATM   19  C2  UNL     1      27.799  23.592  10.235  1.00  0.00     0.075 C 
HETATM   20  C1  UNL     1      26.759  23.732   9.124  1.00  0.00     0.032 C 
HETATM   21  C3  UNL     1      27.362  24.431  11.399  1.00  0.00     0.032 C 
ENDBRANCH   1  19
TORSDOF 4
ENDMDL
MODEL 2
REMARK VINA RESULT: -4.336974981      1.309      1.898
REMARK  4 active torsions:
REMARK  status: ('A' for Active; 'I' for Inactive)
REMARK    1  A    between atoms: C2_2  and  N1_4 
REMARK    2  A    between atoms: C6_7  and  N2_8 
REMARK    3  A    between atoms: C9_11  and  C10_12 
REMARK    4  A    between atoms: C11_13  and  C12_15 
ROOT
HETATM    1  N1  UNL     1      30.780  23.856   9.049  1.00  0.00    -0.383 N 
HETATM    2  C4  UNL     1      31.177  24.896   9.899  1.00  0.00     0.062 C 
HETATM    3  C5  UNL     1      32.609  24.781  10.308  1.00  0.00     0.087 C 
HETATM    4  C6  UNL     1      33.359  23.694   9.594  1.00  0.00     0.180 C 
HETATM    5  C9  UNL     1      32.628  22.383   9.783  1.00  0.00     0.074 C 
HETATM    6  C13 UNL     1      31.701  22.873   8.689  1.00  0.00     0.104 C 
HETATM    7  C14 UNL     1      32.961  23.561   8.136  1.00  0.00     0.011 C 
HETATM    8  C15 UNL     1      32.705  24.812   7.377  1.00  0.00     0.020 C 
HETATM    9  C16 UNL     1      33.818  22.527   7.460  1.00  0.00     0.020 C 
ENDROOT
BRANCH   5  10
HETATM   10  C10 UNL     1      32.074  22.116  11.090  1.00  0.00     0.026 C 
HETATM   11  C11 UNL     1      32.029  20.919  11.621  1.00  0.00     0.154 C 
HETATM   12  F1  UNL     1      31.473  20.774  12.887  1.00  0.00    -0.205 F 
BRANCH  11  13
HETATM   13  C12 UNL     1      32.499  19.648  11.053  1.00  0.00     0.414 C 
HETATM   14  F2  UNL     1      33.874  19.563  10.977  1.00  0.00    -0.207 F 
HETATM   15  F3  UNL     1      32.121  18.559  11.860  1.00  0.00    -0.207 F 
ENDBRANCH  11  13
ENDBRANCH   5  10
BRANCH   4  16
HETATM   16  N2  UNL     1      34.762  23.659   9.754  1.00  0.00     0.091 N 
HETATM   17  C7  UNL     1      35.437  24.905   9.837  1.00  0.00     0.310 C 
HETATM   18  C8  UNL     1      35.260  22.816  10.816  1.00  0.00     0.310 C 
ENDBRANCH   4  16
BRANCH   1  19
HETATM   19  C2  UNL     1      29.424  23.696   8.726  1.00  0.00     0.075 C 
HETATM   20  C1  UNL     1      28.943  24.632   7.618  1.00  0.00     0.032 C 
HETATM   21  C3  UNL     1      28.460  23.786   9.871  1.00  0.00     0.032 C 
ENDBRANCH   1  19
TORSDOF 4
ENDMDL
MODEL 3
REMARK VINA RESULT: -4.037898238      2.812      4.165
REMARK  4 active torsions:
REMARK  status: ('A' for Active; 'I' for Inactive)
REMARK    1  A    between atoms: C2_2  and  N1_4 
REMARK    2  A    between atoms: C6_7  and  N2_8 
REMARK    3  A    between atoms: C9_11  and  C10_12 
REMARK    4  A    between atoms: C11_13  and  C12_15 
ROOT
HETATM    1  N1  UNL     1      31.106  24.152   7.798  1.00  0.00    -0.383 N 
HETATM    2  C4  UNL     1      32.050  24.905   8.508  1.00  0.00     0.062 C 
HETATM    3  C5  UNL     1      32.573  24.180   9.704  1.00  0.00     0.087 C 
HETATM    4  C6  UNL     1      32.120  22.751   9.794  1.00  0.00     0.180 C 
HETATM    5  C9  UNL     1      30.608  22.709   9.744  1.00  0.00     0.074 C 
HETATM    6  C13 UNL     1      30.765  22.877   8.247  1.00  0.00     0.104 C 
HETATM    7  C14 UNL     1      32.057  22.065   8.442  1.00  0.00     0.011 C 
HETATM    8  C15 UNL     1      33.136  22.368   7.467  1.00  0.00     0.020 C 
HETATM    9  C16 UNL     1      31.694  20.616   8.616  1.00  0.00     0.020 C 
ENDROOT
BRANCH   5  10
HETATM   10  C10 UNL     1      29.893  23.724  10.483  1.00  0.00     0.026 C 
HETATM   11  C11 UNL     1      28.589  23.732  10.617  1.00  0.00     0.154 C 
HETATM   12  F1  UNL     1      28.003  24.757  11.349  1.00  0.00    -0.205 F 
BRANCH  11  13
HETATM   13  C12 UNL     1      27.609  22.775  10.084  1.00  0.00     0.414 C 
HETATM   14  F2  UNL     1      26.840  22.183  11.064  1.00  0.00    -0.207 F 
HETATM   15  F3  UNL     1      26.681  23.414   9.242  1.00  0.00    -0.207 F 
ENDBRANCH  11  13
ENDBRANCH   5  10
BRANCH   4  16
HETATM   16  N2  UNL     1      32.740  21.932  10.763  1.00  0.00     0.091 N 
HETATM   17  C7  UNL     1      34.025  22.326  11.219  1.00  0.00     0.310 C 
HETATM   18  C8  UNL     1      31.942  21.605  11.922  1.00  0.00     0.310 C 
ENDBRANCH   4  16
BRANCH   1  19
HETATM   19  C2  UNL     1      30.369  24.750   6.765  1.00  0.00     0.075 C 
HETATM   20  C1  UNL     1      28.865  24.792   7.028  1.00  0.00     0.032 C 
HETATM   21  C3  UNL     1      30.592  24.192   5.390  1.00  0.00     0.032 C 
ENDBRANCH   1  19
TORSDOF 4
ENDMDL
MODEL 4
REMARK VINA RESULT: -3.969049463      2.642      4.936
REMARK  4 active torsions:
REMARK  status: ('A' for Active; 'I' for Inactive)
REMARK    1  A    between atoms: C2_2  and  N1_4 
REMARK    2  A    between atoms: C6_7  and  N2_8 
REMARK    3  A    between atoms: C9_11  and  C10_12 
REMARK    4  A    between atoms: C11_13  and  C12_15 
ROOT
HETATM    1  N1  UNL     1      32.494  21.376   9.791  1.00  0.00    -0.383 N 
HETATM    2  C4  UNL     1      31.870  20.688   8.742  1.00  0.00     0.062 C 
HETATM    3  C5  UNL     1      31.051  21.590   7.879  1.00  0.00     0.087 C 
HETATM    4  C6  UNL     1      31.208  23.048   8.202  1.00  0.00     0.180 C 
HETATM    5  C9  UNL     1      30.900  23.264   9.668  1.00  0.00     0.074 C 
HETATM    6  C13 UNL     1      32.303  22.751   9.921  1.00  0.00     0.104 C 
HETATM    7  C14 UNL     1      32.630  23.421   8.576  1.00  0.00     0.011 C 
HETATM    8  C15 UNL     1      33.731  22.779   7.812  1.00  0.00     0.020 C 
HETATM    9  C16 UNL     1      32.735  24.905   8.789  1.00  0.00     0.020 C 
ENDROOT
BRANCH   5  10
HETATM   10  C10 UNL     1      29.785  22.534  10.226  1.00  0.00     0.026 C 
HETATM   11  C11 UNL     1      28.682  23.110  10.638  1.00  0.00     0.154 C 
HETATM   12  F1  UNL     1      27.671  22.311  11.159  1.00  0.00    -0.205 F 
BRANCH  11  13
HETATM   13  C12 UNL     1      28.339  24.538  10.631  1.00  0.00     0.414 C 
HETATM   14  F2  UNL     1      27.473  24.884   9.614  1.00  0.00    -0.207 F 
HETATM   15  F3  UNL     1      27.665  24.904  11.810  1.00  0.00    -0.207 F 
ENDBRANCH  11  13
ENDBRANCH   5  10
BRANCH   4  16
HETATM   16  N2  UNL     1      30.648  23.978   7.300  1.00  0.00     0.091 N 
HETATM   17  C7  UNL     1      31.271  24.107   6.031  1.00  0.00     0.310 C 
HETATM   18  C8  UNL     1      29.223  23.876   7.083  1.00  0.00     0.310 C 
ENDBRANCH   4  16
BRANCH   1  19
HETATM   19  C2  UNL     1      33.140  20.660  10.810  1.00  0.00     0.075 C 
HETATM   20  C1  UNL     1      34.615  20.382  10.525  1.00  0.00     0.032 C 
HETATM   21  C3  UNL     1      32.489  19.373  11.224  1.00  0.00     0.032 C 
ENDBRANCH   1  19
TORSDOF 4
ENDMDL
MODEL 5
REMARK VINA RESULT: -3.702347168      3.263      4.560
REMARK  4 active torsions:
REMARK  status: ('A' for Active; 'I' for Inactive)
REMARK    1  A    between atoms: C2_2  and  N1_4 
REMARK    2  A    between atoms: C6_7  and  N2_8 
REMARK    3  A    between atoms: C9_11  and  C10_12 
REMARK    4  A    between atoms: C11_13  and  C12_15 
ROOT
HETATM    1  N1  UNL     1      30.642  23.383  10.159  1.00  0.00    -0.383 N 
HETATM    2  C4  UNL     1      30.824  22.022  10.439  1.00  0.00     0.062 C 
HETATM    3  C5  UNL     1      32.101  21.492   9.874  1.00  0.00     0.087 C 
HETATM    4  C6  UNL     1      32.992  22.549   9.290  1.00  0.00     0.180 C 
HETATM    5  C9  UNL     1      32.216  23.330   8.252  1.00  0.00     0.074 C 
HETATM    6  C13 UNL     1      31.610  24.070   9.427  1.00  0.00     0.104 C 
HETATM    7  C14 UNL     1      32.980  23.840  10.087  1.00  0.00     0.011 C 
HETATM    8  C15 UNL     1      32.946  23.731  11.568  1.00  0.00     0.020 C 
HETATM    9  C16 UNL     1      33.965  24.815   9.505  1.00  0.00     0.020 C 
ENDROOT
BRANCH   5  10
HETATM   10  C10 UNL     1      31.341  22.583   7.378  1.00  0.00     0.026 C 
HETATM   11  C11 UNL     1      30.610  23.141   6.444  1.00  0.00     0.154 C 
HETATM   12  F1  UNL     1      29.802  22.327   5.659  1.00  0.00    -0.205 F 
BRANCH  11  13
HETATM   13  C12 UNL     1      30.512  24.563   6.086  1.00  0.00     0.414 C 
HETATM   14  F2  UNL     1      31.278  24.901   4.990  1.00  0.00    -0.207 F 
HETATM   15  F3  UNL     1      29.198  24.905   5.720  1.00  0.00    -0.207 F 
ENDBRANCH  11  13
ENDBRANCH   5  10
BRANCH   4  16
HETATM   16  N2  UNL     1      34.306  22.170   8.937  1.00  0.00     0.091 N 
HETATM   17  C7  UNL     1      34.966  21.247   9.791  1.00  0.00     0.310 C 
HETATM   18  C8  UNL     1      34.496  21.725   7.576  1.00  0.00     0.310 C 
ENDBRANCH   4  16
BRANCH   1  19
HETATM   19  C2  UNL     1      29.413  23.996  10.442  1.00  0.00     0.075 C 
HETATM   20  C1  UNL     1      28.314  23.014  10.843  1.00  0.00     0.032 C 
HETATM   21  C3  UNL     1      28.869  24.902   9.377  1.00  0.00     0.032 C 
ENDBRANCH   1  19
TORSDOF 4
ENDMDL
