MODEL 1
REMARK VINA RESULT: -5.555548049      0.000      0.000
REMARK  6 active torsions:
REMARK  status: ('A' for Active; 'I' for Inactive)
REMARK    1  A    between atoms: C4_4  and  N1_5 
REMARK    2  A    between atoms: C5_10  and  C6_11 
REMARK    3  A    between atoms: C6_11  and  S1_12 
REMARK    4  A    between atoms: S1_12  and  C7_13 
REMARK    5  A    between atoms: C7_13  and  N3_15 
REMARK    6  A    between atoms: N3_15  and  C8_17 
ROOT
HETATM    1  C1  UNL     1      43.266  35.717  82.940  1.00  0.00     0.068 C 
HETATM    2  C2  UNL     1      44.136  35.370  84.119  1.00  0.00     0.010 A 
HETATM    3  C3  UNL     1      44.931  34.256  84.114  1.00  0.00     0.072 A 
HETATM    4  C4  UNL     1      45.702  33.988  85.214  1.00  0.00     0.101 A 
HETATM    5  N2  UNL     1      45.663  34.815  86.265  1.00  0.00    -0.332 N 
ATOM      6  H2  UNL     1      46.234  34.619  87.087  1.00  0.00     0.168 HD
HETATM    7  C5  UNL     1      44.864  35.915  86.240  1.00  0.00     0.092 A 
HETATM    8  N4  UNL     1      44.108  36.197  85.189  1.00  0.00    -0.349 N 
ATOM      9  H4  UNL     1      43.513  37.025  85.187  1.00  0.00     0.167 HD
ENDROOT
BRANCH   7  10
HETATM   10  C6  UNL     1      44.869  36.788  87.437  1.00  0.00     0.158 C 
BRANCH  10  11
HETATM   11  S1  UNL     1      43.353  37.712  87.625  1.00  0.00    -0.093 SA
BRANCH  11  12
HETATM   12  C7  UNL     1      43.401  38.618  89.161  1.00  0.00     0.135 C 
HETATM   13  S2  UNL     1      42.453  38.113  90.386  1.00  0.00    -0.053 SA
BRANCH  12  14
HETATM   14  N3  UNL     1      44.251  39.764  89.323  1.00  0.00    -0.368 N 
ATOM     15  H3  UNL     1      43.951  40.685  89.003  1.00  0.00     0.161 HD
BRANCH  14  16
HETATM   16  C8  UNL     1      45.519  39.587  89.941  1.00  0.00     0.117 C 
HETATM   17  C9  UNL     1      45.648  40.081  91.368  1.00  0.00     0.031 C 
HETATM   18  C10 UNL     1      47.042  40.552  91.006  1.00  0.00     0.041 C 
HETATM   19  C11 UNL     1      46.567  40.639  89.570  1.00  0.00     0.192 C 
HETATM   20  F1  UNL     1      47.473  40.190  88.632  1.00  0.00    -0.247 F 
ENDBRANCH  14  16
ENDBRANCH  12  14
ENDBRANCH  11  12
ENDBRANCH  10  11
ENDBRANCH   7  10
BRANCH   4  21
HETATM   21  N1  UNL     1      46.465  32.960  85.263  1.00  0.00    -0.385 N 
ATOM     22  H12 UNL     1      46.101  32.060  84.949  1.00  0.00     0.157 HD
ATOM     23  H11 UNL     1      47.423  33.022  85.607  1.00  0.00     0.157 HD
ENDBRANCH   4  21
TORSDOF 6
ENDMDL
MODEL 2
REMARK VINA RESULT: -5.533337561      3.437      4.877
REMARK  6 active torsions:
REMARK  status: ('A' for Active; 'I' for Inactive)
REMARK    1  A    between atoms: C4_4  and  N1_5 
REMARK    2  A    between atoms: C5_10  and  C6_11 
REMARK    3  A    between atoms: C6_11  and  S1_12 
REMARK    4  A    between atoms: S1_12  and  C7_13 
REMARK    5  A    between atoms: C7_13  and  N3_15 
REMARK    6  A    between atoms: N3_15  and  C8_17 
ROOT
HETATM    1  C1  UNL     1      43.204  35.761  82.935  1.00  0.00     0.068 C 
HETATM    2  C2  UNL     1      44.084  35.370  84.093  1.00  0.00     0.010 A 
HETATM    3  C3  UNL     1      44.827  34.220  84.066  1.00  0.00     0.072 A 
HETATM    4  C4  UNL     1      45.610  33.912  85.147  1.00  0.00     0.101 A 
HETATM    5  N2  UNL     1      45.633  34.736  86.200  1.00  0.00    -0.332 N 
ATOM      6  H2  UNL     1      46.213  34.511  87.008  1.00  0.00     0.168 HD
HETATM    7  C5  UNL     1      44.885  35.872  86.197  1.00  0.00     0.092 A 
HETATM    8  N4  UNL     1      44.119  36.192  85.165  1.00  0.00    -0.349 N 
ATOM      9  H4  UNL     1      43.564  37.047  85.179  1.00  0.00     0.167 HD
ENDROOT
BRANCH   7  10
HETATM   10  C6  UNL     1      44.959  36.739  87.396  1.00  0.00     0.158 C 
BRANCH  10  11
HETATM   11  S1  UNL     1      43.901  38.172  87.279  1.00  0.00    -0.093 SA
BRANCH  11  12
HETATM   12  C7  UNL     1      42.302  37.783  87.964  1.00  0.00     0.135 C 
HETATM   13  S2  UNL     1      42.054  38.058  89.551  1.00  0.00    -0.053 SA
BRANCH  12  14
HETATM   14  N3  UNL     1      41.252  37.240  87.148  1.00  0.00    -0.368 N 
ATOM     15  H3  UNL     1      40.722  37.838  86.515  1.00  0.00     0.161 HD
BRANCH  14  16
HETATM   16  C8  UNL     1      40.968  35.850  87.243  1.00  0.00     0.117 C 
HETATM   17  C9  UNL     1      40.710  35.125  85.938  1.00  0.00     0.031 C 
HETATM   18  C10 UNL     1      39.635  34.343  86.664  1.00  0.00     0.041 C 
HETATM   19  C11 UNL     1      39.523  35.514  87.620  1.00  0.00     0.192 C 
HETATM   20  F1  UNL     1      39.379  35.167  88.947  1.00  0.00    -0.247 F 
ENDBRANCH  14  16
ENDBRANCH  12  14
ENDBRANCH  11  12
ENDBRANCH  10  11
ENDBRANCH   7  10
BRANCH   4  21
HETATM   21  N1  UNL     1      46.325  32.849  85.175  1.00  0.00    -0.385 N 
ATOM     22  H12 UNL     1      46.084  32.111  85.836  1.00  0.00     0.157 HD
ATOM     23  H11 UNL     1      47.124  32.728  84.553  1.00  0.00     0.157 HD
ENDBRANCH   4  21
TORSDOF 6
ENDMDL
MODEL 3
REMARK VINA RESULT: -5.480635837      3.249      4.648
REMARK  6 active torsions:
REMARK  status: ('A' for Active; 'I' for Inactive)
REMARK    1  A    between atoms: C4_4  and  N1_5 
REMARK    2  A    between atoms: C5_10  and  C6_11 
REMARK    3  A    between atoms: C6_11  and  S1_12 
REMARK    4  A    between atoms: S1_12  and  C7_13 
REMARK    5  A    between atoms: C7_13  and  N3_15 
REMARK    6  A    between atoms: N3_15  and  C8_17 
ROOT
HETATM    1  C1  UNL     1      43.265  35.832  82.887  1.00  0.00     0.068 C 
HETATM    2  C2  UNL     1      44.111  35.425  84.065  1.00  0.00     0.010 A 
HETATM    3  C3  UNL     1      44.831  34.261  84.056  1.00  0.00     0.072 A 
HETATM    4  C4  UNL     1      45.583  33.939  85.155  1.00  0.00     0.101 A 
HETATM    5  N2  UNL     1      45.598  34.763  86.208  1.00  0.00    -0.332 N 
ATOM      6  H2  UNL     1      46.155  34.527  87.029  1.00  0.00     0.168 HD
HETATM    7  C5  UNL     1      44.873  35.913  86.187  1.00  0.00     0.092 A 
HETATM    8  N4  UNL     1      44.137  36.247  85.137  1.00  0.00    -0.349 N 
ATOM      9  H4  UNL     1      43.598  37.113  85.138  1.00  0.00     0.167 HD
ENDROOT
BRANCH   7  10
HETATM   10  C6  UNL     1      44.936  36.780  87.387  1.00  0.00     0.158 C 
BRANCH  10  11
HETATM   11  S1  UNL     1      43.762  38.124  87.331  1.00  0.00    -0.093 SA
BRANCH  11  12
HETATM   12  C7  UNL     1      42.384  37.749  88.398  1.00  0.00     0.135 C 
HETATM   13  S2  UNL     1      42.457  38.229  89.953  1.00  0.00    -0.053 SA
BRANCH  12  14
HETATM   14  N3  UNL     1      41.233  37.042  87.909  1.00  0.00    -0.368 N 
ATOM     15  H3  UNL     1      40.466  36.798  88.535  1.00  0.00     0.161 HD
BRANCH  14  16
HETATM   16  C8  UNL     1      41.188  36.690  86.531  1.00  0.00     0.117 C 
HETATM   17  C9  UNL     1      40.000  37.204  85.744  1.00  0.00     0.031 C 
HETATM   18  C10 UNL     1      39.987  35.871  85.024  1.00  0.00     0.041 C 
HETATM   19  C11 UNL     1      40.662  35.281  86.246  1.00  0.00     0.192 C 
HETATM   20  F1  UNL     1      41.666  34.376  85.973  1.00  0.00    -0.247 F 
ENDBRANCH  14  16
ENDBRANCH  12  14
ENDBRANCH  11  12
ENDBRANCH  10  11
ENDBRANCH   7  10
BRANCH   4  21
HETATM   21  N1  UNL     1      46.277  32.862  85.200  1.00  0.00    -0.385 N 
ATOM     22  H12 UNL     1      45.896  32.051  85.686  1.00  0.00     0.157 HD
ATOM     23  H11 UNL     1      47.196  32.802  84.761  1.00  0.00     0.157 HD
ENDBRANCH   4  21
TORSDOF 6
ENDMDL
MODEL 4
REMARK VINA RESULT: -5.441799998      0.787      1.161
REMARK  6 active torsions:
REMARK  status: ('A' for Active; 'I' for Inactive)
REMARK    1  A    between atoms: C4_4  and  N1_5 
REMARK    2  A    between atoms: C5_10  and  C6_11 
REMARK    3  A    between atoms: C6_11  and  S1_12 
REMARK    4  A    between atoms: S1_12  and  C7_13 
REMARK    5  A    between atoms: C7_13  and  N3_15 
REMARK    6  A    between atoms: N3_15  and  C8_17 
ROOT
HETATM    1  C1  UNL     1      43.225  35.783  82.946  1.00  0.00     0.068 C 
HETATM    2  C2  UNL     1      44.095  35.377  84.107  1.00  0.00     0.010 A 
HETATM    3  C3  UNL     1      44.822  34.217  84.080  1.00  0.00     0.072 A 
HETATM    4  C4  UNL     1      45.597  33.896  85.164  1.00  0.00     0.101 A 
HETATM    5  N2  UNL     1      45.627  34.717  86.219  1.00  0.00    -0.332 N 
ATOM      6  H2  UNL     1      46.200  34.482  87.029  1.00  0.00     0.168 HD
HETATM    7  C5  UNL     1      44.894  35.863  86.216  1.00  0.00     0.092 A 
HETATM    8  N4  UNL     1      44.137  36.196  85.181  1.00  0.00    -0.349 N 
ATOM      9  H4  UNL     1      43.593  37.058  85.195  1.00  0.00     0.167 HD
ENDROOT
BRANCH   7  10
HETATM   10  C6  UNL     1      44.974  36.726  87.417  1.00  0.00     0.158 C 
BRANCH  10  11
HETATM   11  S1  UNL     1      43.488  37.678  87.685  1.00  0.00    -0.093 SA
BRANCH  11  12
HETATM   12  C7  UNL     1      43.921  39.389  87.940  1.00  0.00     0.135 C 
HETATM   13  S2  UNL     1      44.053  40.356  86.635  1.00  0.00    -0.053 SA
BRANCH  12  14
HETATM   14  N3  UNL     1      44.150  39.912  89.258  1.00  0.00    -0.368 N 
ATOM     15  H3  UNL     1      43.438  40.469  89.729  1.00  0.00     0.161 HD
BRANCH  14  16
HETATM   16  C8  UNL     1      45.393  39.635  89.891  1.00  0.00     0.117 C 
HETATM   17  C9  UNL     1      45.523  40.071  91.337  1.00  0.00     0.031 C 
HETATM   18  C10 UNL     1      46.950  40.467  91.017  1.00  0.00     0.041 C 
HETATM   19  C11 UNL     1      46.510  40.633  89.576  1.00  0.00     0.192 C 
HETATM   20  F1  UNL     1      47.405  40.161  88.639  1.00  0.00    -0.247 F 
ENDBRANCH  14  16
ENDBRANCH  12  14
ENDBRANCH  11  12
ENDBRANCH  10  11
ENDBRANCH   7  10
BRANCH   4  21
HETATM   21  N1  UNL     1      46.297  32.824  85.192  1.00  0.00    -0.385 N 
ATOM     22  H12 UNL     1      46.254  32.185  84.398  1.00  0.00     0.157 HD
ATOM     23  H11 UNL     1      46.894  32.598  85.988  1.00  0.00     0.157 HD
ENDBRANCH   4  21
TORSDOF 6
ENDMDL
MODEL 5
REMARK VINA RESULT: -5.405219303      1.330      1.422
REMARK  6 active torsions:
REMARK  status: ('A' for Active; 'I' for Inactive)
REMARK    1  A    between atoms: C4_4  and  N1_5 
REMARK    2  A    between atoms: C5_10  and  C6_11 
REMARK    3  A    between atoms: C6_11  and  S1_12 
REMARK    4  A    between atoms: S1_12  and  C7_13 
REMARK    5  A    between atoms: C7_13  and  N3_15 
REMARK    6  A    between atoms: N3_15  and  C8_17 
ROOT
HETATM    1  C1  UNL     1      43.288  35.664  82.864  1.00  0.00     0.068 C 
HETATM    2  C2  UNL     1      44.115  35.361  84.086  1.00  0.00     0.010 A 
HETATM    3  C3  UNL     1      44.924  34.258  84.143  1.00  0.00     0.072 A 
HETATM    4  C4  UNL     1      45.654  34.031  85.279  1.00  0.00     0.101 A 
HETATM    5  N2  UNL     1      45.562  34.884  86.304  1.00  0.00    -0.332 N 
ATOM      6  H2  UNL     1      46.102  34.719  87.153  1.00  0.00     0.168 HD
HETATM    7  C5  UNL     1      44.750  35.972  86.218  1.00  0.00     0.092 A 
HETATM    8  N4  UNL     1      44.033  36.215  85.131  1.00  0.00    -0.349 N 
ATOM      9  H4  UNL     1      43.429  37.035  85.083  1.00  0.00     0.167 HD
ENDROOT
BRANCH   7  10
HETATM   10  C6  UNL     1      44.697  36.877  87.390  1.00  0.00     0.158 C 
BRANCH  10  11
HETATM   11  S1  UNL     1      43.750  38.358  87.077  1.00  0.00    -0.093 SA
BRANCH  11  12
HETATM   12  C7  UNL     1      42.931  38.863  88.579  1.00  0.00     0.135 C 
HETATM   13  S2  UNL     1      41.752  37.909  89.174  1.00  0.00    -0.053 SA
BRANCH  12  14
HETATM   14  N3  UNL     1      43.295  40.077  89.254  1.00  0.00    -0.368 N 
ATOM     15  H3  UNL     1      43.153  40.984  88.809  1.00  0.00     0.161 HD
BRANCH  14  16
HETATM   16  C8  UNL     1      43.858  39.987  90.557  1.00  0.00     0.117 C 
HETATM   17  C9  UNL     1      44.698  41.164  91.010  1.00  0.00     0.031 C 
HETATM   18  C10 UNL     1      45.629  40.161  91.660  1.00  0.00     0.041 C 
HETATM   19  C11 UNL     1      45.134  39.146  90.648  1.00  0.00     0.192 C 
HETATM   20  F1  UNL     1      44.912  37.883  91.155  1.00  0.00    -0.247 F 
ENDBRANCH  14  16
ENDBRANCH  12  14
ENDBRANCH  11  12
ENDBRANCH  10  11
ENDBRANCH   7  10
BRANCH   4  21
HETATM   21  N1  UNL     1      46.427  33.015  85.386  1.00  0.00    -0.385 N 
ATOM     22  H12 UNL     1      46.072  32.095  85.124  1.00  0.00     0.157 HD
ATOM     23  H11 UNL     1      47.385  33.107  85.725  1.00  0.00     0.157 HD
ENDBRANCH   4  21
TORSDOF 6
ENDMDL
