MODEL 1
REMARK VINA RESULT: -7.441093224      0.000      0.000
REMARK  9 active torsions:
REMARK  status: ('A' for Active; 'I' for Inactive)
REMARK    1  A    between atoms: O1_2  and  C2_3 
REMARK    2  A    between atoms: C2_3  and  C3_5 
REMARK    3  A    between atoms: C3_5  and  C4_7 
REMARK    4  A    between atoms: C4_7  and  C5_8 
REMARK    5  A    between atoms: C4_7  and  C7_11 
REMARK    6  A    between atoms: C8_12  and  O5_13 
REMARK    7  A    between atoms: O5_13  and  C9_14 
REMARK    8  A    between atoms: C19_25  and  O7_26 
REMARK    9  A    between atoms: O7_26  and  C20_27 
ROOT
HETATM    1  C7  UNL     1      19.688  15.465  76.013  1.00  0.00     0.038 C 
HETATM    2  C8  UNL     1      20.380  14.818  77.161  1.00  0.00     0.138 C 
HETATM    3  C11 UNL     1      19.328  14.020  77.915  1.00  0.00     0.043 C 
HETATM    4  C12 UNL     1      18.728  12.871  77.159  1.00  0.00    -0.025 C 
HETATM    5  C13 UNL     1      19.883  12.100  76.452  1.00  0.00     0.016 C 
HETATM    6  C14 UNL     1      18.072  13.448  75.925  1.00  0.00     0.002 C 
HETATM    7  C15 UNL     1      16.559  13.526  76.039  1.00  0.00     0.033 C 
HETATM    8  C16 UNL     1      16.161  12.106  76.331  1.00  0.00    -0.023 C 
HETATM    9  C17 UNL     1      16.853  11.406  77.184  1.00  0.00    -0.071 C 
HETATM   10  C18 UNL     1      16.437  10.005  77.459  1.00  0.00     0.067 C 
HETATM   11  C19 UNL     1      15.848  10.129  78.860  1.00  0.00     0.136 C 
HETATM   12  C22 UNL     1      16.149  11.365  79.583  1.00  0.00     0.042 C 
HETATM   13  C23 UNL     1      17.454  12.117  79.338  1.00  0.00    -0.033 C 
HETATM   14  C24 UNL     1      17.139  13.515  79.787  1.00  0.00     0.016 C 
HETATM   15  C25 UNL     1      18.364  11.633  80.463  1.00  0.00     0.016 C 
HETATM   16  C26 UNL     1      18.011  11.899  77.975  1.00  0.00    -0.006 C 
HETATM   17  C27 UNL     1      18.917  10.668  78.181  1.00  0.00     0.021 C 
HETATM   18  C28 UNL     1      18.609  14.676  75.352  1.00  0.00    -0.006 C 
HETATM   19  C29 UNL     1      19.062  14.363  73.903  1.00  0.00     0.011 C 
ENDROOT
BRANCH   1  20
HETATM   20  C4  UNL     1      19.070  16.797  76.395  1.00  0.00     0.142 C 
BRANCH  20  21
HETATM   21  C3  UNL     1      17.705  17.036  75.893  1.00  0.00     0.235 C 
HETATM   22  O3  UNL     1      17.464  17.139  74.640  1.00  0.00    -0.286 OA
BRANCH  21  23
HETATM   23  C2  UNL     1      16.557  17.178  76.766  1.00  0.00     0.329 C 
HETATM   24  O2  UNL     1      15.533  17.866  76.537  1.00  0.00    -0.256 OA
BRANCH  23  25
HETATM   25  O1  UNL     1      16.561  16.493  77.988  1.00  0.00    -0.320 OA
HETATM   26  C1  UNL     1      16.579  17.211  79.228  1.00  0.00     0.213 C 
ENDBRANCH  23  25
ENDBRANCH  21  23
ENDBRANCH  20  21
BRANCH  20  27
HETATM   27  C5  UNL     1      19.867  17.991  76.140  1.00  0.00     0.135 C 
HETATM   28  C6  UNL     1      19.377  19.335  75.784  1.00  0.00     0.091 C 
HETATM   29  O4  UNL     1      21.109  17.912  76.215  1.00  0.00    -0.298 OA
ENDBRANCH  20  27
ENDBRANCH   1  20
BRANCH   2  30
HETATM   30  O5  UNL     1      21.531  14.131  77.037  1.00  0.00    -0.316 OA
BRANCH  30  31
HETATM   31  C9  UNL     1      22.803  14.374  77.455  1.00  0.00     0.255 C 
HETATM   32  C10 UNL     1      23.881  13.352  77.505  1.00  0.00     0.126 C 
HETATM   33  O6  UNL     1      23.023  15.538  77.806  1.00  0.00    -0.266 OA
ENDBRANCH  30  31
ENDBRANCH   2  30
BRANCH  11  34
HETATM   34  O7  UNL     1      15.945   8.923  79.589  1.00  0.00    -0.316 OA
BRANCH  34  35
HETATM   35  C20 UNL     1      16.842   7.912  79.363  1.00  0.00     0.255 C 
HETATM   36  C21 UNL     1      18.195   7.836  79.949  1.00  0.00     0.126 C 
HETATM   37  O8  UNL     1      16.483   6.975  78.595  1.00  0.00    -0.266 OA
ENDBRANCH  34  35
ENDBRANCH  11  34
TORSDOF 9
ENDMDL
MODEL 2
REMARK VINA RESULT: -7.137793200      2.768      9.244
REMARK  9 active torsions:
REMARK  status: ('A' for Active; 'I' for Inactive)
REMARK    1  A    between atoms: O1_2  and  C2_3 
REMARK    2  A    between atoms: C2_3  and  C3_5 
REMARK    3  A    between atoms: C3_5  and  C4_7 
REMARK    4  A    between atoms: C4_7  and  C5_8 
REMARK    5  A    between atoms: C4_7  and  C7_11 
REMARK    6  A    between atoms: C8_12  and  O5_13 
REMARK    7  A    between atoms: O5_13  and  C9_14 
REMARK    8  A    between atoms: C19_25  and  O7_26 
REMARK    9  A    between atoms: O7_26  and  C20_27 
ROOT
HETATM    1  C7  UNL     1      14.995   6.992  78.023  1.00  0.00     0.038 C 
HETATM    2  C8  UNL     1      15.185   7.604  79.366  1.00  0.00     0.138 C 
HETATM    3  C11 UNL     1      16.164   8.754  79.191  1.00  0.00     0.043 C 
HETATM    4  C12 UNL     1      15.677   9.890  78.341  1.00  0.00    -0.025 C 
HETATM    5  C13 UNL     1      14.212  10.216  78.761  1.00  0.00     0.016 C 
HETATM    6  C14 UNL     1      15.382   9.322  76.971  1.00  0.00     0.002 C 
HETATM    7  C15 UNL     1      16.451   9.659  75.946  1.00  0.00     0.033 C 
HETATM    8  C16 UNL     1      16.504  11.161  75.982  1.00  0.00    -0.023 C 
HETATM    9  C17 UNL     1      16.469  11.778  77.129  1.00  0.00    -0.071 C 
HETATM   10  C18 UNL     1      16.526  13.264  77.140  1.00  0.00     0.067 C 
HETATM   11  C19 UNL     1      17.938  13.513  77.659  1.00  0.00     0.136 C 
HETATM   12  C22 UNL     1      18.618  12.367  78.263  1.00  0.00     0.042 C 
HETATM   13  C23 UNL     1      17.827  11.273  78.974  1.00  0.00    -0.033 C 
HETATM   14  C24 UNL     1      18.751  10.091  78.931  1.00  0.00     0.016 C 
HETATM   15  C25 UNL     1      17.909  11.670  80.446  1.00  0.00     0.016 C 
HETATM   16  C26 UNL     1      16.435  11.127  78.465  1.00  0.00    -0.006 C 
HETATM   17  C27 UNL     1      15.649  12.097  79.370  1.00  0.00     0.021 C 
HETATM   18  C28 UNL     1      14.984   7.924  76.859  1.00  0.00    -0.006 C 
HETATM   19  C29 UNL     1      13.571   7.882  76.224  1.00  0.00     0.011 C 
ENDROOT
BRANCH   1  20
HETATM   20  C4  UNL     1      16.046   5.941  77.719  1.00  0.00     0.142 C 
BRANCH  20  21
HETATM   21  C3  UNL     1      15.800   5.118  76.522  1.00  0.00     0.235 C 
HETATM   22  O3  UNL     1      14.693   4.495  76.357  1.00  0.00    -0.286 OA
BRANCH  21  23
HETATM   23  C2  UNL     1      16.778   4.949  75.466  1.00  0.00     0.329 C 
HETATM   24  O2  UNL     1      17.555   3.973  75.326  1.00  0.00    -0.256 OA
BRANCH  23  25
HETATM   25  O1  UNL     1      16.889   5.952  74.495  1.00  0.00    -0.320 OA
HETATM   26  C1  UNL     1      15.827   6.187  73.562  1.00  0.00     0.213 C 
ENDBRANCH  23  25
ENDBRANCH  21  23
ENDBRANCH  20  21
BRANCH  20  27
HETATM   27  C5  UNL     1      16.429   5.056  78.812  1.00  0.00     0.135 C 
HETATM   28  C6  UNL     1      15.560   4.131  79.561  1.00  0.00     0.091 C 
HETATM   29  O4  UNL     1      17.617   5.050  79.194  1.00  0.00    -0.298 OA
ENDBRANCH  20  27
ENDBRANCH   1  20
BRANCH   2  30
HETATM   30  O5  UNL     1      14.164   7.940  80.176  1.00  0.00    -0.316 OA
BRANCH  30  31
HETATM   31  C9  UNL     1      12.923   7.413  80.369  1.00  0.00     0.255 C 
HETATM   32  C10 UNL     1      11.653   8.167  80.201  1.00  0.00     0.126 C 
HETATM   33  O6  UNL     1      12.909   6.224  80.706  1.00  0.00    -0.266 OA
ENDBRANCH  30  31
ENDBRANCH   2  30
BRANCH  11  34
HETATM   34  O7  UNL     1      18.047  14.749  78.335  1.00  0.00    -0.316 OA
BRANCH  34  35
HETATM   35  C20 UNL     1      18.702  15.863  77.881  1.00  0.00     0.255 C 
HETATM   36  C21 UNL     1      20.149  15.937  77.598  1.00  0.00     0.126 C 
HETATM   37  O8  UNL     1      18.015  16.906  77.691  1.00  0.00    -0.266 OA
ENDBRANCH  34  35
ENDBRANCH  11  34
TORSDOF 9
ENDMDL
MODEL 3
REMARK VINA RESULT: -7.108994905      1.055      2.198
REMARK  9 active torsions:
REMARK  status: ('A' for Active; 'I' for Inactive)
REMARK    1  A    between atoms: O1_2  and  C2_3 
REMARK    2  A    between atoms: C2_3  and  C3_5 
REMARK    3  A    between atoms: C3_5  and  C4_7 
REMARK    4  A    between atoms: C4_7  and  C5_8 
REMARK    5  A    between atoms: C4_7  and  C7_11 
REMARK    6  A    between atoms: C8_12  and  O5_13 
REMARK    7  A    between atoms: O5_13  and  C9_14 
REMARK    8  A    between atoms: C19_25  and  O7_26 
REMARK    9  A    between atoms: O7_26  and  C20_27 
ROOT
HETATM    1  C7  UNL     1      19.551  15.188  75.896  1.00  0.00     0.038 C 
HETATM    2  C8  UNL     1      20.194  14.647  77.124  1.00  0.00     0.138 C 
HETATM    3  C11 UNL     1      19.131  13.849  77.862  1.00  0.00     0.043 C 
HETATM    4  C12 UNL     1      18.631  12.628  77.146  1.00  0.00    -0.025 C 
HETATM    5  C13 UNL     1      19.862  11.870  76.563  1.00  0.00     0.016 C 
HETATM    6  C14 UNL     1      18.033  13.096  75.839  1.00  0.00     0.002 C 
HETATM    7  C15 UNL     1      16.514  13.109  75.853  1.00  0.00     0.033 C 
HETATM    8  C16 UNL     1      16.159  11.693  76.211  1.00  0.00    -0.023 C 
HETATM    9  C17 UNL     1      16.824  11.080  77.150  1.00  0.00    -0.071 C 
HETATM   10  C18 UNL     1      16.452   9.681  77.489  1.00  0.00     0.067 C 
HETATM   11  C19 UNL     1      15.767   9.865  78.839  1.00  0.00     0.136 C 
HETATM   12  C22 UNL     1      15.967  11.156  79.498  1.00  0.00     0.042 C 
HETATM   13  C23 UNL     1      17.252  11.951  79.286  1.00  0.00    -0.033 C 
HETATM   14  C24 UNL     1      16.849  13.358  79.623  1.00  0.00     0.016 C 
HETATM   15  C25 UNL     1      18.107  11.581  80.495  1.00  0.00     0.016 C 
HETATM   16  C26 UNL     1      17.906  11.676  77.977  1.00  0.00    -0.006 C 
HETATM   17  C27 UNL     1      18.848  10.504  78.318  1.00  0.00     0.021 C 
HETATM   18  C28 UNL     1      18.552  14.310  75.222  1.00  0.00    -0.006 C 
HETATM   19  C29 UNL     1      19.112  13.930  73.827  1.00  0.00     0.011 C 
ENDROOT
BRANCH   1  20
HETATM   20  C4  UNL     1      18.853  16.510  76.151  1.00  0.00     0.142 C 
BRANCH  20  21
HETATM   21  C3  UNL     1      19.709  17.709  76.087  1.00  0.00     0.235 C 
HETATM   22  O3  UNL     1      20.934  17.674  76.460  1.00  0.00    -0.286 OA
BRANCH  21  23
HETATM   23  C2  UNL     1      19.234  18.993  75.612  1.00  0.00     0.329 C 
HETATM   24  O2  UNL     1      18.326  19.685  76.133  1.00  0.00    -0.256 OA
BRANCH  23  25
HETATM   25  O1  UNL     1      19.826  19.539  74.466  1.00  0.00    -0.320 OA
HETATM   26  C1  UNL     1      20.717  20.657  74.565  1.00  0.00     0.213 C 
ENDBRANCH  23  25
ENDBRANCH  21  23
ENDBRANCH  20  21
BRANCH  20  27
HETATM   27  C5  UNL     1      18.029  16.601  77.351  1.00  0.00     0.135 C 
HETATM   28  C6  UNL     1      16.573  16.399  77.454  1.00  0.00     0.091 C 
HETATM   29  O4  UNL     1      18.575  16.884  78.436  1.00  0.00    -0.298 OA
ENDBRANCH  20  27
ENDBRANCH   1  20
BRANCH   2  30
HETATM   30  O5  UNL     1      21.379  14.009  77.117  1.00  0.00    -0.316 OA
BRANCH  30  31
HETATM   31  C9  UNL     1      22.636  14.386  77.478  1.00  0.00     0.255 C 
HETATM   32  C10 UNL     1      23.825  13.494  77.442  1.00  0.00     0.126 C 
HETATM   33  O6  UNL     1      22.741  15.559  77.854  1.00  0.00    -0.266 OA
ENDBRANCH  30  31
ENDBRANCH   2  30
BRANCH  11  34
HETATM   34  O7  UNL     1      15.869   8.712  79.649  1.00  0.00    -0.316 OA
BRANCH  34  35
HETATM   35  C20 UNL     1      16.634   7.605  79.389  1.00  0.00     0.255 C 
HETATM   36  C21 UNL     1      16.173   6.414  78.650  1.00  0.00     0.126 C 
HETATM   37  O8  UNL     1      17.824   7.606  79.815  1.00  0.00    -0.266 OA
ENDBRANCH  34  35
ENDBRANCH  11  34
TORSDOF 9
ENDMDL
MODEL 4
REMARK VINA RESULT: -7.092680394      2.160      6.511
REMARK  9 active torsions:
REMARK  status: ('A' for Active; 'I' for Inactive)
REMARK    1  A    between atoms: O1_2  and  C2_3 
REMARK    2  A    between atoms: C2_3  and  C3_5 
REMARK    3  A    between atoms: C3_5  and  C4_7 
REMARK    4  A    between atoms: C4_7  and  C5_8 
REMARK    5  A    between atoms: C4_7  and  C7_11 
REMARK    6  A    between atoms: C8_12  and  O5_13 
REMARK    7  A    between atoms: O5_13  and  C9_14 
REMARK    8  A    between atoms: C19_25  and  O7_26 
REMARK    9  A    between atoms: O7_26  and  C20_27 
ROOT
HETATM    1  C7  UNL     1      19.885  13.405  76.587  1.00  0.00     0.038 C 
HETATM    2  C8  UNL     1      18.903  12.918  77.594  1.00  0.00     0.138 C 
HETATM    3  C11 UNL     1      18.351  14.147  78.299  1.00  0.00     0.043 C 
HETATM    4  C12 UNL     1      17.553  15.080  77.436  1.00  0.00    -0.025 C 
HETATM    5  C13 UNL     1      16.587  14.225  76.563  1.00  0.00     0.016 C 
HETATM    6  C14 UNL     1      18.472  15.555  76.333  1.00  0.00     0.002 C 
HETATM    7  C15 UNL     1      18.976  16.971  76.549  1.00  0.00     0.033 C 
HETATM    8  C16 UNL     1      17.710  17.773  76.673  1.00  0.00    -0.023 C 
HETATM    9  C17 UNL     1      16.721  17.308  77.382  1.00  0.00    -0.071 C 
HETATM   10  C18 UNL     1      15.481  18.121  77.494  1.00  0.00     0.067 C 
HETATM   11  C19 UNL     1      15.570  18.619  78.932  1.00  0.00     0.136 C 
HETATM   12  C22 UNL     1      16.543  17.946  79.793  1.00  0.00     0.042 C 
HETATM   13  C23 UNL     1      16.902  16.480  79.570  1.00  0.00    -0.033 C 
HETATM   14  C24 UNL     1      18.250  16.350  80.219  1.00  0.00     0.016 C 
HETATM   15  C25 UNL     1      16.012  15.736  80.563  1.00  0.00     0.016 C 
HETATM   16  C26 UNL     1      16.729  16.040  78.158  1.00  0.00    -0.006 C 
HETATM   17  C27 UNL     1      15.270  15.544  78.143  1.00  0.00     0.021 C 
HETATM   18  C28 UNL     1      19.555  14.684  75.895  1.00  0.00    -0.006 C 
HETATM   19  C29 UNL     1      19.336  14.373  74.392  1.00  0.00     0.011 C 
ENDROOT
BRANCH   1  20
HETATM   20  C4  UNL     1      21.270  13.585  77.180  1.00  0.00     0.142 C 
BRANCH  20  21
HETATM   21  C3  UNL     1      22.168  14.491  76.443  1.00  0.00     0.235 C 
HETATM   22  O3  UNL     1      22.484  14.270  75.221  1.00  0.00    -0.286 OA
BRANCH  21  23
HETATM   23  C2  UNL     1      22.757  15.675  77.037  1.00  0.00     0.329 C 
HETATM   24  O2  UNL     1      23.780  15.708  77.763  1.00  0.00    -0.256 OA
BRANCH  23  25
HETATM   25  O1  UNL     1      22.148  16.913  76.796  1.00  0.00    -0.320 OA
HETATM   26  C1  UNL     1      22.930  18.047  76.400  1.00  0.00     0.213 C 
ENDBRANCH  23  25
ENDBRANCH  21  23
ENDBRANCH  20  21
BRANCH  20  27
HETATM   27  C5  UNL     1      22.011  12.372  77.505  1.00  0.00     0.135 C 
HETATM   28  C6  UNL     1      21.534  10.981  77.418  1.00  0.00     0.091 C 
HETATM   29  O4  UNL     1      23.185  12.476  77.913  1.00  0.00    -0.298 OA
ENDBRANCH  20  27
ENDBRANCH   1  20
BRANCH   2  30
HETATM   30  O5  UNL     1      17.933  12.030  77.309  1.00  0.00    -0.316 OA
BRANCH  30  31
HETATM   31  C9  UNL     1      17.578  10.837  77.861  1.00  0.00     0.255 C 
HETATM   32  C10 UNL     1      16.400  10.034  77.442  1.00  0.00     0.126 C 
HETATM   33  O6  UNL     1      18.320  10.441  78.767  1.00  0.00    -0.266 OA
ENDBRANCH  30  31
ENDBRANCH   2  30
BRANCH  11  34
HETATM   34  O7  UNL     1      14.296  18.876  79.488  1.00  0.00    -0.316 OA
BRANCH  34  35
HETATM   35  C20 UNL     1      14.014  19.052  80.817  1.00  0.00     0.255 C 
HETATM   36  C21 UNL     1      13.216  18.123  81.642  1.00  0.00     0.126 C 
HETATM   37  O8  UNL     1      14.472  20.087  81.378  1.00  0.00    -0.266 OA
ENDBRANCH  34  35
ENDBRANCH  11  34
TORSDOF 9
ENDMDL
MODEL 5
REMARK VINA RESULT: -6.952940992      2.275      7.638
REMARK  9 active torsions:
REMARK  status: ('A' for Active; 'I' for Inactive)
REMARK    1  A    between atoms: O1_2  and  C2_3 
REMARK    2  A    between atoms: C2_3  and  C3_5 
REMARK    3  A    between atoms: C3_5  and  C4_7 
REMARK    4  A    between atoms: C4_7  and  C5_8 
REMARK    5  A    between atoms: C4_7  and  C7_11 
REMARK    6  A    between atoms: C8_12  and  O5_13 
REMARK    7  A    between atoms: O5_13  and  C9_14 
REMARK    8  A    between atoms: C19_25  and  O7_26 
REMARK    9  A    between atoms: O7_26  and  C20_27 
ROOT
HETATM    1  C7  UNL     1      14.901  10.411  79.228  1.00  0.00     0.038 C 
HETATM    2  C8  UNL     1      16.194   9.784  78.841  1.00  0.00     0.138 C 
HETATM    3  C11 UNL     1      16.881  10.748  77.887  1.00  0.00     0.043 C 
HETATM    4  C12 UNL     1      17.281  12.067  78.481  1.00  0.00    -0.025 C 
HETATM    5  C13 UNL     1      17.939  11.794  79.867  1.00  0.00     0.016 C 
HETATM    6  C14 UNL     1      16.015  12.730  78.975  1.00  0.00     0.002 C 
HETATM    7  C15 UNL     1      15.534  13.844  78.062  1.00  0.00     0.033 C 
HETATM    8  C16 UNL     1      16.717  14.769  77.990  1.00  0.00    -0.023 C 
HETATM    9  C17 UNL     1      17.915  14.273  77.854  1.00  0.00    -0.071 C 
HETATM   10  C18 UNL     1      19.069  15.208  77.783  1.00  0.00     0.067 C 
HETATM   11  C19 UNL     1      19.447  15.115  76.309  1.00  0.00     0.136 C 
HETATM   12  C22 UNL     1      18.867  14.000  75.559  1.00  0.00     0.042 C 
HETATM   13  C23 UNL     1      18.539  12.679  76.249  1.00  0.00    -0.033 C 
HETATM   14  C24 UNL     1      17.504  12.066  75.352  1.00  0.00     0.016 C 
HETATM   15  C25 UNL     1      19.756  11.807  75.953  1.00  0.00     0.016 C 
HETATM   16  C26 UNL     1      18.245  12.832  77.701  1.00  0.00    -0.006 C 
HETATM   17  C27 UNL     1      19.638  12.664  78.340  1.00  0.00     0.021 C 
HETATM   18  C28 UNL     1      14.900  11.893  79.397  1.00  0.00    -0.006 C 
HETATM   19  C29 UNL     1      14.610  12.205  80.888  1.00  0.00     0.011 C 
ENDROOT
BRANCH   1  20
HETATM   20  C4  UNL     1      13.793  10.094  78.241  1.00  0.00     0.142 C 
BRANCH  20  21
HETATM   21  C3  UNL     1      12.484   9.766  78.833  1.00  0.00     0.235 C 
HETATM   22  O3  UNL     1      11.397   9.923  78.174  1.00  0.00    -0.286 OA
BRANCH  21  23
HETATM   23  C2  UNL     1      12.332   9.260  80.182  1.00  0.00     0.329 C 
HETATM   24  O2  UNL     1      11.967   9.921  81.184  1.00  0.00    -0.256 OA
BRANCH  23  25
HETATM   25  O1  UNL     1      12.610   7.908  80.420  1.00  0.00    -0.320 OA
HETATM   26  C1  UNL     1      11.673   6.891  80.043  1.00  0.00     0.213 C 
ENDBRANCH  23  25
ENDBRANCH  21  23
ENDBRANCH  20  21
BRANCH  20  27
HETATM   27  C5  UNL     1      14.090   9.105  77.212  1.00  0.00     0.135 C 
HETATM   28  C6  UNL     1      14.147   7.640  77.368  1.00  0.00     0.091 C 
HETATM   29  O4  UNL     1      14.334   9.496  76.053  1.00  0.00    -0.298 OA
ENDBRANCH  20  27
ENDBRANCH   1  20
BRANCH   2  30
HETATM   30  O5  UNL     1      17.059   9.266  79.732  1.00  0.00    -0.316 OA
BRANCH  30  31
HETATM   31  C9  UNL     1      17.798   8.123  79.748  1.00  0.00     0.255 C 
HETATM   32  C10 UNL     1      19.217   8.044  80.183  1.00  0.00     0.126 C 
HETATM   33  O6  UNL     1      17.199   7.110  79.367  1.00  0.00    -0.266 OA
ENDBRANCH  30  31
ENDBRANCH   2  30
BRANCH  11  34
HETATM   34  O7  UNL     1      20.817  15.386  76.091  1.00  0.00    -0.316 OA
BRANCH  34  35
HETATM   35  C20 UNL     1      21.858  14.969  76.878  1.00  0.00     0.255 C 
HETATM   36  C21 UNL     1      22.632  13.729  76.668  1.00  0.00     0.126 C 
HETATM   37  O8  UNL     1      22.180  15.701  77.856  1.00  0.00    -0.266 OA
ENDBRANCH  34  35
ENDBRANCH  11  34
TORSDOF 9
ENDMDL
