MODEL 1
REMARK VINA RESULT: -8.350553165      0.000      0.000
REMARK  9 active torsions:
REMARK  status: ('A' for Active; 'I' for Inactive)
REMARK    1  A    between atoms: C2_2  and  C3_3 
REMARK    2  A    between atoms: C2_2  and  C5_7 
REMARK    3  A    between atoms: C3_3  and  O2_5 
REMARK    4  A    between atoms: C7_9  and  O3_10 
REMARK    5  A    between atoms: O3_10  and  C8_11 
REMARK    6  A    between atoms: C19_24  and  O6_25 
REMARK    7  A    between atoms: O6_25  and  C20_26 
REMARK    8  A    between atoms: C22_29  and  C23_30 
REMARK    9  A    between atoms: C23_30  and  C24_31 
ROOT
HETATM    1  C5  UNL     1      15.565   8.586  77.068  1.00  0.00     0.038 C 
HETATM    2  C6  UNL     1      16.029   7.755  78.254  1.00  0.00     0.043 C 
HETATM    3  C7  UNL     1      16.013   8.653  79.411  1.00  0.00     0.142 C 
HETATM    4  C10 UNL     1      16.044  10.098  78.869  1.00  0.00    -0.002 C 
HETATM    5  C11 UNL     1      15.287  10.905  79.852  1.00  0.00     0.019 C 
HETATM    6  C12 UNL     1      15.236   9.964  77.589  1.00  0.00     0.075 C 
HETATM    7  C13 UNL     1      15.608  10.962  76.567  1.00  0.00     0.133 C 
HETATM    8  O5  UNL     1      15.374  10.614  75.420  1.00  0.00    -0.298 OA
HETATM    9  C14 UNL     1      16.219  12.333  76.612  1.00  0.00     0.085 C 
HETATM   10  C15 UNL     1      17.685  12.140  76.892  1.00  0.00     0.014 C 
HETATM   11  C16 UNL     1      18.498  13.211  76.303  1.00  0.00    -0.014 C 
HETATM   12  C17 UNL     1      17.955  14.570  76.712  1.00  0.00     0.018 C 
HETATM   13  C18 UNL     1      18.211  13.125  74.786  1.00  0.00     0.018 C 
HETATM   14  C19 UNL     1      19.970  13.123  76.465  1.00  0.00     0.169 C 
HETATM   15  C22 UNL     1      20.564  11.858  76.924  1.00  0.00     0.152 C 
HETATM   16  O8  UNL     1      19.755  10.912  77.488  1.00  0.00    -0.377 OA
HETATM   17  C26 UNL     1      19.245  11.335  78.679  1.00  0.00     0.131 C 
HETATM   18  C27 UNL     1      18.531  10.284  79.535  1.00  0.00     0.039 C 
HETATM   19  C28 UNL     1      17.407  10.429  78.546  1.00  0.00     0.010 C 
HETATM   20  C29 UNL     1      17.828  11.838  78.344  1.00  0.00    -0.009 C 
HETATM   21  C30 UNL     1      17.506  12.878  79.326  1.00  0.00     0.018 C 
ENDROOT
BRANCH   1  22
HETATM   22  C2  UNL     1      14.452   7.935  76.334  1.00  0.00     0.013 C 
HETATM   23  C1  UNL     1      13.237   7.782  76.792  1.00  0.00     0.025 C 
BRANCH  22  24
HETATM   24  C3  UNL     1      14.744   7.427  74.999  1.00  0.00     0.288 C 
HETATM   25  O1  UNL     1      13.935   7.516  74.036  1.00  0.00    -0.260 OA
BRANCH  24  26
HETATM   26  O2  UNL     1      15.955   6.812  74.738  1.00  0.00    -0.323 OA
HETATM   27  C4  UNL     1      16.566   6.822  73.461  1.00  0.00     0.213 C 
ENDBRANCH  24  26
ENDBRANCH  22  24
ENDBRANCH   1  22
BRANCH   3  28
HETATM   28  O3  UNL     1      15.031   8.478  80.375  1.00  0.00    -0.316 OA
BRANCH  28  29
HETATM   29  C8  UNL     1      14.184   7.450  80.544  1.00  0.00     0.255 C 
HETATM   30  C9  UNL     1      14.612   6.142  81.046  1.00  0.00     0.126 C 
HETATM   31  O4  UNL     1      12.999   7.656  80.252  1.00  0.00    -0.266 OA
ENDBRANCH  28  29
ENDBRANCH   3  28
BRANCH  14  32
HETATM   32  O6  UNL     1      20.359  14.165  77.368  1.00  0.00    -0.313 OA
BRANCH  32  33
HETATM   33  C20 UNL     1      21.130  15.244  77.040  1.00  0.00     0.255 C 
HETATM   34  C21 UNL     1      22.459  15.448  77.650  1.00  0.00     0.126 C 
HETATM   35  O7  UNL     1      20.647  16.062  76.186  1.00  0.00    -0.266 OA
ENDBRANCH  32  33
ENDBRANCH  14  32
BRANCH  15  36
HETATM   36  C23 UNL     1      21.784  12.171  77.809  1.00  0.00     0.034 C 
BRANCH  36  37
HETATM   37  C24 UNL     1      22.956  11.303  77.440  1.00  0.00    -0.002 C 
HETATM   38  C25 UNL     1      24.113  12.172  77.081  1.00  0.00     0.005 C 
ENDBRANCH  36  37
ENDBRANCH  15  36
TORSDOF 9
ENDMDL
MODEL 2
REMARK VINA RESULT: -8.203966726      1.004      1.109
REMARK  9 active torsions:
REMARK  status: ('A' for Active; 'I' for Inactive)
REMARK    1  A    between atoms: C2_2  and  C3_3 
REMARK    2  A    between atoms: C2_2  and  C5_7 
REMARK    3  A    between atoms: C3_3  and  O2_5 
REMARK    4  A    between atoms: C7_9  and  O3_10 
REMARK    5  A    between atoms: O3_10  and  C8_11 
REMARK    6  A    between atoms: C19_24  and  O6_25 
REMARK    7  A    between atoms: O6_25  and  C20_26 
REMARK    8  A    between atoms: C22_29  and  C23_30 
REMARK    9  A    between atoms: C23_30  and  C24_31 
ROOT
HETATM    1  C5  UNL     1      15.703   7.771  77.196  1.00  0.00     0.038 C 
HETATM    2  C6  UNL     1      16.155   7.101  78.484  1.00  0.00     0.043 C 
HETATM    3  C7  UNL     1      15.944   8.085  79.549  1.00  0.00     0.142 C 
HETATM    4  C10 UNL     1      15.861   9.473  78.881  1.00  0.00    -0.002 C 
HETATM    5  C11 UNL     1      14.940  10.265  79.727  1.00  0.00     0.019 C 
HETATM    6  C12 UNL     1      15.182   9.139  77.562  1.00  0.00     0.075 C 
HETATM    7  C13 UNL     1      15.525  10.086  76.483  1.00  0.00     0.133 C 
HETATM    8  O5  UNL     1      15.427   9.620  75.359  1.00  0.00    -0.298 OA
HETATM    9  C14 UNL     1      15.976  11.519  76.447  1.00  0.00     0.085 C 
HETATM   10  C15 UNL     1      17.427  11.521  76.850  1.00  0.00     0.014 C 
HETATM   11  C16 UNL     1      18.163  12.628  76.227  1.00  0.00    -0.014 C 
HETATM   12  C17 UNL     1      17.442  13.943  76.468  1.00  0.00     0.018 C 
HETATM   13  C18 UNL     1      18.015  12.383  74.707  1.00  0.00     0.018 C 
HETATM   14  C19 UNL     1      19.617  12.726  76.503  1.00  0.00     0.169 C 
HETATM   15  C22 UNL     1      20.306  11.582  77.119  1.00  0.00     0.152 C 
HETATM   16  O8  UNL     1      19.562  10.598  77.706  1.00  0.00    -0.377 OA
HETATM   17  C26 UNL     1      18.911  11.055  78.813  1.00  0.00     0.131 C 
HETATM   18  C27 UNL     1      18.248  10.003  79.707  1.00  0.00     0.039 C 
HETATM   19  C28 UNL     1      17.202   9.934  78.630  1.00  0.00     0.010 C 
HETATM   20  C29 UNL     1      17.480  11.360  78.330  1.00  0.00    -0.009 C 
HETATM   21  C30 UNL     1      16.966  12.433  79.187  1.00  0.00     0.018 C 
ENDROOT
BRANCH   1  22
HETATM   22  C2  UNL     1      14.733   6.937  76.446  1.00  0.00     0.013 C 
HETATM   23  C1  UNL     1      13.435   6.967  76.601  1.00  0.00     0.025 C 
BRANCH  22  24
HETATM   24  C3  UNL     1      15.277   6.010  75.460  1.00  0.00     0.288 C 
HETATM   25  O1  UNL     1      14.711   4.928  75.145  1.00  0.00    -0.260 OA
BRANCH  24  26
HETATM   26  O2  UNL     1      16.469   6.296  74.820  1.00  0.00    -0.323 OA
HETATM   27  C4  UNL     1      16.533   6.821  73.506  1.00  0.00     0.213 C 
ENDBRANCH  24  26
ENDBRANCH  22  24
ENDBRANCH   1  22
BRANCH   3  28
HETATM   28  O3  UNL     1      14.910   7.877  80.451  1.00  0.00    -0.316 OA
BRANCH  28  29
HETATM   29  C8  UNL     1      14.249   6.743  80.735  1.00  0.00     0.255 C 
HETATM   30  C9  UNL     1      12.908   6.455  80.221  1.00  0.00     0.126 C 
HETATM   31  O4  UNL     1      14.832   5.931  81.465  1.00  0.00    -0.266 OA
ENDBRANCH  28  29
ENDBRANCH   3  28
BRANCH  14  32
HETATM   32  O6  UNL     1      19.813  13.878  77.333  1.00  0.00    -0.313 OA
BRANCH  32  33
HETATM   33  C20 UNL     1      20.342  15.066  76.918  1.00  0.00     0.255 C 
HETATM   34  C21 UNL     1      20.065  16.322  77.642  1.00  0.00     0.126 C 
HETATM   35  O7  UNL     1      21.084  15.037  75.878  1.00  0.00    -0.266 OA
ENDBRANCH  32  33
ENDBRANCH  14  32
BRANCH  15  36
HETATM   36  C23 UNL     1      21.407  12.107  78.058  1.00  0.00     0.034 C 
BRANCH  36  37
HETATM   37  C24 UNL     1      22.773  11.850  77.485  1.00  0.00    -0.002 C 
HETATM   38  C25 UNL     1      23.552  13.122  77.494  1.00  0.00     0.005 C 
ENDBRANCH  36  37
ENDBRANCH  15  36
TORSDOF 9
ENDMDL
MODEL 3
REMARK VINA RESULT: -7.886553280      1.617      7.897
REMARK  9 active torsions:
REMARK  status: ('A' for Active; 'I' for Inactive)
REMARK    1  A    between atoms: C2_2  and  C3_3 
REMARK    2  A    between atoms: C2_2  and  C5_7 
REMARK    3  A    between atoms: C3_3  and  O2_5 
REMARK    4  A    between atoms: C7_9  and  O3_10 
REMARK    5  A    between atoms: O3_10  and  C8_11 
REMARK    6  A    between atoms: C19_24  and  O6_25 
REMARK    7  A    between atoms: O6_25  and  C20_26 
REMARK    8  A    between atoms: C22_29  and  C23_30 
REMARK    9  A    between atoms: C23_30  and  C24_31 
ROOT
HETATM    1  C5  UNL     1      20.626  10.779  77.575  1.00  0.00     0.038 C 
HETATM    2  C6  UNL     1      20.496  11.792  76.448  1.00  0.00     0.043 C 
HETATM    3  C7  UNL     1      19.391  12.677  76.823  1.00  0.00     0.142 C 
HETATM    4  C10 UNL     1      18.540  11.928  77.871  1.00  0.00    -0.002 C 
HETATM    5  C11 UNL     1      17.985  12.980  78.752  1.00  0.00     0.019 C 
HETATM    6  C12 UNL     1      19.601  11.141  78.622  1.00  0.00     0.075 C 
HETATM    7  C13 UNL     1      19.076   9.900  79.225  1.00  0.00     0.133 C 
HETATM    8  O5  UNL     1      19.917   9.032  79.395  1.00  0.00    -0.298 OA
HETATM    9  C14 UNL     1      17.720   9.450  79.688  1.00  0.00     0.085 C 
HETATM   10  C15 UNL     1      16.929   9.128  78.448  1.00  0.00     0.014 C 
HETATM   11  C16 UNL     1      15.930   8.081  78.695  1.00  0.00    -0.014 C 
HETATM   12  C17 UNL     1      15.084   8.434  79.906  1.00  0.00     0.018 C 
HETATM   13  C18 UNL     1      16.760   6.858  79.152  1.00  0.00     0.018 C 
HETATM   14  C19 UNL     1      15.107   7.633  77.546  1.00  0.00     0.169 C 
HETATM   15  C22 UNL     1      15.510   8.019  76.184  1.00  0.00     0.152 C 
HETATM   16  O8  UNL     1      16.425   9.021  76.023  1.00  0.00    -0.377 OA
HETATM   17  C26 UNL     1      15.927  10.223  76.429  1.00  0.00     0.131 C 
HETATM   18  C27 UNL     1      16.748  11.465  76.071  1.00  0.00     0.039 C 
HETATM   19  C28 UNL     1      17.666  11.020  77.176  1.00  0.00     0.010 C 
HETATM   20  C29 UNL     1      16.488  10.421  77.851  1.00  0.00    -0.009 C 
HETATM   21  C30 UNL     1      15.520  11.251  78.575  1.00  0.00     0.018 C 
ENDROOT
BRANCH   1  22
HETATM   22  C2  UNL     1      22.014  10.695  78.091  1.00  0.00     0.013 C 
HETATM   23  C1  UNL     1      22.507  11.439  79.047  1.00  0.00     0.025 C 
BRANCH  22  24
HETATM   24  C3  UNL     1      22.892   9.705  77.479  1.00  0.00     0.288 C 
HETATM   25  O1  UNL     1      23.150   8.591  78.010  1.00  0.00    -0.260 OA
BRANCH  24  26
HETATM   26  O2  UNL     1      23.488   9.964  76.258  1.00  0.00    -0.323 OA
HETATM   27  C4  UNL     1      24.031  11.226  75.917  1.00  0.00     0.213 C 
ENDBRANCH  24  26
ENDBRANCH  22  24
ENDBRANCH   1  22
BRANCH   3  28
HETATM   28  O3  UNL     1      19.682  13.975  77.217  1.00  0.00    -0.316 OA
BRANCH  28  29
HETATM   29  C8  UNL     1      20.618  14.814  76.745  1.00  0.00     0.255 C 
HETATM   30  C9  UNL     1      21.904  15.027  77.413  1.00  0.00     0.126 C 
HETATM   31  O4  UNL     1      20.344  15.414  75.697  1.00  0.00    -0.266 OA
ENDBRANCH  28  29
ENDBRANCH   3  28
BRANCH  14  32
HETATM   32  O6  UNL     1      13.771   8.099  77.776  1.00  0.00    -0.313 OA
BRANCH  32  33
HETATM   33  C20 UNL     1      12.692   7.301  78.028  1.00  0.00     0.255 C 
HETATM   34  C21 UNL     1      12.753   5.842  77.812  1.00  0.00     0.126 C 
HETATM   35  O7  UNL     1      11.636   7.876  78.457  1.00  0.00    -0.266 OA
ENDBRANCH  32  33
ENDBRANCH  14  32
BRANCH  15  36
HETATM   36  C23 UNL     1      14.247   8.251  75.336  1.00  0.00     0.034 C 
BRANCH  36  37
HETATM   37  C24 UNL     1      13.994   7.089  74.416  1.00  0.00    -0.002 C 
HETATM   38  C25 UNL     1      15.282   6.673  73.790  1.00  0.00     0.005 C 
ENDBRANCH  36  37
ENDBRANCH  15  36
TORSDOF 9
ENDMDL
MODEL 4
REMARK VINA RESULT: -7.599643062      0.967      1.494
REMARK  9 active torsions:
REMARK  status: ('A' for Active; 'I' for Inactive)
REMARK    1  A    between atoms: C2_2  and  C3_3 
REMARK    2  A    between atoms: C2_2  and  C5_7 
REMARK    3  A    between atoms: C3_3  and  O2_5 
REMARK    4  A    between atoms: C7_9  and  O3_10 
REMARK    5  A    between atoms: O3_10  and  C8_11 
REMARK    6  A    between atoms: C19_24  and  O6_25 
REMARK    7  A    between atoms: O6_25  and  C20_26 
REMARK    8  A    between atoms: C22_29  and  C23_30 
REMARK    9  A    between atoms: C23_30  and  C24_31 
ROOT
HETATM    1  C5  UNL     1      15.600   8.467  77.040  1.00  0.00     0.038 C 
HETATM    2  C6  UNL     1      16.072   7.645  78.230  1.00  0.00     0.043 C 
HETATM    3  C7  UNL     1      16.035   8.544  79.385  1.00  0.00     0.142 C 
HETATM    4  C10 UNL     1      16.046   9.989  78.842  1.00  0.00    -0.002 C 
HETATM    5  C11 UNL     1      15.271  10.784  79.821  1.00  0.00     0.019 C 
HETATM    6  C12 UNL     1      15.246   9.840  77.558  1.00  0.00     0.075 C 
HETATM    7  C13 UNL     1      15.607  10.843  76.537  1.00  0.00     0.133 C 
HETATM    8  O5  UNL     1      15.384  10.491  75.390  1.00  0.00    -0.298 OA
HETATM    9  C14 UNL     1      16.196  12.224  76.584  1.00  0.00     0.085 C 
HETATM   10  C15 UNL     1      17.664  12.054  76.871  1.00  0.00     0.014 C 
HETATM   11  C16 UNL     1      18.462  13.139  76.286  1.00  0.00    -0.014 C 
HETATM   12  C17 UNL     1      17.896  14.489  76.690  1.00  0.00     0.018 C 
HETATM   13  C18 UNL     1      18.184  13.046  74.767  1.00  0.00     0.018 C 
HETATM   14  C19 UNL     1      19.934  13.074  76.455  1.00  0.00     0.169 C 
HETATM   15  C22 UNL     1      20.547  11.819  76.919  1.00  0.00     0.152 C 
HETATM   16  O8  UNL     1      19.750  10.861  77.479  1.00  0.00    -0.377 OA
HETATM   17  C26 UNL     1      19.228  11.276  78.667  1.00  0.00     0.131 C 
HETATM   18  C27 UNL     1      18.526  10.215  79.520  1.00  0.00     0.039 C 
HETATM   19  C28 UNL     1      17.405  10.342  78.526  1.00  0.00     0.010 C 
HETATM   20  C29 UNL     1      17.804  11.757  78.325  1.00  0.00    -0.009 C 
HETATM   21  C30 UNL     1      17.461  12.792  79.304  1.00  0.00     0.018 C 
ENDROOT
BRANCH   1  22
HETATM   22  C2  UNL     1      14.502   7.798  76.302  1.00  0.00     0.013 C 
HETATM   23  C1  UNL     1      14.487   7.575  75.014  1.00  0.00     0.025 C 
BRANCH  22  24
HETATM   24  C3  UNL     1      13.349   7.359  77.081  1.00  0.00     0.288 C 
HETATM   25  O1  UNL     1      12.468   8.151  77.513  1.00  0.00    -0.260 OA
BRANCH  24  26
HETATM   26  O2  UNL     1      13.181   6.020  77.380  1.00  0.00    -0.323 OA
HETATM   27  C4  UNL     1      12.013   5.507  77.994  1.00  0.00     0.213 C 
ENDBRANCH  24  26
ENDBRANCH  22  24
ENDBRANCH   1  22
BRANCH   3  28
HETATM   28  O3  UNL     1      15.051   8.354  80.345  1.00  0.00    -0.316 OA
BRANCH  28  29
HETATM   29  C8  UNL     1      14.352   7.245  80.633  1.00  0.00     0.255 C 
HETATM   30  C9  UNL     1      14.990   5.969  80.970  1.00  0.00     0.126 C 
HETATM   31  O4  UNL     1      13.119   7.344  80.602  1.00  0.00    -0.266 OA
ENDBRANCH  28  29
ENDBRANCH   3  28
BRANCH  14  32
HETATM   32  O6  UNL     1      20.303  14.123  77.359  1.00  0.00    -0.313 OA
BRANCH  32  33
HETATM   33  C20 UNL     1      21.046  15.220  77.031  1.00  0.00     0.255 C 
HETATM   34  C21 UNL     1      22.351  15.479  77.671  1.00  0.00     0.126 C 
HETATM   35  O7  UNL     1      20.561  16.006  76.148  1.00  0.00    -0.266 OA
ENDBRANCH  32  33
ENDBRANCH  14  32
BRANCH  15  36
HETATM   36  C23 UNL     1      21.757  12.153  77.809  1.00  0.00     0.034 C 
BRANCH  36  37
HETATM   37  C24 UNL     1      22.962  11.346  77.406  1.00  0.00    -0.002 C 
HETATM   38  C25 UNL     1      24.113  12.268  77.187  1.00  0.00     0.005 C 
ENDBRANCH  36  37
ENDBRANCH  15  36
TORSDOF 9
ENDMDL
MODEL 5
REMARK VINA RESULT: -7.317791959      1.606      8.130
REMARK  9 active torsions:
REMARK  status: ('A' for Active; 'I' for Inactive)
REMARK    1  A    between atoms: C2_2  and  C3_3 
REMARK    2  A    between atoms: C2_2  and  C5_7 
REMARK    3  A    between atoms: C3_3  and  O2_5 
REMARK    4  A    between atoms: C7_9  and  O3_10 
REMARK    5  A    between atoms: O3_10  and  C8_11 
REMARK    6  A    between atoms: C19_24  and  O6_25 
REMARK    7  A    between atoms: O6_25  and  C20_26 
REMARK    8  A    between atoms: C22_29  and  C23_30 
REMARK    9  A    between atoms: C23_30  and  C24_31 
ROOT
HETATM    1  C5  UNL     1      20.217  11.379  77.166  1.00  0.00     0.038 C 
HETATM    2  C6  UNL     1      19.954  12.250  75.946  1.00  0.00     0.043 C 
HETATM    3  C7  UNL     1      18.772  13.052  76.267  1.00  0.00     0.142 C 
HETATM    4  C10 UNL     1      18.030  12.337  77.415  1.00  0.00    -0.002 C 
HETATM    5  C11 UNL     1      17.390  13.414  78.203  1.00  0.00     0.019 C 
HETATM    6  C12 UNL     1      19.186  11.745  78.206  1.00  0.00     0.075 C 
HETATM    7  C13 UNL     1      18.808  10.528  78.951  1.00  0.00     0.133 C 
HETATM    8  O5  UNL     1      19.739   9.772  79.179  1.00  0.00    -0.298 OA
HETATM    9  C14 UNL     1      17.518   9.995  79.506  1.00  0.00     0.085 C 
HETATM   10  C15 UNL     1      16.734   9.465  78.334  1.00  0.00     0.014 C 
HETATM   11  C16 UNL     1      15.857   8.354  78.723  1.00  0.00    -0.014 C 
HETATM   12  C17 UNL     1      15.009   8.746  79.921  1.00  0.00     0.018 C 
HETATM   13  C18 UNL     1      16.820   7.276  79.273  1.00  0.00     0.018 C 
HETATM   14  C19 UNL     1      15.057   7.707  77.655  1.00  0.00     0.169 C 
HETATM   15  C22 UNL     1      15.384   7.984  76.248  1.00  0.00     0.152 C 
HETATM   16  O8  UNL     1      16.185   9.051  75.953  1.00  0.00    -0.377 OA
HETATM   17  C26 UNL     1      15.575  10.233  76.250  1.00  0.00     0.131 C 
HETATM   18  C27 UNL     1      16.253  11.507  75.738  1.00  0.00     0.039 C 
HETATM   19  C28 UNL     1      17.239  11.276  76.849  1.00  0.00     0.010 C 
HETATM   20  C29 UNL     1      16.146  10.636  77.624  1.00  0.00    -0.009 C 
HETATM   21  C30 UNL     1      15.115  11.436  78.292  1.00  0.00     0.018 C 
ENDROOT
BRANCH   1  22
HETATM   22  C2  UNL     1      21.618  11.492  77.638  1.00  0.00     0.013 C 
HETATM   23  C1  UNL     1      22.197  10.674  78.478  1.00  0.00     0.025 C 
BRANCH  22  24
HETATM   24  C3  UNL     1      22.405  12.606  77.122  1.00  0.00     0.288 C 
HETATM   25  O1  UNL     1      23.342  12.460  76.291  1.00  0.00    -0.260 OA
BRANCH  24  26
HETATM   26  O2  UNL     1      22.142  13.897  77.541  1.00  0.00    -0.323 OA
HETATM   27  C4  UNL     1      23.102  14.936  77.489  1.00  0.00     0.213 C 
ENDBRANCH  24  26
ENDBRANCH  22  24
ENDBRANCH   1  22
BRANCH   3  28
HETATM   28  O3  UNL     1      18.936  14.407  76.515  1.00  0.00    -0.316 OA
BRANCH  28  29
HETATM   29  C8  UNL     1      19.227  15.397  75.655  1.00  0.00     0.255 C 
HETATM   30  C9  UNL     1      18.484  15.614  74.412  1.00  0.00     0.126 C 
HETATM   31  O4  UNL     1      20.171  16.136  75.962  1.00  0.00    -0.266 OA
ENDBRANCH  28  29
ENDBRANCH   3  28
BRANCH  14  32
HETATM   32  O6  UNL     1      13.686   8.056  77.884  1.00  0.00    -0.313 OA
BRANCH  32  33
HETATM   33  C20 UNL     1      12.704   7.186  78.259  1.00  0.00     0.255 C 
HETATM   34  C21 UNL     1      12.951   5.731  78.315  1.00  0.00     0.126 C 
HETATM   35  O7  UNL     1      11.568   7.689  78.558  1.00  0.00    -0.266 OA
ENDBRANCH  32  33
ENDBRANCH  14  32
BRANCH  15  36
HETATM   36  C23 UNL     1      14.083   7.997  75.426  1.00  0.00     0.034 C 
BRANCH  36  37
HETATM   37  C24 UNL     1      13.851   6.667  74.763  1.00  0.00    -0.002 C 
HETATM   38  C25 UNL     1      13.574   6.887  73.314  1.00  0.00     0.005 C 
ENDBRANCH  36  37
ENDBRANCH  15  36
TORSDOF 9
ENDMDL
