MODEL 1
REMARK VINA RESULT: -8.293753628      0.000      0.000
REMARK  17 active torsions:
REMARK  status: ('A' for Active; 'I' for Inactive)
REMARK    1  A    between atoms: N1_1  and  O1_4 
REMARK    2  A    between atoms: O1_4  and  C1_5 
REMARK    3  A    between atoms: C1_5  and  C2_7 
REMARK    4  A    between atoms: C2_7  and  C7_24 
REMARK    5  A    between atoms: N2_8  and  O3_10 
REMARK    6  A    between atoms: O3_10  and  C3_11 
REMARK    7  A    between atoms: C3_11  and  C4_12 
REMARK    8  A    between atoms: C3_11  and  C6_17 
REMARK    9  A    between atoms: C4_12  and  C5_14 
REMARK   10  A    between atoms: C6_17  and  N3_18 
REMARK   11  A    between atoms: C6_17  and  O7_22 
REMARK   12  A    between atoms: C7_24  and  O8_25 
REMARK   13  A    between atoms: C7_24  and  C8_27 
REMARK   14  A    between atoms: C8_27  and  O9_28 
REMARK   15  A    between atoms: C10_31  and  O10_32 
REMARK   16  A    between atoms: C15_43  and  O12_44 
REMARK   17  A    between atoms: C16_46  and  O13_47 
ROOT
HETATM    1  C7  UNL     1      32.320  36.771  51.619  1.00  0.00     0.213 C 
ENDROOT
BRANCH   1   2
HETATM    2  C2  UNL     1      33.774  36.645  51.577  1.00  0.00     0.140 C 
HETATM    3  N2  UNL     1      34.450  37.595  51.140  1.00  0.00    -0.261 N 
ATOM      4  H2  UNL     1      33.786  38.337  50.920  1.00  0.00     0.194 HD
BRANCH   2   5
HETATM    5  C1  UNL     1      34.450  35.436  51.978  1.00  0.00     0.331 C 
HETATM    6  O2  UNL     1      34.069  34.277  51.591  1.00  0.00    -0.256 OA
BRANCH   5   7
HETATM    7  O1  UNL     1      35.573  35.426  52.810  1.00  0.00    -0.201 OA
BRANCH   7   8
HETATM    8  N1  UNL     1      36.497  34.417  52.709  1.00  0.00    -0.302 N 
ATOM      9  H12 UNL     1      36.872  34.181  51.790  1.00  0.00     0.184 HD
ATOM     10  H11 UNL     1      36.800  33.914  53.543  1.00  0.00     0.184 HD
ENDBRANCH   7   8
ENDBRANCH   5   7
ENDBRANCH   2   5
BRANCH   3  11
HETATM   11  O3  UNL     1      35.603  38.053  50.845  1.00  0.00    -0.262 OA
BRANCH  11  12
HETATM   12  C3  UNL     1      36.316  38.394  49.698  1.00  0.00     0.288 C 
BRANCH  12  13
HETATM   13  C4  UNL     1      37.636  37.738  49.715  1.00  0.00     0.260 C 
HETATM   14  O4  UNL     1      38.660  38.337  49.319  1.00  0.00    -0.283 OA
BRANCH  13  15
HETATM   15  C5  UNL     1      37.770  36.382  50.191  1.00  0.00     0.249 C 
HETATM   16  O5  UNL     1      37.106  35.393  49.791  1.00  0.00    -0.642 OA
HETATM   17  O6  UNL     1      38.712  36.063  51.193  1.00  0.00    -0.642 OA
ENDBRANCH  13  15
ENDBRANCH  12  13
BRANCH  12  18
HETATM   18  C6  UNL     1      36.472  39.921  49.606  1.00  0.00     0.356 C 
BRANCH  18  19
HETATM   19  N3  UNL     1      36.794  40.286  48.238  1.00  0.00    -0.050 N 
ATOM     20  H33 UNL     1      36.804  39.479  47.614  1.00  0.00     0.277 HD
ATOM     21  H32 UNL     1      36.041  40.807  47.789  1.00  0.00     0.277 HD
ATOM     22  H31 UNL     1      37.678  40.795  48.226  1.00  0.00     0.277 HD
ENDBRANCH  18  19
BRANCH  18  23
HETATM   23  O7  UNL     1      35.328  40.588  49.967  1.00  0.00    -0.368 OA
ATOM     24  H7  UNL     1      35.508  41.356  50.496  1.00  0.00     0.212 HD
ENDBRANCH  18  23
ENDBRANCH  12  18
ENDBRANCH  11  12
ENDBRANCH   3  11
ENDBRANCH   1   2
BRANCH   1  25
HETATM   25  O8  UNL     1      31.718  35.534  51.972  1.00  0.00    -0.386 OA
ATOM     26  H8  UNL     1      30.772  35.616  51.998  1.00  0.00     0.210 HD
ENDBRANCH   1  25
BRANCH   1  27
HETATM   27  C8  UNL     1      31.689  37.837  52.404  1.00  0.00     0.127 C 
HETATM   28  C9  UNL     1      32.474  38.662  53.346  1.00  0.00     0.078 C 
HETATM   29  C10 UNL     1      32.897  39.917  52.636  1.00  0.00     0.147 C 
HETATM   30  C11 UNL     1      32.314  39.850  51.236  1.00  0.00     0.157 C 
HETATM   31  N4  UNL     1      31.637  41.069  50.864  1.00  0.00    -0.329 N 
HETATM   32  C16 UNL     1      31.163  38.884  51.448  1.00  0.00     0.142 C 
HETATM   33  C12 UNL     1      31.777  42.402  50.385  1.00  0.00     0.194 C 
HETATM   34  C14 UNL     1      30.178  40.920  51.039  1.00  0.00     0.211 C 
HETATM   35  N5  UNL     1      32.868  42.893  49.596  1.00  0.00    -0.063 NA
HETATM   36  N6  UNL     1      30.752  43.122  50.779  1.00  0.00    -0.299 N 
HETATM   37  C13 UNL     1      29.878  42.264  51.550  1.00  0.00     0.249 C 
ATOM     38  H6  UNL     1      30.598  44.110  50.577  1.00  0.00     0.171 HD
HETATM   39  O11 UNL     1      29.071  42.651  52.440  1.00  0.00    -0.271 OA
HETATM   40  C15 UNL     1      30.151  39.825  52.083  1.00  0.00     0.190 C 
BRANCH  27  41
HETATM   41  O9  UNL     1      30.525  37.329  53.070  1.00  0.00    -0.383 OA
ATOM     42  H9  UNL     1      29.869  38.012  53.140  1.00  0.00     0.210 HD
ENDBRANCH  27  41
BRANCH  29  43
HETATM   43  O10 UNL     1      34.243  40.184  52.652  1.00  0.00    -0.393 OA
ATOM     44  H10 UNL     1      34.515  40.956  52.172  1.00  0.00     0.210 HD
ENDBRANCH  29  43
BRANCH  40  45
HETATM   45  O12 UNL     1      28.898  39.245  52.151  1.00  0.00    -0.390 OA
ATOM     46  H12 UNL     1      28.399  39.608  52.873  1.00  0.00     0.210 HD
ENDBRANCH  40  45
BRANCH  32  47
HETATM   47  O13 UNL     1      30.614  38.412  50.295  1.00  0.00    -0.382 OA
ATOM     48  H13 UNL     1      29.962  37.730  50.397  1.00  0.00     0.211 HD
ENDBRANCH  32  47
ENDBRANCH   1  27
TORSDOF 17
ENDMDL
MODEL 2
REMARK VINA RESULT: -8.285191945      2.289      4.570
REMARK  17 active torsions:
REMARK  status: ('A' for Active; 'I' for Inactive)
REMARK    1  A    between atoms: N1_1  and  O1_4 
REMARK    2  A    between atoms: O1_4  and  C1_5 
REMARK    3  A    between atoms: C1_5  and  C2_7 
REMARK    4  A    between atoms: C2_7  and  C7_24 
REMARK    5  A    between atoms: N2_8  and  O3_10 
REMARK    6  A    between atoms: O3_10  and  C3_11 
REMARK    7  A    between atoms: C3_11  and  C4_12 
REMARK    8  A    between atoms: C3_11  and  C6_17 
REMARK    9  A    between atoms: C4_12  and  C5_14 
REMARK   10  A    between atoms: C6_17  and  N3_18 
REMARK   11  A    between atoms: C6_17  and  O7_22 
REMARK   12  A    between atoms: C7_24  and  O8_25 
REMARK   13  A    between atoms: C7_24  and  C8_27 
REMARK   14  A    between atoms: C8_27  and  O9_28 
REMARK   15  A    between atoms: C10_31  and  O10_32 
REMARK   16  A    between atoms: C15_43  and  O12_44 
REMARK   17  A    between atoms: C16_46  and  O13_47 
ROOT
HETATM    1  C7  UNL     1      32.117  40.559  52.983  1.00  0.00     0.213 C 
ENDROOT
BRANCH   1   2
HETATM    2  C2  UNL     1      32.252  39.213  53.531  1.00  0.00     0.140 C 
HETATM    3  N2  UNL     1      33.214  38.508  53.172  1.00  0.00    -0.261 N 
ATOM      4  H2  UNL     1      33.770  39.089  52.544  1.00  0.00     0.194 HD
BRANCH   2   5
HETATM    5  C1  UNL     1      31.279  38.653  54.436  1.00  0.00     0.331 C 
HETATM    6  O2  UNL     1      31.491  38.554  55.694  1.00  0.00    -0.256 OA
BRANCH   5   7
HETATM    7  O1  UNL     1      30.031  38.180  54.023  1.00  0.00    -0.201 OA
BRANCH   7   8
HETATM    8  N1  UNL     1      29.849  37.751  52.732  1.00  0.00    -0.302 N 
ATOM      9  H12 UNL     1      30.642  37.353  52.228  1.00  0.00     0.184 HD
ATOM     10  H11 UNL     1      28.934  37.833  52.290  1.00  0.00     0.184 HD
ENDBRANCH   7   8
ENDBRANCH   5   7
ENDBRANCH   2   5
BRANCH   3  11
HETATM   11  O3  UNL     1      33.814  37.385  53.239  1.00  0.00    -0.262 OA
BRANCH  11  12
HETATM   12  C3  UNL     1      34.385  36.466  52.363  1.00  0.00     0.288 C 
BRANCH  12  13
HETATM   13  C4  UNL     1      35.319  37.153  51.453  1.00  0.00     0.260 C 
HETATM   14  O4  UNL     1      35.112  38.329  51.082  1.00  0.00    -0.283 OA
BRANCH  13  15
HETATM   15  C5  UNL     1      36.498  36.475  50.970  1.00  0.00     0.249 C 
HETATM   16  O5  UNL     1      37.654  36.964  50.904  1.00  0.00    -0.642 OA
HETATM   17  O6  UNL     1      36.423  35.141  50.516  1.00  0.00    -0.642 OA
ENDBRANCH  13  15
ENDBRANCH  12  13
BRANCH  12  18
HETATM   18  C6  UNL     1      33.288  35.741  51.565  1.00  0.00     0.356 C 
BRANCH  18  19
HETATM   19  N3  UNL     1      33.529  34.310  51.613  1.00  0.00    -0.050 N 
ATOM     20  H33 UNL     1      33.890  33.948  50.731  1.00  0.00     0.277 HD
ATOM     21  H32 UNL     1      34.325  34.072  52.204  1.00  0.00     0.277 HD
ATOM     22  H31 UNL     1      32.674  33.836  51.905  1.00  0.00     0.277 HD
ENDBRANCH  18  19
BRANCH  18  23
HETATM   23  O7  UNL     1      32.032  35.979  52.065  1.00  0.00    -0.368 OA
ATOM     24  H7  UNL     1      31.380  36.064  51.380  1.00  0.00     0.212 HD
ENDBRANCH  18  23
ENDBRANCH  12  18
ENDBRANCH  11  12
ENDBRANCH   3  11
ENDBRANCH   1   2
BRANCH   1  25
HETATM   25  O8  UNL     1      32.914  41.482  53.710  1.00  0.00    -0.386 OA
ATOM     26  H8  UNL     1      33.838  41.330  53.547  1.00  0.00     0.210 HD
ENDBRANCH   1  25
BRANCH   1  27
HETATM   27  C8  UNL     1      32.313  40.801  51.549  1.00  0.00     0.127 C 
HETATM   28  C9  UNL     1      31.909  39.799  50.541  1.00  0.00     0.078 C 
HETATM   29  C10 UNL     1      30.532  40.150  50.053  1.00  0.00     0.147 C 
HETATM   30  C11 UNL     1      30.120  41.422  50.770  1.00  0.00     0.157 C 
HETATM   31  N4  UNL     1      29.600  42.419  49.866  1.00  0.00    -0.329 N 
HETATM   32  C16 UNL     1      31.473  41.993  51.148  1.00  0.00     0.142 C 
HETATM   33  C12 UNL     1      28.474  42.868  49.118  1.00  0.00     0.194 C 
HETATM   34  C14 UNL     1      30.641  43.418  49.549  1.00  0.00     0.211 C 
HETATM   35  N5  UNL     1      27.103  42.590  49.430  1.00  0.00    -0.063 NA
HETATM   36  N6  UNL     1      28.881  43.578  48.091  1.00  0.00    -0.299 N 
HETATM   37  C13 UNL     1      30.327  43.622  48.128  1.00  0.00     0.249 C 
ATOM     38  H6  UNL     1      28.284  44.020  47.391  1.00  0.00     0.171 HD
HETATM   39  O11 UNL     1      31.080  43.799  47.131  1.00  0.00    -0.271 OA
HETATM   40  C15 UNL     1      31.882  42.594  49.812  1.00  0.00     0.190 C 
BRANCH  27  41
HETATM   41  O9  UNL     1      33.668  41.206  51.305  1.00  0.00    -0.383 OA
ATOM     42  H9  UNL     1      33.678  41.987  50.765  1.00  0.00     0.210 HD
ENDBRANCH  27  41
BRANCH  29  43
HETATM   43  O10 UNL     1      29.598  39.149  50.141  1.00  0.00    -0.393 OA
ATOM     44  H10 UNL     1      28.691  39.430  50.125  1.00  0.00     0.210 HD
ENDBRANCH  29  43
BRANCH  40  45
HETATM   45  O12 UNL     1      32.991  43.408  49.944  1.00  0.00    -0.390 OA
ATOM     46  H12 UNL     1      33.481  43.442  49.131  1.00  0.00     0.210 HD
ENDBRANCH  40  45
BRANCH  32  47
HETATM   47  O13 UNL     1      31.415  43.009  52.052  1.00  0.00    -0.382 OA
ATOM     48  H13 UNL     1      32.034  43.717  51.919  1.00  0.00     0.211 HD
ENDBRANCH  32  47
ENDBRANCH   1  27
TORSDOF 17
ENDMDL
MODEL 3
REMARK VINA RESULT: -8.273676156      1.559      3.265
REMARK  17 active torsions:
REMARK  status: ('A' for Active; 'I' for Inactive)
REMARK    1  A    between atoms: N1_1  and  O1_4 
REMARK    2  A    between atoms: O1_4  and  C1_5 
REMARK    3  A    between atoms: C1_5  and  C2_7 
REMARK    4  A    between atoms: C2_7  and  C7_24 
REMARK    5  A    between atoms: N2_8  and  O3_10 
REMARK    6  A    between atoms: O3_10  and  C3_11 
REMARK    7  A    between atoms: C3_11  and  C4_12 
REMARK    8  A    between atoms: C3_11  and  C6_17 
REMARK    9  A    between atoms: C4_12  and  C5_14 
REMARK   10  A    between atoms: C6_17  and  N3_18 
REMARK   11  A    between atoms: C6_17  and  O7_22 
REMARK   12  A    between atoms: C7_24  and  O8_25 
REMARK   13  A    between atoms: C7_24  and  C8_27 
REMARK   14  A    between atoms: C8_27  and  O9_28 
REMARK   15  A    between atoms: C10_31  and  O10_32 
REMARK   16  A    between atoms: C15_43  and  O12_44 
REMARK   17  A    between atoms: C16_46  and  O13_47 
ROOT
HETATM    1  C7  UNL     1      32.829  37.280  51.138  1.00  0.00     0.213 C 
ENDROOT
BRANCH   1   2
HETATM    2  C2  UNL     1      34.259  37.215  51.427  1.00  0.00     0.140 C 
HETATM    3  N2  UNL     1      34.695  36.270  52.111  1.00  0.00    -0.261 N 
ATOM      4  H2  UNL     1      33.893  35.672  52.309  1.00  0.00     0.194 HD
BRANCH   2   5
HETATM    5  C1  UNL     1      35.176  38.238  50.988  1.00  0.00     0.331 C 
HETATM    6  O2  UNL     1      34.815  39.453  50.814  1.00  0.00    -0.256 OA
BRANCH   5   7
HETATM    7  O1  UNL     1      36.527  37.994  50.725  1.00  0.00    -0.201 OA
BRANCH   7   8
HETATM    8  N1  UNL     1      36.961  37.844  49.432  1.00  0.00    -0.302 N 
ATOM      9  H12 UNL     1      37.366  36.952  49.147  1.00  0.00     0.184 HD
ATOM     10  H11 UNL     1      36.878  38.617  48.772  1.00  0.00     0.184 HD
ENDBRANCH   7   8
ENDBRANCH   5   7
ENDBRANCH   2   5
BRANCH   3  11
HETATM   11  O3  UNL     1      35.697  35.718  52.674  1.00  0.00    -0.262 OA
BRANCH  11  12
HETATM   12  C3  UNL     1      36.524  34.619  52.461  1.00  0.00     0.288 C 
BRANCH  12  13
HETATM   13  C4  UNL     1      37.286  34.798  51.212  1.00  0.00     0.260 C 
HETATM   14  O4  UNL     1      36.723  34.738  50.097  1.00  0.00    -0.283 OA
BRANCH  13  15
HETATM   15  C5  UNL     1      38.707  35.048  51.254  1.00  0.00     0.249 C 
HETATM   16  O5  UNL     1      39.271  36.139  50.988  1.00  0.00    -0.642 OA
HETATM   17  O6  UNL     1      39.605  34.022  51.620  1.00  0.00    -0.642 OA
ENDBRANCH  13  15
ENDBRANCH  12  13
BRANCH  12  18
HETATM   18  C6  UNL     1      35.688  33.329  52.403  1.00  0.00     0.356 C 
BRANCH  18  19
HETATM   19  N3  UNL     1      34.606  33.503  51.451  1.00  0.00    -0.050 N 
ATOM     20  H33 UNL     1      34.837  34.180  50.723  1.00  0.00     0.277 HD
ATOM     21  H32 UNL     1      34.480  32.686  50.854  1.00  0.00     0.277 HD
ATOM     22  H31 UNL     1      33.754  33.752  51.953  1.00  0.00     0.277 HD
ENDBRANCH  18  19
BRANCH  18  23
HETATM   23  O7  UNL     1      36.429  32.241  52.012  1.00  0.00    -0.368 OA
ATOM     24  H7  UNL     1      35.940  31.429  52.072  1.00  0.00     0.212 HD
ENDBRANCH  18  23
ENDBRANCH  12  18
ENDBRANCH  11  12
ENDBRANCH   3  11
ENDBRANCH   1   2
BRANCH   1  25
HETATM   25  O8  UNL     1      32.349  36.022  50.688  1.00  0.00    -0.386 OA
ATOM     26  H8  UNL     1      31.509  35.821  51.083  1.00  0.00     0.210 HD
ENDBRANCH   1  25
BRANCH   1  27
HETATM   27  C8  UNL     1      31.893  37.807  52.137  1.00  0.00     0.127 C 
HETATM   28  C9  UNL     1      32.363  38.640  53.264  1.00  0.00     0.078 C 
HETATM   29  C10 UNL     1      32.215  40.084  52.877  1.00  0.00     0.147 C 
HETATM   30  C11 UNL     1      31.604  40.109  51.488  1.00  0.00     0.157 C 
HETATM   31  N4  UNL     1      30.482  41.013  51.397  1.00  0.00    -0.329 N 
HETATM   32  C16 UNL     1      30.935  38.748  51.441  1.00  0.00     0.142 C 
HETATM   33  C12 UNL     1      30.060  42.364  51.248  1.00  0.00     0.194 C 
HETATM   34  C14 UNL     1      29.212  40.267  51.500  1.00  0.00     0.211 C 
HETATM   35  N5  UNL     1      30.815  43.408  50.620  1.00  0.00    -0.063 NA
HETATM   36  N6  UNL     1      28.867  42.515  51.776  1.00  0.00    -0.299 N 
HETATM   37  C13 UNL     1      28.452  41.233  52.305  1.00  0.00     0.249 C 
ATOM     38  H6  UNL     1      28.328  43.381  51.808  1.00  0.00     0.171 HD
HETATM   39  O11 UNL     1      27.625  41.061  53.243  1.00  0.00    -0.271 OA
HETATM   40  C15 UNL     1      29.687  39.046  52.257  1.00  0.00     0.190 C 
BRANCH  27  41
HETATM   41  O9  UNL     1      31.068  36.746  52.639  1.00  0.00    -0.383 OA
ATOM     42  H9  UNL     1      31.607  35.994  52.856  1.00  0.00     0.210 HD
ENDBRANCH  27  41
BRANCH  29  43
HETATM   43  O10 UNL     1      33.350  40.848  52.986  1.00  0.00    -0.393 OA
ATOM     44  H10 UNL     1      34.057  40.620  52.393  1.00  0.00     0.210 HD
ENDBRANCH  29  43
BRANCH  40  45
HETATM   45  O12 UNL     1      28.764  38.021  52.159  1.00  0.00    -0.390 OA
ATOM     46  H12 UNL     1      28.633  37.774  51.252  1.00  0.00     0.210 HD
ENDBRANCH  40  45
BRANCH  32  47
HETATM   47  O13 UNL     1      30.530  38.370  50.198  1.00  0.00    -0.382 OA
ATOM     48  H13 UNL     1      29.876  37.681  50.168  1.00  0.00     0.211 HD
ENDBRANCH  32  47
ENDBRANCH   1  27
TORSDOF 17
ENDMDL
MODEL 4
REMARK VINA RESULT: -8.272229173      1.187      2.243
REMARK  17 active torsions:
REMARK  status: ('A' for Active; 'I' for Inactive)
REMARK    1  A    between atoms: N1_1  and  O1_4 
REMARK    2  A    between atoms: O1_4  and  C1_5 
REMARK    3  A    between atoms: C1_5  and  C2_7 
REMARK    4  A    between atoms: C2_7  and  C7_24 
REMARK    5  A    between atoms: N2_8  and  O3_10 
REMARK    6  A    between atoms: O3_10  and  C3_11 
REMARK    7  A    between atoms: C3_11  and  C4_12 
REMARK    8  A    between atoms: C3_11  and  C6_17 
REMARK    9  A    between atoms: C4_12  and  C5_14 
REMARK   10  A    between atoms: C6_17  and  N3_18 
REMARK   11  A    between atoms: C6_17  and  O7_22 
REMARK   12  A    between atoms: C7_24  and  O8_25 
REMARK   13  A    between atoms: C7_24  and  C8_27 
REMARK   14  A    between atoms: C8_27  and  O9_28 
REMARK   15  A    between atoms: C10_31  and  O10_32 
REMARK   16  A    between atoms: C15_43  and  O12_44 
REMARK   17  A    between atoms: C16_46  and  O13_47 
ROOT
HETATM    1  C7  UNL     1      32.541  37.099  51.461  1.00  0.00     0.213 C 
ENDROOT
BRANCH   1   2
HETATM    2  C2  UNL     1      33.935  36.706  51.278  1.00  0.00     0.140 C 
HETATM    3  N2  UNL     1      34.649  37.358  50.493  1.00  0.00    -0.261 N 
ATOM      4  H2  UNL     1      34.064  38.118  50.144  1.00  0.00     0.194 HD
BRANCH   2   5
HETATM    5  C1  UNL     1      34.500  35.554  51.937  1.00  0.00     0.331 C 
HETATM    6  O2  UNL     1      35.368  35.656  52.871  1.00  0.00    -0.256 OA
BRANCH   5   7
HETATM    7  O1  UNL     1      34.146  34.239  51.619  1.00  0.00    -0.201 OA
BRANCH   7   8
HETATM    8  N1  UNL     1      35.108  33.264  51.551  1.00  0.00    -0.302 N 
ATOM      9  H12 UNL     1      35.638  33.033  52.392  1.00  0.00     0.184 HD
ATOM     10  H11 UNL     1      35.286  32.782  50.671  1.00  0.00     0.184 HD
ENDBRANCH   7   8
ENDBRANCH   5   7
ENDBRANCH   2   5
BRANCH   3  11
HETATM   11  O3  UNL     1      35.785  37.501  49.931  1.00  0.00    -0.262 OA
BRANCH  11  12
HETATM   12  C3  UNL     1      37.104  37.727  50.313  1.00  0.00     0.288 C 
BRANCH  12  13
HETATM   13  C4  UNL     1      37.837  38.392  49.220  1.00  0.00     0.260 C 
HETATM   14  O4  UNL     1      38.574  37.743  48.448  1.00  0.00    -0.283 OA
BRANCH  13  15
HETATM   15  C5  UNL     1      37.714  39.817  49.022  1.00  0.00     0.249 C 
HETATM   16  O5  UNL     1      38.639  40.594  48.675  1.00  0.00    -0.642 OA
HETATM   17  O6  UNL     1      36.475  40.464  49.218  1.00  0.00    -0.642 OA
ENDBRANCH  13  15
ENDBRANCH  12  13
BRANCH  12  18
HETATM   18  C6  UNL     1      37.783  36.398  50.688  1.00  0.00     0.356 C 
BRANCH  18  19
HETATM   19  N3  UNL     1      37.498  35.411  49.661  1.00  0.00    -0.050 N 
ATOM     20  H33 UNL     1      36.701  34.822  49.901  1.00  0.00     0.277 HD
ATOM     21  H32 UNL     1      37.117  35.833  48.814  1.00  0.00     0.277 HD
ATOM     22  H31 UNL     1      38.341  34.866  49.478  1.00  0.00     0.277 HD
ENDBRANCH  18  19
BRANCH  18  23
HETATM   23  O7  UNL     1      39.146  36.518  50.798  1.00  0.00    -0.368 OA
ATOM     24  H7  UNL     1      39.545  36.857  50.005  1.00  0.00     0.212 HD
ENDBRANCH  18  23
ENDBRANCH  12  18
ENDBRANCH  11  12
ENDBRANCH   3  11
ENDBRANCH   1   2
BRANCH   1  25
HETATM   25  O8  UNL     1      31.761  35.996  51.898  1.00  0.00    -0.386 OA
ATOM     26  H8  UNL     1      31.117  35.758  51.241  1.00  0.00     0.210 HD
ENDBRANCH   1  25
BRANCH   1  27
HETATM   27  C8  UNL     1      32.200  38.266  52.281  1.00  0.00     0.127 C 
HETATM   28  C9  UNL     1      33.249  39.162  52.812  1.00  0.00     0.078 C 
HETATM   29  C10 UNL     1      33.408  40.316  51.863  1.00  0.00     0.147 C 
HETATM   30  C11 UNL     1      32.396  40.115  50.750  1.00  0.00     0.157 C 
HETATM   31  N4  UNL     1      31.629  41.308  50.483  1.00  0.00    -0.329 N 
HETATM   32  C16 UNL     1      31.384  39.219  51.437  1.00  0.00     0.142 C 
HETATM   33  C12 UNL     1      31.598  42.575  49.835  1.00  0.00     0.194 C 
HETATM   34  C14 UNL     1      30.310  41.229  51.144  1.00  0.00     0.211 C 
HETATM   35  N5  UNL     1      32.365  42.939  48.681  1.00  0.00    -0.063 NA
HETATM   36  N6  UNL     1      30.757  43.369  50.458  1.00  0.00    -0.299 N 
HETATM   37  C13 UNL     1      30.190  42.631  51.567  1.00  0.00     0.249 C 
ATOM     38  H6  UNL     1      30.541  44.334  50.206  1.00  0.00     0.171 HD
HETATM   39  O11 UNL     1      29.721  43.141  52.621  1.00  0.00    -0.271 OA
HETATM   40  C15 UNL     1      30.634  40.257  52.257  1.00  0.00     0.190 C 
BRANCH  27  41
HETATM   41  O9  UNL     1      31.323  37.873  53.346  1.00  0.00    -0.383 OA
ATOM     42  H9  UNL     1      30.525  37.504  52.987  1.00  0.00     0.210 HD
ENDBRANCH  27  41
BRANCH  29  43
HETATM   43  O10 UNL     1      34.683  40.537  51.406  1.00  0.00    -0.393 OA
ATOM     44  H10 UNL     1      34.779  40.584  50.462  1.00  0.00     0.210 HD
ENDBRANCH  29  43
BRANCH  40  45
HETATM   45  O12 UNL     1      29.476  39.731  52.799  1.00  0.00    -0.390 OA
ATOM     46  H12 UNL     1      29.669  39.236  53.586  1.00  0.00     0.210 HD
ENDBRANCH  40  45
BRANCH  32  47
HETATM   47  O13 UNL     1      30.487  38.642  50.591  1.00  0.00    -0.382 OA
ATOM     48  H13 UNL     1      29.900  38.006  50.981  1.00  0.00     0.211 HD
ENDBRANCH  32  47
ENDBRANCH   1  27
TORSDOF 17
ENDMDL
MODEL 5
REMARK VINA RESULT: -8.176711237      2.322      4.758
REMARK  17 active torsions:
REMARK  status: ('A' for Active; 'I' for Inactive)
REMARK    1  A    between atoms: N1_1  and  O1_4 
REMARK    2  A    between atoms: O1_4  and  C1_5 
REMARK    3  A    between atoms: C1_5  and  C2_7 
REMARK    4  A    between atoms: C2_7  and  C7_24 
REMARK    5  A    between atoms: N2_8  and  O3_10 
REMARK    6  A    between atoms: O3_10  and  C3_11 
REMARK    7  A    between atoms: C3_11  and  C4_12 
REMARK    8  A    between atoms: C3_11  and  C6_17 
REMARK    9  A    between atoms: C4_12  and  C5_14 
REMARK   10  A    between atoms: C6_17  and  N3_18 
REMARK   11  A    between atoms: C6_17  and  O7_22 
REMARK   12  A    between atoms: C7_24  and  O8_25 
REMARK   13  A    between atoms: C7_24  and  C8_27 
REMARK   14  A    between atoms: C8_27  and  O9_28 
REMARK   15  A    between atoms: C10_31  and  O10_32 
REMARK   16  A    between atoms: C15_43  and  O12_44 
REMARK   17  A    between atoms: C16_46  and  O13_47 
ROOT
HETATM    1  C7  UNL     1      32.059  40.547  52.182  1.00  0.00     0.213 C 
ENDROOT
BRANCH   1   2
HETATM    2  C2  UNL     1      32.202  39.112  52.413  1.00  0.00     0.140 C 
HETATM    3  N2  UNL     1      33.081  38.485  51.791  1.00  0.00    -0.261 N 
ATOM      4  H2  UNL     1      33.580  39.178  51.233  1.00  0.00     0.194 HD
BRANCH   2   5
HETATM    5  C1  UNL     1      31.325  38.387  53.298  1.00  0.00     0.331 C 
HETATM    6  O2  UNL     1      31.272  38.623  54.555  1.00  0.00    -0.256 OA
BRANCH   5   7
HETATM    7  O1  UNL     1      30.461  37.377  52.864  1.00  0.00    -0.201 OA
BRANCH   7   8
HETATM    8  N1  UNL     1      29.121  37.630  52.724  1.00  0.00    -0.302 N 
ATOM      9  H12 UNL     1      28.582  37.083  52.053  1.00  0.00     0.184 HD
ATOM     10  H11 UNL     1      28.675  38.356  53.286  1.00  0.00     0.184 HD
ENDBRANCH   7   8
ENDBRANCH   5   7
ENDBRANCH   2   5
BRANCH   3  11
HETATM   11  O3  UNL     1      33.635  37.364  51.542  1.00  0.00    -0.262 OA
BRANCH  11  12
HETATM   12  C3  UNL     1      34.155  36.288  52.256  1.00  0.00     0.288 C 
BRANCH  12  13
HETATM   13  C4  UNL     1      35.588  36.128  51.950  1.00  0.00     0.260 C 
HETATM   14  O4  UNL     1      36.297  35.314  52.581  1.00  0.00    -0.283 OA
BRANCH  13  15
HETATM   15  C5  UNL     1      36.203  36.915  50.908  1.00  0.00     0.249 C 
HETATM   16  O5  UNL     1      36.198  38.170  50.833  1.00  0.00    -0.642 OA
HETATM   17  O6  UNL     1      36.890  36.289  49.846  1.00  0.00    -0.642 OA
ENDBRANCH  13  15
ENDBRANCH  12  13
BRANCH  12  18
HETATM   18  C6  UNL     1      33.383  35.002  51.914  1.00  0.00     0.356 C 
BRANCH  18  19
HETATM   19  N3  UNL     1      32.158  35.352  51.218  1.00  0.00    -0.050 N 
ATOM     20  H33 UNL     1      31.326  35.041  51.720  1.00  0.00     0.277 HD
ATOM     21  H32 UNL     1      31.974  36.355  51.239  1.00  0.00     0.277 HD
ATOM     22  H31 UNL     1      32.196  34.984  50.268  1.00  0.00     0.277 HD
ENDBRANCH  18  19
BRANCH  18  23
HETATM   23  O7  UNL     1      34.104  34.156  51.109  1.00  0.00    -0.368 OA
ATOM     24  H7  UNL     1      34.019  34.372  50.188  1.00  0.00     0.212 HD
ENDBRANCH  18  23
ENDBRANCH  12  18
ENDBRANCH  11  12
ENDBRANCH   3  11
ENDBRANCH   1   2
BRANCH   1  25
HETATM   25  O8  UNL     1      33.281  41.222  52.440  1.00  0.00    -0.386 OA
ATOM     26  H8  UNL     1      33.218  42.137  52.193  1.00  0.00     0.210 HD
ENDBRANCH   1  25
BRANCH   1  27
HETATM   27  C8  UNL     1      31.508  41.045  50.918  1.00  0.00     0.127 C 
HETATM   28  C9  UNL     1      30.442  40.309  50.204  1.00  0.00     0.078 C 
HETATM   29  C10 UNL     1      29.117  40.892  50.605  1.00  0.00     0.147 C 
HETATM   30  C11 UNL     1      29.408  42.034  51.561  1.00  0.00     0.157 C 
HETATM   31  N4  UNL     1      28.695  43.240  51.212  1.00  0.00    -0.329 N 
HETATM   32  C16 UNL     1      30.836  42.374  51.181  1.00  0.00     0.142 C 
HETATM   33  C12 UNL     1      27.459  43.942  51.270  1.00  0.00     0.194 C 
HETATM   34  C14 UNL     1      29.581  44.166  50.479  1.00  0.00     0.211 C 
HETATM   35  N5  UNL     1      26.439  43.755  52.260  1.00  0.00    -0.063 NA
HETATM   36  N6  UNL     1      27.388  44.795  50.273  1.00  0.00    -0.299 N 
HETATM   37  C13 UNL     1      28.609  44.679  49.504  1.00  0.00     0.249 C 
ATOM     38  H6  UNL     1      26.612  45.426  50.075  1.00  0.00     0.171 HD
HETATM   39  O11 UNL     1      28.735  44.968  48.283  1.00  0.00    -0.271 OA
HETATM   40  C15 UNL     1      30.582  43.180  49.917  1.00  0.00     0.190 C 
BRANCH  27  41
HETATM   41  O9  UNL     1      32.574  41.345  50.006  1.00  0.00    -0.383 OA
ATOM     42  H9  UNL     1      33.251  40.682  50.074  1.00  0.00     0.210 HD
ENDBRANCH  27  41
BRANCH  29  43
HETATM   43  O10 UNL     1      28.197  39.998  51.090  1.00  0.00    -0.393 OA
ATOM     44  H10 UNL     1      27.455  39.823  50.523  1.00  0.00     0.210 HD
ENDBRANCH  29  43
BRANCH  40  45
HETATM   45  O12 UNL     1      31.726  43.831  49.497  1.00  0.00    -0.390 OA
ATOM     46  H12 UNL     1      32.443  43.217  49.391  1.00  0.00     0.210 HD
ENDBRANCH  40  45
BRANCH  32  47
HETATM   47  O13 UNL     1      31.468  43.192  52.067  1.00  0.00    -0.382 OA
ATOM     48  H13 UNL     1      31.809  44.004  51.710  1.00  0.00     0.211 HD
ENDBRANCH  32  47
ENDBRANCH   1  27
TORSDOF 17
ENDMDL
