MODEL 1
REMARK VINA RESULT: -9.386221358      0.000      0.000
REMARK  9 active torsions:
REMARK  status: ('A' for Active; 'I' for Inactive)
REMARK    1  A    between atoms: N1_2  and  C2_3 
REMARK    2  A    between atoms: N1_2  and  C7_17 
REMARK    3  A    between atoms: C2_3  and  C3_4 
REMARK    4  A    between atoms: C3_4  and  N2_5 
REMARK    5  A    between atoms: C5_9  and  N4_10 
REMARK    6  A    between atoms: C8_20  and  N7_21 
REMARK    7  A    between atoms: C13_28  and  N9_29 
REMARK    8  A    between atoms: N10_32  and  C16_33 
REMARK    9  A    between atoms: C18_35  and  N11_36 
ROOT
HETATM    1  C7  UNL     1     -25.246   1.847  64.693  1.00  0.00     0.709 A 
HETATM    2  N6  UNL     1     -25.379   0.540  64.423  1.00  0.00    -0.021 N 
ATOM      3  H6  UNL     1     -26.229   0.064  64.724  1.00  0.00     0.203 HD
HETATM    4  C8  UNL     1     -24.437  -0.173  63.771  1.00  0.00     0.709 A 
HETATM    5  N8  UNL     1     -23.333   0.505  63.396  1.00  0.00    -0.021 N 
ATOM      6  H8  UNL     1     -22.604  -0.009  62.902  1.00  0.00     0.203 HD
HETATM    7  C13 UNL     1     -23.130   1.812  63.631  1.00  0.00     0.709 A 
HETATM    8  N14 UNL     1     -24.107   2.457  64.281  1.00  0.00    -0.021 N 
ATOM      9  H14 UNL     1     -23.990   3.453  64.473  1.00  0.00     0.203 HD
ENDROOT
BRANCH   7  10
HETATM   10  N9  UNL     1     -21.915   2.477  63.224  1.00  0.00    -0.214 N 
HETATM   11  C14 UNL     1     -21.472   3.638  63.970  1.00  0.00     0.161 C 
HETATM   12  C15 UNL     1     -20.832   4.663  63.050  1.00  0.00     0.145 C 
HETATM   13  N10 UNL     1     -19.951   4.005  62.089  1.00  0.00    -0.364 N 
HETATM   14  C20 UNL     1     -19.743   2.596  62.268  1.00  0.00     0.145 C 
HETATM   15  C21 UNL     1     -21.142   1.968  62.099  1.00  0.00     0.161 C 
BRANCH  13  16
HETATM   16  C16 UNL     1     -19.376   4.753  61.053  1.00  0.00     0.107 A 
HETATM   17  C17 UNL     1     -20.240   5.325  60.101  1.00  0.00     0.096 A 
HETATM   18  C18 UNL     1     -19.696   6.055  59.078  1.00  0.00     0.103 A 
HETATM   19  N12 UNL     1     -18.355   6.198  59.026  1.00  0.00    -0.339 N 
HETATM   20  C19 UNL     1     -17.554   5.649  59.941  1.00  0.00     0.183 A 
ATOM     21  H12 UNL     1     -17.942   6.741  58.267  1.00  0.00     0.168 HD
HETATM   22  N13 UNL     1     -18.056   4.917  60.969  1.00  0.00    -0.339 N 
ATOM     23  H13 UNL     1     -17.435   4.502  61.664  1.00  0.00     0.168 HD
BRANCH  18  24
HETATM   24  N11 UNL     1     -20.474   6.585  58.176  1.00  0.00    -0.385 N 
ATOM     25 2H11 UNL     1     -20.933   6.015  57.465  1.00  0.00     0.157 HD
ATOM     26 1H11 UNL     1     -20.641   7.591  58.180  1.00  0.00     0.157 HD
ENDBRANCH  18  24
ENDBRANCH  13  16
ENDBRANCH   7  10
BRANCH   4  27
HETATM   27  N7  UNL     1     -24.592  -1.556  63.445  1.00  0.00    -0.217 N 
HETATM   28  C9  UNL     1     -25.468  -2.438  64.219  1.00  0.00     0.141 C 
HETATM   29  C10 UNL     1     -25.222  -3.826  63.716  1.00  0.00     0.022 C 
HETATM   30  C11 UNL     1     -23.818  -3.697  63.125  1.00  0.00     0.022 C 
HETATM   31  C12 UNL     1     -23.979  -2.338  62.417  1.00  0.00     0.141 C 
ENDBRANCH   4  27
BRANCH   1  32
HETATM   32  N1  UNL     1     -26.234   2.592  65.427  1.00  0.00    -0.219 N 
HETATM   33  C1  UNL     1     -25.842   3.848  66.000  1.00  0.00     0.168 C 
BRANCH  32  34
HETATM   34  C2  UNL     1     -27.531   2.050  65.603  1.00  0.00     0.161 C 
BRANCH  34  35
HETATM   35  C3  UNL     1     -28.260   2.269  66.873  1.00  0.00     0.155 C 
BRANCH  35  36
HETATM   36  N2  UNL     1     -28.717   1.134  67.596  1.00  0.00    -0.293 N 
HETATM   37  C4  UNL     1     -28.995   0.003  66.891  1.00  0.00     0.205 A 
HETATM   38  N3  UNL     1     -29.398  -1.106  67.507  1.00  0.00    -0.188 N 
HETATM   39  C5  UNL     1     -29.546  -1.160  68.838  1.00  0.00     0.680 A 
ATOM     40  H3  UNL     1     -29.600  -1.937  66.952  1.00  0.00     0.185 HD
HETATM   41  N5  UNL     1     -29.278  -0.054  69.567  1.00  0.00    -0.141 N 
HETATM   42  C6  UNL     1     -28.866   1.080  68.922  1.00  0.00     0.341 A 
ATOM     43  H5  UNL     1     -29.381  -0.064  70.583  1.00  0.00     0.189 HD
HETATM   44  O1  UNL     1     -28.638   2.081  69.666  1.00  0.00    -0.246 OA
BRANCH  39  45
HETATM   45  N4  UNL     1     -29.945  -2.273  69.403  1.00  0.00    -0.234 N 
ATOM     46  H42 UNL     1     -29.967  -3.154  68.888  1.00  0.00     0.174 HD
ATOM     47  H41 UNL     1     -30.241  -2.268  70.379  1.00  0.00     0.174 HD
ENDBRANCH  39  45
ENDBRANCH  35  36
ENDBRANCH  34  35
ENDBRANCH  32  34
ENDBRANCH   1  32
TORSDOF 9
ENDMDL
MODEL 2
REMARK VINA RESULT: -9.319993056      5.965      9.058
REMARK  9 active torsions:
REMARK  status: ('A' for Active; 'I' for Inactive)
REMARK    1  A    between atoms: N1_2  and  C2_3 
REMARK    2  A    between atoms: N1_2  and  C7_17 
REMARK    3  A    between atoms: C2_3  and  C3_4 
REMARK    4  A    between atoms: C3_4  and  N2_5 
REMARK    5  A    between atoms: C5_9  and  N4_10 
REMARK    6  A    between atoms: C8_20  and  N7_21 
REMARK    7  A    between atoms: C13_28  and  N9_29 
REMARK    8  A    between atoms: N10_32  and  C16_33 
REMARK    9  A    between atoms: C18_35  and  N11_36 
ROOT
HETATM    1  C7  UNL     1     -30.144  -3.887  60.243  1.00  0.00     0.709 A 
HETATM    2  N6  UNL     1     -31.235  -4.198  60.958  1.00  0.00    -0.021 N 
ATOM      3  H6  UNL     1     -32.062  -4.533  60.464  1.00  0.00     0.203 HD
HETATM    4  C8  UNL     1     -31.287  -4.088  62.301  1.00  0.00     0.709 A 
HETATM    5  N8  UNL     1     -30.166  -3.642  62.904  1.00  0.00    -0.021 N 
ATOM      6  H8  UNL     1     -30.177  -3.548  63.920  1.00  0.00     0.203 HD
HETATM    7  C13 UNL     1     -29.037  -3.311  62.255  1.00  0.00     0.709 A 
HETATM    8  N14 UNL     1     -29.056  -3.447  60.923  1.00  0.00    -0.021 N 
ATOM      9  H14 UNL     1     -28.215  -3.209  60.397  1.00  0.00     0.203 HD
ENDROOT
BRANCH   7  10
HETATM   10  N9  UNL     1     -27.876  -2.816  62.956  1.00  0.00    -0.214 N 
HETATM   11  C14 UNL     1     -28.008  -2.446  64.351  1.00  0.00     0.161 C 
HETATM   12  C15 UNL     1     -27.139  -1.244  64.679  1.00  0.00     0.145 C 
HETATM   13  N10 UNL     1     -25.824  -1.383  64.058  1.00  0.00    -0.364 N 
HETATM   14  C20 UNL     1     -25.550  -2.630  63.403  1.00  0.00     0.145 C 
HETATM   15  C21 UNL     1     -26.593  -2.719  62.271  1.00  0.00     0.161 C 
BRANCH  13  16
HETATM   16  C16 UNL     1     -24.918  -0.315  64.111  1.00  0.00     0.107 A 
HETATM   17  C17 UNL     1     -23.545  -0.619  64.078  1.00  0.00     0.096 A 
HETATM   18  C18 UNL     1     -22.644   0.412  64.134  1.00  0.00     0.103 A 
HETATM   19  N12 UNL     1     -23.111   1.676  64.218  1.00  0.00    -0.339 N 
HETATM   20  C19 UNL     1     -24.418   1.942  64.246  1.00  0.00     0.183 A 
ATOM     21  H12 UNL     1     -22.447   2.449  64.260  1.00  0.00     0.168 HD
HETATM   22  N13 UNL     1     -25.341   0.946  64.193  1.00  0.00    -0.339 N 
ATOM     23  H13 UNL     1     -26.339   1.160  64.216  1.00  0.00     0.168 HD
BRANCH  18  24
HETATM   24  N11 UNL     1     -21.366   0.156  64.116  1.00  0.00    -0.385 N 
ATOM     25 2H11 UNL     1     -20.764   0.389  64.907  1.00  0.00     0.157 HD
ATOM     26 1H11 UNL     1     -20.951  -0.295  63.301  1.00  0.00     0.157 HD
ENDBRANCH  18  24
ENDBRANCH  13  16
ENDBRANCH   7  10
BRANCH   4  27
HETATM   27  N7  UNL     1     -32.434  -4.457  63.071  1.00  0.00    -0.217 N 
HETATM   28  C9  UNL     1     -32.346  -4.728  64.506  1.00  0.00     0.141 C 
HETATM   29  C10 UNL     1     -33.680  -5.268  64.918  1.00  0.00     0.022 C 
HETATM   30  C11 UNL     1     -34.215  -5.814  63.593  1.00  0.00     0.022 C 
HETATM   31  C12 UNL     1     -33.792  -4.657  62.668  1.00  0.00     0.141 C 
ENDBRANCH   4  27
BRANCH   1  32
HETATM   32  N1  UNL     1     -30.109  -3.965  58.807  1.00  0.00    -0.219 N 
HETATM   33  C1  UNL     1     -29.131  -4.824  58.202  1.00  0.00     0.168 C 
BRANCH  32  34
HETATM   34  C2  UNL     1     -30.994  -3.166  58.041  1.00  0.00     0.161 C 
BRANCH  34  35
HETATM   35  C3  UNL     1     -30.533  -1.872  57.489  1.00  0.00     0.155 C 
BRANCH  35  36
HETATM   36  N2  UNL     1     -30.731  -0.696  58.262  1.00  0.00    -0.293 N 
HETATM   37  C4  UNL     1     -31.890  -0.004  58.080  1.00  0.00     0.205 A 
HETATM   38  N3  UNL     1     -32.154   1.088  58.793  1.00  0.00    -0.188 N 
HETATM   39  C5  UNL     1     -31.300   1.553  59.715  1.00  0.00     0.680 A 
ATOM     40  H3  UNL     1     -33.030   1.585  58.633  1.00  0.00     0.185 HD
HETATM   41  N5  UNL     1     -30.140   0.890  59.920  1.00  0.00    -0.141 N 
HETATM   42  C6  UNL     1     -29.879  -0.230  59.180  1.00  0.00     0.341 A 
ATOM     43  H5  UNL     1     -29.469   1.220  60.615  1.00  0.00     0.189 HD
HETATM   44  O1  UNL     1     -28.772  -0.799  59.420  1.00  0.00    -0.246 OA
BRANCH  39  45
HETATM   45  N4  UNL     1     -31.601   2.633  60.394  1.00  0.00    -0.234 N 
ATOM     46  H42 UNL     1     -32.494   3.111  60.267  1.00  0.00     0.174 HD
ATOM     47  H41 UNL     1     -30.934   3.010  61.068  1.00  0.00     0.174 HD
ENDBRANCH  39  45
ENDBRANCH  35  36
ENDBRANCH  34  35
ENDBRANCH  32  34
ENDBRANCH   1  32
TORSDOF 9
ENDMDL
MODEL 3
REMARK VINA RESULT: -9.178618349      0.587      1.106
REMARK  9 active torsions:
REMARK  status: ('A' for Active; 'I' for Inactive)
REMARK    1  A    between atoms: N1_2  and  C2_3 
REMARK    2  A    between atoms: N1_2  and  C7_17 
REMARK    3  A    between atoms: C2_3  and  C3_4 
REMARK    4  A    between atoms: C3_4  and  N2_5 
REMARK    5  A    between atoms: C5_9  and  N4_10 
REMARK    6  A    between atoms: C8_20  and  N7_21 
REMARK    7  A    between atoms: C13_28  and  N9_29 
REMARK    8  A    between atoms: N10_32  and  C16_33 
REMARK    9  A    between atoms: C18_35  and  N11_36 
ROOT
HETATM    1  C7  UNL     1     -25.274   1.801  64.694  1.00  0.00     0.709 A 
HETATM    2  N6  UNL     1     -25.403   0.492  64.433  1.00  0.00    -0.021 N 
ATOM      3  H6  UNL     1     -26.248   0.014  64.746  1.00  0.00     0.203 HD
HETATM    4  C8  UNL     1     -24.466  -0.220  63.773  1.00  0.00     0.709 A 
HETATM    5  N8  UNL     1     -23.370   0.461  63.382  1.00  0.00    -0.021 N 
ATOM      6  H8  UNL     1     -22.644  -0.052  62.881  1.00  0.00     0.203 HD
HETATM    7  C13 UNL     1     -23.170   1.770  63.606  1.00  0.00     0.709 A 
HETATM    8  N14 UNL     1     -24.143   2.415  64.264  1.00  0.00    -0.021 N 
ATOM      9  H14 UNL     1     -24.028   3.411  64.450  1.00  0.00     0.203 HD
ENDROOT
BRANCH   7  10
HETATM   10  N9  UNL     1     -21.964   2.439  63.181  1.00  0.00    -0.214 N 
HETATM   11  C14 UNL     1     -21.483   3.567  63.953  1.00  0.00     0.161 C 
HETATM   12  C15 UNL     1     -20.865   4.620  63.049  1.00  0.00     0.145 C 
HETATM   13  N10 UNL     1     -20.025   3.989  62.034  1.00  0.00    -0.364 N 
HETATM   14  C20 UNL     1     -19.826   2.573  62.153  1.00  0.00     0.145 C 
HETATM   15  C21 UNL     1     -21.236   1.964  62.011  1.00  0.00     0.161 C 
BRANCH  13  16
HETATM   16  C16 UNL     1     -19.479   4.771  61.006  1.00  0.00     0.107 A 
HETATM   17  C17 UNL     1     -18.077   4.869  60.933  1.00  0.00     0.096 A 
HETATM   18  C18 UNL     1     -17.525   5.632  59.938  1.00  0.00     0.103 A 
HETATM   19  N12 UNL     1     -18.348   6.256  59.069  1.00  0.00    -0.339 N 
HETATM   20  C19 UNL     1     -19.675   6.147  59.155  1.00  0.00     0.183 A 
ATOM     21  H12 UNL     1     -17.945   6.826  58.325  1.00  0.00     0.168 HD
HETATM   22  N13 UNL     1     -20.259   5.401  60.128  1.00  0.00    -0.339 N 
ATOM     23  H13 UNL     1     -21.275   5.324  60.186  1.00  0.00     0.168 HD
BRANCH  18  24
HETATM   24  N11 UNL     1     -16.229   5.749  59.856  1.00  0.00    -0.385 N 
ATOM     25 2H11 UNL     1     -15.790   6.620  59.556  1.00  0.00     0.157 HD
ATOM     26 1H11 UNL     1     -15.633   4.960  60.105  1.00  0.00     0.157 HD
ENDBRANCH  18  24
ENDBRANCH  13  16
ENDBRANCH   7  10
BRANCH   4  27
HETATM   27  N7  UNL     1     -24.618  -1.606  63.457  1.00  0.00    -0.217 N 
HETATM   28  C9  UNL     1     -25.514  -2.477  64.219  1.00  0.00     0.141 C 
HETATM   29  C10 UNL     1     -25.262  -3.871  63.735  1.00  0.00     0.022 C 
HETATM   30  C11 UNL     1     -23.844  -3.752  63.176  1.00  0.00     0.022 C 
HETATM   31  C12 UNL     1     -23.984  -2.400  62.451  1.00  0.00     0.141 C 
ENDBRANCH   4  27
BRANCH   1  32
HETATM   32  N1  UNL     1     -26.257   2.546  65.435  1.00  0.00    -0.219 N 
HETATM   33  C1  UNL     1     -25.861   3.801  66.006  1.00  0.00     0.168 C 
BRANCH  32  34
HETATM   34  C2  UNL     1     -27.553   2.004  65.619  1.00  0.00     0.161 C 
BRANCH  34  35
HETATM   35  C3  UNL     1     -28.276   2.230  66.891  1.00  0.00     0.155 C 
BRANCH  35  36
HETATM   36  N2  UNL     1     -28.736   1.099  67.619  1.00  0.00    -0.293 N 
HETATM   37  C4  UNL     1     -29.018  -0.035  66.919  1.00  0.00     0.205 A 
HETATM   38  N3  UNL     1     -29.423  -1.139  67.541  1.00  0.00    -0.188 N 
HETATM   39  C5  UNL     1     -29.569  -1.188  68.871  1.00  0.00     0.680 A 
ATOM     40  H3  UNL     1     -29.628  -1.972  66.989  1.00  0.00     0.185 HD
HETATM   41  N5  UNL     1     -29.297  -0.079  69.596  1.00  0.00    -0.141 N 
HETATM   42  C6  UNL     1     -28.883   1.051  68.946  1.00  0.00     0.341 A 
ATOM     43  H5  UNL     1     -29.399  -0.085  70.612  1.00  0.00     0.189 HD
HETATM   44  O1  UNL     1     -28.651   2.054  69.685  1.00  0.00    -0.246 OA
BRANCH  39  45
HETATM   45  N4  UNL     1     -29.970  -2.298  69.442  1.00  0.00    -0.234 N 
ATOM     46  H42 UNL     1     -30.172  -2.340  70.441  1.00  0.00     0.174 HD
ATOM     47  H41 UNL     1     -30.085  -3.143  68.882  1.00  0.00     0.174 HD
ENDBRANCH  39  45
ENDBRANCH  35  36
ENDBRANCH  34  35
ENDBRANCH  32  34
ENDBRANCH   1  32
TORSDOF 9
ENDMDL
MODEL 4
REMARK VINA RESULT: -8.685236911      1.038      1.269
REMARK  9 active torsions:
REMARK  status: ('A' for Active; 'I' for Inactive)
REMARK    1  A    between atoms: N1_2  and  C2_3 
REMARK    2  A    between atoms: N1_2  and  C7_17 
REMARK    3  A    between atoms: C2_3  and  C3_4 
REMARK    4  A    between atoms: C3_4  and  N2_5 
REMARK    5  A    between atoms: C5_9  and  N4_10 
REMARK    6  A    between atoms: C8_20  and  N7_21 
REMARK    7  A    between atoms: C13_28  and  N9_29 
REMARK    8  A    between atoms: N10_32  and  C16_33 
REMARK    9  A    between atoms: C18_35  and  N11_36 
ROOT
HETATM    1  C7  UNL     1     -25.494   2.001  64.863  1.00  0.00     0.709 A 
HETATM    2  N6  UNL     1     -25.643   0.698  64.583  1.00  0.00    -0.021 N 
ATOM      3  H6  UNL     1     -26.501   0.232  64.877  1.00  0.00     0.203 HD
HETATM    4  C8  UNL     1     -24.708  -0.023  63.930  1.00  0.00     0.709 A 
HETATM    5  N8  UNL     1     -23.594   0.642  63.565  1.00  0.00    -0.021 N 
ATOM      6  H8  UNL     1     -22.869   0.122  63.069  1.00  0.00     0.203 HD
HETATM    7  C13 UNL     1     -23.373   1.944  63.810  1.00  0.00     0.709 A 
HETATM    8  N14 UNL     1     -24.344   2.599  64.460  1.00  0.00    -0.021 N 
ATOM      9  H14 UNL     1     -24.214   3.591  64.660  1.00  0.00     0.203 HD
ENDROOT
BRANCH   7  10
HETATM   10  N9  UNL     1     -22.148   2.595  63.413  1.00  0.00    -0.214 N 
HETATM   11  C14 UNL     1     -21.748   3.808  64.098  1.00  0.00     0.161 C 
HETATM   12  C15 UNL     1     -21.077   4.778  63.140  1.00  0.00     0.145 C 
HETATM   13  N10 UNL     1     -20.148   4.067  62.266  1.00  0.00    -0.364 N 
HETATM   14  C20 UNL     1     -19.936   2.676  62.546  1.00  0.00     0.145 C 
HETATM   15  C21 UNL     1     -21.320   2.021  62.359  1.00  0.00     0.161 C 
BRANCH  13  16
HETATM   16  C16 UNL     1     -19.534   4.752  61.208  1.00  0.00     0.107 A 
HETATM   17  C17 UNL     1     -20.360   5.241  60.178  1.00  0.00     0.096 A 
HETATM   18  C18 UNL     1     -19.777   5.909  59.133  1.00  0.00     0.103 A 
HETATM   19  N12 UNL     1     -18.437   6.071  59.135  1.00  0.00    -0.339 N 
HETATM   20  C19 UNL     1     -17.674   5.601  60.123  1.00  0.00     0.183 A 
ATOM     21  H12 UNL     1     -17.996   6.567  58.360  1.00  0.00     0.168 HD
HETATM   22  N13 UNL     1     -18.214   4.934  61.175  1.00  0.00    -0.339 N 
ATOM     23  H13 UNL     1     -17.622   4.578  61.926  1.00  0.00     0.168 HD
BRANCH  18  24
HETATM   24  N11 UNL     1     -20.518   6.361  58.161  1.00  0.00    -0.385 N 
ATOM     25 2H11 UNL     1     -21.099   7.192  58.273  1.00  0.00     0.157 HD
ATOM     26 1H11 UNL     1     -20.517   5.883  57.259  1.00  0.00     0.157 HD
ENDBRANCH  18  24
ENDBRANCH  13  16
ENDBRANCH   7  10
BRANCH   4  27
HETATM   27  N7  UNL     1     -24.881  -1.402  63.594  1.00  0.00    -0.217 N 
HETATM   28  C9  UNL     1     -25.910  -2.227  64.227  1.00  0.00     0.141 C 
HETATM   29  C10 UNL     1     -25.660  -3.633  63.778  1.00  0.00     0.022 C 
HETATM   30  C11 UNL     1     -24.176  -3.582  63.413  1.00  0.00     0.022 C 
HETATM   31  C12 UNL     1     -24.156  -2.229  62.680  1.00  0.00     0.141 C 
ENDBRANCH   4  27
BRANCH   1  32
HETATM   32  N1  UNL     1     -26.474   2.755  65.598  1.00  0.00    -0.219 N 
HETATM   33  C1  UNL     1     -26.054   3.974  66.227  1.00  0.00     0.168 C 
BRANCH  32  34
HETATM   34  C2  UNL     1     -27.794   2.255  65.719  1.00  0.00     0.161 C 
BRANCH  34  35
HETATM   35  C3  UNL     1     -28.026   0.798  65.843  1.00  0.00     0.155 C 
BRANCH  35  36
HETATM   36  N2  UNL     1     -28.561   0.298  67.062  1.00  0.00    -0.293 N 
HETATM   37  C4  UNL     1     -28.520   1.112  68.153  1.00  0.00     0.205 A 
HETATM   38  N3  UNL     1     -29.030   0.720  69.318  1.00  0.00    -0.188 N 
HETATM   39  C5  UNL     1     -29.603  -0.482  69.470  1.00  0.00     0.680 A 
ATOM     40  H3  UNL     1     -28.984   1.351  70.118  1.00  0.00     0.185 HD
HETATM   41  N5  UNL     1     -29.659  -1.314  68.406  1.00  0.00    -0.141 N 
HETATM   42  C6  UNL     1     -29.130  -0.901  67.214  1.00  0.00     0.341 A 
ATOM     43  H5  UNL     1     -30.089  -2.236  68.490  1.00  0.00     0.189 HD
HETATM   44  O1  UNL     1     -29.212  -1.732  66.261  1.00  0.00    -0.246 OA
BRANCH  39  45
HETATM   45  N4  UNL     1     -30.093  -0.826  70.635  1.00  0.00    -0.234 N 
ATOM     46  H42 UNL     1     -31.098  -0.924  70.783  1.00  0.00     0.174 HD
ATOM     47  H41 UNL     1     -29.462  -1.003  71.418  1.00  0.00     0.174 HD
ENDBRANCH  39  45
ENDBRANCH  35  36
ENDBRANCH  34  35
ENDBRANCH  32  34
ENDBRANCH   1  32
TORSDOF 9
ENDMDL
MODEL 5
REMARK VINA RESULT: -8.645434343      3.019      6.696
REMARK  9 active torsions:
REMARK  status: ('A' for Active; 'I' for Inactive)
REMARK    1  A    between atoms: N1_2  and  C2_3 
REMARK    2  A    between atoms: N1_2  and  C7_17 
REMARK    3  A    between atoms: C2_3  and  C3_4 
REMARK    4  A    between atoms: C3_4  and  N2_5 
REMARK    5  A    between atoms: C5_9  and  N4_10 
REMARK    6  A    between atoms: C8_20  and  N7_21 
REMARK    7  A    between atoms: C13_28  and  N9_29 
REMARK    8  A    between atoms: N10_32  and  C16_33 
REMARK    9  A    between atoms: C18_35  and  N11_36 
ROOT
HETATM    1  C7  UNL     1     -20.623   2.824  62.490  1.00  0.00     0.709 A 
HETATM    2  N6  UNL     1     -21.175   3.625  63.413  1.00  0.00    -0.021 N 
ATOM      3  H6  UNL     1     -21.832   3.219  64.079  1.00  0.00     0.203 HD
HETATM    4  C8  UNL     1     -20.898   4.943  63.501  1.00  0.00     0.709 A 
HETATM    5  N8  UNL     1     -20.023   5.426  62.596  1.00  0.00    -0.021 N 
ATOM      6  H8  UNL     1     -19.795   6.420  62.639  1.00  0.00     0.203 HD
HETATM    7  C13 UNL     1     -19.430   4.688  61.644  1.00  0.00     0.709 A 
HETATM    8  N14 UNL     1     -19.750   3.387  61.617  1.00  0.00    -0.021 N 
ATOM      9  H14 UNL     1     -19.316   2.793  60.909  1.00  0.00     0.203 HD
ENDROOT
BRANCH   7  10
HETATM   10  N9  UNL     1     -18.518   5.269  60.689  1.00  0.00    -0.214 N 
HETATM   11  C14 UNL     1     -17.128   4.858  60.712  1.00  0.00     0.161 C 
HETATM   12  C15 UNL     1     -16.211   6.022  60.377  1.00  0.00     0.145 C 
HETATM   13  N10 UNL     1     -16.751   6.788  59.257  1.00  0.00    -0.364 N 
HETATM   14  C20 UNL     1     -17.914   6.251  58.611  1.00  0.00     0.145 C 
HETATM   15  C21 UNL     1     -18.999   6.231  59.706  1.00  0.00     0.161 C 
BRANCH  13  16
HETATM   16  C16 UNL     1     -16.136   7.991  58.882  1.00  0.00     0.107 A 
HETATM   17  C17 UNL     1     -15.664   8.832  59.907  1.00  0.00     0.096 A 
HETATM   18  C18 UNL     1     -15.065  10.014  59.561  1.00  0.00     0.103 A 
HETATM   19  N12 UNL     1     -14.951  10.323  58.252  1.00  0.00    -0.339 N 
HETATM   20  C19 UNL     1     -15.404   9.510  57.296  1.00  0.00     0.183 A 
ATOM     21  H12 UNL     1     -14.506  11.202  57.986  1.00  0.00     0.168 HD
HETATM   22  N13 UNL     1     -16.004   8.330  57.600  1.00  0.00    -0.339 N 
ATOM     23  H13 UNL     1     -16.346   7.715  56.861  1.00  0.00     0.168 HD
BRANCH  18  24
HETATM   24  N11 UNL     1     -14.631  10.816  60.493  1.00  0.00    -0.385 N 
ATOM     25 2H11 UNL     1     -15.259  11.447  60.990  1.00  0.00     0.157 HD
ATOM     26 1H11 UNL     1     -13.642  10.812  60.743  1.00  0.00     0.157 HD
ENDBRANCH  18  24
ENDBRANCH  13  16
ENDBRANCH   7  10
BRANCH   4  27
HETATM   27  N7  UNL     1     -21.453   5.791  64.509  1.00  0.00    -0.217 N 
HETATM   28  C9  UNL     1     -22.852   5.682  64.925  1.00  0.00     0.141 C 
HETATM   29  C10 UNL     1     -23.114   6.842  65.834  1.00  0.00     0.022 C 
HETATM   30  C11 UNL     1     -22.035   7.831  65.393  1.00  0.00     0.022 C 
HETATM   31  C12 UNL     1     -20.853   6.853  65.256  1.00  0.00     0.141 C 
ENDBRANCH   4  27
BRANCH   1  32
HETATM   32  N1  UNL     1     -20.954   1.430  62.373  1.00  0.00    -0.219 N 
HETATM   33  C1  UNL     1     -20.807   0.807  61.089  1.00  0.00     0.168 C 
BRANCH  32  34
HETATM   34  C2  UNL     1     -21.456   0.733  63.501  1.00  0.00     0.161 C 
BRANCH  34  35
HETATM   35  C3  UNL     1     -22.595  -0.200  63.348  1.00  0.00     0.155 C 
BRANCH  35  36
HETATM   36  N2  UNL     1     -23.878   0.218  63.794  1.00  0.00    -0.293 N 
HETATM   37  C4  UNL     1     -24.096   1.555  63.934  1.00  0.00     0.205 A 
HETATM   38  N3  UNL     1     -25.284   2.018  64.317  1.00  0.00    -0.188 N 
HETATM   39  C5  UNL     1     -26.310   1.198  64.580  1.00  0.00     0.680 A 
ATOM     40  H3  UNL     1     -25.416   3.024  64.414  1.00  0.00     0.185 HD
HETATM   41  N5  UNL     1     -26.127  -0.135  64.451  1.00  0.00    -0.141 N 
HETATM   42  C6  UNL     1     -24.902  -0.599  64.058  1.00  0.00     0.341 A 
ATOM     43  H5  UNL     1     -26.889  -0.785  64.645  1.00  0.00     0.189 HD
HETATM   44  O1  UNL     1     -24.798  -1.859  63.963  1.00  0.00    -0.246 OA
BRANCH  39  45
HETATM   45  N4  UNL     1     -27.462   1.698  64.955  1.00  0.00    -0.234 N 
ATOM     46  H42 UNL     1     -27.589   2.111  65.879  1.00  0.00     0.174 HD
ATOM     47  H41 UNL     1     -28.256   1.677  64.314  1.00  0.00     0.174 HD
ENDBRANCH  39  45
ENDBRANCH  35  36
ENDBRANCH  34  35
ENDBRANCH  32  34
ENDBRANCH   1  32
TORSDOF 9
ENDMDL
