MODEL 1
REMARK VINA RESULT: -7.477982626      0.000      0.000
REMARK  11 active torsions:
REMARK  status: ('A' for Active; 'I' for Inactive)
REMARK    1  A    between atoms: N1_2  and  C2_4 
REMARK    2  A    between atoms: C3_7  and  N3_8 
REMARK    3  A    between atoms: C7_12  and  N4_13 
REMARK    4  A    between atoms: C9_20  and  N6_21 
REMARK    5  A    between atoms: N6_21  and  C10_22 
REMARK    6  A    between atoms: N6_21  and  C19_39 
REMARK    7  A    between atoms: C12_26  and  O1_27 
REMARK    8  A    between atoms: C14_29  and  N8_30 
REMARK    9  A    between atoms: N8_30  and  C15_32 
REMARK   10  A    between atoms: C15_32  and  O2_33 
REMARK   11  A    between atoms: C15_32  and  N9_35 
ROOT
HETATM    1  N6  UNL     1     -18.357   6.283  60.172  1.00  0.00     0.028 N 
ENDROOT
BRANCH   1   2
HETATM    2  C9  UNL     1     -19.061   6.937  59.146  1.00  0.00     0.733 A 
HETATM    3  N5  UNL     1     -18.791   8.198  58.778  1.00  0.00    -0.020 N 
HETATM    4  C3  UNL     1     -19.502   8.830  57.806  1.00  0.00     0.709 A 
ATOM      5  H5  UNL     1     -18.031   8.697  59.241  1.00  0.00     0.203 HD
HETATM    6  N2  UNL     1     -20.500   8.120  57.225  1.00  0.00    -0.021 N 
HETATM    7  C2  UNL     1     -20.819   6.863  57.544  1.00  0.00     0.706 A 
ATOM      8  H2  UNL     1     -21.044   8.577  56.494  1.00  0.00     0.203 HD
HETATM    9  N14 UNL     1     -20.084   6.289  58.511  1.00  0.00    -0.020 N 
ATOM     10  H14 UNL     1     -20.298   5.330  58.783  1.00  0.00     0.203 HD
BRANCH   4  11
HETATM   11  N3  UNL     1     -19.238  10.171  57.402  1.00  0.00    -0.215 N 
HETATM   12  C4  UNL     1     -20.052  10.900  56.480  1.00  0.00     0.141 C 
HETATM   13  C5  UNL     1     -19.671  12.359  56.507  1.00  0.00     0.022 C 
HETATM   14  C6  UNL     1     -19.410  12.884  57.899  1.00  0.00     0.036 C 
HETATM   15  C7  UNL     1     -18.374  12.115  58.651  1.00  0.00     0.202 C 
HETATM   16  C8  UNL     1     -18.064  10.830  57.951  1.00  0.00     0.173 C 
BRANCH  15  17
HETATM   17  N4  UNL     1     -18.803  11.934  60.030  1.00  0.00    -0.073 N 
ATOM     18  H43 UNL     1     -19.362  12.719  60.365  1.00  0.00     0.274 HD
ATOM     19  H42 UNL     1     -19.509  11.203  60.120  1.00  0.00     0.274 HD
ATOM     20  H41 UNL     1     -17.991  11.760  60.623  1.00  0.00     0.274 HD
ENDBRANCH  15  17
ENDBRANCH   4  11
BRANCH   7  21
HETATM   21  N1  UNL     1     -21.798   6.219  56.964  1.00  0.00    -0.229 N 
HETATM   22  C1  UNL     1     -23.034   6.944  56.759  1.00  0.00     0.165 C 
ATOM     23  H1  UNL     1     -21.696   5.248  56.669  1.00  0.00     0.177 HD
ENDBRANCH   7  21
ENDBRANCH   1   2
BRANCH   1  24
HETATM   24  C10 UNL     1     -18.867   5.356  61.084  1.00  0.00     0.093 A 
HETATM   25  C11 UNL     1     -18.398   4.056  61.059  1.00  0.00     0.121 A 
HETATM   26  N7  UNL     1     -18.856   3.104  61.880  1.00  0.00    -0.343 N 
HETATM   27  C12 UNL     1     -19.809   3.340  62.795  1.00  0.00     0.169 A 
ATOM     28  H7  UNL     1     -18.467   2.164  61.807  1.00  0.00     0.167 HD
HETATM   29  C14 UNL     1     -20.310   4.645  62.853  1.00  0.00     0.085 A 
HETATM   30  C18 UNL     1     -19.845   5.645  62.008  1.00  0.00     0.066 A 
BRANCH  27  31
HETATM   31  O1  UNL     1     -20.295   2.354  63.655  1.00  0.00    -0.339 OA
HETATM   32  C13 UNL     1     -21.234   1.431  63.108  1.00  0.00     0.211 C 
ENDBRANCH  27  31
BRANCH  29  33
HETATM   33  N8  UNL     1     -21.328   4.906  63.795  1.00  0.00    -0.336 N 
ATOM     34  H8  UNL     1     -21.991   4.174  64.049  1.00  0.00     0.164 HD
BRANCH  33  35
HETATM   35  C15 UNL     1     -21.426   6.213  64.397  1.00  0.00     0.464 C 
BRANCH  35  36
HETATM   36  O2  UNL     1     -20.223   6.752  64.793  1.00  0.00    -0.352 OA
ATOM     37  H2  UNL     1     -20.173   6.971  65.716  1.00  0.00     0.214 HD
ENDBRANCH  35  36
BRANCH  35  38
HETATM   38  N9  UNL     1     -22.330   6.220  65.532  1.00  0.00     0.128 N 
HETATM   39  C16 UNL     1     -23.425   5.320  65.245  1.00  0.00     0.315 C 
HETATM   40  C17 UNL     1     -22.868   7.547  65.735  1.00  0.00     0.315 C 
ENDBRANCH  35  38
ENDBRANCH  33  35
ENDBRANCH  29  33
ENDBRANCH   1  24
BRANCH   1  41
HETATM   41  C19 UNL     1     -16.952   6.606  60.303  1.00  0.00     0.737 A 
HETATM   42  N10 UNL     1     -16.468   7.282  61.358  1.00  0.00    -0.114 N 
HETATM   43  N11 UNL     1     -15.176   7.396  61.172  1.00  0.00    -0.213 N 
ATOM     44  H10 UNL     1     -17.002   7.637  62.151  1.00  0.00     0.207 HD
HETATM   45  N12 UNL     1     -14.838   6.819  60.043  1.00  0.00    -0.211 N 
ATOM     46  H11 UNL     1     -14.531   7.863  61.808  1.00  0.00     0.210 HD
HETATM   47  N13 UNL     1     -15.933   6.330  59.506  1.00  0.00    -0.110 N 
ATOM     48  H12 UNL     1     -13.897   6.761  59.655  1.00  0.00     0.210 HD
HETATM   49  C20 UNL     1     -16.015   5.604  58.259  1.00  0.00     0.199 C 
ENDBRANCH   1  41
TORSDOF 11
ENDMDL
MODEL 2
REMARK VINA RESULT: -7.259777769      9.147     13.323
REMARK  11 active torsions:
REMARK  status: ('A' for Active; 'I' for Inactive)
REMARK    1  A    between atoms: N1_2  and  C2_4 
REMARK    2  A    between atoms: C3_7  and  N3_8 
REMARK    3  A    between atoms: C7_12  and  N4_13 
REMARK    4  A    between atoms: C9_20  and  N6_21 
REMARK    5  A    between atoms: N6_21  and  C10_22 
REMARK    6  A    between atoms: N6_21  and  C19_39 
REMARK    7  A    between atoms: C12_26  and  O1_27 
REMARK    8  A    between atoms: C14_29  and  N8_30 
REMARK    9  A    between atoms: N8_30  and  C15_32 
REMARK   10  A    between atoms: C15_32  and  O2_33 
REMARK   11  A    between atoms: C15_32  and  N9_35 
ROOT
HETATM    1  N6  UNL     1     -26.594  -2.148  63.361  1.00  0.00     0.028 N 
ENDROOT
BRANCH   1   2
HETATM    2  C9  UNL     1     -26.451  -0.905  64.001  1.00  0.00     0.733 A 
HETATM    3  N5  UNL     1     -27.302  -0.479  64.946  1.00  0.00    -0.020 N 
HETATM    4  C3  UNL     1     -27.172   0.741  65.533  1.00  0.00     0.709 A 
ATOM      5  H5  UNL     1     -28.069  -1.088  65.232  1.00  0.00     0.203 HD
HETATM    6  N2  UNL     1     -26.135   1.508  65.115  1.00  0.00    -0.021 N 
HETATM    7  C2  UNL     1     -25.254   1.144  64.180  1.00  0.00     0.706 A 
ATOM      8  H2  UNL     1     -26.021   2.426  65.543  1.00  0.00     0.203 HD
HETATM    9  N14 UNL     1     -25.432  -0.071  63.635  1.00  0.00    -0.020 N 
ATOM     10  H14 UNL     1     -24.779  -0.384  62.917  1.00  0.00     0.203 HD
BRANCH   4  11
HETATM   11  N3  UNL     1     -28.066   1.217  66.535  1.00  0.00    -0.215 N 
HETATM   12  C4  UNL     1     -28.473   0.450  67.670  1.00  0.00     0.141 C 
HETATM   13  C5  UNL     1     -29.167   1.342  68.667  1.00  0.00     0.022 C 
HETATM   14  C6  UNL     1     -28.497   2.686  68.836  1.00  0.00     0.036 C 
HETATM   15  C7  UNL     1     -28.335   3.445  67.560  1.00  0.00     0.202 C 
HETATM   16  C8  UNL     1     -28.605   2.560  66.386  1.00  0.00     0.173 C 
BRANCH  15  17
HETATM   17  N4  UNL     1     -27.020   4.069  67.525  1.00  0.00    -0.073 N 
ATOM     18  H43 UNL     1     -26.899   4.662  66.704  1.00  0.00     0.274 HD
ATOM     19  H42 UNL     1     -26.917   4.787  68.242  1.00  0.00     0.274 HD
ATOM     20  H41 UNL     1     -26.298   3.352  67.591  1.00  0.00     0.274 HD
ENDBRANCH  15  17
ENDBRANCH   4  11
BRANCH   7  21
HETATM   21  N1  UNL     1     -24.274   1.921  63.798  1.00  0.00    -0.229 N 
HETATM   22  C1  UNL     1     -22.966   1.315  63.663  1.00  0.00     0.165 C 
ATOM     23  H1  UNL     1     -24.424   2.911  63.604  1.00  0.00     0.177 HD
ENDBRANCH   7  21
ENDBRANCH   1   2
BRANCH   1  24
HETATM   24  C10 UNL     1     -27.678  -2.582  62.595  1.00  0.00     0.093 A 
HETATM   25  C11 UNL     1     -28.604  -3.438  63.160  1.00  0.00     0.121 A 
HETATM   26  N7  UNL     1     -29.653  -3.921  62.483  1.00  0.00    -0.343 N 
HETATM   27  C12 UNL     1     -29.888  -3.607  61.200  1.00  0.00     0.169 A 
ATOM     28  H7  UNL     1     -30.298  -4.550  62.961  1.00  0.00     0.167 HD
HETATM   29  C14 UNL     1     -28.972  -2.741  60.591  1.00  0.00     0.085 A 
HETATM   30  C18 UNL     1     -27.878  -2.232  61.279  1.00  0.00     0.066 A 
BRANCH  27  31
HETATM   31  O1  UNL     1     -30.977  -4.105  60.483  1.00  0.00    -0.339 OA
HETATM   32  C13 UNL     1     -32.198  -4.264  61.201  1.00  0.00     0.211 C 
ENDBRANCH  27  31
BRANCH  29  33
HETATM   33  N8  UNL     1     -29.191  -2.417  59.235  1.00  0.00    -0.336 N 
ATOM     34  H8  UNL     1     -28.991  -3.102  58.506  1.00  0.00     0.164 HD
BRANCH  33  35
HETATM   35  C15 UNL     1     -29.698  -1.113  58.884  1.00  0.00     0.464 C 
BRANCH  35  36
HETATM   36  O2  UNL     1     -29.429  -0.128  59.806  1.00  0.00    -0.352 OA
ATOM     37  H2  UNL     1     -29.018   0.649  59.446  1.00  0.00     0.214 HD
ENDBRANCH  35  36
BRANCH  35  38
HETATM   38  N9  UNL     1     -31.128  -1.138  58.639  1.00  0.00     0.128 N 
HETATM   39  C16 UNL     1     -31.352  -1.651  57.306  1.00  0.00     0.315 C 
HETATM   40  C17 UNL     1     -31.670   0.200  58.712  1.00  0.00     0.315 C 
ENDBRANCH  35  38
ENDBRANCH  33  35
ENDBRANCH  29  33
ENDBRANCH   1  24
BRANCH   1  41
HETATM   41  C19 UNL     1     -25.501  -3.085  63.513  1.00  0.00     0.737 A 
HETATM   42  N10 UNL     1     -25.589  -4.166  64.306  1.00  0.00    -0.114 N 
HETATM   43  N11 UNL     1     -24.445  -4.797  64.211  1.00  0.00    -0.213 N 
ATOM     44  H10 UNL     1     -26.391  -4.442  64.873  1.00  0.00     0.207 HD
HETATM   45  N12 UNL     1     -23.650  -4.153  63.391  1.00  0.00    -0.211 N 
ATOM     46  H11 UNL     1     -24.209  -5.660  64.700  1.00  0.00     0.210 HD
HETATM   47  N13 UNL     1     -24.299  -3.096  62.959  1.00  0.00    -0.110 N 
ATOM     48  H12 UNL     1     -22.700  -4.423  63.136  1.00  0.00     0.210 HD
HETATM   49  C20 UNL     1     -23.796  -2.112  62.028  1.00  0.00     0.199 C 
ENDBRANCH   1  41
TORSDOF 11
ENDMDL
MODEL 3
REMARK VINA RESULT: -7.211772002      8.229     12.758
REMARK  11 active torsions:
REMARK  status: ('A' for Active; 'I' for Inactive)
REMARK    1  A    between atoms: N1_2  and  C2_4 
REMARK    2  A    between atoms: C3_7  and  N3_8 
REMARK    3  A    between atoms: C7_12  and  N4_13 
REMARK    4  A    between atoms: C9_20  and  N6_21 
REMARK    5  A    between atoms: N6_21  and  C10_22 
REMARK    6  A    between atoms: N6_21  and  C19_39 
REMARK    7  A    between atoms: C12_26  and  O1_27 
REMARK    8  A    between atoms: C14_29  and  N8_30 
REMARK    9  A    between atoms: N8_30  and  C15_32 
REMARK   10  A    between atoms: C15_32  and  O2_33 
REMARK   11  A    between atoms: C15_32  and  N9_35 
ROOT
HETATM    1  N6  UNL     1     -26.932  -1.763  63.796  1.00  0.00     0.028 N 
ENDROOT
BRANCH   1   2
HETATM    2  C9  UNL     1     -25.536  -1.930  63.792  1.00  0.00     0.733 A 
HETATM    3  N5  UNL     1     -24.688  -0.898  63.673  1.00  0.00    -0.020 N 
HETATM    4  C3  UNL     1     -23.340  -1.078  63.637  1.00  0.00     0.709 A 
ATOM      5  H5  UNL     1     -25.064   0.048  63.609  1.00  0.00     0.203 HD
HETATM    6  N2  UNL     1     -22.895  -2.355  63.727  1.00  0.00    -0.021 N 
HETATM    7  C2  UNL     1     -23.686  -3.425  63.846  1.00  0.00     0.706 A 
ATOM      8  H2  UNL     1     -21.888  -2.509  63.701  1.00  0.00     0.203 HD
HETATM    9  N14 UNL     1     -25.007  -3.188  63.877  1.00  0.00    -0.020 N 
ATOM     10  H14 UNL     1     -25.644  -3.980  63.967  1.00  0.00     0.203 HD
BRANCH   4  11
HETATM   11  N3  UNL     1     -22.419   0.002  63.506  1.00  0.00    -0.215 N 
HETATM   12  C4  UNL     1     -21.713   0.305  62.302  1.00  0.00     0.141 C 
HETATM   13  C5  UNL     1     -21.066   1.663  62.417  1.00  0.00     0.022 C 
HETATM   14  C6  UNL     1     -21.950   2.692  63.082  1.00  0.00     0.036 C 
HETATM   15  C7  UNL     1     -22.437   2.287  64.435  1.00  0.00     0.202 C 
HETATM   16  C8  UNL     1     -22.175   0.835  64.674  1.00  0.00     0.173 C 
BRANCH  15  17
HETATM   17  N4  UNL     1     -23.838   2.655  64.581  1.00  0.00    -0.073 N 
ATOM     18  H43 UNL     1     -24.424   2.229  63.863  1.00  0.00     0.274 HD
ATOM     19  H42 UNL     1     -24.266   2.218  65.398  1.00  0.00     0.274 HD
ATOM     20  H41 UNL     1     -23.927   3.671  64.598  1.00  0.00     0.274 HD
ENDBRANCH  15  17
ENDBRANCH   4  11
BRANCH   7  21
HETATM   21  N1  UNL     1     -23.213  -4.642  63.919  1.00  0.00    -0.229 N 
HETATM   22  C1  UNL     1     -23.090  -5.376  62.678  1.00  0.00     0.165 C 
ATOM     23  H1  UNL     1     -22.943  -5.056  64.811  1.00  0.00     0.177 HD
ENDBRANCH   7  21
ENDBRANCH   1   2
BRANCH   1  24
HETATM   24  C10 UNL     1     -27.852  -2.334  62.913  1.00  0.00     0.093 A 
HETATM   25  C11 UNL     1     -28.687  -3.337  63.364  1.00  0.00     0.121 A 
HETATM   26  N7  UNL     1     -29.574  -3.952  62.573  1.00  0.00    -0.343 N 
HETATM   27  C12 UNL     1     -29.721  -3.640  61.276  1.00  0.00     0.169 A 
ATOM     28  H7  UNL     1     -30.160  -4.687  62.970  1.00  0.00     0.167 HD
HETATM   29  C14 UNL     1     -28.892  -2.626  60.780  1.00  0.00     0.085 A 
HETATM   30  C18 UNL     1     -27.967  -1.978  61.588  1.00  0.00     0.066 A 
BRANCH  27  31
HETATM   31  O1  UNL     1     -30.640  -4.276  60.441  1.00  0.00    -0.339 OA
HETATM   32  C13 UNL     1     -32.013  -4.192  60.816  1.00  0.00     0.211 C 
ENDBRANCH  27  31
BRANCH  29  33
HETATM   33  N8  UNL     1     -29.017  -2.299  59.413  1.00  0.00    -0.336 N 
ATOM     34  H8  UNL     1     -28.740  -2.971  58.698  1.00  0.00     0.164 HD
BRANCH  33  35
HETATM   35  C15 UNL     1     -29.540  -1.009  59.033  1.00  0.00     0.464 C 
BRANCH  35  36
HETATM   36  O2  UNL     1     -29.259   0.006  59.918  1.00  0.00    -0.352 OA
ATOM     37  H2  UNL     1     -28.809   0.750  59.535  1.00  0.00     0.214 HD
ENDBRANCH  35  36
BRANCH  35  38
HETATM   38  N9  UNL     1     -30.974  -1.049  58.817  1.00  0.00     0.128 N 
HETATM   39  C16 UNL     1     -31.223  -1.658  57.529  1.00  0.00     0.315 C 
HETATM   40  C17 UNL     1     -31.515   0.291  58.803  1.00  0.00     0.315 C 
ENDBRANCH  35  38
ENDBRANCH  33  35
ENDBRANCH  29  33
ENDBRANCH   1  24
BRANCH   1  41
HETATM   41  C19 UNL     1     -27.480  -0.904  64.824  1.00  0.00     0.737 A 
HETATM   42  N10 UNL     1     -28.106  -1.392  65.908  1.00  0.00    -0.114 N 
HETATM   43  N11 UNL     1     -28.466  -0.362  66.631  1.00  0.00    -0.213 N 
ATOM     44  H10 UNL     1     -28.269  -2.376  66.124  1.00  0.00     0.207 HD
HETATM   45  N12 UNL     1     -28.089   0.748  66.042  1.00  0.00    -0.211 N 
ATOM     46  H11 UNL     1     -28.964  -0.415  67.520  1.00  0.00     0.210 HD
HETATM   47  N13 UNL     1     -27.480   0.416  64.927  1.00  0.00    -0.110 N 
ATOM     48  H12 UNL     1     -28.242   1.695  66.387  1.00  0.00     0.210 HD
HETATM   49  C20 UNL     1     -26.897   1.332  63.973  1.00  0.00     0.199 C 
ENDBRANCH   1  41
TORSDOF 11
ENDMDL
MODEL 4
REMARK VINA RESULT: -7.150865809      5.879     10.653
REMARK  11 active torsions:
REMARK  status: ('A' for Active; 'I' for Inactive)
REMARK    1  A    between atoms: N1_2  and  C2_4 
REMARK    2  A    between atoms: C3_7  and  N3_8 
REMARK    3  A    between atoms: C7_12  and  N4_13 
REMARK    4  A    between atoms: C9_20  and  N6_21 
REMARK    5  A    between atoms: N6_21  and  C10_22 
REMARK    6  A    between atoms: N6_21  and  C19_39 
REMARK    7  A    between atoms: C12_26  and  O1_27 
REMARK    8  A    between atoms: C14_29  and  N8_30 
REMARK    9  A    between atoms: N8_30  and  C15_32 
REMARK   10  A    between atoms: C15_32  and  O2_33 
REMARK   11  A    between atoms: C15_32  and  N9_35 
ROOT
HETATM    1  N6  UNL     1     -23.420  -0.567  63.913  1.00  0.00     0.028 N 
ENDROOT
BRANCH   1   2
HETATM    2  C9  UNL     1     -24.824  -0.631  63.939  1.00  0.00     0.733 A 
HETATM    3  N5  UNL     1     -25.564   0.120  64.768  1.00  0.00    -0.020 N 
HETATM    4  C3  UNL     1     -26.920   0.024  64.806  1.00  0.00     0.709 A 
ATOM      5  H5  UNL     1     -25.096   0.783  65.386  1.00  0.00     0.203 HD
HETATM    6  N2  UNL     1     -27.489  -0.872  63.963  1.00  0.00    -0.021 N 
HETATM    7  C2  UNL     1     -26.811  -1.649  63.115  1.00  0.00     0.706 A 
ATOM      8  H2  UNL     1     -28.505  -0.959  63.977  1.00  0.00     0.203 HD
HETATM    9  N14 UNL     1     -25.475  -1.511  63.120  1.00  0.00    -0.020 N 
ATOM     10  H14 UNL     1     -24.922  -2.088  62.486  1.00  0.00     0.203 HD
BRANCH   4  11
HETATM   11  N3  UNL     1     -27.728   0.808  65.681  1.00  0.00    -0.215 N 
HETATM   12  C4  UNL     1     -28.283   0.319  66.904  1.00  0.00     0.141 C 
HETATM   13  C5  UNL     1     -28.818   1.470  67.717  1.00  0.00     0.022 C 
HETATM   14  C6  UNL     1     -27.919   2.684  67.701  1.00  0.00     0.036 C 
HETATM   15  C7  UNL     1     -27.603   3.184  66.330  1.00  0.00     0.202 C 
HETATM   16  C8  UNL     1     -28.012   2.181  65.299  1.00  0.00     0.173 C 
BRANCH  15  17
HETATM   17  N4  UNL     1     -26.197   3.552  66.254  1.00  0.00    -0.073 N 
ATOM     18  H43 UNL     1     -25.960   4.302  66.904  1.00  0.00     0.274 HD
ATOM     19  H42 UNL     1     -25.589   2.828  66.636  1.00  0.00     0.274 HD
ATOM     20  H41 UNL     1     -25.955   3.788  65.291  1.00  0.00     0.274 HD
ENDBRANCH  15  17
ENDBRANCH   4  11
BRANCH   7  21
HETATM   21  N1  UNL     1     -27.400  -2.509  62.325  1.00  0.00    -0.229 N 
HETATM   22  C1  UNL     1     -28.537  -3.226  62.864  1.00  0.00     0.165 C 
ATOM     23  H1  UNL     1     -27.074  -2.668  61.372  1.00  0.00     0.177 HD
ENDBRANCH   7  21
ENDBRANCH   1   2
BRANCH   1  24
HETATM   24  C10 UNL     1     -22.633   0.414  63.305  1.00  0.00     0.093 A 
HETATM   25  C11 UNL     1     -21.667   0.035  62.393  1.00  0.00     0.121 A 
HETATM   26  N7  UNL     1     -20.855   0.911  61.791  1.00  0.00    -0.343 N 
HETATM   27  C12 UNL     1     -20.917   2.231  62.027  1.00  0.00     0.169 A 
ATOM     28  H7  UNL     1     -20.162   0.563  61.128  1.00  0.00     0.167 HD
HETATM   29  C14 UNL     1     -21.884   2.656  62.946  1.00  0.00     0.085 A 
HETATM   30  C18 UNL     1     -22.735   1.759  63.579  1.00  0.00     0.066 A 
BRANCH  27  31
HETATM   31  O1  UNL     1     -20.074   3.154  61.406  1.00  0.00    -0.339 OA
HETATM   32  C13 UNL     1     -18.707   3.147  61.810  1.00  0.00     0.211 C 
ENDBRANCH  27  31
BRANCH  29  33
HETATM   33  N8  UNL     1     -21.950   4.038  63.223  1.00  0.00    -0.336 N 
ATOM     34  H8  UNL     1     -21.744   4.718  62.491  1.00  0.00     0.164 HD
BRANCH  33  35
HETATM   35  C15 UNL     1     -22.311   4.485  64.546  1.00  0.00     0.464 C 
BRANCH  35  36
HETATM   36  O2  UNL     1     -23.602   4.946  64.661  1.00  0.00    -0.352 OA
ATOM     37  H2  UNL     1     -23.675   5.878  64.833  1.00  0.00     0.214 HD
ENDBRANCH  35  36
BRANCH  35  38
HETATM   38  N9  UNL     1     -21.409   5.511  65.035  1.00  0.00     0.128 N 
HETATM   39  C16 UNL     1     -22.191   6.678  65.379  1.00  0.00     0.315 C 
HETATM   40  C17 UNL     1     -20.466   5.880  64.003  1.00  0.00     0.315 C 
ENDBRANCH  35  38
ENDBRANCH  33  35
ENDBRANCH  29  33
ENDBRANCH   1  24
BRANCH   1  41
HETATM   41  C19 UNL     1     -22.709  -1.634  64.585  1.00  0.00     0.737 A 
HETATM   42  N10 UNL     1     -21.664  -1.399  65.395  1.00  0.00    -0.114 N 
HETATM   43  N11 UNL     1     -21.263  -2.564  65.840  1.00  0.00    -0.213 N 
ATOM     44  H10 UNL     1     -21.260  -0.490  65.619  1.00  0.00     0.207 HD
HETATM   45  N12 UNL     1     -22.018  -3.513  65.340  1.00  0.00    -0.211 N 
ATOM     46  H11 UNL     1     -20.483  -2.711  66.480  1.00  0.00     0.210 HD
HETATM   47  N13 UNL     1     -22.911  -2.942  64.565  1.00  0.00    -0.110 N 
ATOM     48  H12 UNL     1     -21.926  -4.513  65.520  1.00  0.00     0.210 HD
HETATM   49  C20 UNL     1     -23.948  -3.620  63.822  1.00  0.00     0.199 C 
ENDBRANCH   1  41
TORSDOF 11
ENDMDL
MODEL 5
REMARK VINA RESULT: -6.970897813     11.249     14.251
REMARK  11 active torsions:
REMARK  status: ('A' for Active; 'I' for Inactive)
REMARK    1  A    between atoms: N1_2  and  C2_4 
REMARK    2  A    between atoms: C3_7  and  N3_8 
REMARK    3  A    between atoms: C7_12  and  N4_13 
REMARK    4  A    between atoms: C9_20  and  N6_21 
REMARK    5  A    between atoms: N6_21  and  C10_22 
REMARK    6  A    between atoms: N6_21  and  C19_39 
REMARK    7  A    between atoms: C12_26  and  O1_27 
REMARK    8  A    between atoms: C14_29  and  N8_30 
REMARK    9  A    between atoms: N8_30  and  C15_32 
REMARK   10  A    between atoms: C15_32  and  O2_33 
REMARK   11  A    between atoms: C15_32  and  N9_35 
ROOT
HETATM    1  N6  UNL     1     -27.541  -2.331  64.048  1.00  0.00     0.028 N 
ENDROOT
BRANCH   1   2
HETATM    2  C9  UNL     1     -28.517  -2.939  63.240  1.00  0.00     0.733 A 
HETATM    3  N5  UNL     1     -28.435  -2.956  61.902  1.00  0.00    -0.020 N 
HETATM    4  C3  UNL     1     -29.404  -3.520  61.131  1.00  0.00     0.709 A 
ATOM      5  H5  UNL     1     -27.624  -2.535  61.450  1.00  0.00     0.203 HD
HETATM    6  N2  UNL     1     -30.459  -4.065  61.784  1.00  0.00    -0.021 N 
HETATM    7  C2  UNL     1     -30.600  -4.081  63.112  1.00  0.00     0.706 A 
ATOM      8  H2  UNL     1     -31.195  -4.492  61.223  1.00  0.00     0.203 HD
HETATM    9  N14 UNL     1     -29.614  -3.511  63.823  1.00  0.00    -0.020 N 
ATOM     10  H14 UNL     1     -29.686  -3.503  64.840  1.00  0.00     0.203 HD
BRANCH   4  11
HETATM   11  N3  UNL     1     -29.342  -3.545  59.707  1.00  0.00    -0.215 N 
HETATM   12  C4  UNL     1     -29.503  -4.730  58.924  1.00  0.00     0.141 C 
HETATM   13  C5  UNL     1     -29.682  -4.363  57.473  1.00  0.00     0.022 C 
HETATM   14  C6  UNL     1     -30.578  -3.164  57.265  1.00  0.00     0.036 C 
HETATM   15  C7  UNL     1     -30.139  -1.945  58.007  1.00  0.00     0.202 C 
HETATM   16  C8  UNL     1     -29.088  -2.293  59.013  1.00  0.00     0.173 C 
BRANCH  15  17
HETATM   17  N4  UNL     1     -31.298  -1.281  58.587  1.00  0.00    -0.073 N 
ATOM     18  H43 UNL     1     -31.837  -0.769  57.889  1.00  0.00     0.274 HD
ATOM     19  H42 UNL     1     -32.019  -1.945  58.871  1.00  0.00     0.274 HD
ATOM     20  H41 UNL     1     -31.001  -0.683  59.358  1.00  0.00     0.274 HD
ENDBRANCH  15  17
ENDBRANCH   4  11
BRANCH   7  21
HETATM   21  N1  UNL     1     -31.642  -4.610  63.701  1.00  0.00    -0.229 N 
HETATM   22  C1  UNL     1     -32.921  -4.450  63.043  1.00  0.00     0.165 C 
ATOM     23  H1  UNL     1     -31.556  -5.112  64.584  1.00  0.00     0.177 HD
ENDBRANCH   7  21
ENDBRANCH   1   2
BRANCH   1  24
HETATM   24  C10 UNL     1     -27.707  -1.219  64.878  1.00  0.00     0.093 A 
HETATM   25  C11 UNL     1     -27.104  -0.025  64.535  1.00  0.00     0.121 A 
HETATM   26  N7  UNL     1     -27.192   1.075  65.292  1.00  0.00    -0.343 N 
HETATM   27  C12 UNL     1     -27.878   1.104  66.445  1.00  0.00     0.169 A 
ATOM     28  H7  UNL     1     -26.720   1.925  64.980  1.00  0.00     0.167 HD
HETATM   29  C14 UNL     1     -28.505  -0.088  66.827  1.00  0.00     0.085 A 
HETATM   30  C18 UNL     1     -28.423  -1.238  66.053  1.00  0.00     0.066 A 
BRANCH  27  31
HETATM   31  O1  UNL     1     -27.975   2.244  67.243  1.00  0.00    -0.339 OA
HETATM   32  C13 UNL     1     -27.519   3.468  66.672  1.00  0.00     0.211 C 
ENDBRANCH  27  31
BRANCH  29  33
HETATM   33  N8  UNL     1     -29.213  -0.083  68.048  1.00  0.00    -0.336 N 
ATOM     34  H8  UNL     1     -29.561   0.794  68.435  1.00  0.00     0.164 HD
BRANCH  33  35
HETATM   35  C15 UNL     1     -29.443  -1.325  68.745  1.00  0.00     0.464 C 
BRANCH  35  36
HETATM   36  O2  UNL     1     -30.241  -2.220  68.070  1.00  0.00    -0.352 OA
ATOM     37  H2  UNL     1     -29.941  -2.435  67.195  1.00  0.00     0.214 HD
ENDBRANCH  35  36
BRANCH  35  38
HETATM   38  N9  UNL     1     -30.007  -1.108  70.065  1.00  0.00     0.128 N 
HETATM   39  C16 UNL     1     -28.934  -1.171  71.032  1.00  0.00     0.315 C 
HETATM   40  C17 UNL     1     -30.965  -2.145  70.375  1.00  0.00     0.315 C 
ENDBRANCH  35  38
ENDBRANCH  33  35
ENDBRANCH  29  33
ENDBRANCH   1  24
BRANCH   1  41
HETATM   41  C19 UNL     1     -26.217  -2.915  64.018  1.00  0.00     0.737 A 
HETATM   42  N10 UNL     1     -26.008  -4.227  64.214  1.00  0.00    -0.114 N 
HETATM   43  N11 UNL     1     -24.716  -4.422  64.113  1.00  0.00    -0.213 N 
ATOM     44  H10 UNL     1     -26.717  -4.934  64.404  1.00  0.00     0.207 HD
HETATM   45  N12 UNL     1     -24.114  -3.284  63.863  1.00  0.00    -0.211 N 
ATOM     46  H11 UNL     1     -24.250  -5.323  64.215  1.00  0.00     0.210 HD
HETATM   47  N13 UNL     1     -25.038  -2.352  63.803  1.00  0.00    -0.110 N 
ATOM     48  H12 UNL     1     -23.111  -3.148  63.738  1.00  0.00     0.210 HD
HETATM   49  C20 UNL     1     -24.813  -0.950  63.538  1.00  0.00     0.199 C 
ENDBRANCH   1  41
TORSDOF 11
ENDMDL
