MODEL 1
REMARK VINA RESULT: -8.451984720      0.000      0.000
REMARK  17 active torsions:
REMARK  status: ('A' for Active; 'I' for Inactive)
REMARK    1  A    between atoms: C4_4  and  O1_5 
REMARK    2  A    between atoms: C6_8  and  O2_9 
REMARK    3  A    between atoms: C7_11  and  C8_12 
REMARK    4  A    between atoms: C8_12  and  N1_13 
REMARK    5  A    between atoms: C8_12  and  C10_19 
REMARK    6  A    between atoms: N1_13  and  N2_14 
REMARK    7  A    between atoms: C11_21  and  C12_22 
REMARK    8  A    between atoms: C12_22  and  O4_23 
REMARK    9  A    between atoms: C12_22  and  O5_25 
REMARK   10  A    between atoms: C14_28  and  C15_29 
REMARK   11  A    between atoms: C15_29  and  O6_30 
REMARK   12  A    between atoms: O6_30  and  C16_31 
REMARK   13  A    between atoms: C17_32  and  O7_33 
REMARK   14  A    between atoms: C19_36  and  O8_37 
REMARK   15  A    between atoms: C19_36  and  C20_39 
REMARK   16  A    between atoms: C20_39  and  C21_41 
REMARK   17  A    between atoms: C21_41  and  O10_42 
ROOT
HETATM    1  C10 UNL     1       4.021   3.872  52.829  1.00  0.00     0.128 A 
HETATM    2  O3  UNL     1       5.248   3.633  53.079  1.00  0.00    -0.306 OA
HETATM    3  C11 UNL     1       5.856   2.968  52.155  1.00  0.00     0.108 A 
HETATM    4  C13 UNL     1       4.954   2.724  51.167  1.00  0.00     0.050 A 
HETATM    5  C14 UNL     1       3.742   3.310  51.590  1.00  0.00     0.006 A 
ENDROOT
BRANCH   5   6
HETATM    6  C15 UNL     1       2.571   3.245  50.742  1.00  0.00     0.217 C 
BRANCH   6   7
HETATM    7  O6  UNL     1       2.913   3.615  49.391  1.00  0.00    -0.340 OA
BRANCH   7   8
HETATM    8  C16 UNL     1       2.732   4.936  48.977  1.00  0.00     0.152 C 
HETATM    9  C17 UNL     1       1.540   5.409  48.672  1.00  0.00     0.084 C 
HETATM   10  C18 UNL     1       1.224   6.777  48.227  1.00  0.00     0.122 C 
HETATM   11  C19 UNL     1       2.405   7.545  47.742  1.00  0.00     0.194 C 
HETATM   12  C22 UNL     1       3.670   7.182  48.444  1.00  0.00     0.244 C 
HETATM   13  O11 UNL     1       4.520   8.078  48.646  1.00  0.00    -0.285 OA
HETATM   14  C23 UNL     1       3.904   5.793  48.887  1.00  0.00     0.256 C 
HETATM   15  O12 UNL     1       5.069   5.400  49.166  1.00  0.00    -0.281 OA
BRANCH   9  16
HETATM   16  O7  UNL     1       0.497   4.452  48.807  1.00  0.00    -0.362 OA
ATOM     17  H7  UNL     1       0.392   4.128  49.693  1.00  0.00     0.217 HD
ENDBRANCH   9  16
BRANCH  11  18
HETATM   18  O8  UNL     1       2.525   7.239  46.365  1.00  0.00    -0.374 OA
ATOM     19  H8  UNL     1       1.740   7.582  45.954  1.00  0.00     0.211 HD
ENDBRANCH  11  18
BRANCH  11  20
HETATM   20  C20 UNL     1       2.212   9.010  47.855  1.00  0.00     0.192 C 
HETATM   21  O9  UNL     1       1.588   9.442  48.813  1.00  0.00    -0.292 OA
BRANCH  20  22
HETATM   22  C21 UNL     1       2.745   9.971  46.849  1.00  0.00     0.246 C 
BRANCH  22  23
HETATM   23  O10 UNL     1       4.008  10.414  47.180  1.00  0.00    -0.393 OA
ATOM     24  H10 UNL     1       4.068  11.361  47.160  1.00  0.00     0.209 HD
ENDBRANCH  22  23
ENDBRANCH  20  22
ENDBRANCH  11  20
ENDBRANCH   7   8
ENDBRANCH   6   7
ENDBRANCH   5   6
BRANCH   1  25
HETATM   25  C8  UNL     1       3.004   4.605  53.623  1.00  0.00     0.179 C 
BRANCH  25  26
HETATM   26  C7  UNL     1       3.345   5.916  54.236  1.00  0.00     0.049 A 
HETATM   27  C2  UNL     1       3.133   7.108  53.600  1.00  0.00    -0.043 A 
HETATM   28  C1  UNL     1       3.022   7.187  52.103  1.00  0.00     0.049 C 
HETATM   29  C3  UNL     1       3.149   8.359  54.238  1.00  0.00     0.044 A 
HETATM   30  C4  UNL     1       3.391   8.441  55.568  1.00  0.00     0.068 A 
HETATM   31  C5  UNL     1       3.613   7.285  56.245  1.00  0.00     0.074 A 
HETATM   32  C6  UNL     1       3.592   6.039  55.602  1.00  0.00     0.082 A 
BRANCH  30  33
HETATM   33  O1  UNL     1       3.408   9.682  56.207  1.00  0.00    -0.361 OA
ATOM     34  H1  UNL     1       4.068  10.328  55.982  1.00  0.00     0.217 HD
ENDBRANCH  30  33
BRANCH  32  35
HETATM   35  O2  UNL     1       3.816   5.001  56.422  1.00  0.00    -0.360 OA
ATOM     36  H2  UNL     1       4.714   4.689  56.410  1.00  0.00     0.217 HD
ENDBRANCH  32  35
ENDBRANCH  25  26
BRANCH  25  37
HETATM   37  N1  UNL     1       1.843   4.253  53.691  1.00  0.00    -0.320 NA
BRANCH  37  38
HETATM   38  N2  UNL     1       0.587   4.063  53.863  1.00  0.00    -0.208 N 
HETATM   39  C9  UNL     1      -0.365   4.496  53.064  1.00  0.00     0.226 C 
HETATM   40  N3  UNL     1      -1.724   4.241  53.331  1.00  0.00    -0.065 NA
HETATM   41  N4  UNL     1       0.041   5.228  51.934  1.00  0.00    -0.065 NA
ATOM     42  H2  UNL     1       0.302   3.531  54.686  1.00  0.00     0.204 HD
ENDBRANCH  37  38
ENDBRANCH  25  37
ENDBRANCH   1  25
BRANCH   3  43
HETATM   43  C12 UNL     1       7.307   2.568  52.222  1.00  0.00     0.312 C 
BRANCH  43  44
HETATM   44  O4  UNL     1       8.069   3.714  52.185  1.00  0.00    -0.365 OA
ATOM     45  H4  UNL     1       8.685   3.636  51.465  1.00  0.00     0.213 HD
ENDBRANCH  43  44
BRANCH  43  46
HETATM   46  O5  UNL     1       7.581   1.839  51.057  1.00  0.00    -0.365 OA
ATOM     47  H5  UNL     1       8.130   2.390  50.511  1.00  0.00     0.213 HD
ENDBRANCH  43  46
ENDBRANCH   3  43
TORSDOF 17
ENDMDL
MODEL 2
REMARK VINA RESULT: -8.298237271      1.168      2.079
REMARK  17 active torsions:
REMARK  status: ('A' for Active; 'I' for Inactive)
REMARK    1  A    between atoms: C4_4  and  O1_5 
REMARK    2  A    between atoms: C6_8  and  O2_9 
REMARK    3  A    between atoms: C7_11  and  C8_12 
REMARK    4  A    between atoms: C8_12  and  N1_13 
REMARK    5  A    between atoms: C8_12  and  C10_19 
REMARK    6  A    between atoms: N1_13  and  N2_14 
REMARK    7  A    between atoms: C11_21  and  C12_22 
REMARK    8  A    between atoms: C12_22  and  O4_23 
REMARK    9  A    between atoms: C12_22  and  O5_25 
REMARK   10  A    between atoms: C14_28  and  C15_29 
REMARK   11  A    between atoms: C15_29  and  O6_30 
REMARK   12  A    between atoms: O6_30  and  C16_31 
REMARK   13  A    between atoms: C17_32  and  O7_33 
REMARK   14  A    between atoms: C19_36  and  O8_37 
REMARK   15  A    between atoms: C19_36  and  C20_39 
REMARK   16  A    between atoms: C20_39  and  C21_41 
REMARK   17  A    between atoms: C21_41  and  O10_42 
ROOT
HETATM    1  C10 UNL     1       4.511   4.030  52.237  1.00  0.00     0.128 A 
HETATM    2  O3  UNL     1       5.675   3.670  52.615  1.00  0.00    -0.306 OA
HETATM    3  C11 UNL     1       6.450   3.294  51.653  1.00  0.00     0.108 A 
HETATM    4  C13 UNL     1       5.746   3.407  50.495  1.00  0.00     0.050 A 
HETATM    5  C14 UNL     1       4.471   3.889  50.856  1.00  0.00     0.006 A 
ENDROOT
BRANCH   5   6
HETATM    6  C15 UNL     1       3.474   4.141  49.836  1.00  0.00     0.217 C 
BRANCH   6   7
HETATM    7  O6  UNL     1       2.841   5.416  50.064  1.00  0.00    -0.340 OA
BRANCH   7   8
HETATM    8  C16 UNL     1       2.871   6.384  49.057  1.00  0.00     0.152 C 
HETATM    9  C17 UNL     1       3.855   7.257  48.964  1.00  0.00     0.084 C 
HETATM   10  C18 UNL     1       3.997   8.317  47.952  1.00  0.00     0.122 C 
HETATM   11  C19 UNL     1       2.737   8.632  47.222  1.00  0.00     0.194 C 
HETATM   12  C22 UNL     1       1.846   7.448  47.051  1.00  0.00     0.244 C 
HETATM   13  O11 UNL     1       1.164   7.359  46.005  1.00  0.00    -0.285 OA
HETATM   14  C23 UNL     1       1.777   6.410  48.098  1.00  0.00     0.256 C 
HETATM   15  O12 UNL     1       0.810   5.602  48.133  1.00  0.00    -0.281 OA
BRANCH   9  16
HETATM   16  O7  UNL     1       4.845   7.106  49.972  1.00  0.00    -0.362 OA
ATOM     17  H7  UNL     1       5.211   7.930  50.271  1.00  0.00     0.217 HD
ENDBRANCH   9  16
BRANCH  11  18
HETATM   18  O8  UNL     1       2.075   9.612  48.001  1.00  0.00    -0.374 OA
ATOM     19  H8  UNL     1       1.148   9.499  47.827  1.00  0.00     0.211 HD
ENDBRANCH  11  18
BRANCH  11  20
HETATM   20  C20 UNL     1       2.989   9.224  45.888  1.00  0.00     0.192 C 
HETATM   21  O9  UNL     1       2.612   8.612  44.900  1.00  0.00    -0.292 OA
BRANCH  20  22
HETATM   22  C21 UNL     1       3.682  10.530  45.705  1.00  0.00     0.246 C 
BRANCH  22  23
HETATM   23  O10 UNL     1       2.965  11.574  46.251  1.00  0.00    -0.393 OA
ATOM     24  H10 UNL     1       3.471  12.050  46.898  1.00  0.00     0.209 HD
ENDBRANCH  22  23
ENDBRANCH  20  22
ENDBRANCH  11  20
ENDBRANCH   7   8
ENDBRANCH   6   7
ENDBRANCH   5   6
BRANCH   1  25
HETATM   25  C8  UNL     1       3.358   4.529  53.026  1.00  0.00     0.179 C 
BRANCH  25  26
HETATM   26  C7  UNL     1       3.569   5.552  54.084  1.00  0.00     0.049 A 
HETATM   27  C2  UNL     1       3.111   6.836  53.976  1.00  0.00    -0.043 A 
HETATM   28  C1  UNL     1       2.816   7.450  52.636  1.00  0.00     0.049 C 
HETATM   29  C3  UNL     1       3.015   7.735  55.050  1.00  0.00     0.044 A 
HETATM   30  C4  UNL     1       3.395   7.353  56.293  1.00  0.00     0.068 A 
HETATM   31  C5  UNL     1       3.863   6.088  56.453  1.00  0.00     0.074 A 
HETATM   32  C6  UNL     1       3.952   5.194  55.376  1.00  0.00     0.082 A 
BRANCH  30  33
HETATM   33  O1  UNL     1       3.302   8.244  57.364  1.00  0.00    -0.361 OA
ATOM     34  H1  UNL     1       3.411   9.177  57.222  1.00  0.00     0.217 HD
ENDBRANCH  30  33
BRANCH  32  35
HETATM   35  O2  UNL     1       4.421   3.984  55.713  1.00  0.00    -0.360 OA
ATOM     36  H2  UNL     1       3.997   3.266  55.258  1.00  0.00     0.217 HD
ENDBRANCH  32  35
ENDBRANCH  25  26
BRANCH  25  37
HETATM   37  N1  UNL     1       2.206   4.244  52.761  1.00  0.00    -0.320 NA
BRANCH  37  38
HETATM   38  N2  UNL     1       1.032   4.031  52.295  1.00  0.00    -0.208 N 
HETATM   39  C9  UNL     1      -0.082   4.539  52.777  1.00  0.00     0.226 C 
HETATM   40  N3  UNL     1      -1.335   4.250  52.202  1.00  0.00    -0.065 NA
HETATM   41  N4  UNL     1       0.039   5.383  53.896  1.00  0.00    -0.065 NA
ATOM     42  H2  UNL     1       0.953   3.416  51.484  1.00  0.00     0.204 HD
ENDBRANCH  37  38
ENDBRANCH  25  37
ENDBRANCH   1  25
BRANCH   3  43
HETATM   43  C12 UNL     1       7.868   2.827  51.849  1.00  0.00     0.312 C 
BRANCH  43  44
HETATM   44  O4  UNL     1       8.624   3.910  52.239  1.00  0.00    -0.365 OA
ATOM     45  H4  UNL     1       9.349   3.590  52.764  1.00  0.00     0.213 HD
ENDBRANCH  43  44
BRANCH  43  46
HETATM   46  O5  UNL     1       8.336   2.413  50.595  1.00  0.00    -0.365 OA
ATOM     47  H5  UNL     1       8.612   1.508  50.689  1.00  0.00     0.213 HD
ENDBRANCH  43  46
ENDBRANCH   3  43
TORSDOF 17
ENDMDL
MODEL 3
REMARK VINA RESULT: -8.202718142      1.368      2.408
REMARK  17 active torsions:
REMARK  status: ('A' for Active; 'I' for Inactive)
REMARK    1  A    between atoms: C4_4  and  O1_5 
REMARK    2  A    between atoms: C6_8  and  O2_9 
REMARK    3  A    between atoms: C7_11  and  C8_12 
REMARK    4  A    between atoms: C8_12  and  N1_13 
REMARK    5  A    between atoms: C8_12  and  C10_19 
REMARK    6  A    between atoms: N1_13  and  N2_14 
REMARK    7  A    between atoms: C11_21  and  C12_22 
REMARK    8  A    between atoms: C12_22  and  O4_23 
REMARK    9  A    between atoms: C12_22  and  O5_25 
REMARK   10  A    between atoms: C14_28  and  C15_29 
REMARK   11  A    between atoms: C15_29  and  O6_30 
REMARK   12  A    between atoms: O6_30  and  C16_31 
REMARK   13  A    between atoms: C17_32  and  O7_33 
REMARK   14  A    between atoms: C19_36  and  O8_37 
REMARK   15  A    between atoms: C19_36  and  C20_39 
REMARK   16  A    between atoms: C20_39  and  C21_41 
REMARK   17  A    between atoms: C21_41  and  O10_42 
ROOT
HETATM    1  C10 UNL     1       4.176   3.768  52.458  1.00  0.00     0.128 A 
HETATM    2  O3  UNL     1       5.328   3.428  52.885  1.00  0.00    -0.306 OA
HETATM    3  C11 UNL     1       6.196   3.216  51.952  1.00  0.00     0.108 A 
HETATM    4  C13 UNL     1       5.576   3.432  50.762  1.00  0.00     0.050 A 
HETATM    5  C14 UNL     1       4.248   3.796  51.071  1.00  0.00     0.006 A 
ENDROOT
BRANCH   5   6
HETATM    6  C15 UNL     1       3.318   4.116  50.009  1.00  0.00     0.217 C 
BRANCH   6   7
HETATM    7  O6  UNL     1       2.750   5.424  50.224  1.00  0.00    -0.340 OA
BRANCH   7   8
HETATM    8  C16 UNL     1       2.805   6.370  49.198  1.00  0.00     0.152 C 
HETATM    9  C17 UNL     1       3.786   7.248  49.116  1.00  0.00     0.084 C 
HETATM   10  C18 UNL     1       3.953   8.287  48.086  1.00  0.00     0.122 C 
HETATM   11  C19 UNL     1       2.714   8.578  47.311  1.00  0.00     0.194 C 
HETATM   12  C22 UNL     1       1.836   7.385  47.139  1.00  0.00     0.244 C 
HETATM   13  O11 UNL     1       1.187   7.268  46.075  1.00  0.00    -0.285 OA
HETATM   14  C23 UNL     1       1.742   6.368  48.205  1.00  0.00     0.256 C 
HETATM   15  O12 UNL     1       0.778   5.555  48.228  1.00  0.00    -0.281 OA
BRANCH   9  16
HETATM   16  O7  UNL     1       4.746   7.125  50.158  1.00  0.00    -0.362 OA
ATOM     17  H7  UNL     1       5.158   7.948  50.392  1.00  0.00     0.217 HD
ENDBRANCH   9  16
BRANCH  11  18
HETATM   18  O8  UNL     1       2.023   9.570  48.048  1.00  0.00    -0.374 OA
ATOM     19  H8  UNL     1       1.197   9.700  47.597  1.00  0.00     0.211 HD
ENDBRANCH  11  18
BRANCH  11  20
HETATM   20  C20 UNL     1       3.004   9.143  45.973  1.00  0.00     0.192 C 
HETATM   21  O9  UNL     1       2.638   8.519  44.987  1.00  0.00    -0.292 OA
BRANCH  20  22
HETATM   22  C21 UNL     1       3.721  10.435  45.783  1.00  0.00     0.246 C 
BRANCH  22  23
HETATM   23  O10 UNL     1       3.019  11.496  46.313  1.00  0.00    -0.393 OA
ATOM     24  H10 UNL     1       3.456  12.324  46.156  1.00  0.00     0.209 HD
ENDBRANCH  22  23
ENDBRANCH  20  22
ENDBRANCH  11  20
ENDBRANCH   7   8
ENDBRANCH   6   7
ENDBRANCH   5   6
BRANCH   1  25
HETATM   25  C8  UNL     1       2.937   4.103  53.202  1.00  0.00     0.179 C 
BRANCH  25  26
HETATM   26  C7  UNL     1       2.923   5.257  54.140  1.00  0.00     0.049 A 
HETATM   27  C2  UNL     1       3.509   5.215  55.374  1.00  0.00    -0.043 A 
HETATM   28  C1  UNL     1       3.761   3.910  56.076  1.00  0.00     0.049 C 
HETATM   29  C3  UNL     1       3.789   6.348  56.157  1.00  0.00     0.044 A 
HETATM   30  C4  UNL     1       3.470   7.583  55.702  1.00  0.00     0.068 A 
HETATM   31  C5  UNL     1       2.882   7.678  54.482  1.00  0.00     0.074 A 
HETATM   32  C6  UNL     1       2.609   6.544  53.704  1.00  0.00     0.082 A 
BRANCH  30  33
HETATM   33  O1  UNL     1       3.746   8.712  56.476  1.00  0.00    -0.361 OA
ATOM     34  H1  UNL     1       4.268   9.421  56.121  1.00  0.00     0.217 HD
ENDBRANCH  30  33
BRANCH  32  35
HETATM   35  O2  UNL     1       2.039   6.820  52.523  1.00  0.00    -0.360 OA
ATOM     36  H2  UNL     1       1.445   6.145  52.215  1.00  0.00     0.217 HD
ENDBRANCH  32  35
ENDBRANCH  25  26
BRANCH  25  37
HETATM   37  N1  UNL     1       1.871   3.561  52.984  1.00  0.00    -0.320 NA
BRANCH  37  38
HETATM   38  N2  UNL     1       0.801   3.002  52.553  1.00  0.00    -0.208 N 
HETATM   39  C9  UNL     1      -0.245   3.634  52.066  1.00  0.00     0.226 C 
HETATM   40  N3  UNL     1      -1.383   2.938  51.613  1.00  0.00    -0.065 NA
HETATM   41  N4  UNL     1      -0.172   5.038  52.021  1.00  0.00    -0.065 NA
ATOM     42  H2  UNL     1       0.757   1.983  52.590  1.00  0.00     0.204 HD
ENDBRANCH  37  38
ENDBRANCH  25  37
ENDBRANCH   1  25
BRANCH   3  43
HETATM   43  C12 UNL     1       7.622   2.806  52.208  1.00  0.00     0.312 C 
BRANCH  43  44
HETATM   44  O4  UNL     1       8.388   3.948  52.282  1.00  0.00    -0.365 OA
ATOM     45  H4  UNL     1       8.247   4.450  51.488  1.00  0.00     0.213 HD
ENDBRANCH  43  44
BRANCH  43  46
HETATM   46  O5  UNL     1       8.045   2.084  51.084  1.00  0.00    -0.365 OA
ATOM     47  H5  UNL     1       7.703   2.538  50.321  1.00  0.00     0.213 HD
ENDBRANCH  43  46
ENDBRANCH   3  43
TORSDOF 17
ENDMDL
MODEL 4
REMARK VINA RESULT: -8.148670573      2.299      4.224
REMARK  17 active torsions:
REMARK  status: ('A' for Active; 'I' for Inactive)
REMARK    1  A    between atoms: C4_4  and  O1_5 
REMARK    2  A    between atoms: C6_8  and  O2_9 
REMARK    3  A    between atoms: C7_11  and  C8_12 
REMARK    4  A    between atoms: C8_12  and  N1_13 
REMARK    5  A    between atoms: C8_12  and  C10_19 
REMARK    6  A    between atoms: N1_13  and  N2_14 
REMARK    7  A    between atoms: C11_21  and  C12_22 
REMARK    8  A    between atoms: C12_22  and  O4_23 
REMARK    9  A    between atoms: C12_22  and  O5_25 
REMARK   10  A    between atoms: C14_28  and  C15_29 
REMARK   11  A    between atoms: C15_29  and  O6_30 
REMARK   12  A    between atoms: O6_30  and  C16_31 
REMARK   13  A    between atoms: C17_32  and  O7_33 
REMARK   14  A    between atoms: C19_36  and  O8_37 
REMARK   15  A    between atoms: C19_36  and  C20_39 
REMARK   16  A    between atoms: C20_39  and  C21_41 
REMARK   17  A    between atoms: C21_41  and  O10_42 
ROOT
HETATM    1  C10 UNL     1       1.606   4.604  53.648  1.00  0.00     0.128 A 
HETATM    2  O3  UNL     1       0.564   4.710  54.376  1.00  0.00    -0.306 OA
HETATM    3  C11 UNL     1      -0.533   4.386  53.778  1.00  0.00     0.108 A 
HETATM    4  C13 UNL     1      -0.213   4.021  52.508  1.00  0.00     0.050 A 
HETATM    5  C14 UNL     1       1.187   4.157  52.402  1.00  0.00     0.006 A 
ENDROOT
BRANCH   5   6
HETATM    6  C15 UNL     1       1.857   3.822  51.163  1.00  0.00     0.217 C 
BRANCH   6   7
HETATM    7  O6  UNL     1       1.151   4.398  50.045  1.00  0.00    -0.340 OA
BRANCH   7   8
HETATM    8  C16 UNL     1       1.713   5.481  49.366  1.00  0.00     0.152 C 
HETATM    9  C17 UNL     1       2.587   5.312  48.393  1.00  0.00     0.084 C 
HETATM   10  C18 UNL     1       3.244   6.370  47.607  1.00  0.00     0.122 C 
HETATM   11  C19 UNL     1       3.175   7.721  48.231  1.00  0.00     0.194 C 
HETATM   12  C22 UNL     1       1.929   7.940  49.022  1.00  0.00     0.244 C 
HETATM   13  O11 UNL     1       1.426   9.086  49.040  1.00  0.00    -0.285 OA
HETATM   14  C23 UNL     1       1.310   6.822  49.762  1.00  0.00     0.256 C 
HETATM   15  O12 UNL     1       0.480   7.050  50.683  1.00  0.00    -0.281 OA
BRANCH   9  16
HETATM   16  O7  UNL     1       2.880   3.947  48.125  1.00  0.00    -0.362 OA
ATOM     17  H7  UNL     1       3.805   3.778  47.987  1.00  0.00     0.217 HD
ENDBRANCH   9  16
BRANCH  11  18
HETATM   18  O8  UNL     1       4.299   7.807  49.089  1.00  0.00    -0.374 OA
ATOM     19  H8  UNL     1       4.365   8.722  49.338  1.00  0.00     0.211 HD
ENDBRANCH  11  18
BRANCH  11  20
HETATM   20  C20 UNL     1       3.295   8.811  47.235  1.00  0.00     0.192 C 
HETATM   21  O9  UNL     1       3.988   9.778  47.513  1.00  0.00    -0.292 OA
BRANCH  20  22
HETATM   22  C21 UNL     1       2.606   8.773  45.915  1.00  0.00     0.246 C 
BRANCH  22  23
HETATM   23  O10 UNL     1       1.354   9.348  45.971  1.00  0.00    -0.393 OA
ATOM     24  H10 UNL     1       0.922   9.340  45.126  1.00  0.00     0.209 HD
ENDBRANCH  22  23
ENDBRANCH  20  22
ENDBRANCH  11  20
ENDBRANCH   7   8
ENDBRANCH   6   7
ENDBRANCH   5   6
BRANCH   1  25
HETATM   25  C8  UNL     1       3.031   4.868  53.968  1.00  0.00     0.179 C 
BRANCH  25  26
HETATM   26  C7  UNL     1       3.431   6.177  54.549  1.00  0.00     0.049 A 
HETATM   27  C2  UNL     1       3.333   7.354  53.861  1.00  0.00    -0.043 A 
HETATM   28  C1  UNL     1       3.300   7.381  52.359  1.00  0.00     0.049 C 
HETATM   29  C3  UNL     1       3.404   8.626  54.453  1.00  0.00     0.044 A 
HETATM   30  C4  UNL     1       3.585   8.743  55.791  1.00  0.00     0.068 A 
HETATM   31  C5  UNL     1       3.693   7.603  56.519  1.00  0.00     0.074 A 
HETATM   32  C6  UNL     1       3.618   6.336  55.922  1.00  0.00     0.082 A 
BRANCH  30  33
HETATM   33  O1  UNL     1       3.656  10.005  56.384  1.00  0.00    -0.361 OA
ATOM     34  H1  UNL     1       2.904  10.585  56.368  1.00  0.00     0.217 HD
ENDBRANCH  30  33
BRANCH  32  35
HETATM   35  O2  UNL     1       3.730   5.319  56.789  1.00  0.00    -0.360 OA
ATOM     36  H2  UNL     1       2.972   4.747  56.810  1.00  0.00     0.217 HD
ENDBRANCH  32  35
ENDBRANCH  25  26
BRANCH  25  37
HETATM   37  N1  UNL     1       3.889   4.009  53.907  1.00  0.00    -0.320 NA
BRANCH  37  38
HETATM   38  N2  UNL     1       4.704   3.052  53.662  1.00  0.00    -0.208 N 
HETATM   39  C9  UNL     1       5.446   2.942  52.580  1.00  0.00     0.226 C 
HETATM   40  N3  UNL     1       6.318   1.852  52.391  1.00  0.00    -0.065 NA
HETATM   41  N4  UNL     1       5.323   3.964  51.622  1.00  0.00    -0.065 NA
ATOM     42  H2  UNL     1       4.786   2.314  54.362  1.00  0.00     0.204 HD
ENDBRANCH  37  38
ENDBRANCH  25  37
ENDBRANCH   1  25
BRANCH   3  43
HETATM   43  C12 UNL     1      -1.890   4.428  54.430  1.00  0.00     0.312 C 
BRANCH  43  44
HETATM   44  O4  UNL     1      -2.017   5.638  55.075  1.00  0.00    -0.365 OA
ATOM     45  H4  UNL     1      -2.186   5.466  55.994  1.00  0.00     0.213 HD
ENDBRANCH  43  44
BRANCH  43  46
HETATM   46  O5  UNL     1      -1.901   3.424  55.407  1.00  0.00    -0.365 OA
ATOM     47  H5  UNL     1      -2.751   3.001  55.357  1.00  0.00     0.213 HD
ENDBRANCH  43  46
ENDBRANCH   3  43
TORSDOF 17
ENDMDL
MODEL 5
REMARK VINA RESULT: -8.141450213      0.829      1.783
REMARK  17 active torsions:
REMARK  status: ('A' for Active; 'I' for Inactive)
REMARK    1  A    between atoms: C4_4  and  O1_5 
REMARK    2  A    between atoms: C6_8  and  O2_9 
REMARK    3  A    between atoms: C7_11  and  C8_12 
REMARK    4  A    between atoms: C8_12  and  N1_13 
REMARK    5  A    between atoms: C8_12  and  C10_19 
REMARK    6  A    between atoms: N1_13  and  N2_14 
REMARK    7  A    between atoms: C11_21  and  C12_22 
REMARK    8  A    between atoms: C12_22  and  O4_23 
REMARK    9  A    between atoms: C12_22  and  O5_25 
REMARK   10  A    between atoms: C14_28  and  C15_29 
REMARK   11  A    between atoms: C15_29  and  O6_30 
REMARK   12  A    between atoms: O6_30  and  C16_31 
REMARK   13  A    between atoms: C17_32  and  O7_33 
REMARK   14  A    between atoms: C19_36  and  O8_37 
REMARK   15  A    between atoms: C19_36  and  C20_39 
REMARK   16  A    between atoms: C20_39  and  C21_41 
REMARK   17  A    between atoms: C21_41  and  O10_42 
ROOT
HETATM    1  C10 UNL     1       4.065   4.146  53.055  1.00  0.00     0.128 A 
HETATM    2  O3  UNL     1       5.236   3.700  53.296  1.00  0.00    -0.306 OA
HETATM    3  C11 UNL     1       5.806   3.139  52.282  1.00  0.00     0.108 A 
HETATM    4  C13 UNL     1       4.939   3.206  51.238  1.00  0.00     0.050 A 
HETATM    5  C14 UNL     1       3.789   3.864  51.724  1.00  0.00     0.006 A 
ENDROOT
BRANCH   5   6
HETATM    6  C15 UNL     1       2.669   4.115  50.841  1.00  0.00     0.217 C 
BRANCH   6   7
HETATM    7  O6  UNL     1       3.131   4.268  49.483  1.00  0.00    -0.340 OA
BRANCH   7   8
HETATM    8  C16 UNL     1       3.061   5.522  48.875  1.00  0.00     0.152 C 
HETATM    9  C17 UNL     1       4.082   6.356  48.886  1.00  0.00     0.084 C 
HETATM   10  C18 UNL     1       4.129   7.698  48.281  1.00  0.00     0.122 C 
HETATM   11  C19 UNL     1       2.789   8.268  47.965  1.00  0.00     0.194 C 
HETATM   12  C22 UNL     1       1.784   7.232  47.588  1.00  0.00     0.244 C 
HETATM   13  O11 UNL     1       0.919   7.522  46.731  1.00  0.00    -0.285 OA
HETATM   14  C23 UNL     1       1.818   5.897  48.218  1.00  0.00     0.256 C 
HETATM   15  O12 UNL     1       0.807   5.144  48.171  1.00  0.00    -0.281 OA
BRANCH   9  16
HETATM   16  O7  UNL     1       5.221   5.849  49.568  1.00  0.00    -0.362 OA
ATOM     17  H7  UNL     1       5.424   4.947  49.349  1.00  0.00     0.217 HD
ENDBRANCH   9  16
BRANCH  11  18
HETATM   18  O8  UNL     1       2.364   8.931  49.143  1.00  0.00    -0.374 OA
ATOM     19  H8  UNL     1       2.850   8.531  49.855  1.00  0.00     0.211 HD
ENDBRANCH  11  18
BRANCH  11  20
HETATM   20  C20 UNL     1       2.845   9.280  46.885  1.00  0.00     0.192 C 
HETATM   21  O9  UNL     1       2.401  10.396  47.111  1.00  0.00    -0.292 OA
BRANCH  20  22
HETATM   22  C21 UNL     1       3.419   8.992  45.541  1.00  0.00     0.246 C 
BRANCH  22  23
HETATM   23  O10 UNL     1       2.482   9.135  44.540  1.00  0.00    -0.393 OA
ATOM     24  H10 UNL     1       2.852   8.969  43.682  1.00  0.00     0.209 HD
ENDBRANCH  22  23
ENDBRANCH  20  22
ENDBRANCH  11  20
ENDBRANCH   7   8
ENDBRANCH   6   7
ENDBRANCH   5   6
BRANCH   1  25
HETATM   25  C8  UNL     1       3.106   4.851  53.940  1.00  0.00     0.179 C 
BRANCH  25  26
HETATM   26  C7  UNL     1       3.444   6.197  54.476  1.00  0.00     0.049 A 
HETATM   27  C2  UNL     1       3.224   7.350  53.775  1.00  0.00    -0.043 A 
HETATM   28  C1  UNL     1       3.106   7.344  52.277  1.00  0.00     0.049 C 
HETATM   29  C3  UNL     1       3.237   8.636  54.342  1.00  0.00     0.044 A 
HETATM   30  C4  UNL     1       3.483   8.793  55.665  1.00  0.00     0.068 A 
HETATM   31  C5  UNL     1       3.713   7.678  56.404  1.00  0.00     0.074 A 
HETATM   32  C6  UNL     1       3.695   6.397  55.833  1.00  0.00     0.082 A 
BRANCH  30  33
HETATM   33  O1  UNL     1       3.497  10.069  56.232  1.00  0.00    -0.361 OA
ATOM     34  H1  UNL     1       2.800  10.685  56.043  1.00  0.00     0.217 HD
ENDBRANCH  30  33
BRANCH  32  35
HETATM   35  O2  UNL     1       3.927   5.409  56.709  1.00  0.00    -0.360 OA
ATOM     36  H2  UNL     1       3.354   5.424  57.467  1.00  0.00     0.217 HD
ENDBRANCH  32  35
ENDBRANCH  25  26
BRANCH  25  37
HETATM   37  N1  UNL     1       1.980   4.445  54.148  1.00  0.00    -0.320 NA
BRANCH  37  38
HETATM   38  N2  UNL     1       0.822   3.898  54.197  1.00  0.00    -0.208 N 
HETATM   39  C9  UNL     1      -0.227   4.273  53.497  1.00  0.00     0.226 C 
HETATM   40  N3  UNL     1      -1.467   3.614  53.614  1.00  0.00    -0.065 NA
HETATM   41  N4  UNL     1      -0.051   5.366  52.629  1.00  0.00    -0.065 NA
ATOM     42  H2  UNL     1       0.703   3.107  54.830  1.00  0.00     0.204 HD
ENDBRANCH  37  38
ENDBRANCH  25  37
ENDBRANCH   1  25
BRANCH   3  43
HETATM   43  C12 UNL     1       7.187   2.540  52.320  1.00  0.00     0.312 C 
BRANCH  43  44
HETATM   44  O4  UNL     1       8.101   3.570  52.287  1.00  0.00    -0.365 OA
ATOM     45  H4  UNL     1       7.950   4.073  51.495  1.00  0.00     0.213 HD
ENDBRANCH  43  44
BRANCH  43  46
HETATM   46  O5  UNL     1       7.340   1.800  51.140  1.00  0.00    -0.365 OA
ATOM     47  H5  UNL     1       7.995   1.134  51.317  1.00  0.00     0.213 HD
ENDBRANCH  43  46
ENDBRANCH   3  43
TORSDOF 17
ENDMDL
