MODEL 1
REMARK VINA RESULT: -7.630190786      0.000      0.000
REMARK  11 active torsions:
REMARK  status: ('A' for Active; 'I' for Inactive)
REMARK    1  A    between atoms: N1_2  and  C2_4 
REMARK    2  A    between atoms: C3_5  and  C4_6 
REMARK    3  A    between atoms: N5_17  and  C9_18 
REMARK    4  A    between atoms: C10_22  and  C11_23 
REMARK       I    between atoms: C11_23  and  N7_25 
REMARK    5  A    between atoms: N7_25  and  N8_27 
REMARK    6  A    between atoms: N8_27  and  C12_29 
REMARK    7  A    between atoms: C12_29  and  N9_31 
REMARK    8  A    between atoms: N9_31  and  N10_33 
REMARK    9  A    between atoms: N10_33  and  C13_35 
REMARK   10  A    between atoms: C13_35  and  C14_36 
REMARK   11  A    between atoms: C16_42  and  N13_43 
ROOT
HETATM    1  C9  UNL     1     -15.766  20.816  -2.705  1.00  0.00     0.729 A 
HETATM    2  N6  UNL     1     -15.846  19.683  -2.000  1.00  0.00    -0.087 N 
ATOM      3  H6  UNL     1     -16.205  18.793  -2.345  1.00  0.00     0.214 HD
HETATM    4  O1  UNL     1     -15.386  19.901  -0.786  1.00  0.00    -0.199 OA
HETATM    5  C10 UNL     1     -15.001  21.150  -0.660  1.00  0.00     0.255 A 
HETATM    6  N14 UNL     1     -15.242  21.724  -1.873  1.00  0.00    -0.159 N 
ATOM      7  H14 UNL     1     -15.051  22.698  -2.111  1.00  0.00     0.186 HD
ENDROOT
BRANCH   5   8
HETATM    8  C11 UNL     1     -14.437  21.792   0.516  1.00  0.00     0.314 C 
HETATM    9  O2  UNL     1     -14.240  21.125   1.553  1.00  0.00    -0.262 OA
HETATM   10  N7  UNL     1     -14.106  23.166   0.506  1.00  0.00    -0.261 N 
ATOM     11  H7  UNL     1     -14.266  23.721  -0.335  1.00  0.00     0.190 HD
BRANCH  10  12
HETATM   12  N8  UNL     1     -13.567  23.759   1.629  1.00  0.00    -0.272 N 
ATOM     13  H8  UNL     1     -13.037  23.143   2.245  1.00  0.00     0.189 HD
BRANCH  12  14
HETATM   14  C12 UNL     1     -13.653  25.092   2.032  1.00  0.00     0.205 C 
HETATM   15  S1  UNL     1     -12.781  25.476   3.424  1.00  0.00    -0.038 SA
BRANCH  14  16
HETATM   16  N9  UNL     1     -14.378  26.113   1.399  1.00  0.00    -0.275 N 
ATOM     17  H9  UNL     1     -15.360  26.215   1.653  1.00  0.00     0.189 HD
BRANCH  16  18
HETATM   18  N10 UNL     1     -13.882  26.974   0.479  1.00  0.00    -0.307 N 
ATOM     19  H10 UNL     1     -13.569  27.908   0.740  1.00  0.00     0.186 HD
BRANCH  18  20
HETATM   20  C13 UNL     1     -13.819  26.524  -0.853  1.00  0.00     0.140 C 
BRANCH  20  21
HETATM   21  C14 UNL     1     -14.939  27.094  -1.653  1.00  0.00     0.101 A 
HETATM   22  N11 UNL     1     -15.026  28.350  -2.101  1.00  0.00    -0.348 N 
HETATM   23  C15 UNL     1     -16.194  28.424  -2.772  1.00  0.00     0.182 A 
ATOM     24  H11 UNL     1     -14.349  29.100  -1.963  1.00  0.00     0.167 HD
HETATM   25  N12 UNL     1     -16.819  27.238  -2.740  1.00  0.00    -0.332 N 
HETATM   26  C16 UNL     1     -16.047  26.363  -2.034  1.00  0.00     0.203 A 
ATOM     27  H12 UNL     1     -17.718  27.027  -3.172  1.00  0.00     0.168 HD
BRANCH  26  28
HETATM   28  N13 UNL     1     -16.360  25.000  -1.774  1.00  0.00    -0.095 N 
HETATM   29  O3  UNL     1     -16.581  24.223  -2.725  1.00  0.00    -0.530 OA
HETATM   30  O4  UNL     1     -16.428  24.494  -0.509  1.00  0.00    -0.530 OA
ENDBRANCH  26  28
ENDBRANCH  20  21
ENDBRANCH  18  20
ENDBRANCH  16  18
ENDBRANCH  14  16
ENDBRANCH  12  14
ENDBRANCH  10  12
ENDBRANCH   5   8
BRANCH   1  31
HETATM   31  N5  UNL     1     -16.151  21.020  -4.058  1.00  0.00    -0.051 N 
HETATM   32  C2  UNL     1     -15.364  21.553  -5.072  1.00  0.00     0.171 A 
HETATM   33  C3  UNL     1     -16.083  21.577  -6.225  1.00  0.00     0.106 A 
HETATM   34  N3  UNL     1     -17.313  21.057  -5.894  1.00  0.00    -0.281 N 
HETATM   35  N4  UNL     1     -17.305  20.748  -4.624  1.00  0.00    -0.219 N 
ATOM     36  H3  UNL     1     -18.100  20.935  -6.532  1.00  0.00     0.188 HD
ATOM     37  H4  UNL     1     -18.101  20.342  -4.131  1.00  0.00     0.209 HD
BRANCH  32  38
HETATM   38  N1  UNL     1     -14.075  22.032  -4.798  1.00  0.00    -0.377 N 
HETATM   39  C1  UNL     1     -13.669  23.405  -4.718  1.00  0.00     0.148 C 
ATOM     40  H1  UNL     1     -13.351  21.331  -4.639  1.00  0.00     0.160 HD
ENDBRANCH  32  38
BRANCH  33  41
HETATM   41  C4  UNL     1     -15.754  22.028  -7.569  1.00  0.00    -0.002 A 
HETATM   42  C5  UNL     1     -15.060  21.185  -8.448  1.00  0.00     0.031 A 
HETATM   43  C6  UNL     1     -14.654  21.560  -9.702  1.00  0.00     0.088 A 
HETATM   44  N2  UNL     1     -14.933  22.807 -10.125  1.00  0.00    -0.375 N 
HETATM   45  C7  UNL     1     -15.599  23.657  -9.319  1.00  0.00     0.088 A 
ATOM     46  H2  UNL     1     -14.641  23.108 -11.054  1.00  0.00     0.164 HD
HETATM   47  C8  UNL     1     -16.013  23.297  -8.056  1.00  0.00     0.031 A 
ENDBRANCH  33  41
ENDBRANCH   1  31
TORSDOF 11
ENDMDL
MODEL 2
REMARK VINA RESULT: -7.570446474      2.320      4.132
REMARK  11 active torsions:
REMARK  status: ('A' for Active; 'I' for Inactive)
REMARK    1  A    between atoms: N1_2  and  C2_4 
REMARK    2  A    between atoms: C3_5  and  C4_6 
REMARK    3  A    between atoms: N5_17  and  C9_18 
REMARK    4  A    between atoms: C10_22  and  C11_23 
REMARK       I    between atoms: C11_23  and  N7_25 
REMARK    5  A    between atoms: N7_25  and  N8_27 
REMARK    6  A    between atoms: N8_27  and  C12_29 
REMARK    7  A    between atoms: C12_29  and  N9_31 
REMARK    8  A    between atoms: N9_31  and  N10_33 
REMARK    9  A    between atoms: N10_33  and  C13_35 
REMARK   10  A    between atoms: C13_35  and  C14_36 
REMARK   11  A    between atoms: C16_42  and  N13_43 
ROOT
HETATM    1  C9  UNL     1     -16.115  22.092  -5.331  1.00  0.00     0.729 A 
HETATM    2  N6  UNL     1     -15.611  21.565  -4.211  1.00  0.00    -0.087 N 
ATOM      3  H6  UNL     1     -15.432  20.574  -4.050  1.00  0.00     0.214 HD
HETATM    4  O1  UNL     1     -15.384  22.532  -3.347  1.00  0.00    -0.199 OA
HETATM    5  C10 UNL     1     -15.723  23.692  -3.860  1.00  0.00     0.255 A 
HETATM    6  N14 UNL     1     -16.183  23.411  -5.113  1.00  0.00    -0.159 N 
ATOM      7  H14 UNL     1     -16.528  24.101  -5.781  1.00  0.00     0.186 HD
ENDROOT
BRANCH   5   8
HETATM    8  C11 UNL     1     -15.630  25.001  -3.235  1.00  0.00     0.314 C 
HETATM    9  O2  UNL     1     -16.671  25.604  -2.898  1.00  0.00    -0.262 OA
HETATM   10  N7  UNL     1     -14.376  25.608  -2.999  1.00  0.00    -0.261 N 
ATOM     11  H7  UNL     1     -13.519  25.127  -3.273  1.00  0.00     0.190 HD
BRANCH  10  12
HETATM   12  N8  UNL     1     -14.306  26.849  -2.401  1.00  0.00    -0.272 N 
ATOM     13  H8  UNL     1     -14.176  27.639  -3.032  1.00  0.00     0.189 HD
BRANCH  12  14
HETATM   14  C12 UNL     1     -14.389  27.163  -1.044  1.00  0.00     0.205 C 
HETATM   15  S1  UNL     1     -12.925  27.572  -0.313  1.00  0.00    -0.038 SA
BRANCH  14  16
HETATM   16  N9  UNL     1     -15.550  27.173  -0.256  1.00  0.00    -0.275 N 
ATOM     17  H9  UNL     1     -15.890  28.080   0.065  1.00  0.00     0.189 HD
BRANCH  16  18
HETATM   18  N10 UNL     1     -16.257  26.080   0.115  1.00  0.00    -0.307 N 
ATOM     19  H10 UNL     1     -17.277  26.087   0.132  1.00  0.00     0.186 HD
BRANCH  18  20
HETATM   20  C13 UNL     1     -15.526  24.934   0.475  1.00  0.00     0.140 C 
BRANCH  20  21
HETATM   21  C14 UNL     1     -16.274  23.697   0.112  1.00  0.00     0.101 A 
HETATM   22  N11 UNL     1     -17.389  23.640  -0.624  1.00  0.00    -0.348 N 
HETATM   23  C15 UNL     1     -17.715  22.334  -0.701  1.00  0.00     0.182 A 
ATOM     24  H11 UNL     1     -17.891  24.424  -1.041  1.00  0.00     0.167 HD
HETATM   25  N12 UNL     1     -16.821  21.595  -0.027  1.00  0.00    -0.332 N 
HETATM   26  C16 UNL     1     -15.885  22.432   0.506  1.00  0.00     0.203 A 
ATOM     27  H12 UNL     1     -16.838  20.580   0.070  1.00  0.00     0.168 HD
BRANCH  26  28
HETATM   28  N13 UNL     1     -14.767  22.038   1.291  1.00  0.00    -0.095 N 
HETATM   29  O3  UNL     1     -13.938  21.229   0.827  1.00  0.00    -0.530 OA
HETATM   30  O4  UNL     1     -14.554  22.515   2.552  1.00  0.00    -0.530 OA
ENDBRANCH  26  28
ENDBRANCH  20  21
ENDBRANCH  18  20
ENDBRANCH  16  18
ENDBRANCH  14  16
ENDBRANCH  12  14
ENDBRANCH  10  12
ENDBRANCH   5   8
BRANCH   1  31
HETATM   31  N5  UNL     1     -16.497  21.403  -6.515  1.00  0.00    -0.051 N 
HETATM   32  C2  UNL     1     -15.688  21.131  -7.612  1.00  0.00     0.171 A 
HETATM   33  C3  UNL     1     -16.412  20.446  -8.536  1.00  0.00     0.106 A 
HETATM   34  N3  UNL     1     -17.666  20.313  -7.986  1.00  0.00    -0.281 N 
HETATM   35  N4  UNL     1     -17.667  20.884  -6.811  1.00  0.00    -0.219 N 
ATOM     36  H3  UNL     1     -18.462  19.846  -8.423  1.00  0.00     0.188 HD
ATOM     37  H4  UNL     1     -18.480  20.923  -6.196  1.00  0.00     0.209 HD
BRANCH  32  38
HETATM   38  N1  UNL     1     -14.375  21.617  -7.669  1.00  0.00    -0.377 N 
HETATM   39  C1  UNL     1     -13.955  22.900  -8.152  1.00  0.00     0.148 C 
ATOM     40  H1  UNL     1     -13.642  20.993  -7.332  1.00  0.00     0.160 HD
ENDBRANCH  32  38
BRANCH  33  41
HETATM   41  C4  UNL     1     -16.068  19.921  -9.849  1.00  0.00    -0.002 A 
HETATM   42  C5  UNL     1     -16.789  18.849 -10.393  1.00  0.00     0.031 A 
HETATM   43  C6  UNL     1     -16.483  18.255 -11.589  1.00  0.00     0.088 A 
HETATM   44  N2  UNL     1     -15.434  18.719 -12.292  1.00  0.00    -0.375 N 
HETATM   45  C7  UNL     1     -14.708  19.749 -11.814  1.00  0.00     0.088 A 
ATOM     46  H2  UNL     1     -15.188  18.293 -13.185  1.00  0.00     0.164 HD
HETATM   47  C8  UNL     1     -15.000  20.357 -10.613  1.00  0.00     0.031 A 
ENDBRANCH  33  41
ENDBRANCH   1  31
TORSDOF 11
ENDMDL
MODEL 3
REMARK VINA RESULT: -7.530990679      2.400      4.693
REMARK  11 active torsions:
REMARK  status: ('A' for Active; 'I' for Inactive)
REMARK    1  A    between atoms: N1_2  and  C2_4 
REMARK    2  A    between atoms: C3_5  and  C4_6 
REMARK    3  A    between atoms: N5_17  and  C9_18 
REMARK    4  A    between atoms: C10_22  and  C11_23 
REMARK       I    between atoms: C11_23  and  N7_25 
REMARK    5  A    between atoms: N7_25  and  N8_27 
REMARK    6  A    between atoms: N8_27  and  C12_29 
REMARK    7  A    between atoms: C12_29  and  N9_31 
REMARK    8  A    between atoms: N9_31  and  N10_33 
REMARK    9  A    between atoms: N10_33  and  C13_35 
REMARK   10  A    between atoms: C13_35  and  C14_36 
REMARK   11  A    between atoms: C16_42  and  N13_43 
ROOT
HETATM    1  C9  UNL     1     -15.164  22.076  -5.874  1.00  0.00     0.729 A 
HETATM    2  N6  UNL     1     -14.384  21.632  -4.883  1.00  0.00    -0.087 N 
ATOM      3  H6  UNL     1     -13.715  20.865  -4.952  1.00  0.00     0.214 HD
HETATM    4  O1  UNL     1     -14.618  22.346  -3.802  1.00  0.00    -0.199 OA
HETATM    5  C10 UNL     1     -15.534  23.254  -4.043  1.00  0.00     0.255 A 
HETATM    6  N14 UNL     1     -15.876  23.082  -5.352  1.00  0.00    -0.159 N 
ATOM      7  H14 UNL     1     -16.570  23.635  -5.856  1.00  0.00     0.186 HD
ENDROOT
BRANCH   5   8
HETATM    8  C11 UNL     1     -16.074  24.239  -3.119  1.00  0.00     0.314 C 
HETATM    9  O2  UNL     1     -16.701  23.862  -2.107  1.00  0.00    -0.262 OA
HETATM   10  N7  UNL     1     -15.902  25.622  -3.348  1.00  0.00    -0.261 N 
ATOM     11  H7  UNL     1     -15.395  25.942  -4.174  1.00  0.00     0.190 HD
BRANCH  10  12
HETATM   12  N8  UNL     1     -16.417  26.543  -2.459  1.00  0.00    -0.272 N 
ATOM     13  H8  UNL     1     -17.248  27.045  -2.772  1.00  0.00     0.189 HD
BRANCH  12  14
HETATM   14  C12 UNL     1     -15.949  26.878  -1.189  1.00  0.00     0.205 C 
HETATM   15  S1  UNL     1     -14.750  28.064  -1.157  1.00  0.00    -0.038 SA
BRANCH  14  16
HETATM   16  N9  UNL     1     -16.377  26.333   0.032  1.00  0.00    -0.275 N 
ATOM     17  H9  UNL     1     -17.002  26.902   0.604  1.00  0.00     0.189 HD
BRANCH  16  18
HETATM   18  N10 UNL     1     -16.030  25.117   0.514  1.00  0.00    -0.307 N 
ATOM     19  H10 UNL     1     -16.735  24.425   0.769  1.00  0.00     0.186 HD
BRANCH  18  20
HETATM   20  C13 UNL     1     -14.656  24.848   0.650  1.00  0.00     0.140 C 
BRANCH  20  21
HETATM   21  C14 UNL     1     -14.417  23.383   0.778  1.00  0.00     0.101 A 
HETATM   22  N11 UNL     1     -14.876  22.437  -0.048  1.00  0.00    -0.348 N 
HETATM   23  C15 UNL     1     -14.421  21.266   0.442  1.00  0.00     0.182 A 
ATOM     24  H11 UNL     1     -15.452  22.572  -0.879  1.00  0.00     0.167 HD
HETATM   25  N12 UNL     1     -13.696  21.480   1.549  1.00  0.00    -0.332 N 
HETATM   26  C16 UNL     1     -13.671  22.822   1.795  1.00  0.00     0.203 A 
ATOM     27  H12 UNL     1     -13.240  20.762   2.112  1.00  0.00     0.168 HD
BRANCH  26  28
HETATM   28  N13 UNL     1     -13.005  23.457   2.879  1.00  0.00    -0.095 N 
HETATM   29  O3  UNL     1     -13.661  24.129   3.700  1.00  0.00    -0.530 OA
HETATM   30  O4  UNL     1     -11.657  23.362   3.065  1.00  0.00    -0.530 OA
ENDBRANCH  26  28
ENDBRANCH  20  21
ENDBRANCH  18  20
ENDBRANCH  16  18
ENDBRANCH  14  16
ENDBRANCH  12  14
ENDBRANCH  10  12
ENDBRANCH   5   8
BRANCH   1  31
HETATM   31  N5  UNL     1     -15.227  21.589  -7.208  1.00  0.00    -0.051 N 
HETATM   32  C2  UNL     1     -14.326  21.860  -8.231  1.00  0.00     0.171 A 
HETATM   33  C3  UNL     1     -14.722  21.204  -9.354  1.00  0.00     0.106 A 
HETATM   34  N3  UNL     1     -15.873  20.539  -8.998  1.00  0.00    -0.281 N 
HETATM   35  N4  UNL     1     -16.126  20.793  -7.741  1.00  0.00    -0.219 N 
ATOM     36  H3  UNL     1     -16.434  19.948  -9.611  1.00  0.00     0.188 HD
ATOM     37  H4  UNL     1     -16.928  20.418  -7.233  1.00  0.00     0.209 HD
BRANCH  32  38
HETATM   38  N1  UNL     1     -13.266  22.753  -8.031  1.00  0.00    -0.377 N 
HETATM   39  C1  UNL     1     -13.312  24.181  -8.153  1.00  0.00     0.148 C 
ATOM     40  H1  UNL     1     -12.367  22.346  -7.771  1.00  0.00     0.160 HD
ENDBRANCH  32  38
BRANCH  33  41
HETATM   41  C4  UNL     1     -14.157  21.138 -10.694  1.00  0.00    -0.002 A 
HETATM   42  C5  UNL     1     -14.965  20.788 -11.785  1.00  0.00     0.031 A 
HETATM   43  C6  UNL     1     -14.495  20.638 -13.063  1.00  0.00     0.088 A 
HETATM   44  N2  UNL     1     -13.184  20.835 -13.297  1.00  0.00    -0.375 N 
HETATM   45  C7  UNL     1     -12.364  21.173 -12.282  1.00  0.00     0.088 A 
ATOM     46  H2  UNL     1     -12.812  20.729 -14.240  1.00  0.00     0.164 HD
HETATM   47  C8  UNL     1     -12.820  21.327 -10.992  1.00  0.00     0.031 A 
ENDBRANCH  33  41
ENDBRANCH   1  31
TORSDOF 11
ENDMDL
MODEL 4
REMARK VINA RESULT: -7.521713404      2.446      4.417
REMARK  11 active torsions:
REMARK  status: ('A' for Active; 'I' for Inactive)
REMARK    1  A    between atoms: N1_2  and  C2_4 
REMARK    2  A    between atoms: C3_5  and  C4_6 
REMARK    3  A    between atoms: N5_17  and  C9_18 
REMARK    4  A    between atoms: C10_22  and  C11_23 
REMARK       I    between atoms: C11_23  and  N7_25 
REMARK    5  A    between atoms: N7_25  and  N8_27 
REMARK    6  A    between atoms: N8_27  and  C12_29 
REMARK    7  A    between atoms: C12_29  and  N9_31 
REMARK    8  A    between atoms: N9_31  and  N10_33 
REMARK    9  A    between atoms: N10_33  and  C13_35 
REMARK   10  A    between atoms: C13_35  and  C14_36 
REMARK   11  A    between atoms: C16_42  and  N13_43 
ROOT
HETATM    1  C9  UNL     1     -15.160  21.950  -5.242  1.00  0.00     0.729 A 
HETATM    2  N6  UNL     1     -14.391  21.245  -4.405  1.00  0.00    -0.087 N 
ATOM      3  H6  UNL     1     -14.191  20.248  -4.480  1.00  0.00     0.214 HD
HETATM    4  O1  UNL     1     -13.934  22.048  -3.467  1.00  0.00    -0.199 OA
HETATM    5  C10 UNL     1     -14.377  23.269  -3.654  1.00  0.00     0.255 A 
HETATM    6  N14 UNL     1     -15.150  23.204  -4.776  1.00  0.00    -0.159 N 
ATOM      7  H14 UNL     1     -15.646  23.991  -5.195  1.00  0.00     0.186 HD
ENDROOT
BRANCH   5   8
HETATM    8  C11 UNL     1     -14.106  24.447  -2.845  1.00  0.00     0.314 C 
HETATM    9  O2  UNL     1     -13.064  24.503  -2.160  1.00  0.00    -0.262 OA
HETATM   10  N7  UNL     1     -15.007  25.535  -2.820  1.00  0.00    -0.261 N 
ATOM     11  H7  UNL     1     -15.864  25.498  -3.374  1.00  0.00     0.190 HD
BRANCH  10  12
HETATM   12  N8  UNL     1     -14.733  26.647  -2.051  1.00  0.00    -0.272 N 
ATOM     13  H8  UNL     1     -13.962  27.231  -2.374  1.00  0.00     0.189 HD
BRANCH  12  14
HETATM   14  C12 UNL     1     -15.373  27.076  -0.888  1.00  0.00     0.205 C 
HETATM   15  S1  UNL     1     -15.066  28.676  -0.452  1.00  0.00    -0.038 SA
BRANCH  14  16
HETATM   16  N9  UNL     1     -16.229  26.318  -0.074  1.00  0.00    -0.275 N 
ATOM     17  H9  UNL     1     -17.232  26.473  -0.179  1.00  0.00     0.189 HD
BRANCH  16  18
HETATM   18  N10 UNL     1     -15.835  25.399   0.839  1.00  0.00    -0.307 N 
ATOM     19  H10 UNL     1     -16.500  24.971   1.482  1.00  0.00     0.186 HD
BRANCH  18  20
HETATM   20  C13 UNL     1     -14.470  25.061   0.861  1.00  0.00     0.140 C 
BRANCH  20  21
HETATM   21  C14 UNL     1     -14.296  23.584   0.948  1.00  0.00     0.101 A 
HETATM   22  N11 UNL     1     -14.780  22.683   0.086  1.00  0.00    -0.348 N 
HETATM   23  C15 UNL     1     -14.384  21.480   0.548  1.00  0.00     0.182 A 
ATOM     24  H11 UNL     1     -15.334  22.868  -0.750  1.00  0.00     0.167 HD
HETATM   25  N12 UNL     1     -13.671  21.629   1.673  1.00  0.00    -0.332 N 
HETATM   26  C16 UNL     1     -13.593  22.961   1.960  1.00  0.00     0.203 A 
ATOM     27  H12 UNL     1     -13.256  20.876   2.221  1.00  0.00     0.168 HD
BRANCH  26  28
HETATM   28  N13 UNL     1     -12.920  23.534   3.074  1.00  0.00    -0.095 N 
HETATM   29  O3  UNL     1     -13.533  24.311   3.834  1.00  0.00    -0.530 OA
HETATM   30  O4  UNL     1     -11.612  23.268   3.354  1.00  0.00    -0.530 OA
ENDBRANCH  26  28
ENDBRANCH  20  21
ENDBRANCH  18  20
ENDBRANCH  16  18
ENDBRANCH  14  16
ENDBRANCH  12  14
ENDBRANCH  10  12
ENDBRANCH   5   8
BRANCH   1  31
HETATM   31  N5  UNL     1     -15.845  21.473  -6.393  1.00  0.00    -0.051 N 
HETATM   32  C2  UNL     1     -15.285  21.191  -7.633  1.00  0.00     0.171 A 
HETATM   33  C3  UNL     1     -16.261  20.748  -8.469  1.00  0.00     0.106 A 
HETATM   34  N3  UNL     1     -17.415  20.772  -7.722  1.00  0.00    -0.281 N 
HETATM   35  N4  UNL     1     -17.124  21.200  -6.521  1.00  0.00    -0.219 N 
ATOM     36  H3  UNL     1     -18.343  20.501  -8.049  1.00  0.00     0.188 HD
ATOM     37  H4  UNL     1     -17.809  21.308  -5.773  1.00  0.00     0.209 HD
BRANCH  32  38
HETATM   38  N1  UNL     1     -13.929  21.447  -7.878  1.00  0.00    -0.377 N 
HETATM   39  C1  UNL     1     -13.368  22.649  -8.421  1.00  0.00     0.148 C 
ATOM     40  H1  UNL     1     -13.274  20.700  -7.647  1.00  0.00     0.160 HD
ENDBRANCH  32  38
BRANCH  33  41
HETATM   41  C4  UNL     1     -16.232  20.323  -9.861  1.00  0.00    -0.002 A 
HETATM   42  C5  UNL     1     -16.629  19.024 -10.212  1.00  0.00     0.031 A 
HETATM   43  C6  UNL     1     -16.565  18.527 -11.486  1.00  0.00     0.088 A 
HETATM   44  N2  UNL     1     -16.097  19.321 -12.467  1.00  0.00    -0.375 N 
HETATM   45  C7  UNL     1     -15.702  20.577 -12.183  1.00  0.00     0.088 A 
ATOM     46  H2  UNL     1     -16.041  18.972 -13.423  1.00  0.00     0.164 HD
HETATM   47  C8  UNL     1     -15.759  21.093 -10.907  1.00  0.00     0.031 A 
ENDBRANCH  33  41
ENDBRANCH   1  31
TORSDOF 11
ENDMDL
MODEL 5
REMARK VINA RESULT: -7.487683218      2.274      3.928
REMARK  11 active torsions:
REMARK  status: ('A' for Active; 'I' for Inactive)
REMARK    1  A    between atoms: N1_2  and  C2_4 
REMARK    2  A    between atoms: C3_5  and  C4_6 
REMARK    3  A    between atoms: N5_17  and  C9_18 
REMARK    4  A    between atoms: C10_22  and  C11_23 
REMARK       I    between atoms: C11_23  and  N7_25 
REMARK    5  A    between atoms: N7_25  and  N8_27 
REMARK    6  A    between atoms: N8_27  and  C12_29 
REMARK    7  A    between atoms: C12_29  and  N9_31 
REMARK    8  A    between atoms: N9_31  and  N10_33 
REMARK    9  A    between atoms: N10_33  and  C13_35 
REMARK   10  A    between atoms: C13_35  and  C14_36 
REMARK   11  A    between atoms: C16_42  and  N13_43 
ROOT
HETATM    1  C9  UNL     1     -15.119  22.006  -5.043  1.00  0.00     0.729 A 
HETATM    2  N6  UNL     1     -14.404  21.288  -4.170  1.00  0.00    -0.087 N 
ATOM      3  H6  UNL     1     -14.265  20.279  -4.206  1.00  0.00     0.214 HD
HETATM    4  O1  UNL     1     -13.908  22.096  -3.257  1.00  0.00    -0.199 OA
HETATM    5  C10 UNL     1     -14.272  23.334  -3.495  1.00  0.00     0.255 A 
HETATM    6  N14 UNL     1     -15.036  23.274  -4.623  1.00  0.00    -0.159 N 
ATOM      7  H14 UNL     1     -15.478  24.074  -5.077  1.00  0.00     0.186 HD
ENDROOT
BRANCH   5   8
HETATM    8  C11 UNL     1     -13.939  24.523  -2.726  1.00  0.00     0.314 C 
HETATM    9  O2  UNL     1     -12.932  24.522  -1.987  1.00  0.00    -0.262 OA
HETATM   10  N7  UNL     1     -14.738  25.686  -2.801  1.00  0.00    -0.261 N 
ATOM     11  H7  UNL     1     -15.564  25.697  -3.399  1.00  0.00     0.190 HD
BRANCH  10  12
HETATM   12  N8  UNL     1     -14.404  26.806  -2.069  1.00  0.00    -0.272 N 
ATOM     13  H8  UNL     1     -13.749  27.448  -2.514  1.00  0.00     0.189 HD
BRANCH  12  14
HETATM   14  C12 UNL     1     -14.846  27.175  -0.798  1.00  0.00     0.205 C 
HETATM   15  S1  UNL     1     -13.699  27.959   0.159  1.00  0.00    -0.038 SA
BRANCH  14  16
HETATM   16  N9  UNL     1     -16.125  26.961  -0.261  1.00  0.00    -0.275 N 
ATOM     17  H9  UNL     1     -16.721  27.779  -0.133  1.00  0.00     0.189 HD
BRANCH  16  18
HETATM   18  N10 UNL     1     -16.633  25.760   0.103  1.00  0.00    -0.307 N 
ATOM     19  H10 UNL     1     -17.639  25.594   0.124  1.00  0.00     0.186 HD
BRANCH  18  20
HETATM   20  C13 UNL     1     -15.716  24.753   0.450  1.00  0.00     0.140 C 
BRANCH  20  21
HETATM   21  C14 UNL     1     -16.136  23.441  -0.117  1.00  0.00     0.101 A 
HETATM   22  N11 UNL     1     -17.026  23.257  -1.097  1.00  0.00    -0.348 N 
HETATM   23  C15 UNL     1     -17.095  21.923  -1.288  1.00  0.00     0.182 A 
ATOM     24  H11 UNL     1     -17.546  23.977  -1.598  1.00  0.00     0.167 HD
HETATM   25  N12 UNL     1     -16.267  21.293  -0.444  1.00  0.00    -0.332 N 
HETATM   26  C16 UNL     1     -15.636  22.231   0.321  1.00  0.00     0.203 A 
ATOM     27  H12 UNL     1     -16.130  20.284  -0.383  1.00  0.00     0.168 HD
BRANCH  26  28
HETATM   28  N13 UNL     1     -14.677  21.967   1.337  1.00  0.00    -0.095 N 
HETATM   29  O3  UNL     1     -13.728  21.191   1.107  1.00  0.00    -0.530 OA
HETATM   30  O4  UNL     1     -14.748  22.537   2.575  1.00  0.00    -0.530 OA
ENDBRANCH  26  28
ENDBRANCH  20  21
ENDBRANCH  18  20
ENDBRANCH  16  18
ENDBRANCH  14  16
ENDBRANCH  12  14
ENDBRANCH  10  12
ENDBRANCH   5   8
BRANCH   1  31
HETATM   31  N5  UNL     1     -15.819  21.530  -6.185  1.00  0.00    -0.051 N 
HETATM   32  C2  UNL     1     -15.280  21.271  -7.439  1.00  0.00     0.171 A 
HETATM   33  C3  UNL     1     -16.265  20.820  -8.260  1.00  0.00     0.106 A 
HETATM   34  N3  UNL     1     -17.404  20.814  -7.488  1.00  0.00    -0.281 N 
HETATM   35  N4  UNL     1     -17.095  21.235  -6.289  1.00  0.00    -0.219 N 
ATOM     36  H3  UNL     1     -18.334  20.530  -7.799  1.00  0.00     0.188 HD
ATOM     37  H4  UNL     1     -17.766  21.322  -5.525  1.00  0.00     0.209 HD
BRANCH  32  38
HETATM   38  N1  UNL     1     -13.935  21.554  -7.710  1.00  0.00    -0.377 N 
HETATM   39  C1  UNL     1     -13.411  22.757  -8.290  1.00  0.00     0.148 C 
ATOM     40  H1  UNL     1     -13.258  20.830  -7.470  1.00  0.00     0.160 HD
ENDBRANCH  32  38
BRANCH  33  41
HETATM   41  C4  UNL     1     -16.258  20.410  -9.656  1.00  0.00    -0.002 A 
HETATM   42  C5  UNL     1     -16.606  19.098 -10.010  1.00  0.00     0.031 A 
HETATM   43  C6  UNL     1     -16.557  18.617 -11.291  1.00  0.00     0.088 A 
HETATM   44  N2  UNL     1     -16.155  19.441 -12.276  1.00  0.00    -0.375 N 
HETATM   45  C7  UNL     1     -15.809  20.711 -11.990  1.00  0.00     0.088 A 
ATOM     46  H2  UNL     1     -16.111  19.104 -13.238  1.00  0.00     0.164 HD
HETATM   47  C8  UNL     1     -15.851  21.211 -10.707  1.00  0.00     0.031 A 
ENDBRANCH  33  41
ENDBRANCH   1  31
TORSDOF 11
ENDMDL
