MODEL 1
REMARK VINA RESULT: -7.629571496      0.000      0.000
REMARK  11 active torsions:
REMARK  status: ('A' for Active; 'I' for Inactive)
REMARK    1  A    between atoms: C3_3  and  C4_4 
REMARK    2  A    between atoms: C4_4  and  N1_5 
REMARK    3  A    between atoms: N1_5  and  C5_7 
REMARK    4  A    between atoms: C5_7  and  C6_8 
REMARK    5  A    between atoms: C11_16  and  N3_17 
REMARK    6  A    between atoms: C12_20  and  N4_21 
REMARK       I    between atoms: N4_21  and  C13_23 
REMARK    7  A    between atoms: C13_23  and  C14_25 
REMARK    8  A    between atoms: N6_28  and  C15_29 
REMARK    9  A    between atoms: C16_35  and  N9_36 
REMARK   10  A    between atoms: C17_41  and  C18_42 
REMARK   11  A    between atoms: C18_42  and  O4_45 
ROOT
HETATM    1  C1  UNL     1     -15.971  27.881  -3.721  1.00  0.00     0.012 C 
HETATM    2  C2  UNL     1     -16.100  28.124  -2.550  1.00  0.00    -0.116 C 
HETATM    3  C3  UNL     1     -16.243  28.445  -1.110  1.00  0.00     0.112 C 
ENDROOT
BRANCH   3   4
HETATM    4  C4  UNL     1     -14.861  28.570  -0.557  1.00  0.00     0.126 C 
BRANCH   4   5
HETATM    5  N1  UNL     1     -14.536  27.642   0.471  1.00  0.00    -0.418 N 
ATOM      6  H1  UNL     1     -14.979  27.676   1.389  1.00  0.00     0.153 HD
BRANCH   5   7
HETATM    7  C5  UNL     1     -13.553  26.660   0.144  1.00  0.00     0.145 C 
BRANCH   7   8
HETATM    8  C6  UNL     1     -14.250  25.314  -0.022  1.00  0.00     0.139 C 
HETATM    9  C7  UNL     1     -14.339  24.890  -1.454  1.00  0.00     0.038 C 
HETATM   10  C8  UNL     1     -15.556  23.986  -1.694  1.00  0.00     0.046 C 
HETATM   11  C9  UNL     1     -15.329  22.681  -1.027  1.00  0.00    -0.000 A 
HETATM   12  C10 UNL     1     -14.827  22.441   0.230  1.00  0.00     0.065 A 
HETATM   13  C12 UNL     1     -15.686  21.630  -1.837  1.00  0.00     0.097 A 
HETATM   14  N2  UNL     1     -14.700  21.167   0.634  1.00  0.00    -0.261 N 
HETATM   15  C21 UNL     1     -14.385  23.430   1.253  1.00  0.00     0.227 C 
HETATM   16  O1  UNL     1     -15.035  20.174  -0.124  1.00  0.00    -0.218 OA
ATOM     17  H2  UNL     1     -14.330  20.977   1.565  1.00  0.00     0.194 HD
HETATM   18  C11 UNL     1     -15.516  20.356  -1.325  1.00  0.00     0.191 A 
HETATM   19  O5  UNL     1     -13.512  24.374   0.680  1.00  0.00    -0.378 OA
BRANCH  18  20
HETATM   20  N3  UNL     1     -15.837  19.359  -2.050  1.00  0.00    -0.376 N 
ATOM     21  H32 UNL     1     -15.857  18.433  -1.625  1.00  0.00     0.158 HD
ATOM     22  H31 UNL     1     -16.070  19.489  -3.034  1.00  0.00     0.158 HD
ENDBRANCH  18  20
BRANCH  13  23
HETATM   23  N4  UNL     1     -16.204  21.871  -3.127  1.00  0.00    -0.317 N 
HETATM   24  C13 UNL     1     -15.395  21.648  -4.291  1.00  0.00     0.276 C 
HETATM   25  O2  UNL     1     -14.233  21.235  -4.091  1.00  0.00    -0.266 OA
ATOM     26  H4  UNL     1     -17.161  22.208  -3.234  1.00  0.00     0.169 HD
BRANCH  24  27
HETATM   27  C14 UNL     1     -15.920  21.896  -5.611  1.00  0.00     0.145 A 
HETATM   28  N5  UNL     1     -16.950  21.235  -6.171  1.00  0.00    -0.271 N 
HETATM   29  N6  UNL     1     -17.176  21.715  -7.389  1.00  0.00    -0.173 N 
ATOM     30  H5  UNL     1     -17.476  20.481  -5.729  1.00  0.00     0.189 HD
HETATM   31  N10 UNL     1     -16.313  22.662  -7.607  1.00  0.00    -0.276 N 
HETATM   32  C17 UNL     1     -15.502  22.817  -6.527  1.00  0.00     0.095 A 
ATOM     33  H10 UNL     1     -16.252  23.210  -8.464  1.00  0.00     0.189 HD
BRANCH  29  34
HETATM   34  C15 UNL     1     -18.171  21.304  -8.329  1.00  0.00     0.212 A 
HETATM   35  N7  UNL     1     -19.279  21.950  -8.728  1.00  0.00    -0.219 N 
HETATM   36  O3  UNL     1     -19.907  21.230  -9.591  1.00  0.00    -0.153 OA
ATOM     37  H7  UNL     1     -19.576  22.868  -8.399  1.00  0.00     0.198 HD
HETATM   38  N8  UNL     1     -19.305  20.118  -9.819  1.00  0.00    -0.222 N 
HETATM   39  C16 UNL     1     -18.186  20.109  -9.039  1.00  0.00     0.171 A 
ATOM     40  H8  UNL     1     -19.605  19.383 -10.459  1.00  0.00     0.198 HD
BRANCH  39  41
HETATM   41  N9  UNL     1     -17.328  19.160  -8.991  1.00  0.00    -0.381 N 
ATOM     42  H92 UNL     1     -17.547  18.166  -9.055  1.00  0.00     0.157 HD
ATOM     43  H91 UNL     1     -16.317  19.240  -8.884  1.00  0.00     0.157 HD
ENDBRANCH  39  41
ENDBRANCH  29  34
BRANCH  32  44
HETATM   44  C18 UNL     1     -14.421  23.803  -6.463  1.00  0.00     0.097 C 
HETATM   45  C19 UNL     1     -14.717  24.753  -5.286  1.00  0.00     0.052 C 
HETATM   46  C20 UNL     1     -14.241  24.640  -7.679  1.00  0.00     0.052 C 
BRANCH  44  47
HETATM   47  O4  UNL     1     -13.239  23.111  -6.166  1.00  0.00    -0.384 OA
ATOM     48  H4  UNL     1     -13.377  22.200  -6.398  1.00  0.00     0.211 HD
ENDBRANCH  44  47
ENDBRANCH  32  44
ENDBRANCH  24  27
ENDBRANCH  13  23
ENDBRANCH   7   8
ENDBRANCH   5   7
ENDBRANCH   4   5
ENDBRANCH   3   4
TORSDOF 11
ENDMDL
MODEL 2
REMARK VINA RESULT: -7.506246878      3.027      9.164
REMARK  11 active torsions:
REMARK  status: ('A' for Active; 'I' for Inactive)
REMARK    1  A    between atoms: C3_3  and  C4_4 
REMARK    2  A    between atoms: C4_4  and  N1_5 
REMARK    3  A    between atoms: N1_5  and  C5_7 
REMARK    4  A    between atoms: C5_7  and  C6_8 
REMARK    5  A    between atoms: C11_16  and  N3_17 
REMARK    6  A    between atoms: C12_20  and  N4_21 
REMARK       I    between atoms: N4_21  and  C13_23 
REMARK    7  A    between atoms: C13_23  and  C14_25 
REMARK    8  A    between atoms: N6_28  and  C15_29 
REMARK    9  A    between atoms: C16_35  and  N9_36 
REMARK   10  A    between atoms: C17_41  and  C18_42 
REMARK   11  A    between atoms: C18_42  and  O4_45 
ROOT
HETATM    1  C1  UNL     1     -18.078  19.939  -7.797  1.00  0.00     0.012 C 
HETATM    2  C2  UNL     1     -17.084  20.126  -8.450  1.00  0.00    -0.116 C 
HETATM    3  C3  UNL     1     -15.846  20.347  -9.233  1.00  0.00     0.112 C 
ENDROOT
BRANCH   3   4
HETATM    4  C4  UNL     1     -14.949  21.195  -8.392  1.00  0.00     0.126 C 
BRANCH   4   5
HETATM    5  N1  UNL     1     -13.780  21.672  -9.048  1.00  0.00    -0.418 N 
ATOM      6  H1  UNL     1     -13.385  21.197  -9.860  1.00  0.00     0.153 HD
BRANCH   5   7
HETATM    7  C5  UNL     1     -13.190  22.852  -8.505  1.00  0.00     0.145 C 
BRANCH   7   8
HETATM    8  C6  UNL     1     -14.146  23.442  -7.473  1.00  0.00     0.139 C 
HETATM    9  C7  UNL     1     -13.482  23.690  -6.156  1.00  0.00     0.038 C 
HETATM   10  C8  UNL     1     -14.487  23.606  -4.999  1.00  0.00     0.046 C 
HETATM   11  C9  UNL     1     -15.409  24.766  -5.074  1.00  0.00    -0.000 A 
HETATM   12  C10 UNL     1     -16.035  25.288  -6.181  1.00  0.00     0.065 A 
HETATM   13  C12 UNL     1     -15.607  25.335  -3.839  1.00  0.00     0.097 A 
HETATM   14  N2  UNL     1     -16.833  26.356  -6.019  1.00  0.00    -0.261 N 
HETATM   15  C21 UNL     1     -15.954  24.824  -7.594  1.00  0.00     0.227 C 
HETATM   16  O1  UNL     1     -17.022  26.895  -4.859  1.00  0.00    -0.218 OA
ATOM     17  H2  UNL     1     -17.303  26.752  -6.832  1.00  0.00     0.194 HD
HETATM   18  C11 UNL     1     -16.449  26.432  -3.781  1.00  0.00     0.191 A 
HETATM   19  O5  UNL     1     -14.611  24.646  -7.977  1.00  0.00    -0.378 OA
BRANCH  18  20
HETATM   20  N3  UNL     1     -16.653  26.983  -2.651  1.00  0.00    -0.376 N 
ATOM     21  H32 UNL     1     -15.850  27.203  -2.063  1.00  0.00     0.158 HD
ATOM     22  H31 UNL     1     -17.602  27.199  -2.345  1.00  0.00     0.158 HD
ENDBRANCH  18  20
BRANCH  13  23
HETATM   23  N4  UNL     1     -14.969  24.800  -2.700  1.00  0.00    -0.317 N 
HETATM   24  C13 UNL     1     -15.713  24.045  -1.734  1.00  0.00     0.276 C 
HETATM   25  O2  UNL     1     -16.932  23.895  -1.963  1.00  0.00    -0.266 OA
ATOM     26  H4  UNL     1     -13.970  24.953  -2.562  1.00  0.00     0.169 HD
BRANCH  24  27
HETATM   27  C14 UNL     1     -15.064  23.499  -0.568  1.00  0.00     0.145 A 
HETATM   28  N5  UNL     1     -14.369  24.212   0.337  1.00  0.00    -0.271 N 
HETATM   29  N6  UNL     1     -13.909  23.402   1.284  1.00  0.00    -0.173 N 
ATOM     30  H5  UNL     1     -14.218  25.221   0.302  1.00  0.00     0.189 HD
HETATM   31  N10 UNL     1     -14.299  22.196   0.995  1.00  0.00    -0.276 N 
HETATM   32  C17 UNL     1     -15.025  22.199  -0.154  1.00  0.00     0.095 A 
ATOM     33  H10 UNL     1     -14.091  21.367   1.551  1.00  0.00     0.189 HD
BRANCH  29  34
HETATM   34  C15 UNL     1     -13.126  23.739   2.430  1.00  0.00     0.212 A 
HETATM   35  N7  UNL     1     -12.300  22.963   3.152  1.00  0.00    -0.219 N 
HETATM   36  O3  UNL     1     -11.786  23.657   4.107  1.00  0.00    -0.153 OA
ATOM     37  H7  UNL     1     -12.110  21.978   2.971  1.00  0.00     0.198 HD
HETATM   38  N8  UNL     1     -12.203  24.873   4.097  1.00  0.00    -0.222 N 
HETATM   39  C16 UNL     1     -13.064  24.985   3.045  1.00  0.00     0.171 A 
ATOM     40  H8  UNL     1     -11.942  25.611   4.750  1.00  0.00     0.198 HD
BRANCH  39  41
HETATM   41  N9  UNL     1     -13.685  26.053   2.711  1.00  0.00    -0.381 N 
ATOM     42  H92 UNL     1     -14.689  26.122   2.549  1.00  0.00     0.157 HD
ATOM     43  H91 UNL     1     -13.290  26.980   2.556  1.00  0.00     0.157 HD
ENDBRANCH  39  41
ENDBRANCH  29  34
BRANCH  32  44
HETATM   44  C18 UNL     1     -15.603  20.992  -0.748  1.00  0.00     0.097 C 
HETATM   45  C19 UNL     1     -14.873  20.723  -2.077  1.00  0.00     0.052 C 
HETATM   46  C20 UNL     1     -17.060  21.053  -1.041  1.00  0.00     0.052 C 
BRANCH  44  47
HETATM   47  O4  UNL     1     -15.324  19.925   0.116  1.00  0.00    -0.384 OA
ATOM     48  H4  UNL     1     -16.066  19.832   0.703  1.00  0.00     0.211 HD
ENDBRANCH  44  47
ENDBRANCH  32  44
ENDBRANCH  24  27
ENDBRANCH  13  23
ENDBRANCH   7   8
ENDBRANCH   5   7
ENDBRANCH   4   5
ENDBRANCH   3   4
TORSDOF 11
ENDMDL
MODEL 3
REMARK VINA RESULT: -7.476497109      1.264      2.372
REMARK  11 active torsions:
REMARK  status: ('A' for Active; 'I' for Inactive)
REMARK    1  A    between atoms: C3_3  and  C4_4 
REMARK    2  A    between atoms: C4_4  and  N1_5 
REMARK    3  A    between atoms: N1_5  and  C5_7 
REMARK    4  A    between atoms: C5_7  and  C6_8 
REMARK    5  A    between atoms: C11_16  and  N3_17 
REMARK    6  A    between atoms: C12_20  and  N4_21 
REMARK       I    between atoms: N4_21  and  C13_23 
REMARK    7  A    between atoms: C13_23  and  C14_25 
REMARK    8  A    between atoms: N6_28  and  C15_29 
REMARK    9  A    between atoms: C16_35  and  N9_36 
REMARK   10  A    between atoms: C17_41  and  C18_42 
REMARK   11  A    between atoms: C18_42  and  O4_45 
ROOT
HETATM    1  C1  UNL     1     -13.210  25.361   4.341  1.00  0.00     0.012 C 
HETATM    2  C2  UNL     1     -12.610  26.032   3.542  1.00  0.00    -0.116 C 
HETATM    3  C3  UNL     1     -11.880  26.879   2.570  1.00  0.00     0.112 C 
ENDROOT
BRANCH   3   4
HETATM    4  C4  UNL     1     -12.877  27.831   1.993  1.00  0.00     0.126 C 
BRANCH   4   5
HETATM    5  N1  UNL     1     -13.951  27.225   1.284  1.00  0.00    -0.418 N 
ATOM      6  H1  UNL     1     -14.893  27.176   1.671  1.00  0.00     0.153 HD
BRANCH   5   7
HETATM    7  C5  UNL     1     -13.634  26.688   0.000  1.00  0.00     0.145 C 
BRANCH   7   8
HETATM    8  C6  UNL     1     -14.320  25.333  -0.142  1.00  0.00     0.139 C 
HETATM    9  C7  UNL     1     -14.472  24.917  -1.570  1.00  0.00     0.038 C 
HETATM   10  C8  UNL     1     -15.687  23.997  -1.757  1.00  0.00     0.046 C 
HETATM   11  C9  UNL     1     -15.410  22.692  -1.110  1.00  0.00    -0.000 A 
HETATM   12  C10 UNL     1     -14.845  22.451   0.119  1.00  0.00     0.065 A 
HETATM   13  C12 UNL     1     -15.792  21.641  -1.909  1.00  0.00     0.097 A 
HETATM   14  N2  UNL     1     -14.681  21.177   0.508  1.00  0.00    -0.261 N 
HETATM   15  C21 UNL     1     -14.367  23.440   1.126  1.00  0.00     0.227 C 
HETATM   16  O1  UNL     1     -15.039  20.184  -0.240  1.00  0.00    -0.218 OA
ATOM     17  H2  UNL     1     -14.263  20.986   1.419  1.00  0.00     0.194 HD
HETATM   18  C11 UNL     1     -15.579  20.366  -1.415  1.00  0.00     0.191 A 
HETATM   19  O5  UNL     1     -13.536  24.400   0.518  1.00  0.00    -0.378 OA
BRANCH  18  20
HETATM   20  N3  UNL     1     -15.922  19.370  -2.130  1.00  0.00    -0.376 N 
ATOM     21  H32 UNL     1     -15.402  19.182  -2.987  1.00  0.00     0.158 HD
ATOM     22  H31 UNL     1     -16.701  18.774  -1.849  1.00  0.00     0.158 HD
ENDBRANCH  18  20
BRANCH  13  23
HETATM   23  N4  UNL     1     -16.374  21.883  -3.172  1.00  0.00    -0.317 N 
HETATM   24  C13 UNL     1     -15.614  21.697  -4.374  1.00  0.00     0.276 C 
HETATM   25  O2  UNL     1     -14.432  21.314  -4.232  1.00  0.00    -0.266 OA
ATOM     26  H4  UNL     1     -17.344  22.193  -3.230  1.00  0.00     0.169 HD
BRANCH  24  27
HETATM   27  C14 UNL     1     -16.206  21.945  -5.665  1.00  0.00     0.145 A 
HETATM   28  N5  UNL     1     -17.195  21.219  -6.216  1.00  0.00    -0.271 N 
HETATM   29  N6  UNL     1     -17.505  21.721  -7.406  1.00  0.00    -0.173 N 
ATOM     30  H5  UNL     1     -17.640  20.408  -5.785  1.00  0.00     0.189 HD
HETATM   31  N10 UNL     1     -16.734  22.745  -7.616  1.00  0.00    -0.276 N 
HETATM   32  C17 UNL     1     -15.900  22.931  -6.558  1.00  0.00     0.095 A 
ATOM     33  H10 UNL     1     -16.751  23.327  -8.453  1.00  0.00     0.189 HD
BRANCH  29  34
HETATM   34  C15 UNL     1     -18.496  21.259  -8.327  1.00  0.00     0.212 A 
HETATM   35  N7  UNL     1     -19.689  21.797  -8.630  1.00  0.00    -0.219 N 
HETATM   36  O3  UNL     1     -20.276  21.068  -9.513  1.00  0.00    -0.153 OA
ATOM     37  H7  UNL     1     -20.071  22.651  -8.222  1.00  0.00     0.198 HD
HETATM   38  N8  UNL     1     -19.565  20.051  -9.847  1.00  0.00    -0.222 N 
HETATM   39  C16 UNL     1     -18.413  20.121  -9.120  1.00  0.00     0.171 A 
ATOM     40  H8  UNL     1     -19.813  19.330 -10.524  1.00  0.00     0.198 HD
BRANCH  39  41
HETATM   41  N9  UNL     1     -17.452  19.278  -9.179  1.00  0.00    -0.381 N 
ATOM     42  H92 UNL     1     -16.547  19.384  -8.721  1.00  0.00     0.157 HD
ATOM     43  H91 UNL     1     -17.433  18.389  -9.679  1.00  0.00     0.157 HD
ENDBRANCH  39  41
ENDBRANCH  29  34
BRANCH  32  44
HETATM   44  C18 UNL     1     -14.905  24.003  -6.492  1.00  0.00     0.097 C 
HETATM   45  C19 UNL     1     -13.518  23.376  -6.734  1.00  0.00     0.052 C 
HETATM   46  C20 UNL     1     -14.843  24.745  -5.204  1.00  0.00     0.052 C 
BRANCH  44  47
HETATM   47  O4  UNL     1     -15.166  24.883  -7.550  1.00  0.00    -0.384 OA
ATOM     48  H4  UNL     1     -14.364  25.360  -7.728  1.00  0.00     0.211 HD
ENDBRANCH  44  47
ENDBRANCH  32  44
ENDBRANCH  24  27
ENDBRANCH  13  23
ENDBRANCH   7   8
ENDBRANCH   5   7
ENDBRANCH   4   5
ENDBRANCH   3   4
TORSDOF 11
ENDMDL
MODEL 4
REMARK VINA RESULT: -7.469244328      2.788      9.245
REMARK  11 active torsions:
REMARK  status: ('A' for Active; 'I' for Inactive)
REMARK    1  A    between atoms: C3_3  and  C4_4 
REMARK    2  A    between atoms: C4_4  and  N1_5 
REMARK    3  A    between atoms: N1_5  and  C5_7 
REMARK    4  A    between atoms: C5_7  and  C6_8 
REMARK    5  A    between atoms: C11_16  and  N3_17 
REMARK    6  A    between atoms: C12_20  and  N4_21 
REMARK       I    between atoms: N4_21  and  C13_23 
REMARK    7  A    between atoms: C13_23  and  C14_25 
REMARK    8  A    between atoms: N6_28  and  C15_29 
REMARK    9  A    between atoms: C16_35  and  N9_36 
REMARK   10  A    between atoms: C17_41  and  C18_42 
REMARK   11  A    between atoms: C18_42  and  O4_45 
ROOT
HETATM    1  C1  UNL     1     -16.956  21.223  -4.976  1.00  0.00     0.012 C 
HETATM    2  C2  UNL     1     -17.022  21.164  -6.176  1.00  0.00    -0.116 C 
HETATM    3  C3  UNL     1     -17.092  21.066  -7.653  1.00  0.00     0.112 C 
ENDROOT
BRANCH   3   4
HETATM    4  C4  UNL     1     -15.716  20.732  -8.130  1.00  0.00     0.126 C 
BRANCH   4   5
HETATM    5  N1  UNL     1     -15.085  21.743  -8.906  1.00  0.00    -0.418 N 
ATOM      6  H1  UNL     1     -15.437  22.017  -9.824  1.00  0.00     0.153 HD
BRANCH   5   7
HETATM    7  C5  UNL     1     -13.930  22.351  -8.330  1.00  0.00     0.145 C 
BRANCH   7   8
HETATM    8  C6  UNL     1     -14.387  23.411  -7.333  1.00  0.00     0.139 C 
HETATM    9  C7  UNL     1     -13.554  23.424  -6.091  1.00  0.00     0.038 C 
HETATM   10  C8  UNL     1     -14.357  23.929  -4.884  1.00  0.00     0.046 C 
HETATM   11  C9  UNL     1     -14.631  25.376  -5.056  1.00  0.00    -0.000 A 
HETATM   12  C10 UNL     1     -15.048  26.037  -6.187  1.00  0.00     0.065 A 
HETATM   13  C12 UNL     1     -14.412  26.074  -3.893  1.00  0.00     0.097 A 
HETATM   14  N2  UNL     1     -15.232  27.366  -6.118  1.00  0.00    -0.261 N 
HETATM   15  C21 UNL     1     -15.339  25.472  -7.534  1.00  0.00     0.227 C 
HETATM   16  O1  UNL     1     -15.027  28.027  -5.026  1.00  0.00    -0.218 OA
ATOM     17  H2  UNL     1     -15.542  27.867  -6.950  1.00  0.00     0.194 HD
HETATM   18  C11 UNL     1     -14.630  27.440  -3.929  1.00  0.00     0.191 A 
HETATM   19  O5  UNL     1     -14.283  24.643  -7.958  1.00  0.00    -0.378 OA
BRANCH  18  20
HETATM   20  N3  UNL     1     -14.436  28.116  -2.867  1.00  0.00    -0.376 N 
ATOM     21  H32 UNL     1     -13.961  29.015  -2.941  1.00  0.00     0.158 HD
ATOM     22  H31 UNL     1     -14.751  27.763  -1.964  1.00  0.00     0.158 HD
ENDBRANCH  18  20
BRANCH  13  23
HETATM   23  N4  UNL     1     -13.985  25.399  -2.729  1.00  0.00    -0.317 N 
HETATM   24  C13 UNL     1     -14.925  25.047  -1.704  1.00  0.00     0.276 C 
HETATM   25  O2  UNL     1     -16.116  25.369  -1.906  1.00  0.00    -0.266 OA
ATOM     26  H4  UNL     1     -13.000  25.159  -2.616  1.00  0.00     0.169 HD
BRANCH  24  27
HETATM   27  C14 UNL     1     -14.492  24.358  -0.513  1.00  0.00     0.145 A 
HETATM   28  N5  UNL     1     -13.836  24.928   0.514  1.00  0.00    -0.271 N 
HETATM   29  N6  UNL     1     -13.593  24.013   1.447  1.00  0.00    -0.173 N 
ATOM     30  H5  UNL     1     -13.566  25.910   0.569  1.00  0.00     0.189 HD
HETATM   31  N10 UNL     1     -14.082  22.884   1.030  1.00  0.00    -0.276 N 
HETATM   32  C17 UNL     1     -14.656  23.043  -0.192  1.00  0.00     0.095 A 
ATOM     33  H10 UNL     1     -14.041  22.005   1.545  1.00  0.00     0.189 HD
BRANCH  29  34
HETATM   34  C15 UNL     1     -12.923  24.185   2.698  1.00  0.00     0.212 A 
HETATM   35  N7  UNL     1     -12.119  23.332   3.353  1.00  0.00    -0.219 N 
HETATM   36  O3  UNL     1     -11.720  23.876   4.450  1.00  0.00    -0.153 OA
ATOM     37  H7  UNL     1     -11.864  22.398   3.032  1.00  0.00     0.198 HD
HETATM   38  N8  UNL     1     -12.198  25.059   4.601  1.00  0.00    -0.222 N 
HETATM   39  C16 UNL     1     -12.976  25.312   3.510  1.00  0.00     0.171 A 
ATOM     40  H8  UNL     1     -12.029  25.689   5.386  1.00  0.00     0.198 HD
BRANCH  39  41
HETATM   41  N9  UNL     1     -13.623  26.396   3.301  1.00  0.00    -0.381 N 
ATOM     42  H92 UNL     1     -13.806  26.804   2.385  1.00  0.00     0.157 HD
ATOM     43  H91 UNL     1     -14.049  27.011   3.995  1.00  0.00     0.157 HD
ENDBRANCH  39  41
ENDBRANCH  29  34
BRANCH  32  44
HETATM   44  C18 UNL     1     -15.293  21.952  -0.934  1.00  0.00     0.097 C 
HETATM   45  C19 UNL     1     -15.452  20.758   0.027  1.00  0.00     0.052 C 
HETATM   46  C20 UNL     1     -14.552  21.469  -2.130  1.00  0.00     0.052 C 
BRANCH  44  47
HETATM   47  O4  UNL     1     -16.576  22.384  -1.295  1.00  0.00    -0.384 OA
ATOM     48  H4  UNL     1     -16.477  22.999  -2.013  1.00  0.00     0.211 HD
ENDBRANCH  44  47
ENDBRANCH  32  44
ENDBRANCH  24  27
ENDBRANCH  13  23
ENDBRANCH   7   8
ENDBRANCH   5   7
ENDBRANCH   4   5
ENDBRANCH   3   4
TORSDOF 11
ENDMDL
MODEL 5
REMARK VINA RESULT: -7.457659212      3.472      9.503
REMARK  11 active torsions:
REMARK  status: ('A' for Active; 'I' for Inactive)
REMARK    1  A    between atoms: C3_3  and  C4_4 
REMARK    2  A    between atoms: C4_4  and  N1_5 
REMARK    3  A    between atoms: N1_5  and  C5_7 
REMARK    4  A    between atoms: C5_7  and  C6_8 
REMARK    5  A    between atoms: C11_16  and  N3_17 
REMARK    6  A    between atoms: C12_20  and  N4_21 
REMARK       I    between atoms: N4_21  and  C13_23 
REMARK    7  A    between atoms: C13_23  and  C14_25 
REMARK    8  A    between atoms: N6_28  and  C15_29 
REMARK    9  A    between atoms: C16_35  and  N9_36 
REMARK   10  A    between atoms: C17_41  and  C18_42 
REMARK   11  A    between atoms: C18_42  and  O4_45 
ROOT
HETATM    1  C1  UNL     1     -14.360  21.596   0.482  1.00  0.00     0.012 C 
HETATM    2  C2  UNL     1     -15.345  21.094   0.007  1.00  0.00    -0.116 C 
HETATM    3  C3  UNL     1     -16.543  20.456  -0.587  1.00  0.00     0.112 C 
ENDROOT
BRANCH   3   4
HETATM    4  C4  UNL     1     -16.229  20.202  -2.025  1.00  0.00     0.126 C 
BRANCH   4   5
HETATM    5  N1  UNL     1     -17.088  20.851  -2.954  1.00  0.00    -0.418 N 
ATOM      6  H1  UNL     1     -18.040  21.123  -2.709  1.00  0.00     0.153 HD
BRANCH   5   7
HETATM    7  C5  UNL     1     -16.543  21.101  -4.249  1.00  0.00     0.145 C 
BRANCH   7   8
HETATM    8  C6  UNL     1     -15.987  22.521  -4.276  1.00  0.00     0.139 C 
HETATM    9  C7  UNL     1     -14.799  22.687  -3.383  1.00  0.00     0.038 C 
HETATM   10  C8  UNL     1     -14.677  24.131  -2.878  1.00  0.00     0.046 C 
HETATM   11  C9  UNL     1     -14.303  25.010  -4.013  1.00  0.00    -0.000 A 
HETATM   12  C10 UNL     1     -14.811  25.019  -5.289  1.00  0.00     0.065 A 
HETATM   13  C12 UNL     1     -13.315  25.898  -3.660  1.00  0.00     0.097 A 
HETATM   14  N2  UNL     1     -14.319  25.907  -6.167  1.00  0.00    -0.261 N 
HETATM   15  C21 UNL     1     -15.874  24.149  -5.867  1.00  0.00     0.227 C 
HETATM   16  O1  UNL     1     -13.389  26.744  -5.840  1.00  0.00    -0.218 OA
ATOM     17  H2  UNL     1     -14.689  25.923  -7.117  1.00  0.00     0.194 HD
HETATM   18  C11 UNL     1     -12.877  26.772  -4.639  1.00  0.00     0.191 A 
HETATM   19  O5  UNL     1     -15.612  22.796  -5.582  1.00  0.00    -0.378 OA
BRANCH  18  20
HETATM   20  N3  UNL     1     -11.961  27.607  -4.345  1.00  0.00    -0.376 N 
ATOM     21  H32 UNL     1     -11.514  28.127  -5.100  1.00  0.00     0.158 HD
ATOM     22  H31 UNL     1     -11.684  27.750  -3.374  1.00  0.00     0.158 HD
ENDBRANCH  18  20
BRANCH  13  23
HETATM   23  N4  UNL     1     -12.791  25.894  -2.349  1.00  0.00    -0.317 N 
HETATM   24  C13 UNL     1     -13.217  26.873  -1.391  1.00  0.00     0.276 C 
HETATM   25  O2  UNL     1     -14.062  27.706  -1.784  1.00  0.00    -0.266 OA
ATOM     26  H4  UNL     1     -12.104  25.190  -2.081  1.00  0.00     0.169 HD
BRANCH  24  27
HETATM   27  C14 UNL     1     -12.683  26.873  -0.051  1.00  0.00     0.145 A 
HETATM   28  N5  UNL     1     -13.376  26.557   1.058  1.00  0.00    -0.271 N 
HETATM   29  N6  UNL     1     -12.583  26.655   2.120  1.00  0.00    -0.173 N 
ATOM     30  H5  UNL     1     -14.358  26.283   1.080  1.00  0.00     0.189 HD
HETATM   31  N10 UNL     1     -11.410  27.026   1.703  1.00  0.00    -0.276 N 
HETATM   32  C17 UNL     1     -11.416  27.177   0.352  1.00  0.00     0.095 A 
ATOM     33  H10 UNL     1     -10.600  27.180   2.303  1.00  0.00     0.189 HD
BRANCH  29  34
HETATM   34  C15 UNL     1     -12.909  26.410   3.489  1.00  0.00     0.212 A 
HETATM   35  N7  UNL     1     -13.500  27.224   4.379  1.00  0.00    -0.219 N 
HETATM   36  O3  UNL     1     -13.611  26.616   5.509  1.00  0.00    -0.153 OA
ATOM     37  H7  UNL     1     -13.812  28.177   4.190  1.00  0.00     0.198 HD
HETATM   38  N8  UNL     1     -13.132  25.425   5.462  1.00  0.00    -0.222 N 
HETATM   39  C16 UNL     1     -12.669  25.236   4.193  1.00  0.00     0.171 A 
ATOM     40  H8  UNL     1     -13.103  24.750   6.226  1.00  0.00     0.198 HD
BRANCH  39  41
HETATM   41  N9  UNL     1     -12.118  24.164   3.762  1.00  0.00    -0.381 N 
ATOM     42  H92 UNL     1     -11.550  24.095   2.918  1.00  0.00     0.157 HD
ATOM     43  H91 UNL     1     -12.156  23.233   4.177  1.00  0.00     0.157 HD
ENDBRANCH  39  41
ENDBRANCH  29  34
BRANCH  32  44
HETATM   44  C18 UNL     1     -10.243  27.592  -0.420  1.00  0.00     0.097 C 
HETATM   45  C19 UNL     1      -9.054  27.707   0.553  1.00  0.00     0.052 C 
HETATM   46  C20 UNL     1     -10.368  28.893  -1.131  1.00  0.00     0.052 C 
BRANCH  44  47
HETATM   47  O4  UNL     1      -9.954  26.565  -1.329  1.00  0.00    -0.384 OA
ATOM     48  H4  UNL     1      -9.008  26.484  -1.374  1.00  0.00     0.211 HD
ENDBRANCH  44  47
ENDBRANCH  32  44
ENDBRANCH  24  27
ENDBRANCH  13  23
ENDBRANCH   7   8
ENDBRANCH   5   7
ENDBRANCH   4   5
ENDBRANCH   3   4
TORSDOF 11
ENDMDL
