MODEL 1
REMARK VINA RESULT: -3.661218011      0.000      0.000
REMARK  3 active torsions:
REMARK  status: ('A' for Active; 'I' for Inactive)
REMARK    1  A    between atoms: N1_2  and  C2_5 
REMARK    2  A    between atoms: C3_6  and  C4_7 
REMARK    3  A    between atoms: C4_7  and  N2_8 
ROOT
HETATM    1  C2  UNL     1      -5.467  39.949  13.980  1.00  0.00     0.207 C 
HETATM    2  C3  UNL     1      -5.633  39.397  15.044  1.00  0.00    -0.038 C 
ENDROOT
BRANCH   2   3
HETATM    3  C4  UNL     1      -5.815  38.735  16.348  1.00  0.00     0.325 C 
BRANCH   3   4
HETATM    4  N2  UNL     1      -5.216  39.482  17.423  1.00  0.00    -0.069 N 
ATOM      5  H23 UNL     1      -4.218  39.282  17.499  1.00  0.00     0.275 HD
ATOM      6  H22 UNL     1      -5.166  40.475  17.199  1.00  0.00     0.275 HD
ATOM      7  H21 UNL     1      -5.693  39.326  18.311  1.00  0.00     0.275 HD
ENDBRANCH   3   4
ENDBRANCH   2   3
BRANCH   1   8
HETATM    8  N1  UNL     1      -5.256  40.604  12.747  1.00  0.00     0.177 N 
HETATM    9  C1  UNL     1      -3.915  40.272  12.325  1.00  0.00     0.401 C 
HETATM   10  O1  UNL     1      -5.306  41.966  12.911  1.00  0.00    -0.034 OA
HETATM   11 CL1  UNL     1      -6.463  40.060  11.634  1.00  0.00     0.207 Cl
ENDBRANCH   1   8
TORSDOF 3
ENDMDL
MODEL 2
REMARK VINA RESULT: -3.233787856      2.504      4.260
REMARK  3 active torsions:
REMARK  status: ('A' for Active; 'I' for Inactive)
REMARK    1  A    between atoms: N1_2  and  C2_5 
REMARK    2  A    between atoms: C3_6  and  C4_7 
REMARK    3  A    between atoms: C4_7  and  N2_8 
ROOT
HETATM    1  C2  UNL     1      -5.088  40.304  13.553  1.00  0.00     0.207 C 
HETATM    2  C3  UNL     1      -5.091  41.064  12.612  1.00  0.00    -0.038 C 
ENDROOT
BRANCH   2   3
HETATM    3  C4  UNL     1      -5.098  41.970  11.450  1.00  0.00     0.325 C 
BRANCH   3   4
HETATM    4  N2  UNL     1      -5.537  41.309  10.249  1.00  0.00    -0.069 N 
ATOM      5  H23 UNL     1      -4.958  41.571   9.450  1.00  0.00     0.275 HD
ATOM      6  H22 UNL     1      -5.328  40.311  10.280  1.00  0.00     0.275 HD
ATOM      7  H21 UNL     1      -6.525  41.474  10.059  1.00  0.00     0.275 HD
ENDBRANCH   3   4
ENDBRANCH   2   3
BRANCH   1   8
HETATM    8  N1  UNL     1      -5.090  39.400  14.639  1.00  0.00     0.177 N 
HETATM    9  C1  UNL     1      -4.555  40.115  15.773  1.00  0.00     0.401 C 
HETATM   10  O1  UNL     1      -4.249  38.345  14.388  1.00  0.00    -0.034 OA
HETATM   11 CL1  UNL     1      -6.714  38.863  14.890  1.00  0.00     0.207 Cl
ENDBRANCH   1   8
TORSDOF 3
ENDMDL
MODEL 3
REMARK VINA RESULT: -3.027462260      1.570      1.570
REMARK  3 active torsions:
REMARK  status: ('A' for Active; 'I' for Inactive)
REMARK    1  A    between atoms: N1_2  and  C2_5 
REMARK    2  A    between atoms: C3_6  and  C4_7 
REMARK    3  A    between atoms: C4_7  and  N2_8 
ROOT
HETATM    1  C2  UNL     1      -5.540  39.766  13.985  1.00  0.00     0.207 C 
HETATM    2  C3  UNL     1      -5.688  39.320  15.100  1.00  0.00    -0.038 C 
ENDROOT
BRANCH   2   3
HETATM    3  C4  UNL     1      -5.844  38.780  16.463  1.00  0.00     0.325 C 
BRANCH   3   4
HETATM    4  N2  UNL     1      -5.151  39.575  17.443  1.00  0.00    -0.069 N 
ATOM      5  H23 UNL     1      -4.270  39.139  17.716  1.00  0.00     0.275 HD
ATOM      6  H22 UNL     1      -4.785  40.433  17.031  1.00  0.00     0.275 HD
ATOM      7  H21 UNL     1      -5.733  39.774  18.257  1.00  0.00     0.275 HD
ENDBRANCH   3   4
ENDBRANCH   2   3
BRANCH   1   8
HETATM    8  N1  UNL     1      -5.347  40.293  12.689  1.00  0.00     0.177 N 
HETATM    9  C1  UNL     1      -5.557  41.719  12.787  1.00  0.00     0.401 C 
HETATM   10  O1  UNL     1      -6.292  39.800  11.824  1.00  0.00    -0.034 OA
HETATM   11 CL1  UNL     1      -3.749  39.884  12.173  1.00  0.00     0.207 Cl
ENDBRANCH   1   8
TORSDOF 3
ENDMDL
MODEL 4
REMARK VINA RESULT: -2.935942993      7.943      8.345
REMARK  3 active torsions:
REMARK  status: ('A' for Active; 'I' for Inactive)
REMARK    1  A    between atoms: N1_2  and  C2_5 
REMARK    2  A    between atoms: C3_6  and  C4_7 
REMARK    3  A    between atoms: C4_7  and  N2_8 
ROOT
HETATM    1  C2  UNL     1      -5.565  45.644  19.664  1.00  0.00     0.207 C 
HETATM    2  C3  UNL     1      -5.657  44.519  20.101  1.00  0.00    -0.038 C 
ENDROOT
BRANCH   2   3
HETATM    3  C4  UNL     1      -5.757  43.141  20.613  1.00  0.00     0.325 C 
BRANCH   3   4
HETATM    4  N2  UNL     1      -6.995  42.910  21.309  1.00  0.00    -0.069 N 
ATOM      5  H23 UNL     1      -7.735  43.520  20.959  1.00  0.00     0.275 HD
ATOM      6  H22 UNL     1      -7.398  42.008  21.057  1.00  0.00     0.275 HD
ATOM      7  H21 UNL     1      -6.890  42.999  22.320  1.00  0.00     0.275 HD
ENDBRANCH   3   4
ENDBRANCH   2   3
BRANCH   1   8
HETATM    8  N1  UNL     1      -5.442  46.950  19.141  1.00  0.00     0.177 N 
HETATM    9  C1  UNL     1      -6.579  47.698  19.622  1.00  0.00     0.401 C 
HETATM   10  O1  UNL     1      -5.519  46.928  17.771  1.00  0.00    -0.034 OA
HETATM   11 CL1  UNL     1      -3.934  47.605  19.675  1.00  0.00     0.207 Cl
ENDBRANCH   1   8
TORSDOF 3
ENDMDL
MODEL 5
REMARK VINA RESULT: -2.927085238      2.515      4.302
REMARK  3 active torsions:
REMARK  status: ('A' for Active; 'I' for Inactive)
REMARK    1  A    between atoms: N1_2  and  C2_5 
REMARK    2  A    between atoms: C3_6  and  C4_7 
REMARK    3  A    between atoms: C4_7  and  N2_8 
ROOT
HETATM    1  C2  UNL     1      -5.013  40.377  13.627  1.00  0.00     0.207 C 
HETATM    2  C3  UNL     1      -5.079  41.093  12.654  1.00  0.00    -0.038 C 
ENDROOT
BRANCH   2   3
HETATM    3  C4  UNL     1      -5.136  41.965  11.466  1.00  0.00     0.325 C 
BRANCH   3   4
HETATM    4  N2  UNL     1      -5.581  41.256  10.295  1.00  0.00    -0.069 N 
ATOM      5  H23 UNL     1      -6.599  41.264  10.224  1.00  0.00     0.275 HD
ATOM      6  H22 UNL     1      -5.355  41.770   9.444  1.00  0.00     0.275 HD
ATOM      7  H21 UNL     1      -5.216  40.304  10.261  1.00  0.00     0.275 HD
ENDBRANCH   3   4
ENDBRANCH   2   3
BRANCH   1   8
HETATM    8  N1  UNL     1      -4.914  39.537  14.758  1.00  0.00     0.177 N 
HETATM    9  C1  UNL     1      -6.229  38.983  14.977  1.00  0.00     0.401 C 
HETATM   10  O1  UNL     1      -4.589  40.268  15.873  1.00  0.00    -0.034 OA
HETATM   11 CL1  UNL     1      -3.723  38.328  14.429  1.00  0.00     0.207 Cl
ENDBRANCH   1   8
TORSDOF 3
ENDMDL
