MODEL 1
REMARK VINA RESULT: -9.069435014      0.000      0.000
REMARK  9 active torsions:
REMARK  status: ('A' for Active; 'I' for Inactive)
REMARK    1  A    between atoms: O1_2  and  C2_3 
REMARK    2  A    between atoms: C2_3  and  C3_5 
REMARK    3  A    between atoms: C16_18  and  O3_19 
REMARK    4  A    between atoms: O3_19  and  C17_20 
REMARK    5  A    between atoms: C21_25  and  C23_27 
REMARK    6  A    between atoms: C23_27  and  C24_29 
REMARK    7  A    between atoms: C24_29  and  O6_31 
REMARK    8  A    between atoms: C24_29  and  C26_33 
REMARK    9  A    between atoms: C35_42  and  O7_43 
ROOT
HETATM    1  C3  UNL     1      -4.593 -11.705  22.758  1.00  0.00     0.049 C 
HETATM    2  C4  UNL     1      -3.890 -10.461  22.152  1.00  0.00     0.026 C 
HETATM    3  C5  UNL     1      -5.732 -11.090  23.550  1.00  0.00     0.020 C 
HETATM    4  C6  UNL     1      -6.741 -12.145  23.911  1.00  0.00     0.002 C 
HETATM    5  C7  UNL     1      -7.375 -12.525  22.602  1.00  0.00     0.012 C 
HETATM    6  C8  UNL     1      -6.423 -13.018  21.571  1.00  0.00    -0.007 C 
HETATM    7  C9  UNL     1      -7.028 -12.416  20.275  1.00  0.00     0.019 C 
HETATM    8  C10 UNL     1      -5.009 -12.656  21.713  1.00  0.00     0.015 C 
HETATM    9  C11 UNL     1      -4.198 -13.922  21.566  1.00  0.00     0.020 C 
HETATM   10  C12 UNL     1      -5.108 -15.101  21.318  1.00  0.00    -0.002 C 
HETATM   11  C13 UNL     1      -4.814 -15.962  22.599  1.00  0.00     0.019 C 
HETATM   12  C14 UNL     1      -4.736 -16.036  20.220  1.00  0.00    -0.002 C 
HETATM   13  C15 UNL     1      -4.630 -17.492  20.685  1.00  0.00     0.019 C 
HETATM   14  C16 UNL     1      -3.320 -15.809  19.668  1.00  0.00     0.146 C 
HETATM   15  C19 UNL     1      -3.296 -16.548  18.311  1.00  0.00     0.028 C 
HETATM   16  C20 UNL     1      -2.269 -15.869  17.430  1.00  0.00     0.014 C 
HETATM   17  C21 UNL     1      -4.724 -16.359  17.817  1.00  0.00     0.030 C 
HETATM   18  C22 UNL     1      -4.529 -14.949  17.115  1.00  0.00     0.024 C 
HETATM   19  C30 UNL     1      -5.570 -16.085  18.984  1.00  0.00     0.017 C 
HETATM   20  C31 UNL     1      -6.876 -16.814  19.114  1.00  0.00    -0.013 C 
HETATM   21  C32 UNL     1      -7.832 -16.466  17.974  1.00  0.00     0.010 C 
HETATM   22  C33 UNL     1      -7.667 -16.396  20.338  1.00  0.00     0.007 C 
HETATM   23  C34 UNL     1      -7.574 -14.919  20.603  1.00  0.00     0.040 C 
HETATM   24  C35 UNL     1      -6.438 -14.548  21.486  1.00  0.00     0.073 C 
ENDROOT
BRANCH  17  25
HETATM   25  C23 UNL     1      -5.071 -17.224  16.717  1.00  0.00     0.170 C 
HETATM   26  O5  UNL     1      -5.052 -18.464  16.945  1.00  0.00    -0.294 OA
BRANCH  25  27
HETATM   27  C24 UNL     1      -5.461 -17.025  15.316  1.00  0.00     0.119 C 
HETATM   28  C25 UNL     1      -6.133 -18.311  14.759  1.00  0.00     0.055 C 
BRANCH  27  29
HETATM   29  O6  UNL     1      -6.531 -16.114  15.128  1.00  0.00    -0.382 OA
ATOM     30  H6  UNL     1      -6.333 -15.389  14.547  1.00  0.00     0.211 HD
ENDBRANCH  27  29
BRANCH  27  31
HETATM   31  C26 UNL     1      -4.418 -16.544  14.372  1.00  0.00     0.031 A 
HETATM   32  C27 UNL     1      -4.219 -17.266  13.093  1.00  0.00     0.013 A 
HETATM   33  C28 UNL     1      -3.086 -17.004  14.140  1.00  0.00    -0.011 A 
HETATM   34  C29 UNL     1      -2.433 -18.221  14.673  1.00  0.00     0.010 C 
ENDBRANCH  27  31
ENDBRANCH  25  27
ENDBRANCH  17  25
BRANCH  14  35
HETATM   35  O3  UNL     1      -2.424 -16.465  20.481  1.00  0.00    -0.315 OA
BRANCH  35  36
HETATM   36  C17 UNL     1      -1.096 -16.587  20.292  1.00  0.00     0.255 C 
HETATM   37  C18 UNL     1      -0.416 -17.913  20.104  1.00  0.00     0.126 C 
HETATM   38  O4  UNL     1      -0.416 -15.545  20.274  1.00  0.00    -0.266 OA
ENDBRANCH  35  36
ENDBRANCH  14  35
BRANCH  24  39
HETATM   39  O7  UNL     1      -6.923 -14.903  22.786  1.00  0.00    -0.388 OA
ATOM     40  H7  UNL     1      -7.359 -15.729  22.607  1.00  0.00     0.210 HD
ENDBRANCH  24  39
BRANCH   1  41
HETATM   41  C2  UNL     1      -3.644 -12.165  23.797  1.00  0.00     0.267 C 
HETATM   42  O2  UNL     1      -2.490 -11.631  23.960  1.00  0.00    -0.264 OA
BRANCH  41  43
HETATM   43  O1  UNL     1      -3.896 -13.200  24.684  1.00  0.00    -0.326 OA
HETATM   44  C1  UNL     1      -2.961 -14.117  25.142  1.00  0.00     0.213 C 
ENDBRANCH  41  43
ENDBRANCH   1  41
TORSDOF 9
ENDMDL
MODEL 2
REMARK VINA RESULT: -8.907400231      2.175      4.963
REMARK  9 active torsions:
REMARK  status: ('A' for Active; 'I' for Inactive)
REMARK    1  A    between atoms: O1_2  and  C2_3 
REMARK    2  A    between atoms: C2_3  and  C3_5 
REMARK    3  A    between atoms: C16_18  and  O3_19 
REMARK    4  A    between atoms: O3_19  and  C17_20 
REMARK    5  A    between atoms: C21_25  and  C23_27 
REMARK    6  A    between atoms: C23_27  and  C24_29 
REMARK    7  A    between atoms: C24_29  and  O6_31 
REMARK    8  A    between atoms: C24_29  and  C26_33 
REMARK    9  A    between atoms: C35_42  and  O7_43 
ROOT
HETATM    1  C3  UNL     1      -4.707 -11.520  25.632  1.00  0.00     0.049 C 
HETATM    2  C4  UNL     1      -5.604 -11.839  26.859  1.00  0.00     0.026 C 
HETATM    3  C5  UNL     1      -3.347 -11.288  26.266  1.00  0.00     0.020 C 
HETATM    4  C6  UNL     1      -2.272 -11.326  25.216  1.00  0.00     0.002 C 
HETATM    5  C7  UNL     1      -2.226 -12.763  24.775  1.00  0.00     0.012 C 
HETATM    6  C8  UNL     1      -3.512 -13.294  24.250  1.00  0.00    -0.007 C 
HETATM    7  C9  UNL     1      -3.493 -14.748  24.791  1.00  0.00     0.019 C 
HETATM    8  C10 UNL     1      -4.747 -12.602  24.634  1.00  0.00     0.015 C 
HETATM    9  C11 UNL     1      -5.539 -12.351  23.372  1.00  0.00     0.020 C 
HETATM   10  C12 UNL     1      -4.802 -12.899  22.173  1.00  0.00    -0.002 C 
HETATM   11  C13 UNL     1      -4.542 -11.573  21.370  1.00  0.00     0.019 C 
HETATM   12  C14 UNL     1      -5.584 -13.708  21.198  1.00  0.00    -0.002 C 
HETATM   13  C15 UNL     1      -5.481 -13.179  19.764  1.00  0.00     0.019 C 
HETATM   14  C16 UNL     1      -7.103 -13.643  21.418  1.00  0.00     0.146 C 
HETATM   15  C19 UNL     1      -7.674 -14.840  20.623  1.00  0.00     0.028 C 
HETATM   16  C20 UNL     1      -8.976 -15.253  21.277  1.00  0.00     0.014 C 
HETATM   17  C21 UNL     1      -6.573 -15.880  20.775  1.00  0.00     0.030 C 
HETATM   18  C22 UNL     1      -7.047 -16.501  22.157  1.00  0.00     0.024 C 
HETATM   19  C30 UNL     1      -5.327 -15.174  21.088  1.00  0.00     0.017 C 
HETATM   20  C31 UNL     1      -4.077 -15.557  20.350  1.00  0.00    -0.013 C 
HETATM   21  C32 UNL     1      -3.671 -17.001  20.640  1.00  0.00     0.010 C 
HETATM   22  C33 UNL     1      -2.858 -14.781  20.810  1.00  0.00     0.007 C 
HETATM   23  C34 UNL     1      -2.844 -14.564  22.297  1.00  0.00     0.040 C 
HETATM   24  C35 UNL     1      -3.523 -13.312  22.717  1.00  0.00     0.073 C 
ENDROOT
BRANCH  17  25
HETATM   25  C23 UNL     1      -6.700 -16.989  19.861  1.00  0.00     0.170 C 
HETATM   26  O5  UNL     1      -6.815 -18.134  20.376  1.00  0.00    -0.294 OA
BRANCH  25  27
HETATM   27  C24 UNL     1      -6.732 -17.140  18.402  1.00  0.00     0.119 C 
HETATM   28  C25 UNL     1      -5.735 -18.246  17.955  1.00  0.00     0.055 C 
BRANCH  27  29
HETATM   29  O6  UNL     1      -7.931 -17.701  17.895  1.00  0.00    -0.382 OA
ATOM     30  H6  UNL     1      -8.231 -18.473  18.359  1.00  0.00     0.211 HD
ENDBRANCH  27  29
BRANCH  27  31
HETATM   31  C26 UNL     1      -6.540 -15.917  17.579  1.00  0.00     0.031 A 
HETATM   32  C27 UNL     1      -6.482 -16.046  16.103  1.00  0.00     0.013 A 
HETATM   33  C28 UNL     1      -5.365 -15.376  16.971  1.00  0.00    -0.011 A 
HETATM   34  C29 UNL     1      -4.027 -15.997  16.857  1.00  0.00     0.010 C 
ENDBRANCH  27  31
ENDBRANCH  25  27
ENDBRANCH  17  25
BRANCH  14  35
HETATM   35  O3  UNL     1      -7.585 -12.508  20.807  1.00  0.00    -0.315 OA
BRANCH  35  36
HETATM   36  C17 UNL     1      -8.122 -11.429  21.408  1.00  0.00     0.255 C 
HETATM   37  C18 UNL     1      -8.123 -11.238  22.898  1.00  0.00     0.126 C 
HETATM   38  O4  UNL     1      -8.636 -10.559  20.682  1.00  0.00    -0.266 OA
ENDBRANCH  35  36
ENDBRANCH  14  35
BRANCH  24  39
HETATM   39  O7  UNL     1      -2.548 -12.309  22.411  1.00  0.00    -0.388 OA
ATOM     40  H7  UNL     1      -2.929 -11.900  21.643  1.00  0.00     0.210 HD
ENDBRANCH  24  39
BRANCH   1  41
HETATM   41  C2  UNL     1      -5.146 -10.166  25.227  1.00  0.00     0.267 C 
HETATM   42  O2  UNL     1      -5.944  -9.460  25.938  1.00  0.00    -0.264 OA
BRANCH  41  43
HETATM   43  O1  UNL     1      -4.750  -9.531  24.059  1.00  0.00    -0.326 OA
HETATM   44  C1  UNL     1      -3.951  -8.400  23.985  1.00  0.00     0.213 C 
ENDBRANCH  41  43
ENDBRANCH   1  41
TORSDOF 9
ENDMDL
MODEL 3
REMARK VINA RESULT: -8.776983884      1.022      1.394
REMARK  9 active torsions:
REMARK  status: ('A' for Active; 'I' for Inactive)
REMARK    1  A    between atoms: O1_2  and  C2_3 
REMARK    2  A    between atoms: C2_3  and  C3_5 
REMARK    3  A    between atoms: C16_18  and  O3_19 
REMARK    4  A    between atoms: O3_19  and  C17_20 
REMARK    5  A    between atoms: C21_25  and  C23_27 
REMARK    6  A    between atoms: C23_27  and  C24_29 
REMARK    7  A    between atoms: C24_29  and  O6_31 
REMARK    8  A    between atoms: C24_29  and  C26_33 
REMARK    9  A    between atoms: C35_42  and  O7_43 
ROOT
HETATM    1  C3  UNL     1      -4.177 -11.084  22.832  1.00  0.00     0.049 C 
HETATM    2  C4  UNL     1      -3.635  -9.908  21.976  1.00  0.00     0.026 C 
HETATM    3  C5  UNL     1      -5.142 -10.391  23.776  1.00  0.00     0.020 C 
HETATM    4  C6  UNL     1      -6.037 -11.402  24.437  1.00  0.00     0.002 C 
HETATM    5  C7  UNL     1      -6.916 -11.910  23.329  1.00  0.00     0.012 C 
HETATM    6  C8  UNL     1      -6.186 -12.506  22.179  1.00  0.00    -0.007 C 
HETATM    7  C9  UNL     1      -7.053 -12.035  20.981  1.00  0.00     0.019 C 
HETATM    8  C10 UNL     1      -4.779 -12.134  21.993  1.00  0.00     0.015 C 
HETATM    9  C11 UNL     1      -3.992 -13.410  21.808  1.00  0.00     0.020 C 
HETATM   10  C12 UNL     1      -4.912 -14.607  21.868  1.00  0.00    -0.002 C 
HETATM   11  C13 UNL     1      -4.347 -15.336  23.142  1.00  0.00     0.019 C 
HETATM   12  C14 UNL     1      -4.754 -15.647  20.815  1.00  0.00    -0.002 C 
HETATM   13  C15 UNL     1      -4.528 -17.050  21.390  1.00  0.00     0.019 C 
HETATM   14  C16 UNL     1      -3.484 -15.480  19.966  1.00  0.00     0.146 C 
HETATM   15  C19 UNL     1      -3.723 -16.351  18.712  1.00  0.00     0.028 C 
HETATM   16  C20 UNL     1      -2.910 -15.766  17.577  1.00  0.00     0.014 C 
HETATM   17  C21 UNL     1      -5.225 -16.210  18.505  1.00  0.00     0.030 C 
HETATM   18  C22 UNL     1      -5.203 -14.877  17.642  1.00  0.00     0.024 C 
HETATM   19  C30 UNL     1      -5.820 -15.818  19.786  1.00  0.00     0.017 C 
HETATM   20  C31 UNL     1      -7.059 -16.528  20.252  1.00  0.00    -0.013 C 
HETATM   21  C32 UNL     1      -8.234 -16.294  19.303  1.00  0.00     0.010 C 
HETATM   22  C33 UNL     1      -7.592 -15.988  21.565  1.00  0.00     0.007 C 
HETATM   23  C34 UNL     1      -7.474 -14.492  21.659  1.00  0.00     0.040 C 
HETATM   24  C35 UNL     1      -6.190 -14.037  22.250  1.00  0.00     0.073 C 
ENDROOT
BRANCH  17  25
HETATM   25  C23 UNL     1      -5.772 -17.180  17.589  1.00  0.00     0.170 C 
HETATM   26  O5  UNL     1      -5.798 -18.377  17.983  1.00  0.00    -0.294 OA
BRANCH  25  27
HETATM   27  C24 UNL     1      -6.339 -17.134  16.236  1.00  0.00     0.119 C 
HETATM   28  C25 UNL     1      -7.859 -17.458  16.280  1.00  0.00     0.055 C 
BRANCH  27  29
HETATM   29  O6  UNL     1      -6.404 -15.836  15.670  1.00  0.00    -0.382 OA
ATOM     30  H6  UNL     1      -7.279 -15.470  15.624  1.00  0.00     0.211 HD
ENDBRANCH  27  29
BRANCH  27  31
HETATM   31  C26 UNL     1      -5.674 -17.945  15.182  1.00  0.00     0.031 A 
HETATM   32  C27 UNL     1      -4.890 -17.253  14.132  1.00  0.00     0.013 A 
HETATM   33  C28 UNL     1      -6.070 -18.238  13.841  1.00  0.00    -0.011 A 
HETATM   34  C29 UNL     1      -7.194 -17.658  13.072  1.00  0.00     0.010 C 
ENDBRANCH  27  31
ENDBRANCH  25  27
ENDBRANCH  17  25
BRANCH  14  35
HETATM   35  O3  UNL     1      -2.429 -16.052  20.639  1.00  0.00    -0.315 OA
BRANCH  35  36
HETATM   36  C17 UNL     1      -1.153 -16.145  20.219  1.00  0.00     0.255 C 
HETATM   37  C18 UNL     1      -0.444 -17.457  20.041  1.00  0.00     0.126 C 
HETATM   38  O4  UNL     1      -0.548 -15.087  19.969  1.00  0.00    -0.266 OA
ENDBRANCH  35  36
ENDBRANCH  14  35
BRANCH  24  39
HETATM   39  O7  UNL     1      -6.393 -14.259  23.650  1.00  0.00    -0.388 OA
ATOM     40  H7  UNL     1      -5.560 -13.976  24.010  1.00  0.00     0.210 HD
ENDBRANCH  24  39
BRANCH   1  41
HETATM   41  C2  UNL     1      -3.028 -11.440  23.695  1.00  0.00     0.267 C 
HETATM   42  O2  UNL     1      -1.901 -10.835  23.624  1.00  0.00    -0.264 OA
BRANCH  41  43
HETATM   43  O1  UNL     1      -3.048 -12.444  24.650  1.00  0.00    -0.326 OA
HETATM   44  C1  UNL     1      -2.260 -12.491  25.790  1.00  0.00     0.213 C 
ENDBRANCH  41  43
ENDBRANCH   1  41
TORSDOF 9
ENDMDL
MODEL 4
REMARK VINA RESULT: -8.671049813      0.829      1.501
REMARK  9 active torsions:
REMARK  status: ('A' for Active; 'I' for Inactive)
REMARK    1  A    between atoms: O1_2  and  C2_3 
REMARK    2  A    between atoms: C2_3  and  C3_5 
REMARK    3  A    between atoms: C16_18  and  O3_19 
REMARK    4  A    between atoms: O3_19  and  C17_20 
REMARK    5  A    between atoms: C21_25  and  C23_27 
REMARK    6  A    between atoms: C23_27  and  C24_29 
REMARK    7  A    between atoms: C24_29  and  O6_31 
REMARK    8  A    between atoms: C24_29  and  C26_33 
REMARK    9  A    between atoms: C35_42  and  O7_43 
ROOT
HETATM    1  C3  UNL     1      -4.467 -11.426  22.776  1.00  0.00     0.049 C 
HETATM    2  C4  UNL     1      -3.837 -10.218  22.032  1.00  0.00     0.026 C 
HETATM    3  C5  UNL     1      -5.553 -10.773  23.610  1.00  0.00     0.020 C 
HETATM    4  C6  UNL     1      -6.511 -11.813  24.122  1.00  0.00     0.002 C 
HETATM    5  C7  UNL     1      -7.236 -12.294  22.895  1.00  0.00     0.012 C 
HETATM    6  C8  UNL     1      -6.357 -12.846  21.830  1.00  0.00    -0.007 C 
HETATM    7  C9  UNL     1      -7.072 -12.345  20.546  1.00  0.00     0.019 C 
HETATM    8  C10 UNL     1      -4.943 -12.454  21.836  1.00  0.00     0.015 C 
HETATM    9  C11 UNL     1      -4.122 -13.716  21.714  1.00  0.00     0.020 C 
HETATM   10  C12 UNL     1      -5.025 -14.922  21.620  1.00  0.00    -0.002 C 
HETATM   11  C13 UNL     1      -4.616 -15.687  22.932  1.00  0.00     0.019 C 
HETATM   12  C14 UNL     1      -4.721 -15.927  20.564  1.00  0.00    -0.002 C 
HETATM   13  C15 UNL     1      -4.551 -17.345  21.119  1.00  0.00     0.019 C 
HETATM   14  C16 UNL     1      -3.356 -15.720  19.889  1.00  0.00     0.146 C 
HETATM   15  C19 UNL     1      -3.422 -16.553  18.588  1.00  0.00     0.028 C 
HETATM   16  C20 UNL     1      -2.480 -15.924  17.585  1.00  0.00     0.014 C 
HETATM   17  C21 UNL     1      -4.888 -16.420  18.196  1.00  0.00     0.030 C 
HETATM   18  C22 UNL     1      -4.775 -15.060  17.385  1.00  0.00     0.024 C 
HETATM   19  C30 UNL     1      -5.646 -16.075  19.403  1.00  0.00     0.017 C 
HETATM   20  C31 UNL     1      -6.923 -16.812  19.686  1.00  0.00    -0.013 C 
HETATM   21  C32 UNL     1      -7.972 -16.559  18.603  1.00  0.00     0.010 C 
HETATM   22  C33 UNL     1      -7.626 -16.319  20.936  1.00  0.00     0.007 C 
HETATM   23  C34 UNL     1      -7.542 -14.826  21.090  1.00  0.00     0.040 C 
HETATM   24  C35 UNL     1      -6.349 -14.378  21.853  1.00  0.00     0.073 C 
ENDROOT
BRANCH  17  25
HETATM   25  C23 UNL     1      -5.301 -17.365  17.189  1.00  0.00     0.170 C 
HETATM   26  O5  UNL     1      -5.469 -18.556  17.567  1.00  0.00    -0.294 OA
BRANCH  25  27
HETATM   27  C24 UNL     1      -5.594 -17.298  15.752  1.00  0.00     0.119 C 
HETATM   28  C25 UNL     1      -4.368 -16.736  14.981  1.00  0.00     0.055 C 
BRANCH  27  29
HETATM   29  O6  UNL     1      -5.700 -18.560  15.115  1.00  0.00    -0.382 OA
ATOM     30  H6  UNL     1      -6.071 -18.530  14.241  1.00  0.00     0.211 HD
ENDBRANCH  27  29
BRANCH  27  31
HETATM   31  C26 UNL     1      -6.831 -16.587  15.334  1.00  0.00     0.031 A 
HETATM   32  C27 UNL     1      -8.131 -17.293  15.426  1.00  0.00     0.013 A 
HETATM   33  C28 UNL     1      -7.574 -16.646  14.115  1.00  0.00    -0.011 A 
HETATM   34  C29 UNL     1      -7.398 -17.581  12.982  1.00  0.00     0.010 C 
ENDBRANCH  27  31
ENDBRANCH  25  27
ENDBRANCH  17  25
BRANCH  14  35
HETATM   35  O3  UNL     1      -2.387 -16.304  20.673  1.00  0.00    -0.315 OA
BRANCH  35  36
HETATM   36  C17 UNL     1      -1.097 -16.512  20.347  1.00  0.00     0.255 C 
HETATM   37  C18 UNL     1      -0.511 -17.883  20.167  1.00  0.00     0.126 C 
HETATM   38  O4  UNL     1      -0.371 -15.513  20.191  1.00  0.00    -0.266 OA
ENDBRANCH  35  36
ENDBRANCH  14  35
BRANCH  24  39
HETATM   39  O7  UNL     1      -6.725 -14.647  23.208  1.00  0.00    -0.388 OA
ATOM     40  H7  UNL     1      -7.496 -15.188  23.088  1.00  0.00     0.210 HD
ENDBRANCH  24  39
BRANCH   1  41
HETATM   41  C2  UNL     1      -3.432 -11.798  23.767  1.00  0.00     0.267 C 
HETATM   42  O2  UNL     1      -2.257 -11.286  23.759  1.00  0.00    -0.264 OA
BRANCH  41  43
HETATM   43  O1  UNL     1      -3.619 -12.720  24.785  1.00  0.00    -0.326 OA
HETATM   44  C1  UNL     1      -2.652 -13.581  25.283  1.00  0.00     0.213 C 
ENDBRANCH  41  43
ENDBRANCH   1  41
TORSDOF 9
ENDMDL
MODEL 5
REMARK VINA RESULT: -8.641255877      1.794      8.245
REMARK  9 active torsions:
REMARK  status: ('A' for Active; 'I' for Inactive)
REMARK    1  A    between atoms: O1_2  and  C2_3 
REMARK    2  A    between atoms: C2_3  and  C3_5 
REMARK    3  A    between atoms: C16_18  and  O3_19 
REMARK    4  A    between atoms: O3_19  and  C17_20 
REMARK    5  A    between atoms: C21_25  and  C23_27 
REMARK    6  A    between atoms: C23_27  and  C24_29 
REMARK    7  A    between atoms: C24_29  and  O6_31 
REMARK    8  A    between atoms: C24_29  and  C26_33 
REMARK    9  A    between atoms: C35_42  and  O7_43 
ROOT
HETATM    1  C3  UNL     1      -7.025 -16.929  14.977  1.00  0.00     0.049 C 
HETATM    2  C4  UNL     1      -7.738 -15.785  14.207  1.00  0.00     0.026 C 
HETATM    3  C5  UNL     1      -6.095 -17.508  13.925  1.00  0.00     0.020 C 
HETATM    4  C6  UNL     1      -5.060 -18.384  14.574  1.00  0.00     0.002 C 
HETATM    5  C7  UNL     1      -4.188 -17.431  15.344  1.00  0.00     0.012 C 
HETATM    6  C8  UNL     1      -4.906 -16.607  16.352  1.00  0.00    -0.007 C 
HETATM    7  C9  UNL     1      -4.160 -15.251  16.234  1.00  0.00     0.019 C 
HETATM    8  C10 UNL     1      -6.353 -16.431  16.189  1.00  0.00     0.015 C 
HETATM    9  C11 UNL     1      -7.002 -16.743  17.517  1.00  0.00     0.020 C 
HETATM   10  C12 UNL     1      -5.952 -17.112  18.539  1.00  0.00    -0.002 C 
HETATM   11  C13 UNL     1      -6.365 -18.597  18.847  1.00  0.00     0.019 C 
HETATM   12  C14 UNL     1      -6.047 -16.475  19.881  1.00  0.00    -0.002 C 
HETATM   13  C15 UNL     1      -6.085 -17.494  21.025  1.00  0.00     0.019 C 
HETATM   14  C16 UNL     1      -7.370 -15.730  20.120  1.00  0.00     0.146 C 
HETATM   15  C19 UNL     1      -7.100 -14.815  21.336  1.00  0.00     0.028 C 
HETATM   16  C20 UNL     1      -8.032 -13.625  21.237  1.00  0.00     0.014 C 
HETATM   17  C21 UNL     1      -5.637 -14.444  21.140  1.00  0.00     0.030 C 
HETATM   18  C22 UNL     1      -5.852 -13.198  20.180  1.00  0.00     0.024 C 
HETATM   19  C30 UNL     1      -5.023 -15.471  20.292  1.00  0.00     0.017 C 
HETATM   20  C31 UNL     1      -3.691 -16.035  20.693  1.00  0.00    -0.013 C 
HETATM   21  C32 UNL     1      -2.600 -14.965  20.687  1.00  0.00     0.010 C 
HETATM   22  C33 UNL     1      -3.154 -17.048  19.700  1.00  0.00     0.007 C 
HETATM   23  C34 UNL     1      -3.433 -16.657  18.276  1.00  0.00     0.040 C 
HETATM   24  C35 UNL     1      -4.728 -17.175  17.764  1.00  0.00     0.073 C 
ENDROOT
BRANCH  17  25
HETATM   25  C23 UNL     1      -5.033 -13.853  22.308  1.00  0.00     0.170 C 
HETATM   26  O5  UNL     1      -5.026 -14.553  23.356  1.00  0.00    -0.294 OA
BRANCH  25  27
HETATM   27  C24 UNL     1      -4.387 -12.571  22.613  1.00  0.00     0.119 C 
HETATM   28  C25 UNL     1      -3.628 -12.661  23.967  1.00  0.00     0.055 C 
BRANCH  27  29
HETATM   29  O6  UNL     1      -3.297 -12.246  21.767  1.00  0.00    -0.382 OA
ATOM     30  H6  UNL     1      -2.737 -11.552  22.095  1.00  0.00     0.211 HD
ENDBRANCH  27  29
BRANCH  27  31
HETATM   31  C26 UNL     1      -5.233 -11.348  22.583  1.00  0.00     0.031 A 
HETATM   32  C27 UNL     1      -5.087 -10.347  23.666  1.00  0.00     0.013 A 
HETATM   33  C28 UNL     1      -6.440 -11.032  23.279  1.00  0.00    -0.011 A 
HETATM   34  C29 UNL     1      -7.092 -11.791  24.370  1.00  0.00     0.010 C 
ENDBRANCH  27  31
ENDBRANCH  25  27
ENDBRANCH  17  25
BRANCH  14  35
HETATM   35  O3  UNL     1      -8.319 -16.642  20.525  1.00  0.00    -0.315 OA
BRANCH  35  36
HETATM   36  C17 UNL     1      -9.645 -16.587  20.299  1.00  0.00     0.255 C 
HETATM   37  C18 UNL     1     -10.268 -16.970  18.988  1.00  0.00     0.126 C 
HETATM   38  O4  UNL     1     -10.374 -16.199  21.230  1.00  0.00    -0.266 OA
ENDBRANCH  35  36
ENDBRANCH  14  35
BRANCH  24  39
HETATM   39  O7  UNL     1      -4.429 -18.547  17.487  1.00  0.00    -0.388 OA
ATOM     40  H7  UNL     1      -3.641 -18.468  16.962  1.00  0.00     0.210 HD
ENDBRANCH  24  39
BRANCH   1  41
HETATM   41  C2  UNL     1      -8.080 -17.956  15.123  1.00  0.00     0.267 C 
HETATM   42  O2  UNL     1      -7.991 -19.116  14.585  1.00  0.00    -0.264 OA
BRANCH  41  43
HETATM   43  O1  UNL     1      -9.253 -17.777  15.840  1.00  0.00    -0.326 OA
HETATM   44  C1  UNL     1     -10.534 -18.022  15.369  1.00  0.00     0.213 C 
ENDBRANCH  41  43
ENDBRANCH   1  41
TORSDOF 9
ENDMDL
