MODEL 1
REMARK VINA RESULT: -7.566027888      0.000      0.000
REMARK  3 active torsions:
REMARK  status: ('A' for Active; 'I' for Inactive)
REMARK    1  A    between atoms: C2_2  and  C3_3 
REMARK    2  A    between atoms: C11_12  and  O2_13 
REMARK    3  A    between atoms: O2_13  and  C12_14 
ROOT
HETATM    1  C3  UNL     1      51.298 -45.033  -9.866  1.00  0.00     0.007 C 
HETATM    2  C4  UNL     1      52.154 -46.064 -10.552  1.00  0.00     0.022 C 
HETATM    3  C5  UNL     1      50.746 -44.010 -10.844  1.00  0.00     0.094 C 
HETATM    4  C6  UNL     1      50.112 -42.922 -10.075  1.00  0.00     0.128 C 
HETATM    5  O1  UNL     1      49.505 -42.067 -10.739  1.00  0.00    -0.298 OA
HETATM    6  C7  UNL     1      50.134 -42.761  -8.622  1.00  0.00     0.089 C 
HETATM    7  C8  UNL     1      51.244 -43.456  -7.914  1.00  0.00    -0.013 C 
HETATM    8  C9  UNL     1      50.744 -44.328  -6.768  1.00  0.00     0.018 C 
HETATM    9  C10 UNL     1      52.191 -42.440  -7.256  1.00  0.00     0.018 C 
HETATM   10  C11 UNL     1      52.099 -44.267  -8.857  1.00  0.00     0.152 C 
ENDROOT
BRANCH  10  11
HETATM   11  O2  UNL     1      52.911 -43.336  -9.577  1.00  0.00    -0.314 OA
BRANCH  11  12
HETATM   12  C12 UNL     1      54.294 -43.420  -9.579  1.00  0.00     0.255 C 
HETATM   13  C13 UNL     1      55.037 -44.697  -9.545  1.00  0.00     0.126 C 
HETATM   14  O3  UNL     1      54.941 -42.360  -9.611  1.00  0.00    -0.266 OA
ENDBRANCH  11  12
ENDBRANCH  10  11
BRANCH   1  15
HETATM   15  C2  UNL     1      50.136 -45.752  -9.270  1.00  0.00    -0.025 C 
HETATM   16  C1  UNL     1      49.716 -46.920  -9.695  1.00  0.00     0.008 C 
ENDBRANCH   1  15
TORSDOF 3
ENDMDL
MODEL 2
REMARK VINA RESULT: -7.494640888      2.281      4.295
REMARK  3 active torsions:
REMARK  status: ('A' for Active; 'I' for Inactive)
REMARK    1  A    between atoms: C2_2  and  C3_3 
REMARK    2  A    between atoms: C11_12  and  O2_13 
REMARK    3  A    between atoms: O2_13  and  C12_14 
ROOT
HETATM    1  C3  UNL     1      52.848 -44.715  -8.976  1.00  0.00     0.007 C 
HETATM    2  C4  UNL     1      53.390 -45.502 -10.140  1.00  0.00     0.022 C 
HETATM    3  C5  UNL     1      53.332 -45.264  -7.645  1.00  0.00     0.094 C 
HETATM    4  C6  UNL     1      52.589 -44.590  -6.563  1.00  0.00     0.128 C 
HETATM    5  O1  UNL     1      52.960 -44.844  -5.406  1.00  0.00    -0.298 OA
HETATM    6  C7  UNL     1      51.471 -43.662  -6.727  1.00  0.00     0.089 C 
HETATM    7  C8  UNL     1      50.733 -43.764  -8.016  1.00  0.00    -0.013 C 
HETATM    8  C9  UNL     1      50.600 -42.417  -8.716  1.00  0.00     0.018 C 
HETATM    9  C10 UNL     1      49.289 -44.233  -7.779  1.00  0.00     0.018 C 
HETATM   10  C11 UNL     1      51.351 -44.781  -8.945  1.00  0.00     0.152 C 
ENDROOT
BRANCH  10  11
HETATM   11  O2  UNL     1      50.993 -46.069  -8.438  1.00  0.00    -0.314 OA
BRANCH  11  12
HETATM   12  C12 UNL     1      50.461 -47.055  -9.254  1.00  0.00     0.255 C 
HETATM   13  C13 UNL     1      51.008 -48.424  -9.346  1.00  0.00     0.126 C 
HETATM   14  O3  UNL     1      49.470 -46.766  -9.944  1.00  0.00    -0.266 OA
ENDBRANCH  11  12
ENDBRANCH  10  11
BRANCH   1  15
HETATM   15  C2  UNL     1      53.372 -43.326  -9.102  1.00  0.00    -0.025 C 
HETATM   16  C1  UNL     1      54.595 -43.050  -9.488  1.00  0.00     0.008 C 
ENDBRANCH   1  15
TORSDOF 3
ENDMDL
MODEL 3
REMARK VINA RESULT: -7.277624496      1.884      4.148
REMARK  3 active torsions:
REMARK  status: ('A' for Active; 'I' for Inactive)
REMARK    1  A    between atoms: C2_2  and  C3_3 
REMARK    2  A    between atoms: C11_12  and  O2_13 
REMARK    3  A    between atoms: O2_13  and  C12_14 
ROOT
HETATM    1  C3  UNL     1      50.797 -43.981  -8.070  1.00  0.00     0.007 C 
HETATM    2  C4  UNL     1      50.323 -44.605  -6.784  1.00  0.00     0.022 C 
HETATM    3  C5  UNL     1      49.691 -43.206  -8.765  1.00  0.00     0.094 C 
HETATM    4  C6  UNL     1      50.164 -42.818 -10.108  1.00  0.00     0.128 C 
HETATM    5  O1  UNL     1      49.415 -42.072 -10.756  1.00  0.00    -0.298 OA
HETATM    6  C7  UNL     1      51.419 -43.230 -10.737  1.00  0.00     0.089 C 
HETATM    7  C8  UNL     1      52.031 -44.476 -10.198  1.00  0.00    -0.013 C 
HETATM    8  C9  UNL     1      53.493 -44.284  -9.813  1.00  0.00     0.018 C 
HETATM    9  C10 UNL     1      52.043 -45.581 -11.266  1.00  0.00     0.018 C 
HETATM   10  C11 UNL     1      51.249 -45.035  -9.034  1.00  0.00     0.152 C 
ENDROOT
BRANCH  10  11
HETATM   11  O2  UNL     1      50.076 -45.641  -9.582  1.00  0.00    -0.314 OA
BRANCH  11  12
HETATM   12  C12 UNL     1      49.800 -46.988  -9.410  1.00  0.00     0.255 C 
HETATM   13  C13 UNL     1      50.835 -48.009  -9.144  1.00  0.00     0.126 C 
HETATM   14  O3  UNL     1      48.615 -47.353  -9.486  1.00  0.00    -0.266 OA
ENDBRANCH  11  12
ENDBRANCH  10  11
BRANCH   1  15
HETATM   15  C2  UNL     1      51.869 -43.008  -7.717  1.00  0.00    -0.025 C 
HETATM   16  C1  UNL     1      52.105 -42.609  -6.490  1.00  0.00     0.008 C 
ENDBRANCH   1  15
TORSDOF 3
ENDMDL
MODEL 4
REMARK VINA RESULT: -7.236497383      1.839      3.232
REMARK  3 active torsions:
REMARK  status: ('A' for Active; 'I' for Inactive)
REMARK    1  A    between atoms: C2_2  and  C3_3 
REMARK    2  A    between atoms: C11_12  and  O2_13 
REMARK    3  A    between atoms: O2_13  and  C12_14 
ROOT
HETATM    1  C3  UNL     1      51.988 -44.609  -7.391  1.00  0.00     0.007 C 
HETATM    2  C4  UNL     1      53.218 -44.514  -6.528  1.00  0.00     0.022 C 
HETATM    3  C5  UNL     1      51.648 -46.048  -7.739  1.00  0.00     0.094 C 
HETATM    4  C6  UNL     1      50.579 -46.043  -8.756  1.00  0.00     0.128 C 
HETATM    5  O1  UNL     1      50.106 -47.151  -9.055  1.00  0.00    -0.298 OA
HETATM    6  C7  UNL     1      50.035 -44.869  -9.436  1.00  0.00     0.089 C 
HETATM    7  C8  UNL     1      50.919 -43.671  -9.459  1.00  0.00    -0.013 C 
HETATM    8  C9  UNL     1      50.211 -42.418  -8.955  1.00  0.00     0.018 C 
HETATM    9  C10 UNL     1      51.344 -43.336 -10.897  1.00  0.00     0.018 C 
HETATM   10  C11 UNL     1      52.200 -43.895  -8.692  1.00  0.00     0.152 C 
ENDROOT
BRANCH  10  11
HETATM   11  O2  UNL     1      53.023 -44.733  -9.507  1.00  0.00    -0.314 OA
BRANCH  11  12
HETATM   12  C12 UNL     1      54.370 -44.471  -9.700  1.00  0.00     0.255 C 
HETATM   13  C13 UNL     1      54.982 -43.141  -9.497  1.00  0.00     0.126 C 
HETATM   14  O3  UNL     1      55.099 -45.408 -10.064  1.00  0.00    -0.266 OA
ENDBRANCH  11  12
ENDBRANCH  10  11
BRANCH   1  15
HETATM   15  C2  UNL     1      50.852 -44.061  -6.599  1.00  0.00    -0.025 C 
HETATM   16  C1  UNL     1      50.788 -44.125  -5.290  1.00  0.00     0.008 C 
ENDBRANCH   1  15
TORSDOF 3
ENDMDL
MODEL 5
REMARK VINA RESULT: -7.076800626      1.815      3.524
REMARK  3 active torsions:
REMARK  status: ('A' for Active; 'I' for Inactive)
REMARK    1  A    between atoms: C2_2  and  C3_3 
REMARK    2  A    between atoms: C11_12  and  O2_13 
REMARK    3  A    between atoms: O2_13  and  C12_14 
ROOT
HETATM    1  C3  UNL     1      51.285 -43.898  -9.653  1.00  0.00     0.007 C 
HETATM    2  C4  UNL     1      50.584 -44.371 -10.898  1.00  0.00     0.022 C 
HETATM    3  C5  UNL     1      52.733 -43.527  -9.923  1.00  0.00     0.094 C 
HETATM    4  C6  UNL     1      53.405 -43.291  -8.631  1.00  0.00     0.128 C 
HETATM    5  O1  UNL     1      54.566 -42.858  -8.690  1.00  0.00    -0.298 OA
HETATM    6  C7  UNL     1      52.834 -43.518  -7.304  1.00  0.00     0.089 C 
HETATM    7  C8  UNL     1      51.699 -44.480  -7.247  1.00  0.00    -0.013 C 
HETATM    8  C9  UNL     1      50.485 -43.901  -6.529  1.00  0.00     0.018 C 
HETATM    9  C10 UNL     1      52.083 -45.727  -6.436  1.00  0.00     0.018 C 
HETATM   10  C11 UNL     1      51.310 -44.981  -8.617  1.00  0.00     0.152 C 
ENDROOT
BRANCH  10  11
HETATM   11  O2  UNL     1      52.313 -45.921  -9.009  1.00  0.00    -0.314 OA
BRANCH  11  12
HETATM   12  C12 UNL     1      51.999 -47.081  -9.697  1.00  0.00     0.255 C 
HETATM   13  C13 UNL     1      50.924 -48.010  -9.289  1.00  0.00     0.126 C 
HETATM   14  O3  UNL     1      52.661 -47.353 -10.712  1.00  0.00    -0.266 OA
ENDBRANCH  11  12
ENDBRANCH  10  11
BRANCH   1  15
HETATM   15  C2  UNL     1      50.586 -42.664  -9.197  1.00  0.00    -0.025 C 
HETATM   16  C1  UNL     1      49.706 -42.021  -9.928  1.00  0.00     0.008 C 
ENDBRANCH   1  15
TORSDOF 3
ENDMDL
