MODEL 1
REMARK VINA RESULT: -6.776862635      0.000      0.000
REMARK  3 active torsions:
REMARK  status: ('A' for Active; 'I' for Inactive)
REMARK    1  A    between atoms: C2_2  and  C3_3 
REMARK    2  A    between atoms: C3_3  and  O1_5 
REMARK    3  A    between atoms: O1_5  and  C5_6 
REMARK       I    between atoms: C5_6  and  N1_8 
ROOT
HETATM    1  C5  UNL     1      51.984 -44.497  -4.258  1.00  0.00     0.363 C 
HETATM    2  O2  UNL     1      52.918 -44.094  -3.525  1.00  0.00    -0.238 OA
HETATM    3  N1  UNL     1      51.546 -43.783  -5.403  1.00  0.00    -0.318 N 
HETATM    4  C6  UNL     1      52.145 -42.531  -5.817  1.00  0.00     0.203 C 
HETATM    5  S1  UNL     1      52.161 -42.781  -7.638  1.00  0.00    -0.138 SA
HETATM    6  C7  UNL     1      51.016 -44.217  -7.689  1.00  0.00     0.019 C 
HETATM    7  C8  UNL     1      51.726 -45.479  -8.040  1.00  0.00     0.028 C 
HETATM    8  C9  UNL     1      49.881 -43.965  -8.640  1.00  0.00     0.028 C 
HETATM    9  C10 UNL     1      50.492 -44.189  -6.272  1.00  0.00     0.148 C 
ENDROOT
BRANCH   1  10
HETATM   10  O1  UNL     1      51.393 -45.693  -3.886  1.00  0.00    -0.299 OA
BRANCH  10  11
HETATM   11  C3  UNL     1      51.065 -46.060  -2.591  1.00  0.00     0.129 C 
HETATM   12  C4  UNL     1      49.836 -45.363  -2.045  1.00  0.00     0.040 C 
BRANCH  11  13
HETATM   13  C2  UNL     1      50.967 -47.552  -2.377  1.00  0.00     0.028 C 
HETATM   14  C1  UNL     1      52.113 -48.286  -3.051  1.00  0.00     0.007 C 
ENDBRANCH  11  13
ENDBRANCH  10  11
ENDBRANCH   1  10
TORSDOF 3
ENDMDL
MODEL 2
REMARK VINA RESULT: -6.749468861      0.990      1.360
REMARK  3 active torsions:
REMARK  status: ('A' for Active; 'I' for Inactive)
REMARK    1  A    between atoms: C2_2  and  C3_3 
REMARK    2  A    between atoms: C3_3  and  O1_5 
REMARK    3  A    between atoms: O1_5  and  C5_6 
REMARK       I    between atoms: C5_6  and  N1_8 
ROOT
HETATM    1  C5  UNL     1      52.033 -44.001  -3.930  1.00  0.00     0.363 C 
HETATM    2  O2  UNL     1      52.981 -43.442  -3.329  1.00  0.00    -0.238 OA
HETATM    3  N1  UNL     1      51.557 -43.557  -5.190  1.00  0.00    -0.318 N 
HETATM    4  C6  UNL     1      52.130 -42.421  -5.884  1.00  0.00     0.203 C 
HETATM    5  S1  UNL     1      52.101 -43.063  -7.606  1.00  0.00    -0.138 SA
HETATM    6  C7  UNL     1      50.972 -44.482  -7.311  1.00  0.00     0.019 C 
HETATM    7  C8  UNL     1      51.688 -45.786  -7.399  1.00  0.00     0.028 C 
HETATM    8  C9  UNL     1      49.810 -44.451  -8.262  1.00  0.00     0.028 C 
HETATM    9  C10 UNL     1      50.486 -44.149  -5.920  1.00  0.00     0.148 C 
ENDROOT
BRANCH   1  10
HETATM   10  O1  UNL     1      51.466 -45.090  -3.290  1.00  0.00    -0.299 OA
BRANCH  10  11
HETATM   11  C3  UNL     1      51.811 -46.416  -3.500  1.00  0.00     0.129 C 
HETATM   12  C4  UNL     1      53.199 -46.609  -4.073  1.00  0.00     0.040 C 
BRANCH  11  13
HETATM   13  C2  UNL     1      51.607 -47.305  -2.296  1.00  0.00     0.028 C 
HETATM   14  C1  UNL     1      50.272 -48.027  -2.358  1.00  0.00     0.007 C 
ENDBRANCH  11  13
ENDBRANCH  10  11
ENDBRANCH   1  10
TORSDOF 3
ENDMDL
MODEL 3
REMARK VINA RESULT: -6.636287444      1.232      1.254
REMARK  3 active torsions:
REMARK  status: ('A' for Active; 'I' for Inactive)
REMARK    1  A    between atoms: C2_2  and  C3_3 
REMARK    2  A    between atoms: C3_3  and  O1_5 
REMARK    3  A    between atoms: O1_5  and  C5_6 
REMARK       I    between atoms: C5_6  and  N1_8 
ROOT
HETATM    1  C5  UNL     1      51.452 -43.562  -4.967  1.00  0.00     0.363 C 
HETATM    2  O2  UNL     1      52.285 -42.889  -4.315  1.00  0.00    -0.238 OA
HETATM    3  N1  UNL     1      51.265 -43.404  -6.364  1.00  0.00    -0.318 N 
HETATM    4  C6  UNL     1      52.023 -42.451  -7.149  1.00  0.00     0.203 C 
HETATM    5  S1  UNL     1      52.312 -43.456  -8.661  1.00  0.00    -0.138 SA
HETATM    6  C7  UNL     1      51.077 -44.770  -8.312  1.00  0.00     0.019 C 
HETATM    7  C8  UNL     1      51.729 -46.065  -7.966  1.00  0.00     0.028 C 
HETATM    8  C9  UNL     1      50.135 -44.944  -9.469  1.00  0.00     0.028 C 
HETATM    9  C10 UNL     1      50.335 -44.137  -7.157  1.00  0.00     0.148 C 
ENDROOT
BRANCH   1  10
HETATM   10  O1  UNL     1      50.714 -44.481  -4.242  1.00  0.00    -0.299 OA
BRANCH  10  11
HETATM   11  C3  UNL     1      51.170 -45.196  -3.145  1.00  0.00     0.129 C 
HETATM   12  C4  UNL     1      50.211 -45.208  -1.973  1.00  0.00     0.040 C 
BRANCH  11  13
HETATM   13  C2  UNL     1      51.628 -46.599  -3.469  1.00  0.00     0.028 C 
HETATM   14  C1  UNL     1      53.136 -46.667  -3.636  1.00  0.00     0.007 C 
ENDBRANCH  11  13
ENDBRANCH  10  11
ENDBRANCH   1  10
TORSDOF 3
ENDMDL
MODEL 4
REMARK VINA RESULT: -6.466539081      1.760      2.444
REMARK  3 active torsions:
REMARK  status: ('A' for Active; 'I' for Inactive)
REMARK    1  A    between atoms: C2_2  and  C3_3 
REMARK    2  A    between atoms: C3_3  and  O1_5 
REMARK    3  A    between atoms: O1_5  and  C5_6 
REMARK       I    between atoms: C5_6  and  N1_8 
ROOT
HETATM    1  C5  UNL     1      52.393 -45.086  -5.506  1.00  0.00     0.363 C 
HETATM    2  O2  UNL     1      53.200 -46.021  -5.291  1.00  0.00    -0.238 OA
HETATM    3  N1  UNL     1      52.360 -44.369  -6.730  1.00  0.00    -0.318 N 
HETATM    4  C6  UNL     1      53.257 -44.661  -7.829  1.00  0.00     0.203 C 
HETATM    5  S1  UNL     1      52.091 -44.471  -9.239  1.00  0.00    -0.138 SA
HETATM    6  C7  UNL     1      50.748 -43.617  -8.322  1.00  0.00     0.019 C 
HETATM    7  C8  UNL     1      49.557 -44.494  -8.141  1.00  0.00     0.028 C 
HETATM    8  C9  UNL     1      50.364 -42.335  -9.003  1.00  0.00     0.028 C 
HETATM    9  C10 UNL     1      51.469 -43.299  -7.032  1.00  0.00     0.148 C 
ENDROOT
BRANCH   1  10
HETATM   10  O1  UNL     1      51.523 -44.785  -4.472  1.00  0.00    -0.299 OA
BRANCH  10  11
HETATM   11  C3  UNL     1      51.891 -44.302  -3.226  1.00  0.00     0.129 C 
HETATM   12  C4  UNL     1      52.653 -42.995  -3.271  1.00  0.00     0.040 C 
BRANCH  11  13
HETATM   13  C2  UNL     1      50.753 -44.219  -2.236  1.00  0.00     0.028 C 
HETATM   14  C1  UNL     1      49.943 -45.503  -2.210  1.00  0.00     0.007 C 
ENDBRANCH  11  13
ENDBRANCH  10  11
ENDBRANCH   1  10
TORSDOF 3
ENDMDL
MODEL 5
REMARK VINA RESULT: -6.433299166      2.402      3.187
REMARK  3 active torsions:
REMARK  status: ('A' for Active; 'I' for Inactive)
REMARK    1  A    between atoms: C2_2  and  C3_3 
REMARK    2  A    between atoms: C3_3  and  O1_5 
REMARK    3  A    between atoms: O1_5  and  C5_6 
REMARK       I    between atoms: C5_6  and  N1_8 
ROOT
HETATM    1  C5  UNL     1      53.095 -43.509  -6.788  1.00  0.00     0.363 C 
HETATM    2  O2  UNL     1      54.101 -44.243  -6.639  1.00  0.00    -0.238 OA
HETATM    3  N1  UNL     1      52.565 -43.186  -8.064  1.00  0.00    -0.318 N 
HETATM    4  C6  UNL     1      53.144 -43.680  -9.296  1.00  0.00     0.203 C 
HETATM    5  S1  UNL     1      51.606 -44.041 -10.238  1.00  0.00    -0.138 SA
HETATM    6  C7  UNL     1      50.444 -43.117  -9.156  1.00  0.00     0.019 C 
HETATM    7  C8  UNL     1      49.558 -44.035  -8.385  1.00  0.00     0.028 C 
HETATM    8  C9  UNL     1      49.629 -42.140  -9.954  1.00  0.00     0.028 C 
HETATM    9  C10 UNL     1      51.428 -42.358  -8.296  1.00  0.00     0.148 C 
ENDROOT
BRANCH   1  10
HETATM   10  O1  UNL     1      52.521 -43.023  -5.626  1.00  0.00    -0.299 OA
BRANCH  10  11
HETATM   11  C3  UNL     1      52.246 -43.768  -4.491  1.00  0.00     0.129 C 
HETATM   12  C4  UNL     1      52.598 -43.070  -3.194  1.00  0.00     0.040 C 
BRANCH  11  13
HETATM   13  C2  UNL     1      50.838 -44.312  -4.434  1.00  0.00     0.028 C 
HETATM   14  C1  UNL     1      50.421 -44.631  -3.009  1.00  0.00     0.007 C 
ENDBRANCH  11  13
ENDBRANCH  10  11
ENDBRANCH   1  10
TORSDOF 3
ENDMDL
