MODEL 1
REMARK VINA RESULT: -7.133838682      0.000      0.000
REMARK  5 active torsions:
REMARK  status: ('A' for Active; 'I' for Inactive)
REMARK    1  A    between atoms: C1_4  and  O1_5 
REMARK    2  A    between atoms: O1_5  and  N2_6 
REMARK    3  A    between atoms: N2_6  and  C2_8 
REMARK    4  A    between atoms: C11_20  and  O2_21 
REMARK    5  A    between atoms: C12_25  and  O3_26 
ROOT
HETATM    1  C2  UNL     1       7.094  25.193  24.317  1.00  0.00     0.142 C 
HETATM    2  N3  UNL     1       7.155  24.905  25.579  1.00  0.00    -0.340 N 
ATOM      3  H3  UNL     1       7.918  24.252  25.760  1.00  0.00     0.167 HD
HETATM    4  C3  UNL     1       6.483  25.223  26.776  1.00  0.00     0.044 A 
HETATM    5  C4  UNL     1       6.368  24.099  27.545  1.00  0.00     0.030 A 
HETATM    6  C5  UNL     1       5.738  24.162  28.791  1.00  0.00     0.002 A 
HETATM    7  C6  UNL     1       5.246  25.370  29.210  1.00  0.00     0.001 A 
HETATM    8  C7  UNL     1       5.376  26.503  28.409  1.00  0.00     0.014 A 
HETATM    9  C8  UNL     1       5.992  26.459  27.183  1.00  0.00    -0.003 A 
HETATM   10  C9  UNL     1       5.925  27.814  26.680  1.00  0.00     0.064 C 
HETATM   11  S1  UNL     1       4.999  28.100  25.217  1.00  0.00    -0.096 SA
HETATM   12  C10 UNL     1       5.399  27.143  23.802  1.00  0.00     0.074 A 
HETATM   13  C11 UNL     1       4.789  27.499  22.579  1.00  0.00     0.160 A 
HETATM   14  N4  UNL     1       5.233  26.643  21.686  1.00  0.00    -0.316 N 
ATOM     15  H4  UNL     1       4.957  26.660  20.705  1.00  0.00     0.170 HD
HETATM   16  C12 UNL     1       6.079  25.754  22.196  1.00  0.00     0.157 A 
HETATM   17  C13 UNL     1       6.214  26.043  23.562  1.00  0.00     0.082 A 
ENDROOT
BRANCH   1  18
HETATM   18  N2  UNL     1       8.064  24.559  23.516  1.00  0.00    -0.243 N 
ATOM     19  H2  UNL     1       8.523  25.079  22.768  1.00  0.00     0.196 HD
BRANCH  18  20
HETATM   20  O1  UNL     1       8.390  23.258  23.737  1.00  0.00    -0.232 OA
BRANCH  20  21
HETATM   21  C1  UNL     1       9.097  22.536  22.788  1.00  0.00     0.252 C 
HETATM   22  N1  UNL     1       8.814  22.679  21.536  1.00  0.00    -0.388 N 
ATOM     23  H12 UNL     1       8.072  23.323  21.264  1.00  0.00     0.157 HD
ATOM     24  H11 UNL     1       9.334  22.148  20.838  1.00  0.00     0.157 HD
ENDBRANCH  20  21
ENDBRANCH  18  20
ENDBRANCH   1  18
BRANCH  16  25
HETATM   25  O3  UNL     1       6.743  24.711  21.572  1.00  0.00    -0.345 OA
ATOM     26  H3  UNL     1       6.903  23.827  21.879  1.00  0.00     0.219 HD
ENDBRANCH  16  25
BRANCH  13  27
HETATM   27  O2  UNL     1       3.920  28.562  22.502  1.00  0.00    -0.345 OA
ATOM     28  H2  UNL     1       3.635  28.904  21.662  1.00  0.00     0.219 HD
ENDBRANCH  13  27
TORSDOF 5
ENDMDL
MODEL 2
REMARK VINA RESULT: -6.964984090      3.757      6.539
REMARK  5 active torsions:
REMARK  status: ('A' for Active; 'I' for Inactive)
REMARK    1  A    between atoms: C1_4  and  O1_5 
REMARK    2  A    between atoms: O1_5  and  N2_6 
REMARK    3  A    between atoms: N2_6  and  C2_8 
REMARK    4  A    between atoms: C11_20  and  O2_21 
REMARK    5  A    between atoms: C12_25  and  O3_26 
ROOT
HETATM    1  C2  UNL     1       4.804  28.818  25.595  1.00  0.00     0.142 C 
HETATM    2  N3  UNL     1       5.135  28.438  24.402  1.00  0.00    -0.340 N 
ATOM      3  H3  UNL     1       5.241  29.244  23.787  1.00  0.00     0.167 HD
HETATM    4  C3  UNL     1       5.394  27.243  23.700  1.00  0.00     0.044 A 
HETATM    5  C4  UNL     1       4.858  27.329  22.446  1.00  0.00     0.030 A 
HETATM    6  C5  UNL     1       4.989  26.263  21.551  1.00  0.00     0.002 A 
HETATM    7  C6  UNL     1       5.662  25.145  21.968  1.00  0.00     0.001 A 
HETATM    8  C7  UNL     1       6.200  25.080  23.252  1.00  0.00     0.014 A 
HETATM    9  C8  UNL     1       6.081  26.118  24.142  1.00  0.00    -0.003 A 
HETATM   10  C9  UNL     1       6.762  25.669  25.337  1.00  0.00     0.064 C 
HETATM   11  S1  UNL     1       5.811  25.472  26.798  1.00  0.00    -0.096 SA
HETATM   12  C10 UNL     1       4.865  26.847  27.343  1.00  0.00     0.074 A 
HETATM   13  C11 UNL     1       4.252  26.755  28.611  1.00  0.00     0.160 A 
HETATM   14  N4  UNL     1       3.604  27.885  28.786  1.00  0.00    -0.316 N 
ATOM     15  H4  UNL     1       3.063  28.100  29.623  1.00  0.00     0.170 HD
HETATM   16  C12 UNL     1       3.728  28.718  27.759  1.00  0.00     0.157 A 
HETATM   17  C13 UNL     1       4.537  28.085  26.803  1.00  0.00     0.082 A 
ENDROOT
BRANCH   1  18
HETATM   18  N2  UNL     1       4.672  30.211  25.760  1.00  0.00    -0.243 N 
ATOM     19  H2  UNL     1       3.747  30.639  25.744  1.00  0.00     0.196 HD
BRANCH  18  20
HETATM   20  O1  UNL     1       5.775  30.986  25.939  1.00  0.00    -0.232 OA
BRANCH  20  21
HETATM   21  C1  UNL     1       6.347  31.121  27.194  1.00  0.00     0.252 C 
HETATM   22  N1  UNL     1       7.403  31.850  27.340  1.00  0.00    -0.388 N 
ATOM     23  H12 UNL     1       7.802  32.317  26.525  1.00  0.00     0.157 HD
ATOM     24  H11 UNL     1       7.824  31.949  28.264  1.00  0.00     0.157 HD
ENDBRANCH  20  21
ENDBRANCH  18  20
ENDBRANCH   1  18
BRANCH  16  25
HETATM   25  O3  UNL     1       3.195  29.985  27.581  1.00  0.00    -0.345 OA
ATOM     26  H3  UNL     1       3.330  30.774  28.092  1.00  0.00     0.219 HD
ENDBRANCH  16  25
BRANCH  13  27
HETATM   27  O2  UNL     1       4.398  25.632  29.392  1.00  0.00    -0.345 OA
ATOM     28  H2  UNL     1       5.173  25.087  29.329  1.00  0.00     0.219 HD
ENDBRANCH  13  27
TORSDOF 5
ENDMDL
MODEL 3
REMARK VINA RESULT: -6.850188210      2.965      5.319
REMARK  5 active torsions:
REMARK  status: ('A' for Active; 'I' for Inactive)
REMARK    1  A    between atoms: C1_4  and  O1_5 
REMARK    2  A    between atoms: O1_5  and  N2_6 
REMARK    3  A    between atoms: N2_6  and  C2_8 
REMARK    4  A    between atoms: C11_20  and  O2_21 
REMARK    5  A    between atoms: C12_25  and  O3_26 
ROOT
HETATM    1  C2  UNL     1       6.070  26.455  26.473  1.00  0.00     0.142 C 
HETATM    2  N3  UNL     1       6.417  25.497  25.673  1.00  0.00    -0.340 N 
ATOM      3  H3  UNL     1       6.613  24.646  26.199  1.00  0.00     0.167 HD
HETATM    4  C3  UNL     1       6.606  25.279  24.293  1.00  0.00     0.044 A 
HETATM    5  C4  UNL     1       7.709  24.494  24.105  1.00  0.00     0.030 A 
HETATM    6  C5  UNL     1       8.102  24.133  22.813  1.00  0.00     0.002 A 
HETATM    7  C6  UNL     1       7.355  24.586  21.757  1.00  0.00     0.001 A 
HETATM    8  C7  UNL     1       6.235  25.385  21.974  1.00  0.00     0.014 A 
HETATM    9  C8  UNL     1       5.835  25.748  23.236  1.00  0.00    -0.003 A 
HETATM   10  C9  UNL     1       4.653  26.559  23.037  1.00  0.00     0.064 C 
HETATM   11  S1  UNL     1       4.721  28.241  23.533  1.00  0.00    -0.096 SA
HETATM   12  C10 UNL     1       5.193  28.582  25.188  1.00  0.00     0.074 A 
HETATM   13  C11 UNL     1       5.067  29.913  25.642  1.00  0.00     0.160 A 
HETATM   14  N4  UNL     1       5.485  29.916  26.887  1.00  0.00    -0.316 N 
ATOM     15  H4  UNL     1       5.508  30.751  27.472  1.00  0.00     0.170 HD
HETATM   16  C12 UNL     1       5.877  28.717  27.305  1.00  0.00     0.157 A 
HETATM   17  C13 UNL     1       5.703  27.825  26.236  1.00  0.00     0.082 A 
ENDROOT
BRANCH   1  18
HETATM   18  N2  UNL     1       6.042  26.109  27.838  1.00  0.00    -0.243 N 
ATOM     19  H2  UNL     1       6.869  26.256  28.416  1.00  0.00     0.196 HD
BRANCH  18  20
HETATM   20  O1  UNL     1       4.916  25.578  28.386  1.00  0.00    -0.232 OA
BRANCH  20  21
HETATM   21  C1  UNL     1       4.984  24.830  29.551  1.00  0.00     0.252 C 
HETATM   22  N1  UNL     1       5.988  24.042  29.747  1.00  0.00    -0.388 N 
ATOM     23  H12 UNL     1       6.720  23.984  29.038  1.00  0.00     0.157 HD
ATOM     24  H11 UNL     1       6.038  23.492  30.604  1.00  0.00     0.157 HD
ENDBRANCH  20  21
ENDBRANCH  18  20
ENDBRANCH   1  18
BRANCH  16  25
HETATM   25  O3  UNL     1       6.374  28.333  28.540  1.00  0.00    -0.345 OA
ATOM     26  H3  UNL     1       7.273  28.280  28.840  1.00  0.00     0.219 HD
ENDBRANCH  16  25
BRANCH  13  27
HETATM   27  O2  UNL     1       4.583  30.902  24.817  1.00  0.00    -0.345 OA
ATOM     28  H2  UNL     1       3.893  30.724  24.189  1.00  0.00     0.219 HD
ENDBRANCH  13  27
TORSDOF 5
ENDMDL
MODEL 4
REMARK VINA RESULT: -6.829986096      6.751      9.350
REMARK  5 active torsions:
REMARK  status: ('A' for Active; 'I' for Inactive)
REMARK    1  A    between atoms: C1_4  and  O1_5 
REMARK    2  A    between atoms: O1_5  and  N2_6 
REMARK    3  A    between atoms: N2_6  and  C2_8 
REMARK    4  A    between atoms: C11_20  and  O2_21 
REMARK    5  A    between atoms: C12_25  and  O3_26 
ROOT
HETATM    1  C2  UNL     1       6.325  23.381  32.692  1.00  0.00     0.142 C 
HETATM    2  N3  UNL     1       6.265  23.517  31.406  1.00  0.00    -0.340 N 
ATOM      3  H3  UNL     1       6.795  22.778  30.943  1.00  0.00     0.167 HD
HETATM    4  C3  UNL     1       5.687  24.380  30.453  1.00  0.00     0.044 A 
HETATM    5  C4  UNL     1       6.573  24.591  29.435  1.00  0.00     0.030 A 
HETATM    6  C5  UNL     1       6.226  25.415  28.360  1.00  0.00     0.002 A 
HETATM    7  C6  UNL     1       4.985  25.996  28.362  1.00  0.00     0.001 A 
HETATM    8  C7  UNL     1       4.098  25.766  29.412  1.00  0.00     0.014 A 
HETATM    9  C8  UNL     1       4.423  24.960  30.474  1.00  0.00    -0.003 A 
HETATM   10  C9  UNL     1       3.257  24.977  31.329  1.00  0.00     0.064 C 
HETATM   11  S1  UNL     1       3.428  25.662  32.936  1.00  0.00    -0.096 SA
HETATM   12  C10 UNL     1       4.696  25.016  33.963  1.00  0.00     0.074 A 
HETATM   13  C11 UNL     1       4.717  25.430  35.313  1.00  0.00     0.160 A 
HETATM   14  N4  UNL     1       5.746  24.828  35.864  1.00  0.00    -0.316 N 
ATOM     15  H4  UNL     1       6.008  24.943  36.843  1.00  0.00     0.170 HD
HETATM   16  C12 UNL     1       6.411  24.055  35.013  1.00  0.00     0.157 A 
HETATM   17  C13 UNL     1       5.764  24.148  33.772  1.00  0.00     0.082 A 
ENDROOT
BRANCH   1  18
HETATM   18  N2  UNL     1       7.082  22.280  33.139  1.00  0.00    -0.243 N 
ATOM     19  H2  UNL     1       6.731  21.697  33.899  1.00  0.00     0.196 HD
BRANCH  18  20
HETATM   20  O1  UNL     1       8.278  21.992  32.559  1.00  0.00    -0.232 OA
BRANCH  20  21
HETATM   21  C1  UNL     1       9.115  21.033  33.107  1.00  0.00     0.252 C 
HETATM   22  N1  UNL     1       8.866  20.564  34.284  1.00  0.00    -0.388 N 
ATOM     23  H12 UNL     1       8.052  20.909  34.795  1.00  0.00     0.157 HD
ATOM     24  H11 UNL     1       9.482  19.858  34.687  1.00  0.00     0.157 HD
ENDBRANCH  20  21
ENDBRANCH  18  20
ENDBRANCH   1  18
BRANCH  16  25
HETATM   25  O3  UNL     1       7.536  23.274  35.225  1.00  0.00    -0.345 OA
ATOM     26  H3  UNL     1       7.843  22.860  36.023  1.00  0.00     0.219 HD
ENDBRANCH  16  25
BRANCH  13  27
HETATM   27  O2  UNL     1       3.771  26.301  35.804  1.00  0.00    -0.345 OA
ATOM     28  H2  UNL     1       2.889  26.317  35.453  1.00  0.00     0.219 HD
ENDBRANCH  13  27
TORSDOF 5
ENDMDL
MODEL 5
REMARK VINA RESULT: -6.686694865      3.610      6.669
REMARK  5 active torsions:
REMARK  status: ('A' for Active; 'I' for Inactive)
REMARK    1  A    between atoms: C1_4  and  O1_5 
REMARK    2  A    between atoms: O1_5  and  N2_6 
REMARK    3  A    between atoms: N2_6  and  C2_8 
REMARK    4  A    between atoms: C11_20  and  O2_21 
REMARK    5  A    between atoms: C12_25  and  O3_26 
ROOT
HETATM    1  C2  UNL     1       5.376  28.351  26.401  1.00  0.00     0.142 C 
HETATM    2  N3  UNL     1       5.569  28.158  25.135  1.00  0.00    -0.340 N 
ATOM      3  H3  UNL     1       5.723  29.047  24.658  1.00  0.00     0.167 HD
HETATM    4  C3  UNL     1       5.632  27.089  24.219  1.00  0.00     0.044 A 
HETATM    5  C4  UNL     1       5.017  27.454  23.054  1.00  0.00     0.030 A 
HETATM    6  C5  UNL     1       4.953  26.557  21.983  1.00  0.00     0.002 A 
HETATM    7  C6  UNL     1       5.519  25.319  22.138  1.00  0.00     0.001 A 
HETATM    8  C7  UNL     1       6.141  24.970  23.336  1.00  0.00     0.014 A 
HETATM    9  C8  UNL     1       6.213  25.838  24.396  1.00  0.00    -0.003 A 
HETATM   10  C9  UNL     1       6.923  25.114  25.427  1.00  0.00     0.064 C 
HETATM   11  S1  UNL     1       6.067  24.758  26.917  1.00  0.00    -0.096 SA
HETATM   12  C10 UNL     1       5.334  26.102  27.775  1.00  0.00     0.074 A 
HETATM   13  C11 UNL     1       4.811  25.849  29.061  1.00  0.00     0.160 A 
HETATM   14  N4  UNL     1       4.317  26.989  29.486  1.00  0.00    -0.316 N 
ATOM     15  H4  UNL     1       3.869  27.105  30.395  1.00  0.00     0.170 HD
HETATM   16  C12 UNL     1       4.461  27.976  28.608  1.00  0.00     0.157 A 
HETATM   17  C13 UNL     1       5.116  27.444  27.487  1.00  0.00     0.082 A 
ENDROOT
BRANCH   1  18
HETATM   18  N2  UNL     1       5.422  29.697  26.812  1.00  0.00    -0.243 N 
ATOM     19  H2  UNL     1       5.727  29.931  27.757  1.00  0.00     0.196 HD
BRANCH  18  20
HETATM   20  O1  UNL     1       5.061  30.687  25.952  1.00  0.00    -0.232 OA
BRANCH  20  21
HETATM   21  C1  UNL     1       3.725  31.003  25.759  1.00  0.00     0.252 C 
HETATM   22  N1  UNL     1       2.937  31.095  26.778  1.00  0.00    -0.388 N 
ATOM     23  H12 UNL     1       3.312  30.934  27.713  1.00  0.00     0.157 HD
ATOM     24  H11 UNL     1       1.954  31.327  26.636  1.00  0.00     0.157 HD
ENDBRANCH  20  21
ENDBRANCH  18  20
ENDBRANCH   1  18
BRANCH  16  25
HETATM   25  O3  UNL     1       4.070  29.302  28.700  1.00  0.00    -0.345 OA
ATOM     26  H3  UNL     1       3.340  29.747  28.286  1.00  0.00     0.219 HD
ENDBRANCH  16  25
BRANCH  13  27
HETATM   27  O2  UNL     1       4.882  24.595  29.623  1.00  0.00    -0.345 OA
ATOM     28  H2  UNL     1       5.396  23.905  29.221  1.00  0.00     0.219 HD
ENDBRANCH  13  27
TORSDOF 5
ENDMDL
