MODEL 1
REMARK VINA RESULT: -7.129577821      0.000      0.000
REMARK  3 active torsions:
REMARK  status: ('A' for Active; 'I' for Inactive)
REMARK    1  A    between atoms: N1_1  and  C1_4 
REMARK    2  A    between atoms: C3_8  and  C4_9 
REMARK    3  A    between atoms: C14_25  and  O1_26 
ROOT
HETATM    1  C4  UNL     1       4.187  27.188  28.777  1.00  0.00    -0.017 A 
HETATM    2  C5  UNL     1       4.580  25.885  28.568  1.00  0.00     0.015 A 
HETATM    3  C6  UNL     1       4.732  25.007  29.617  1.00  0.00     0.038 A 
HETATM    4  C7  UNL     1       4.481  25.461  30.910  1.00  0.00     0.080 A 
HETATM    5  C8  UNL     1       4.087  26.767  31.120  1.00  0.00    -0.009 A 
HETATM    6  C9  UNL     1       3.941  27.628  30.056  1.00  0.00     0.023 A 
HETATM    7  C10 UNL     1       3.792  27.364  32.447  1.00  0.00     0.123 C 
HETATM    8  C11 UNL     1       5.056  27.840  33.079  1.00  0.00     0.068 A 
HETATM    9  C12 UNL     1       6.071  26.994  33.512  1.00  0.00     0.128 A 
HETATM   10  N3  UNL     1       6.200  28.397  33.659  1.00  0.00    -0.341 N 
ATOM     11  H3  UNL     1       6.733  29.212  33.963  1.00  0.00     0.167 HD
HETATM   12  N4  UNL     1       6.080  25.561  33.430  1.00  0.00    -0.332 N 
ATOM     13  H4  UNL     1       6.979  25.086  33.499  1.00  0.00     0.165 HD
HETATM   14  C13 UNL     1       4.892  24.744  33.255  1.00  0.00     0.335 C 
HETATM   15  N5  UNL     1       3.792  25.346  33.905  1.00  0.00    -0.354 N 
ATOM     16  H5  UNL     1       3.529  25.047  34.844  1.00  0.00     0.160 HD
HETATM   17  C14 UNL     1       3.062  26.357  33.259  1.00  0.00     0.231 C 
HETATM   18  O2  UNL     1       4.679  24.449  31.872  1.00  0.00    -0.308 OA
ENDROOT
BRANCH   1  19
HETATM   19  C3  UNL     1       4.038  28.093  27.617  1.00  0.00     0.034 A 
HETATM   20  C2  UNL     1       4.037  27.771  26.287  1.00  0.00     0.110 A 
HETATM   21  N2  UNL     1       3.891  28.735  25.426  1.00  0.00    -0.346 N 
HETATM   22  C1  UNL     1       3.750  29.978  25.875  1.00  0.00     0.142 A 
ATOM     23  H2  UNL     1       3.884  28.540  24.424  1.00  0.00     0.167 HD
HETATM   24  S1  UNL     1       3.827  29.784  27.568  1.00  0.00    -0.052 SA
BRANCH  22  25
HETATM   25  N1  UNL     1       3.591  31.079  25.177  1.00  0.00    -0.380 N 
ATOM     26  H12 UNL     1       3.357  31.184  24.190  1.00  0.00     0.158 HD
ATOM     27  H11 UNL     1       3.673  32.045  25.496  1.00  0.00     0.158 HD
ENDBRANCH  22  25
ENDBRANCH   1  19
BRANCH  17  28
HETATM   28  O1  UNL     1       2.048  25.822  32.430  1.00  0.00    -0.376 OA
ATOM     29  H1  UNL     1       2.465  25.571  31.614  1.00  0.00     0.212 HD
ENDBRANCH  17  28
TORSDOF 3
ENDMDL
MODEL 2
REMARK VINA RESULT: -7.070392366      1.358      1.494
REMARK  3 active torsions:
REMARK  status: ('A' for Active; 'I' for Inactive)
REMARK    1  A    between atoms: N1_1  and  C1_4 
REMARK    2  A    between atoms: C3_8  and  C4_9 
REMARK    3  A    between atoms: C14_25  and  O1_26 
ROOT
HETATM    1  C4  UNL     1       4.836  26.293  28.323  1.00  0.00    -0.017 A 
HETATM    2  C5  UNL     1       5.689  25.245  28.588  1.00  0.00     0.015 A 
HETATM    3  C6  UNL     1       5.790  24.707  29.850  1.00  0.00     0.038 A 
HETATM    4  C7  UNL     1       5.008  25.243  30.870  1.00  0.00     0.080 A 
HETATM    5  C8  UNL     1       4.152  26.294  30.606  1.00  0.00    -0.009 A 
HETATM    6  C9  UNL     1       4.067  26.817  29.335  1.00  0.00     0.023 A 
HETATM    7  C10 UNL     1       3.272  26.948  31.607  1.00  0.00     0.123 C 
HETATM    8  C11 UNL     1       4.034  27.999  32.340  1.00  0.00     0.068 A 
HETATM    9  C12 UNL     1       5.083  27.727  33.210  1.00  0.00     0.128 A 
HETATM   10  N3  UNL     1       4.679  29.065  32.975  1.00  0.00    -0.341 N 
ATOM     11  H3  UNL     1       4.782  30.066  33.143  1.00  0.00     0.167 HD
HETATM   12  N4  UNL     1       5.600  26.432  33.545  1.00  0.00    -0.332 N 
ATOM     13  H4  UNL     1       6.537  26.381  33.945  1.00  0.00     0.165 HD
HETATM   14  C13 UNL     1       4.877  25.187  33.352  1.00  0.00     0.335 C 
HETATM   15  N5  UNL     1       3.494  25.399  33.542  1.00  0.00    -0.354 N 
ATOM     16  H5  UNL     1       3.065  25.192  34.445  1.00  0.00     0.160 HD
HETATM   17  C14 UNL     1       2.708  25.894  32.489  1.00  0.00     0.231 C 
HETATM   18  O2  UNL     1       5.223  24.589  32.100  1.00  0.00    -0.308 OA
ENDROOT
BRANCH   1  19
HETATM   19  C3  UNL     1       4.763  26.837  26.950  1.00  0.00     0.034 A 
HETATM   20  C2  UNL     1       5.615  26.609  25.903  1.00  0.00     0.110 A 
HETATM   21  N2  UNL     1       5.361  27.196  24.771  1.00  0.00    -0.346 N 
HETATM   22  C1  UNL     1       4.293  27.983  24.684  1.00  0.00     0.142 A 
ATOM     23  H2  UNL     1       5.970  27.056  23.964  1.00  0.00     0.167 HD
HETATM   24  S1  UNL     1       3.624  27.895  26.250  1.00  0.00    -0.052 SA
BRANCH  22  25
HETATM   25  N1  UNL     1       3.867  28.660  23.641  1.00  0.00    -0.380 N 
ATOM     26  H12 UNL     1       4.408  29.184  22.953  1.00  0.00     0.158 HD
ATOM     27  H11 UNL     1       2.907  28.788  23.323  1.00  0.00     0.158 HD
ENDBRANCH  22  25
ENDBRANCH   1  19
BRANCH  17  28
HETATM   28  O1  UNL     1       2.249  24.856  31.644  1.00  0.00    -0.376 OA
ATOM     29  H1  UNL     1       1.383  24.616  31.951  1.00  0.00     0.212 HD
ENDBRANCH  17  28
TORSDOF 3
ENDMDL
MODEL 3
REMARK VINA RESULT: -7.009818302      4.731      6.996
REMARK  3 active torsions:
REMARK  status: ('A' for Active; 'I' for Inactive)
REMARK    1  A    between atoms: N1_1  and  C1_4 
REMARK    2  A    between atoms: C3_8  and  C4_9 
REMARK    3  A    between atoms: C14_25  and  O1_26 
ROOT
HETATM    1  C4  UNL     1       5.739  26.988  24.173  1.00  0.00    -0.017 A 
HETATM    2  C5  UNL     1       4.601  27.404  23.518  1.00  0.00     0.015 A 
HETATM    3  C6  UNL     1       3.844  28.449  23.995  1.00  0.00     0.038 A 
HETATM    4  C7  UNL     1       4.248  29.089  25.164  1.00  0.00     0.080 A 
HETATM    5  C8  UNL     1       5.389  28.673  25.821  1.00  0.00    -0.009 A 
HETATM    6  C9  UNL     1       6.131  27.624  25.326  1.00  0.00     0.023 A 
HETATM    7  C10 UNL     1       5.918  29.273  27.072  1.00  0.00     0.123 C 
HETATM    8  C11 UNL     1       5.241  28.662  28.252  1.00  0.00     0.068 A 
HETATM    9  C12 UNL     1       3.896  28.844  28.550  1.00  0.00     0.128 A 
HETATM   10  N3  UNL     1       4.711  28.041  29.386  1.00  0.00    -0.341 N 
ATOM     11  H3  UNL     1       4.826  27.448  30.208  1.00  0.00     0.167 HD
HETATM   12  N4  UNL     1       2.953  29.624  27.801  1.00  0.00    -0.332 N 
ATOM     13  H4  UNL     1       1.961  29.439  27.944  1.00  0.00     0.165 HD
HETATM   14  C13 UNL     1       3.320  30.660  26.852  1.00  0.00     0.335 C 
HETATM   15  N5  UNL     1       4.500  31.308  27.278  1.00  0.00    -0.354 N 
ATOM     16  H5  UNL     1       4.442  32.185  27.797  1.00  0.00     0.160 HD
HETATM   17  C14 UNL     1       5.754  30.747  26.986  1.00  0.00     0.231 C 
HETATM   18  O2  UNL     1       3.373  30.134  25.523  1.00  0.00    -0.308 OA
ENDROOT
BRANCH   1  19
HETATM   19  C3  UNL     1       6.519  25.859  23.621  1.00  0.00     0.034 A 
HETATM   20  C2  UNL     1       7.228  24.907  24.303  1.00  0.00     0.110 A 
HETATM   21  N2  UNL     1       7.848  23.996  23.612  1.00  0.00    -0.346 N 
HETATM   22  C1  UNL     1       7.764  24.032  22.286  1.00  0.00     0.142 A 
ATOM     23  H2  UNL     1       8.389  23.268  24.079  1.00  0.00     0.167 HD
HETATM   24  S1  UNL     1       6.780  25.396  22.001  1.00  0.00    -0.052 SA
BRANCH  22  25
HETATM   25  N1  UNL     1       8.311  23.213  21.416  1.00  0.00    -0.380 N 
ATOM     26  H12 UNL     1       8.834  22.354  21.586  1.00  0.00     0.158 HD
ATOM     27  H11 UNL     1       8.313  23.285  20.399  1.00  0.00     0.158 HD
ENDBRANCH  22  25
ENDBRANCH   1  19
BRANCH  17  28
HETATM   28  O1  UNL     1       6.217  31.135  25.707  1.00  0.00    -0.376 OA
ATOM     29  H1  UNL     1       6.648  31.975  25.815  1.00  0.00     0.212 HD
ENDBRANCH  17  28
TORSDOF 3
ENDMDL
MODEL 4
REMARK VINA RESULT: -6.956656016      4.305      6.897
REMARK  3 active torsions:
REMARK  status: ('A' for Active; 'I' for Inactive)
REMARK    1  A    between atoms: N1_1  and  C1_4 
REMARK    2  A    between atoms: C3_8  and  C4_9 
REMARK    3  A    between atoms: C14_25  and  O1_26 
ROOT
HETATM    1  C4  UNL     1       5.531  26.428  27.617  1.00  0.00    -0.017 A 
HETATM    2  C5  UNL     1       4.300  26.408  28.233  1.00  0.00     0.015 A 
HETATM    3  C6  UNL     1       3.427  27.466  28.121  1.00  0.00     0.038 A 
HETATM    4  C7  UNL     1       3.810  28.571  27.365  1.00  0.00     0.080 A 
HETATM    5  C8  UNL     1       5.044  28.592  26.747  1.00  0.00    -0.009 A 
HETATM    6  C9  UNL     1       5.902  27.523  26.873  1.00  0.00     0.023 A 
HETATM    7  C10 UNL     1       5.563  29.711  25.919  1.00  0.00     0.123 C 
HETATM    8  C11 UNL     1       6.193  30.738  26.797  1.00  0.00     0.068 A 
HETATM    9  C12 UNL     1       5.485  31.527  27.696  1.00  0.00     0.128 A 
HETATM   10  N3  UNL     1       6.889  31.672  27.571  1.00  0.00    -0.341 N 
ATOM     11  H3  UNL     1       7.762  32.124  27.843  1.00  0.00     0.167 HD
HETATM   12  N4  UNL     1       4.070  31.492  27.931  1.00  0.00    -0.332 N 
ATOM     13  H4  UNL     1       3.722  31.889  28.803  1.00  0.00     0.165 HD
HETATM   14  C13 UNL     1       3.101  30.928  27.008  1.00  0.00     0.335 C 
HETATM   15  N5  UNL     1       3.529  31.127  25.678  1.00  0.00    -0.354 N 
ATOM     16  H5  UNL     1       3.174  31.918  25.140  1.00  0.00     0.160 HD
HETATM   17  C14 UNL     1       4.445  30.236  25.094  1.00  0.00     0.231 C 
HETATM   18  O2  UNL     1       2.813  29.568  27.345  1.00  0.00    -0.308 OA
ENDROOT
BRANCH   1  19
HETATM   19  C3  UNL     1       6.435  25.267  27.768  1.00  0.00     0.034 A 
HETATM   20  C2  UNL     1       6.676  24.524  28.891  1.00  0.00     0.110 A 
HETATM   21  N2  UNL     1       7.518  23.536  28.800  1.00  0.00    -0.346 N 
HETATM   22  C1  UNL     1       8.099  23.298  27.629  1.00  0.00     0.142 A 
ATOM     23  H2  UNL     1       7.728  22.956  29.612  1.00  0.00     0.167 HD
HETATM   24  S1  UNL     1       7.440  24.505  26.621  1.00  0.00    -0.052 SA
BRANCH  22  25
HETATM   25  N1  UNL     1       8.970  22.359  27.332  1.00  0.00    -0.380 N 
ATOM     26  H12 UNL     1       8.925  21.359  27.526  1.00  0.00     0.158 HD
ATOM     27  H11 UNL     1       9.861  22.458  26.845  1.00  0.00     0.158 HD
ENDBRANCH  22  25
ENDBRANCH   1  19
BRANCH  17  28
HETATM   28  O1  UNL     1       3.795  29.115  24.526  1.00  0.00    -0.376 OA
ATOM     29  H1  UNL     1       2.866  29.312  24.516  1.00  0.00     0.212 HD
ENDBRANCH  17  28
TORSDOF 3
ENDMDL
MODEL 5
REMARK VINA RESULT: -6.922227793      4.411      6.421
REMARK  3 active torsions:
REMARK  status: ('A' for Active; 'I' for Inactive)
REMARK    1  A    between atoms: N1_1  and  C1_4 
REMARK    2  A    between atoms: C3_8  and  C4_9 
REMARK    3  A    between atoms: C14_25  and  O1_26 
ROOT
HETATM    1  C4  UNL     1       6.570  25.656  25.210  1.00  0.00    -0.017 A 
HETATM    2  C5  UNL     1       6.841  25.151  26.462  1.00  0.00     0.015 A 
HETATM    3  C6  UNL     1       6.372  25.769  27.599  1.00  0.00     0.038 A 
HETATM    4  C7  UNL     1       5.609  26.926  27.464  1.00  0.00     0.080 A 
HETATM    5  C8  UNL     1       5.336  27.433  26.210  1.00  0.00    -0.009 A 
HETATM    6  C9  UNL     1       5.816  26.799  25.086  1.00  0.00     0.023 A 
HETATM    7  C10 UNL     1       4.538  28.656  25.940  1.00  0.00     0.123 C 
HETATM    8  C11 UNL     1       5.412  29.860  26.032  1.00  0.00     0.068 A 
HETATM    9  C12 UNL     1       5.988  30.309  27.214  1.00  0.00     0.128 A 
HETATM   10  N3  UNL     1       6.215  31.004  26.000  1.00  0.00    -0.341 N 
ATOM     11  H3  UNL     1       6.646  31.771  25.484  1.00  0.00     0.167 HD
HETATM   12  N4  UNL     1       5.849  29.713  28.511  1.00  0.00    -0.332 N 
ATOM     13  H4  UNL     1       6.543  29.948  29.221  1.00  0.00     0.165 HD
HETATM   14  C13 UNL     1       4.785  28.796  28.881  1.00  0.00     0.335 C 
HETATM   15  N5  UNL     1       3.597  29.134  28.195  1.00  0.00    -0.354 N 
ATOM     16  H5  UNL     1       2.890  29.710  28.653  1.00  0.00     0.160 HD
HETATM   17  C14 UNL     1       3.390  28.678  26.883  1.00  0.00     0.231 C 
HETATM   18  O2  UNL     1       5.204  27.439  28.714  1.00  0.00    -0.308 OA
ENDROOT
BRANCH   1  19
HETATM   19  C3  UNL     1       7.096  24.957  24.018  1.00  0.00     0.034 A 
HETATM   20  C2  UNL     1       6.709  25.101  22.713  1.00  0.00     0.110 A 
HETATM   21  N2  UNL     1       7.312  24.379  21.815  1.00  0.00    -0.346 N 
HETATM   22  C1  UNL     1       8.269  23.543  22.203  1.00  0.00     0.142 A 
ATOM     23  H2  UNL     1       7.055  24.452  20.830  1.00  0.00     0.167 HD
HETATM   24  S1  UNL     1       8.323  23.779  23.892  1.00  0.00    -0.052 SA
BRANCH  22  25
HETATM   25  N1  UNL     1       8.991  22.734  21.460  1.00  0.00    -0.380 N 
ATOM     26  H12 UNL     1       9.941  22.396  21.618  1.00  0.00     0.158 HD
ATOM     27  H11 UNL     1       8.733  22.289  20.580  1.00  0.00     0.158 HD
ENDBRANCH  22  25
ENDBRANCH   1  19
BRANCH  17  28
HETATM   28  O1  UNL     1       2.819  27.384  26.862  1.00  0.00    -0.376 OA
ATOM     29  H1  UNL     1       2.767  27.093  27.765  1.00  0.00     0.212 HD
ENDBRANCH  17  28
TORSDOF 3
ENDMDL
