MODEL 1
REMARK VINA RESULT: -7.130996511      0.000      0.000
REMARK  6 active torsions:
REMARK  status: ('A' for Active; 'I' for Inactive)
REMARK    1  A    between atoms: C1_4  and  N2_5 
REMARK    2  A    between atoms: C1_4  and  C12_25 
REMARK    3  A    between atoms: N3_7  and  N4_9 
REMARK    4  A    between atoms: C4_15  and  O1_16 
REMARK    5  A    between atoms: C12_25  and  N7_29 
REMARK    6  A    between atoms: N7_29  and  N8_31 
ROOT
HETATM    1  N2  UNL     1       7.987  24.540  27.684  1.00  0.00    -0.267 N 
ATOM      2  H2  UNL     1       8.386  25.459  27.880  1.00  0.00     0.190 HD
HETATM    3  N3  UNL     1       7.255  24.382  26.652  1.00  0.00    -0.223 N 
ATOM      4  H3  UNL     1       6.875  23.450  26.487  1.00  0.00     0.210 HD
ENDROOT
BRANCH   3   5
HETATM    5  N4  UNL     1       6.941  25.353  25.753  1.00  0.00    -0.206 N 
HETATM    6  N5  UNL     1       6.121  26.484  26.105  1.00  0.00    -0.274 N 
HETATM    7  C2  UNL     1       5.369  27.160  25.087  1.00  0.00     0.104 A 
ATOM      8  H5  UNL     1       6.076  26.802  27.074  1.00  0.00     0.189 HD
HETATM    9  S1  UNL     1       4.408  28.594  25.059  1.00  0.00    -0.079 SA
HETATM   10  C5  UNL     1       5.375  26.775  23.765  1.00  0.00     0.042 A 
HETATM   11  C3  UNL     1       4.058  28.654  23.393  1.00  0.00     0.089 A 
HETATM   12  C4  UNL     1       4.703  27.547  22.905  1.00  0.00     0.086 A 
HETATM   13  C6  UNL     1       6.087  25.482  23.564  1.00  0.00    -0.012 C 
HETATM   14  C7  UNL     1       6.070  24.863  22.262  1.00  0.00     0.011 C 
HETATM   15  C11 UNL     1       7.338  25.441  24.358  1.00  0.00     0.185 C 
HETATM   16  C8  UNL     1       7.143  24.152  21.891  1.00  0.00     0.001 C 
HETATM   17  C9  UNL     1       8.326  23.992  22.716  1.00  0.00    -0.002 C 
HETATM   18  C10 UNL     1       8.409  24.594  23.888  1.00  0.00     0.007 C 
BRANCH  12  19
HETATM   19  O1  UNL     1       4.625  27.280  21.517  1.00  0.00    -0.359 OA
ATOM     20  H1  UNL     1       5.398  26.943  21.077  1.00  0.00     0.217 HD
ENDBRANCH  12  19
ENDBRANCH   3   5
BRANCH   1  21
HETATM   21  C1  UNL     1       8.259  23.456  28.568  1.00  0.00     0.160 C 
HETATM   22  N1  UNL     1       7.761  23.398  29.752  1.00  0.00    -0.381 N 
ATOM     23  H12 UNL     1       7.158  24.168  30.043  1.00  0.00     0.157 HD
ATOM     24  H11 UNL     1       7.955  22.621  30.385  1.00  0.00     0.157 HD
BRANCH  21  25
HETATM   25  C12 UNL     1       9.134  22.340  28.146  1.00  0.00     0.159 C 
HETATM   26  N6  UNL     1       8.920  21.171  28.650  1.00  0.00    -0.381 N 
ATOM     27  H62 UNL     1       8.166  21.023  29.321  1.00  0.00     0.157 HD
ATOM     28  H61 UNL     1       9.524  20.402  28.359  1.00  0.00     0.157 HD
BRANCH  25  29
HETATM   29  N7  UNL     1      10.173  22.544  27.221  1.00  0.00    -0.289 N 
ATOM     30  H7  UNL     1       9.991  23.154  26.424  1.00  0.00     0.188 HD
BRANCH  29  31
HETATM   31  N8  UNL     1      11.439  21.966  27.325  1.00  0.00    -0.344 N 
ATOM     32  H82 UNL     1      12.142  22.485  27.851  1.00  0.00     0.176 HD
ATOM     33  H81 UNL     1      11.695  21.069  26.911  1.00  0.00     0.176 HD
ENDBRANCH  29  31
ENDBRANCH  25  29
ENDBRANCH  21  25
ENDBRANCH   1  21
TORSDOF 6
ENDMDL
MODEL 2
REMARK VINA RESULT: -6.999149533      3.822      5.700
REMARK  6 active torsions:
REMARK  status: ('A' for Active; 'I' for Inactive)
REMARK    1  A    between atoms: C1_4  and  N2_5 
REMARK    2  A    between atoms: C1_4  and  C12_25 
REMARK    3  A    between atoms: N3_7  and  N4_9 
REMARK    4  A    between atoms: C4_15  and  O1_16 
REMARK    5  A    between atoms: C12_25  and  N7_29 
REMARK    6  A    between atoms: N7_29  and  N8_31 
ROOT
HETATM    1  N2  UNL     1       7.450  25.051  24.309  1.00  0.00    -0.267 N 
ATOM      2  H2  UNL     1       8.222  25.611  24.669  1.00  0.00     0.190 HD
HETATM    3  N3  UNL     1       6.399  24.902  25.017  1.00  0.00    -0.223 N 
ATOM      4  H3  UNL     1       5.647  24.336  24.625  1.00  0.00     0.210 HD
ENDROOT
BRANCH   3   5
HETATM    5  N4  UNL     1       6.200  25.437  26.252  1.00  0.00    -0.206 N 
HETATM    6  N5  UNL     1       6.483  24.703  27.458  1.00  0.00    -0.274 N 
HETATM    7  C2  UNL     1       5.786  25.029  28.669  1.00  0.00     0.104 A 
ATOM      8  H5  UNL     1       7.177  23.954  27.451  1.00  0.00     0.189 HD
HETATM    9  S1  UNL     1       5.923  24.509  30.309  1.00  0.00    -0.079 SA
HETATM   10  C5  UNL     1       4.830  26.017  28.744  1.00  0.00     0.042 A 
HETATM   11  C3  UNL     1       4.782  25.555  31.022  1.00  0.00     0.089 A 
HETATM   12  C4  UNL     1       4.323  26.281  29.953  1.00  0.00     0.086 A 
HETATM   13  C6  UNL     1       4.479  26.559  27.401  1.00  0.00    -0.012 C 
HETATM   14  C7  UNL     1       3.397  27.503  27.283  1.00  0.00     0.011 C 
HETATM   15  C11 UNL     1       5.697  26.761  26.581  1.00  0.00     0.185 C 
HETATM   16  C8  UNL     1       3.483  28.439  26.328  1.00  0.00     0.001 C 
HETATM   17  C9  UNL     1       4.614  28.568  25.427  1.00  0.00    -0.002 C 
HETATM   18  C10 UNL     1       5.654  27.763  25.543  1.00  0.00     0.007 C 
BRANCH  12  19
HETATM   19  O1  UNL     1       3.339  27.272  30.185  1.00  0.00    -0.359 OA
ATOM     20  H1  UNL     1       2.438  27.077  29.955  1.00  0.00     0.217 HD
ENDBRANCH  12  19
ENDBRANCH   3   5
BRANCH   1  21
HETATM   21  C1  UNL     1       7.561  24.447  23.024  1.00  0.00     0.160 C 
HETATM   22  N1  UNL     1       6.906  24.881  22.005  1.00  0.00    -0.381 N 
ATOM     23  H12 UNL     1       6.293  25.683  22.152  1.00  0.00     0.157 HD
ATOM     24  H11 UNL     1       6.986  24.448  21.085  1.00  0.00     0.157 HD
BRANCH  21  25
HETATM   25  C12 UNL     1       8.449  23.283  22.812  1.00  0.00     0.159 C 
HETATM   26  N6  UNL     1       9.009  22.744  23.843  1.00  0.00    -0.381 N 
ATOM     27  H62 UNL     1       8.841  23.114  24.779  1.00  0.00     0.157 HD
ATOM     28  H61 UNL     1       9.621  21.942  23.696  1.00  0.00     0.157 HD
BRANCH  25  29
HETATM   29  N7  UNL     1       8.681  22.773  21.522  1.00  0.00    -0.289 N 
ATOM     30  H7  UNL     1       8.001  22.991  20.793  1.00  0.00     0.188 HD
BRANCH  29  31
HETATM   31  N8  UNL     1       9.781  21.988  21.175  1.00  0.00    -0.344 N 
ATOM     32  H82 UNL     1       9.947  21.153  21.738  1.00  0.00     0.176 HD
ATOM     33  H81 UNL     1      10.416  22.199  20.405  1.00  0.00     0.176 HD
ENDBRANCH  29  31
ENDBRANCH  25  29
ENDBRANCH  21  25
ENDBRANCH   1  21
TORSDOF 6
ENDMDL
MODEL 3
REMARK VINA RESULT: -6.995504349      0.908      1.739
REMARK  6 active torsions:
REMARK  status: ('A' for Active; 'I' for Inactive)
REMARK    1  A    between atoms: C1_4  and  N2_5 
REMARK    2  A    between atoms: C1_4  and  C12_25 
REMARK    3  A    between atoms: N3_7  and  N4_9 
REMARK    4  A    between atoms: C4_15  and  O1_16 
REMARK    5  A    between atoms: C12_25  and  N7_29 
REMARK    6  A    between atoms: N7_29  and  N8_31 
ROOT
HETATM    1  N2  UNL     1       8.104  24.279  27.495  1.00  0.00    -0.267 N 
ATOM      2  H2  UNL     1       8.367  25.204  27.836  1.00  0.00     0.190 HD
HETATM    3  N3  UNL     1       7.470  24.174  26.394  1.00  0.00    -0.223 N 
ATOM      4  H3  UNL     1       7.224  23.233  26.083  1.00  0.00     0.210 HD
ENDROOT
BRANCH   3   5
HETATM    5  N4  UNL     1       7.093  25.212  25.599  1.00  0.00    -0.206 N 
HETATM    6  N5  UNL     1       6.298  26.305  26.096  1.00  0.00    -0.274 N 
HETATM    7  C2  UNL     1       5.478  27.056  25.189  1.00  0.00     0.104 A 
ATOM      8  H5  UNL     1       6.318  26.544  27.087  1.00  0.00     0.189 HD
HETATM    9  S1  UNL     1       4.515  28.481  25.341  1.00  0.00    -0.079 SA
HETATM   10  C5  UNL     1       5.395  26.778  23.842  1.00  0.00     0.042 A 
HETATM   11  C3  UNL     1       4.053  28.672  23.712  1.00  0.00     0.089 A 
HETATM   12  C4  UNL     1       4.665  27.612  23.094  1.00  0.00     0.086 A 
HETATM   13  C6  UNL     1       6.093  25.511  23.490  1.00  0.00    -0.012 C 
HETATM   14  C7  UNL     1       5.989  24.999  22.146  1.00  0.00     0.011 C 
HETATM   15  C11 UNL     1       7.396  25.414  24.191  1.00  0.00     0.185 C 
HETATM   16  C8  UNL     1       7.035  24.327  21.648  1.00  0.00     0.001 C 
HETATM   17  C9  UNL     1       8.272  24.109  22.375  1.00  0.00    -0.002 C 
HETATM   18  C10 UNL     1       8.433  24.616  23.584  1.00  0.00     0.007 C 
BRANCH  12  19
HETATM   19  O1  UNL     1       4.494  27.457  21.698  1.00  0.00    -0.359 OA
ATOM     20  H1  UNL     1       5.267  27.339  21.158  1.00  0.00     0.217 HD
ENDBRANCH  12  19
ENDBRANCH   3   5
BRANCH   1  21
HETATM   21  C1  UNL     1       8.453  23.126  28.256  1.00  0.00     0.160 C 
HETATM   22  N1  UNL     1       8.443  21.944  27.749  1.00  0.00    -0.381 N 
ATOM     23  H12 UNL     1       8.172  21.858  26.770  1.00  0.00     0.157 HD
ATOM     24  H11 UNL     1       8.693  21.119  28.294  1.00  0.00     0.157 HD
BRANCH  21  25
HETATM   25  C12 UNL     1       8.846  23.251  29.676  1.00  0.00     0.159 C 
HETATM   26  N6  UNL     1      10.030  23.689  29.947  1.00  0.00    -0.381 N 
ATOM     27  H62 UNL     1      10.676  23.942  29.199  1.00  0.00     0.157 HD
ATOM     28  H61 UNL     1      10.301  23.774  30.927  1.00  0.00     0.157 HD
BRANCH  25  29
HETATM   29  N7  UNL     1       7.956  22.902  30.708  1.00  0.00    -0.289 N 
ATOM     30  H7  UNL     1       7.154  23.509  30.872  1.00  0.00     0.188 HD
BRANCH  29  31
HETATM   31  N8  UNL     1       8.102  21.777  31.521  1.00  0.00    -0.344 N 
ATOM     32  H82 UNL     1       8.796  21.087  31.233  1.00  0.00     0.176 HD
ATOM     33  H81 UNL     1       7.563  21.612  32.371  1.00  0.00     0.176 HD
ENDBRANCH  29  31
ENDBRANCH  25  29
ENDBRANCH  21  25
ENDBRANCH   1  21
TORSDOF 6
ENDMDL
MODEL 4
REMARK VINA RESULT: -6.932536185      3.600      6.770
REMARK  6 active torsions:
REMARK  status: ('A' for Active; 'I' for Inactive)
REMARK    1  A    between atoms: C1_4  and  N2_5 
REMARK    2  A    between atoms: C1_4  and  C12_25 
REMARK    3  A    between atoms: N3_7  and  N4_9 
REMARK    4  A    between atoms: C4_15  and  O1_16 
REMARK    5  A    between atoms: C12_25  and  N7_29 
REMARK    6  A    between atoms: N7_29  and  N8_31 
ROOT
HETATM    1  N2  UNL     1       4.655  28.722  26.100  1.00  0.00    -0.267 N 
ATOM      2  H2  UNL     1       4.718  28.318  27.034  1.00  0.00     0.190 HD
HETATM    3  N3  UNL     1       5.045  28.041  25.095  1.00  0.00    -0.223 N 
ATOM      4  H3  UNL     1       4.967  28.476  24.175  1.00  0.00     0.210 HD
ENDROOT
BRANCH   3   5
HETATM    5  N4  UNL     1       5.555  26.781  25.147  1.00  0.00    -0.206 N 
HETATM    6  N5  UNL     1       6.008  26.190  26.380  1.00  0.00    -0.274 N 
HETATM    7  C2  UNL     1       7.002  25.155  26.349  1.00  0.00     0.104 A 
ATOM      8  H5  UNL     1       5.625  26.506  27.271  1.00  0.00     0.189 HD
HETATM    9  S1  UNL     1       7.693  24.120  27.545  1.00  0.00    -0.079 SA
HETATM   10  C5  UNL     1       7.570  24.692  25.183  1.00  0.00     0.042 A 
HETATM   11  C3  UNL     1       8.661  23.147  26.535  1.00  0.00     0.089 A 
HETATM   12  C4  UNL     1       8.416  23.662  25.288  1.00  0.00     0.086 A 
HETATM   13  C6  UNL     1       7.177  25.514  24.005  1.00  0.00    -0.012 C 
HETATM   14  C7  UNL     1       7.789  25.253  22.727  1.00  0.00     0.011 C 
HETATM   15  C11 UNL     1       5.732  25.842  24.051  1.00  0.00     0.185 C 
HETATM   16  C8  UNL     1       7.057  25.462  21.625  1.00  0.00     0.001 C 
HETATM   17  C9  UNL     1       5.677  25.912  21.650  1.00  0.00    -0.002 C 
HETATM   18  C10 UNL     1       5.058  26.103  22.801  1.00  0.00     0.007 C 
BRANCH  12  19
HETATM   19  O1  UNL     1       9.071  23.077  24.177  1.00  0.00    -0.359 OA
ATOM     20  H1  UNL     1       9.434  22.204  24.275  1.00  0.00     0.217 HD
ENDBRANCH  12  19
ENDBRANCH   3   5
BRANCH   1  21
HETATM   21  C1  UNL     1       4.135  30.038  25.939  1.00  0.00     0.160 C 
HETATM   22  N1  UNL     1       4.293  30.708  24.852  1.00  0.00    -0.381 N 
ATOM     23  H12 UNL     1       4.813  30.259  24.099  1.00  0.00     0.157 HD
ATOM     24  H11 UNL     1       3.920  31.651  24.737  1.00  0.00     0.157 HD
BRANCH  21  25
HETATM   25  C12 UNL     1       3.381  30.690  27.032  1.00  0.00     0.159 C 
HETATM   26  N6  UNL     1       3.517  30.228  28.230  1.00  0.00    -0.381 N 
ATOM     27  H62 UNL     1       4.130  29.433  28.414  1.00  0.00     0.157 HD
ATOM     28  H61 UNL     1       2.997  30.677  28.984  1.00  0.00     0.157 HD
BRANCH  25  29
HETATM   29  N7  UNL     1       2.537  31.785  26.777  1.00  0.00    -0.289 N 
ATOM     30  H7  UNL     1       2.803  32.432  26.035  1.00  0.00     0.188 HD
BRANCH  29  31
HETATM   31  N8  UNL     1       1.356  32.044  27.476  1.00  0.00    -0.344 N 
ATOM     32  H82 UNL     1       1.412  32.035  28.495  1.00  0.00     0.176 HD
ATOM     33  H81 UNL     1       0.458  32.237  27.032  1.00  0.00     0.176 HD
ENDBRANCH  29  31
ENDBRANCH  25  29
ENDBRANCH  21  25
ENDBRANCH   1  21
TORSDOF 6
ENDMDL
MODEL 5
REMARK VINA RESULT: -6.826922729      5.794      8.062
REMARK  6 active torsions:
REMARK  status: ('A' for Active; 'I' for Inactive)
REMARK    1  A    between atoms: C1_4  and  N2_5 
REMARK    2  A    between atoms: C1_4  and  C12_25 
REMARK    3  A    between atoms: N3_7  and  N4_9 
REMARK    4  A    between atoms: C4_15  and  O1_16 
REMARK    5  A    between atoms: C12_25  and  N7_29 
REMARK    6  A    between atoms: N7_29  and  N8_31 
ROOT
HETATM    1  N2  UNL     1       6.021  24.961  33.912  1.00  0.00    -0.267 N 
ATOM      2  H2  UNL     1       6.176  25.910  33.574  1.00  0.00     0.190 HD
HETATM    3  N3  UNL     1       5.515  24.091  33.129  1.00  0.00    -0.223 N 
ATOM      4  H3  UNL     1       5.376  23.151  33.501  1.00  0.00     0.210 HD
ENDROOT
BRANCH   3   5
HETATM    5  N4  UNL     1       5.147  24.313  31.839  1.00  0.00    -0.206 N 
HETATM    6  N5  UNL     1       5.931  23.839  30.727  1.00  0.00    -0.274 N 
HETATM    7  C2  UNL     1       5.854  24.516  29.464  1.00  0.00     0.104 A 
ATOM      8  H5  UNL     1       6.539  23.027  30.838  1.00  0.00     0.189 HD
HETATM    9  S1  UNL     1       6.497  24.199  27.893  1.00  0.00    -0.079 SA
HETATM   10  C5  UNL     1       5.066  25.624  29.250  1.00  0.00     0.042 A 
HETATM   11  C3  UNL     1       5.748  25.466  27.034  1.00  0.00     0.089 A 
HETATM   12  C4  UNL     1       5.016  26.102  28.002  1.00  0.00     0.086 A 
HETATM   13  C6  UNL     1       4.470  26.138  30.515  1.00  0.00    -0.012 C 
HETATM   14  C7  UNL     1       3.728  27.373  30.494  1.00  0.00     0.011 C 
HETATM   15  C11 UNL     1       3.973  25.021  31.354  1.00  0.00     0.185 C 
HETATM   16  C8  UNL     1       2.704  27.505  31.348  1.00  0.00     0.001 C 
HETATM   17  C9  UNL     1       2.288  26.466  32.272  1.00  0.00    -0.002 C 
HETATM   18  C10 UNL     1       2.900  25.296  32.279  1.00  0.00     0.007 C 
BRANCH  12  19
HETATM   19  O1  UNL     1       4.245  27.231  27.632  1.00  0.00    -0.359 OA
ATOM     20  H1  UNL     1       4.696  28.050  27.461  1.00  0.00     0.217 HD
ENDBRANCH  12  19
ENDBRANCH   3   5
BRANCH   1  21
HETATM   21  C1  UNL     1       6.374  24.627  35.252  1.00  0.00     0.160 C 
HETATM   22  N1  UNL     1       6.709  23.433  35.593  1.00  0.00    -0.381 N 
ATOM     23  H12 UNL     1       6.711  22.722  34.862  1.00  0.00     0.157 HD
ATOM     24  H11 UNL     1       6.962  23.194  36.552  1.00  0.00     0.157 HD
BRANCH  21  25
HETATM   25  C12 UNL     1       6.370  25.658  36.312  1.00  0.00     0.159 C 
HETATM   26  N6  UNL     1       7.505  26.093  36.747  1.00  0.00    -0.381 N 
ATOM     27  H62 UNL     1       8.381  25.733  36.367  1.00  0.00     0.157 HD
ATOM     28  H61 UNL     1       7.502  26.804  37.479  1.00  0.00     0.157 HD
BRANCH  25  29
HETATM   29  N7  UNL     1       5.163  26.155  36.835  1.00  0.00    -0.289 N 
ATOM     30  H7  UNL     1       5.162  26.490  37.798  1.00  0.00     0.188 HD
BRANCH  29  31
HETATM   31  N8  UNL     1       3.966  26.217  36.120  1.00  0.00    -0.344 N 
ATOM     32  H82 UNL     1       3.588  25.334  35.775  1.00  0.00     0.176 HD
ATOM     33  H81 UNL     1       3.458  27.080  35.928  1.00  0.00     0.176 HD
ENDBRANCH  29  31
ENDBRANCH  25  29
ENDBRANCH  21  25
ENDBRANCH   1  21
TORSDOF 6
ENDMDL
