MODEL 1
REMARK VINA RESULT: -6.962116111      0.000      0.000
REMARK  1 active torsions:
REMARK  status: ('A' for Active; 'I' for Inactive)
REMARK    1  A    between atoms: C11_24  and  N6_25 
ROOT
HETATM    1  N1  UNL     1       3.117  26.999  30.667  1.00  0.00    -0.196 NA
HETATM    2  C1  UNL     1       3.850  27.180  29.791  1.00  0.00     0.076 C 
HETATM    3  C2  UNL     1       4.779  27.389  28.663  1.00  0.00     0.193 C 
HETATM    4  C3  UNL     1       5.871  28.266  29.095  1.00  0.00     0.060 C 
HETATM    5  N2  UNL     1       6.386  28.088  30.260  1.00  0.00    -0.399 N 
ATOM      6  H21 UNL     1       7.146  28.697  30.561  1.00  0.00     0.156 HD
ATOM      7  H22 UNL     1       6.001  27.333  30.828  1.00  0.00     0.156 HD
HETATM    8  C4  UNL     1       6.422  29.343  28.284  1.00  0.00     0.102 C 
HETATM    9  S1  UNL     1       7.793  30.333  28.916  1.00  0.00    -0.031 SA
HETATM   10  N3  UNL     1       5.934  29.590  27.121  1.00  0.00    -0.356 N 
ATOM     11  H3  UNL     1       6.345  30.353  26.583  1.00  0.00     0.162 HD
HETATM   12  C5  UNL     1       4.835  28.854  26.525  1.00  0.00     0.183 A 
HETATM   13  C6  UNL     1       4.076  28.051  27.523  1.00  0.00     0.047 C 
HETATM   14  N4  UNL     1       2.827  27.930  27.398  1.00  0.00    -0.401 N 
ATOM     15  H41 UNL     1       2.347  28.382  26.620  1.00  0.00     0.155 HD
ATOM     16  H42 UNL     1       2.307  27.380  28.082  1.00  0.00     0.155 HD
HETATM   17  C7  UNL     1       3.891  29.728  25.826  1.00  0.00     0.261 A 
HETATM   18  O1  UNL     1       3.239  30.723  26.282  1.00  0.00    -0.270 OA
HETATM   19  N5  UNL     1       3.799  29.283  24.491  1.00  0.00    -0.324 N 
ATOM     20  H5  UNL     1       3.210  29.689  23.764  1.00  0.00     0.169 HD
HETATM   21  C8  UNL     1       4.673  28.166  24.331  1.00  0.00     0.044 A 
HETATM   22  C9  UNL     1       4.952  27.377  23.201  1.00  0.00     0.032 A 
HETATM   23  C10 UNL     1       5.855  26.347  23.304  1.00  0.00     0.033 A 
HETATM   24  C11 UNL     1       6.506  26.056  24.484  1.00  0.00     0.048 A 
HETATM   25  C12 UNL     1       6.219  26.839  25.573  1.00  0.00     0.043 A 
HETATM   26  C13 UNL     1       5.306  27.892  25.505  1.00  0.00     0.014 A 
ENDROOT
BRANCH  24  27
HETATM   27  N6  UNL     1       7.433  24.978  24.536  1.00  0.00    -0.307 N 
HETATM   28  N7  UNL     1       7.581  24.170  23.570  1.00  0.00    -0.345 N 
ATOM     29  H72 UNL     1       7.009  24.310  22.737  1.00  0.00     0.176 HD
ATOM     30  H71 UNL     1       8.246  23.397  23.607  1.00  0.00     0.176 HD
ATOM     31  H6  UNL     1       7.997  24.852  25.377  1.00  0.00     0.186 HD
ENDBRANCH  24  27
TORSDOF 1
ENDMDL
MODEL 2
REMARK VINA RESULT: -6.527084388      2.340      2.875
REMARK  1 active torsions:
REMARK  status: ('A' for Active; 'I' for Inactive)
REMARK    1  A    between atoms: C11_24  and  N6_25 
ROOT
HETATM    1  N1  UNL     1       3.133  24.443  31.137  1.00  0.00    -0.196 NA
HETATM    2  C1  UNL     1       3.923  24.763  30.356  1.00  0.00     0.076 C 
HETATM    3  C2  UNL     1       4.914  25.170  29.340  1.00  0.00     0.193 C 
HETATM    4  C3  UNL     1       6.263  24.961  29.873  1.00  0.00     0.060 C 
HETATM    5  N2  UNL     1       6.507  23.889  30.542  1.00  0.00    -0.399 N 
ATOM      6  H21 UNL     1       7.445  23.743  30.914  1.00  0.00     0.156 HD
ATOM      7  H22 UNL     1       5.735  23.233  30.666  1.00  0.00     0.156 HD
HETATM    8  C4  UNL     1       7.364  25.896  29.696  1.00  0.00     0.102 C 
HETATM    9  S1  UNL     1       8.992  25.508  30.373  1.00  0.00    -0.031 SA
HETATM   10  N3  UNL     1       7.180  26.998  29.060  1.00  0.00    -0.356 N 
ATOM     11  H3  UNL     1       7.975  27.628  28.957  1.00  0.00     0.162 HD
HETATM   12  C5  UNL     1       5.913  27.402  28.479  1.00  0.00     0.183 A 
HETATM   13  C6  UNL     1       4.764  26.619  29.014  1.00  0.00     0.047 C 
HETATM   14  N4  UNL     1       3.654  27.193  29.188  1.00  0.00    -0.401 N 
ATOM     15  H41 UNL     1       3.551  28.182  28.965  1.00  0.00     0.155 HD
ATOM     16  H42 UNL     1       2.867  26.657  29.554  1.00  0.00     0.155 HD
HETATM   17  C7  UNL     1       5.634  28.824  28.682  1.00  0.00     0.261 A 
HETATM   18  O1  UNL     1       5.568  29.475  29.775  1.00  0.00    -0.270 OA
HETATM   19  N5  UNL     1       5.435  29.409  27.414  1.00  0.00    -0.324 N 
ATOM     20  H5  UNL     1       5.211  30.388  27.236  1.00  0.00     0.169 HD
HETATM   21  C8  UNL     1       5.599  28.396  26.423  1.00  0.00     0.044 A 
HETATM   22  C9  UNL     1       5.516  28.463  25.021  1.00  0.00     0.032 A 
HETATM   23  C10 UNL     1       5.729  27.329  24.277  1.00  0.00     0.033 A 
HETATM   24  C11 UNL     1       6.026  26.114  24.858  1.00  0.00     0.048 A 
HETATM   25  C12 UNL     1       6.103  26.071  26.226  1.00  0.00     0.043 A 
HETATM   26  C13 UNL     1       5.891  27.204  27.014  1.00  0.00     0.014 A 
ENDROOT
BRANCH  24  27
HETATM   27  N6  UNL     1       6.239  24.970  24.040  1.00  0.00    -0.307 N 
HETATM   28  N7  UNL     1       6.065  24.998  22.783  1.00  0.00    -0.345 N 
ATOM     29  H72 UNL     1       5.762  25.877  22.362  1.00  0.00     0.176 HD
ATOM     30  H71 UNL     1       6.217  24.177  22.197  1.00  0.00     0.176 HD
ATOM     31  H6  UNL     1       6.541  24.099  24.477  1.00  0.00     0.186 HD
ENDBRANCH  24  27
TORSDOF 1
ENDMDL
MODEL 3
REMARK VINA RESULT: -6.221704001      2.494      3.531
REMARK  1 active torsions:
REMARK  status: ('A' for Active; 'I' for Inactive)
REMARK    1  A    between atoms: C11_24  and  N6_25 
ROOT
HETATM    1  N1  UNL     1       2.684  24.167  31.484  1.00  0.00    -0.196 NA
HETATM    2  C1  UNL     1       3.483  24.684  30.827  1.00  0.00     0.076 C 
HETATM    3  C2  UNL     1       4.488  25.344  29.970  1.00  0.00     0.193 C 
HETATM    4  C3  UNL     1       5.826  25.087  30.511  1.00  0.00     0.060 C 
HETATM    5  N2  UNL     1       6.103  23.910  30.950  1.00  0.00    -0.399 N 
ATOM      6  H21 UNL     1       7.034  23.732  31.327  1.00  0.00     0.156 HD
ATOM      7  H22 UNL     1       5.365  23.208  30.894  1.00  0.00     0.156 HD
HETATM    8  C4  UNL     1       6.879  26.089  30.591  1.00  0.00     0.102 C 
HETATM    9  S1  UNL     1       8.500  25.640  31.248  1.00  0.00    -0.031 SA
HETATM   10  N3  UNL     1       6.658  27.292  30.194  1.00  0.00    -0.356 N 
ATOM     11  H3  UNL     1       7.420  27.966  30.265  1.00  0.00     0.162 HD
HETATM   12  C5  UNL     1       5.393  27.751  29.651  1.00  0.00     0.183 A 
HETATM   13  C6  UNL     1       4.270  26.821  29.951  1.00  0.00     0.047 C 
HETATM   14  N4  UNL     1       3.125  27.292  30.188  1.00  0.00    -0.401 N 
ATOM     15  H41 UNL     1       2.976  28.300  30.175  1.00  0.00     0.155 HD
ATOM     16  H42 UNL     1       2.355  26.654  30.394  1.00  0.00     0.155 HD
HETATM   17  C7  UNL     1       5.028  29.083  30.136  1.00  0.00     0.261 A 
HETATM   18  O1  UNL     1       4.885  29.481  31.337  1.00  0.00    -0.270 OA
HETATM   19  N5  UNL     1       4.845  29.916  29.012  1.00  0.00    -0.324 N 
ATOM     20  H5  UNL     1       4.574  30.899  29.035  1.00  0.00     0.169 HD
HETATM   21  C8  UNL     1       5.102  29.146  27.839  1.00  0.00     0.044 A 
HETATM   22  C9  UNL     1       5.068  29.508  26.481  1.00  0.00     0.032 A 
HETATM   23  C10 UNL     1       5.372  28.571  25.524  1.00  0.00     0.033 A 
HETATM   24  C11 UNL     1       5.714  27.275  25.848  1.00  0.00     0.048 A 
HETATM   25  C12 UNL     1       5.742  26.944  27.179  1.00  0.00     0.043 A 
HETATM   26  C13 UNL     1       5.438  27.871  28.177  1.00  0.00     0.014 A 
ENDROOT
BRANCH  24  27
HETATM   27  N6  UNL     1       6.021  26.343  24.818  1.00  0.00    -0.307 N 
HETATM   28  N7  UNL     1       6.784  26.638  23.848  1.00  0.00    -0.345 N 
ATOM     29  H72 UNL     1       7.182  27.577  23.822  1.00  0.00     0.176 HD
ATOM     30  H71 UNL     1       7.003  25.970  23.110  1.00  0.00     0.176 HD
ATOM     31  H6  UNL     1       5.614  25.409  24.860  1.00  0.00     0.186 HD
ENDBRANCH  24  27
TORSDOF 1
ENDMDL
MODEL 4
REMARK VINA RESULT: -6.218163903      2.829      3.954
REMARK  1 active torsions:
REMARK  status: ('A' for Active; 'I' for Inactive)
REMARK    1  A    between atoms: C11_24  and  N6_25 
ROOT
HETATM    1  N1  UNL     1       2.877  24.218  31.332  1.00  0.00    -0.196 NA
HETATM    2  C1  UNL     1       3.467  24.847  30.563  1.00  0.00     0.076 C 
HETATM    3  C2  UNL     1       4.199  25.656  29.568  1.00  0.00     0.193 C 
HETATM    4  C3  UNL     1       5.603  25.236  29.546  1.00  0.00     0.060 C 
HETATM    5  N2  UNL     1       5.877  23.980  29.604  1.00  0.00    -0.399 N 
ATOM      6  H21 UNL     1       6.853  23.687  29.588  1.00  0.00     0.156 HD
ATOM      7  H22 UNL     1       5.088  23.335  29.663  1.00  0.00     0.156 HD
HETATM    8  C4  UNL     1       6.729  26.156  29.462  1.00  0.00     0.102 C 
HETATM    9  S1  UNL     1       8.414  25.512  29.407  1.00  0.00    -0.031 SA
HETATM   10  N3  UNL     1       6.525  27.424  29.428  1.00  0.00    -0.356 N 
ATOM     11  H3  UNL     1       7.338  28.037  29.369  1.00  0.00     0.162 HD
HETATM   12  C5  UNL     1       5.211  28.040  29.466  1.00  0.00     0.183 A 
HETATM   13  C6  UNL     1       4.154  27.103  29.935  1.00  0.00     0.047 C 
HETATM   14  N4  UNL     1       3.211  27.542  30.648  1.00  0.00    -0.401 N 
ATOM     15  H41 UNL     1       3.180  28.530  30.899  1.00  0.00     0.155 HD
ATOM     16  H42 UNL     1       2.486  26.900  30.970  1.00  0.00     0.155 HD
HETATM   17  C7  UNL     1       5.178  29.232  30.315  1.00  0.00     0.261 A 
HETATM   18  O1  UNL     1       5.485  29.342  31.546  1.00  0.00    -0.270 OA
HETATM   19  N5  UNL     1       4.728  30.311  29.525  1.00  0.00    -0.324 N 
ATOM     20  H5  UNL     1       4.592  31.270  29.846  1.00  0.00     0.169 HD
HETATM   21  C8  UNL     1       4.496  29.831  28.202  1.00  0.00     0.044 A 
HETATM   22  C9  UNL     1       4.056  30.502  27.048  1.00  0.00     0.032 A 
HETATM   23  C10 UNL     1       3.920  29.806  25.873  1.00  0.00     0.033 A 
HETATM   24  C11 UNL     1       4.203  28.460  25.779  1.00  0.00     0.048 A 
HETATM   25  C12 UNL     1       4.632  27.824  26.916  1.00  0.00     0.043 A 
HETATM   26  C13 UNL     1       4.780  28.501  28.128  1.00  0.00     0.014 A 
ENDROOT
BRANCH  24  27
HETATM   27  N6  UNL     1       4.046  27.786  24.536  1.00  0.00    -0.307 N 
HETATM   28  N7  UNL     1       3.972  28.412  23.435  1.00  0.00    -0.345 N 
ATOM     29  H72 UNL     1       4.028  29.431  23.459  1.00  0.00     0.176 HD
ATOM     30  H71 UNL     1       3.859  27.930  22.544  1.00  0.00     0.176 HD
ATOM     31  H6  UNL     1       3.991  26.768  24.529  1.00  0.00     0.186 HD
ENDBRANCH  24  27
TORSDOF 1
ENDMDL
MODEL 5
REMARK VINA RESULT: -6.184364293      5.502      7.907
REMARK  1 active torsions:
REMARK  status: ('A' for Active; 'I' for Inactive)
REMARK    1  A    between atoms: C11_24  and  N6_25 
ROOT
HETATM    1  N1  UNL     1      10.597  27.066  31.279  1.00  0.00    -0.196 NA
HETATM    2  C1  UNL     1       9.689  26.425  31.598  1.00  0.00     0.076 C 
HETATM    3  C2  UNL     1       8.517  25.626  32.011  1.00  0.00     0.193 C 
HETATM    4  C3  UNL     1       8.929  24.233  32.205  1.00  0.00     0.060 C 
HETATM    5  N2  UNL     1      10.047  23.992  32.793  1.00  0.00    -0.399 N 
ATOM      6  H21 UNL     1      10.334  23.022  32.927  1.00  0.00     0.156 HD
ATOM      7  H22 UNL     1      10.594  24.797  33.098  1.00  0.00     0.156 HD
HETATM    8  C4  UNL     1       8.147  23.084  31.769  1.00  0.00     0.102 C 
HETATM    9  S1  UNL     1       8.747  21.413  32.097  1.00  0.00    -0.031 SA
HETATM   10  N3  UNL     1       7.033  23.257  31.152  1.00  0.00    -0.356 N 
ATOM     11  H3  UNL     1       6.514  22.428  30.863  1.00  0.00     0.162 HD
HETATM   12  C5  UNL     1       6.467  24.556  30.842  1.00  0.00     0.183 A 
HETATM   13  C6  UNL     1       7.464  25.657  30.954  1.00  0.00     0.047 C 
HETATM   14  N4  UNL     1       7.410  26.623  30.145  1.00  0.00    -0.401 N 
ATOM     15  H41 UNL     1       6.691  26.644  29.422  1.00  0.00     0.155 HD
ATOM     16  H42 UNL     1       8.094  27.377  30.221  1.00  0.00     0.155 HD
HETATM   17  C7  UNL     1       5.879  24.604  29.502  1.00  0.00     0.261 A 
HETATM   18  O1  UNL     1       6.431  24.355  28.381  1.00  0.00    -0.270 OA
HETATM   19  N5  UNL     1       4.529  24.990  29.637  1.00  0.00    -0.324 N 
ATOM     20  H5  UNL     1       3.865  25.119  28.873  1.00  0.00     0.169 HD
HETATM   21  C8  UNL     1       4.252  25.168  31.025  1.00  0.00     0.044 A 
HETATM   22  C9  UNL     1       3.064  25.536  31.681  1.00  0.00     0.032 A 
HETATM   23  C10 UNL     1       3.051  25.631  33.051  1.00  0.00     0.033 A 
HETATM   24  C11 UNL     1       4.170  25.374  33.816  1.00  0.00     0.048 A 
HETATM   25  C12 UNL     1       5.317  25.016  33.155  1.00  0.00     0.043 A 
HETATM   26  C13 UNL     1       5.366  24.912  31.764  1.00  0.00     0.014 A 
ENDROOT
BRANCH  24  27
HETATM   27  N6  UNL     1       4.102  25.486  35.232  1.00  0.00    -0.307 N 
HETATM   28  N7  UNL     1       3.683  26.536  35.806  1.00  0.00    -0.345 N 
ATOM     29  H72 UNL     1       3.388  27.317  35.219  1.00  0.00     0.176 HD
ATOM     30  H71 UNL     1       3.635  26.617  36.822  1.00  0.00     0.176 HD
ATOM     31  H6  UNL     1       4.401  24.696  35.805  1.00  0.00     0.186 HD
ENDBRANCH  24  27
TORSDOF 1
ENDMDL
