MODEL 1
REMARK VINA RESULT: -7.043842616      0.000      0.000
REMARK  4 active torsions:
REMARK  status: ('A' for Active; 'I' for Inactive)
REMARK    1  A    between atoms: C2_2  and  O1_3 
REMARK    2  A    between atoms: O1_3  and  C3_4 
REMARK    3  A    between atoms: C3_4  and  C4_6 
REMARK    4  A    between atoms: C10_12  and  C11_13 
ROOT
HETATM    1  C4  UNL     1      -0.734 -22.193  35.525  1.00  0.00     0.091 C 
HETATM    2  C5  UNL     1      -1.465 -23.246  36.333  1.00  0.00     0.020 C 
HETATM    3  C6  UNL     1      -0.363 -24.177  36.862  1.00  0.00    -0.012 C 
HETATM    4  C7  UNL     1       0.274 -23.367  37.986  1.00  0.00     0.010 C 
HETATM    5  C8  UNL     1       1.016 -22.235  37.349  1.00  0.00    -0.007 C 
HETATM    6  C9  UNL     1       2.322 -22.855  36.819  1.00  0.00     0.022 C 
HETATM    7  C10 UNL     1       1.504 -23.173  35.559  1.00  0.00     0.025 C 
HETATM    8  C13 UNL     1       0.670 -24.401  35.788  1.00  0.00     0.022 C 
HETATM    9  C14 UNL     1       0.662 -21.968  35.932  1.00  0.00     0.019 C 
ENDROOT
BRANCH   1  10
HETATM   10  C3  UNL     1      -1.543 -20.926  35.556  1.00  0.00     0.263 C 
HETATM   11  O2  UNL     1      -2.565 -20.818  36.300  1.00  0.00    -0.265 OA
BRANCH  10  12
HETATM   12  O1  UNL     1      -1.232 -19.828  34.798  1.00  0.00    -0.322 OA
BRANCH  12  13
HETATM   13  C2  UNL     1      -1.974 -19.339  33.717  1.00  0.00     0.174 C 
HETATM   14  C1  UNL     1      -2.929 -18.238  34.072  1.00  0.00     0.034 C 
ENDBRANCH  12  13
ENDBRANCH  10  12
ENDBRANCH   1  10
BRANCH   7  15
HETATM   15  C11 UNL     1       2.252 -23.088  34.311  1.00  0.00     0.132 C 
HETATM   16  C12 UNL     1       3.708 -22.913  34.302  1.00  0.00     0.091 C 
HETATM   17  O3  UNL     1       1.667 -23.162  33.240  1.00  0.00    -0.298 OA
ENDBRANCH   7  15
TORSDOF 4
ENDMDL
MODEL 2
REMARK VINA RESULT: -6.297785977      4.476      8.420
REMARK  4 active torsions:
REMARK  status: ('A' for Active; 'I' for Inactive)
REMARK    1  A    between atoms: C2_2  and  O1_3 
REMARK    2  A    between atoms: O1_3  and  C3_4 
REMARK    3  A    between atoms: C3_4  and  C4_6 
REMARK    4  A    between atoms: C10_12  and  C11_13 
ROOT
HETATM    1  C4  UNL     1      -5.355 -19.285  36.257  1.00  0.00     0.091 C 
HETATM    2  C5  UNL     1      -4.763 -17.994  35.731  1.00  0.00     0.020 C 
HETATM    3  C6  UNL     1      -5.769 -16.903  36.130  1.00  0.00    -0.012 C 
HETATM    4  C7  UNL     1      -5.522 -16.726  37.624  1.00  0.00     0.010 C 
HETATM    5  C8  UNL     1      -6.022 -17.962  38.304  1.00  0.00    -0.007 C 
HETATM    6  C9  UNL     1      -7.552 -17.802  38.360  1.00  0.00     0.022 C 
HETATM    7  C10 UNL     1      -7.537 -18.443  36.965  1.00  0.00     0.025 C 
HETATM    8  C13 UNL     1      -7.173 -17.414  35.933  1.00  0.00     0.022 C 
HETATM    9  C14 UNL     1      -6.255 -19.123  37.409  1.00  0.00     0.019 C 
ENDROOT
BRANCH   1  10
HETATM   10  C3  UNL     1      -4.228 -20.238  36.550  1.00  0.00     0.263 C 
HETATM   11  O2  UNL     1      -4.361 -21.167  37.403  1.00  0.00    -0.265 OA
BRANCH  10  12
HETATM   12  O1  UNL     1      -3.012 -20.164  35.924  1.00  0.00    -0.322 OA
BRANCH  12  13
HETATM   13  C2  UNL     1      -2.061 -21.188  35.853  1.00  0.00     0.174 C 
HETATM   14  C1  UNL     1      -0.848 -20.847  35.039  1.00  0.00     0.034 C 
ENDBRANCH  12  13
ENDBRANCH  10  12
ENDBRANCH   1  10
BRANCH   7  15
HETATM   15  C11 UNL     1      -8.673 -19.311  36.682  1.00  0.00     0.132 C 
HETATM   16  C12 UNL     1      -9.567 -19.055  35.548  1.00  0.00     0.091 C 
HETATM   17  O3  UNL     1      -8.898 -20.278  37.394  1.00  0.00    -0.298 OA
ENDBRANCH   7  15
TORSDOF 4
ENDMDL
MODEL 3
REMARK VINA RESULT: -5.889540486      5.609      8.623
REMARK  4 active torsions:
REMARK  status: ('A' for Active; 'I' for Inactive)
REMARK    1  A    between atoms: C2_2  and  O1_3 
REMARK    2  A    between atoms: O1_3  and  C3_4 
REMARK    3  A    between atoms: C3_4  and  C4_6 
REMARK    4  A    between atoms: C10_12  and  C11_13 
ROOT
HETATM    1  C4  UNL     1      -5.967 -18.165  38.978  1.00  0.00     0.091 C 
HETATM    2  C5  UNL     1      -6.129 -16.691  38.671  1.00  0.00     0.020 C 
HETATM    3  C6  UNL     1      -6.128 -16.601  37.138  1.00  0.00    -0.012 C 
HETATM    4  C7  UNL     1      -7.511 -17.112  36.752  1.00  0.00     0.010 C 
HETATM    5  C8  UNL     1      -7.536 -18.580  37.040  1.00  0.00    -0.007 C 
HETATM    6  C9  UNL     1      -6.777 -19.234  35.870  1.00  0.00     0.022 C 
HETATM    7  C10 UNL     1      -5.521 -18.977  36.716  1.00  0.00     0.025 C 
HETATM    8  C13 UNL     1      -5.095 -17.544  36.576  1.00  0.00     0.022 C 
HETATM    9  C14 UNL     1      -6.443 -19.068  37.917  1.00  0.00     0.019 C 
ENDROOT
BRANCH   1  10
HETATM   10  C3  UNL     1      -6.625 -18.450  40.300  1.00  0.00     0.263 C 
HETATM   11  O2  UNL     1      -7.769 -17.980  40.578  1.00  0.00    -0.265 OA
BRANCH  10  12
HETATM   12  O1  UNL     1      -6.040 -19.223  41.269  1.00  0.00    -0.322 OA
BRANCH  12  13
HETATM   13  C2  UNL     1      -6.631 -19.618  42.473  1.00  0.00     0.174 C 
HETATM   14  C1  UNL     1      -5.847 -20.642  43.239  1.00  0.00     0.034 C 
ENDBRANCH  12  13
ENDBRANCH  10  12
ENDBRANCH   1  10
BRANCH   7  15
HETATM   15  C11 UNL     1      -4.492 -20.002  36.603  1.00  0.00     0.132 C 
HETATM   16  C12 UNL     1      -3.337 -19.831  35.716  1.00  0.00     0.091 C 
HETATM   17  O3  UNL     1      -4.578 -21.032  37.255  1.00  0.00    -0.298 OA
ENDBRANCH   7  15
TORSDOF 4
ENDMDL
MODEL 4
REMARK VINA RESULT: -5.866460020      9.060     11.475
REMARK  4 active torsions:
REMARK  status: ('A' for Active; 'I' for Inactive)
REMARK    1  A    between atoms: C2_2  and  O1_3 
REMARK    2  A    between atoms: O1_3  and  C3_4 
REMARK    3  A    between atoms: C3_4  and  C4_6 
REMARK    4  A    between atoms: C10_12  and  C11_13 
ROOT
HETATM    1  C4  UNL     1      -7.617 -18.300  40.841  1.00  0.00     0.091 C 
HETATM    2  C5  UNL     1      -6.408 -18.836  41.579  1.00  0.00     0.020 C 
HETATM    3  C6  UNL     1      -6.849 -18.935  43.047  1.00  0.00    -0.012 C 
HETATM    4  C7  UNL     1      -7.746 -20.168  43.064  1.00  0.00     0.010 C 
HETATM    5  C8  UNL     1      -8.996 -19.814  42.322  1.00  0.00    -0.007 C 
HETATM    6  C9  UNL     1      -9.831 -18.978  43.310  1.00  0.00     0.022 C 
HETATM    7  C10 UNL     1      -9.036 -17.783  42.762  1.00  0.00     0.025 C 
HETATM    8  C13 UNL     1      -7.681 -17.731  43.407  1.00  0.00     0.022 C 
HETATM    9  C14 UNL     1      -8.908 -18.591  41.485  1.00  0.00     0.019 C 
ENDROOT
BRANCH   1  10
HETATM   10  C3  UNL     1      -7.567 -18.799  39.423  1.00  0.00     0.263 C 
HETATM   11  O2  UNL     1      -8.624 -18.916  38.732  1.00  0.00    -0.265 OA
BRANCH  10  12
HETATM   12  O1  UNL     1      -6.399 -19.150  38.800  1.00  0.00    -0.322 OA
BRANCH  12  13
HETATM   13  C2  UNL     1      -5.917 -18.621  37.598  1.00  0.00     0.174 C 
HETATM   14  C1  UNL     1      -5.181 -19.608  36.741  1.00  0.00     0.034 C 
ENDBRANCH  12  13
ENDBRANCH  10  12
ENDBRANCH   1  10
BRANCH   7  15
HETATM   15  C11 UNL     1      -9.791 -16.539  42.676  1.00  0.00     0.132 C 
HETATM   16  C12 UNL     1      -9.165 -15.244  42.960  1.00  0.00     0.091 C 
HETATM   17  O3  UNL     1     -10.972 -16.559  42.360  1.00  0.00    -0.298 OA
ENDBRANCH   7  15
TORSDOF 4
ENDMDL
MODEL 5
REMARK VINA RESULT: -5.839374285      1.747      3.287
REMARK  4 active torsions:
REMARK  status: ('A' for Active; 'I' for Inactive)
REMARK    1  A    between atoms: C2_2  and  O1_3 
REMARK    2  A    between atoms: O1_3  and  C3_4 
REMARK    3  A    between atoms: C3_4  and  C4_6 
REMARK    4  A    between atoms: C10_12  and  C11_13 
ROOT
HETATM    1  C4  UNL     1      -0.020 -21.639  35.748  1.00  0.00     0.091 C 
HETATM    2  C5  UNL     1       1.268 -20.873  35.966  1.00  0.00     0.020 C 
HETATM    3  C6  UNL     1       2.374 -21.939  35.938  1.00  0.00    -0.012 C 
HETATM    4  C7  UNL     1       2.505 -22.275  34.457  1.00  0.00     0.010 C 
HETATM    5  C8  UNL     1       1.265 -23.013  34.060  1.00  0.00    -0.007 C 
HETATM    6  C9  UNL     1       1.465 -24.448  34.582  1.00  0.00     0.022 C 
HETATM    7  C10 UNL     1       0.861 -23.914  35.889  1.00  0.00     0.025 C 
HETATM    8  C13 UNL     1       1.907 -23.171  36.670  1.00  0.00     0.022 C 
HETATM    9  C14 UNL     1       0.136 -22.907  35.017  1.00  0.00     0.019 C 
ENDROOT
BRANCH   1  10
HETATM   10  C3  UNL     1      -1.011 -20.723  35.084  1.00  0.00     0.263 C 
HETATM   11  O2  UNL     1      -0.733 -20.134  33.996  1.00  0.00    -0.265 OA
BRANCH  10  12
HETATM   12  O1  UNL     1      -2.254 -20.472  35.603  1.00  0.00    -0.322 OA
BRANCH  12  13
HETATM   13  C2  UNL     1      -2.946 -21.283  36.509  1.00  0.00     0.174 C 
HETATM   14  C1  UNL     1      -4.271 -20.731  36.945  1.00  0.00     0.034 C 
ENDBRANCH  12  13
ENDBRANCH  10  12
ENDBRANCH   1  10
BRANCH   7  15
HETATM   15  C11 UNL     1       0.032 -24.871  36.612  1.00  0.00     0.132 C 
HETATM   16  C12 UNL     1      -0.497 -26.072  35.957  1.00  0.00     0.091 C 
HETATM   17  O3  UNL     1      -0.236 -24.683  37.789  1.00  0.00    -0.298 OA
ENDBRANCH   7  15
TORSDOF 4
ENDMDL
