MODEL 1
REMARK VINA RESULT: -8.162638409      0.000      0.000
REMARK  3 active torsions:
REMARK  status: ('A' for Active; 'I' for Inactive)
REMARK    1  A    between atoms: C2_2  and  C3_3 
REMARK    2  A    between atoms: C3_3  and  N1_4 
REMARK    3  A    between atoms: C5_6  and  C6_7 
ROOT
HETATM    1  N1  UNL     1      -2.886 -20.661  36.007  1.00  0.00    -0.300 N 
HETATM    2  C4  UNL     1      -1.740 -21.379  36.111  1.00  0.00     0.119 A 
HETATM    3  C5  UNL     1      -0.831 -20.933  35.173  1.00  0.00    -0.018 A 
HETATM    4  C13 UNL     1      -1.474 -19.919  34.500  1.00  0.00     0.116 A 
HETATM    5  N2  UNL     1      -2.711 -19.785  35.032  1.00  0.00    -0.309 N 
ATOM      6  H2  UNL     1      -3.408 -19.105  34.726  1.00  0.00     0.186 HD
ENDROOT
BRANCH   3   7
HETATM    7  C6  UNL     1       0.545 -21.446  34.945  1.00  0.00     0.051 C 
HETATM    8  C7  UNL     1       1.448 -21.195  36.141  1.00  0.00     0.018 C 
HETATM    9  C8  UNL     1       2.267 -22.476  36.324  1.00  0.00     0.010 C 
HETATM   10  C9  UNL     1       2.855 -22.808  34.966  1.00  0.00     0.009 C 
HETATM   11  C12 UNL     1       1.267 -23.549  36.731  1.00  0.00     0.172 C 
HETATM   12  C10 UNL     1       1.749 -23.495  34.174  1.00  0.00     0.033 C 
HETATM   13  C11 UNL     1       0.443 -22.927  34.680  1.00  0.00     0.130 C 
HETATM   14  O1  UNL     1       0.169 -23.558  35.894  1.00  0.00    -0.385 OA
ENDBRANCH   3   7
BRANCH   1  15
HETATM   15  C3  UNL     1      -4.069 -20.839  36.824  1.00  0.00     0.174 C 
BRANCH  15  16
HETATM   16  C2  UNL     1      -5.053 -19.768  36.605  1.00  0.00    -0.015 C 
HETATM   17  C1  UNL     1      -5.650 -19.201  37.619  1.00  0.00     0.008 C 
ENDBRANCH  15  16
ENDBRANCH   1  15
TORSDOF 3
ENDMDL
MODEL 2
REMARK VINA RESULT: -7.530096611      0.954      1.376
REMARK  3 active torsions:
REMARK  status: ('A' for Active; 'I' for Inactive)
REMARK    1  A    between atoms: C2_2  and  C3_3 
REMARK    2  A    between atoms: C3_3  and  N1_4 
REMARK    3  A    between atoms: C5_6  and  C6_7 
ROOT
HETATM    1  N1  UNL     1      -2.739 -19.586  35.157  1.00  0.00    -0.300 N 
HETATM    2  C4  UNL     1      -1.480 -19.743  34.677  1.00  0.00     0.119 A 
HETATM    3  C5  UNL     1      -0.935 -20.903  35.186  1.00  0.00    -0.018 A 
HETATM    4  C13 UNL     1      -1.914 -21.440  35.993  1.00  0.00     0.116 A 
HETATM    5  N2  UNL     1      -2.987 -20.616  35.948  1.00  0.00    -0.309 N 
ATOM      6  H2  UNL     1      -3.861 -20.768  36.453  1.00  0.00     0.186 HD
ENDROOT
BRANCH   3   7
HETATM    7  C6  UNL     1       0.420 -21.450  34.918  1.00  0.00     0.051 C 
HETATM    8  C7  UNL     1       1.407 -21.081  36.014  1.00  0.00     0.018 C 
HETATM    9  C8  UNL     1       2.234 -22.342  36.275  1.00  0.00     0.010 C 
HETATM   10  C9  UNL     1       2.724 -22.823  34.923  1.00  0.00     0.009 C 
HETATM   11  C12 UNL     1       1.264 -23.356  36.864  1.00  0.00     0.172 C 
HETATM   12  C10 UNL     1       1.564 -23.581  34.289  1.00  0.00     0.033 C 
HETATM   13  C11 UNL     1       0.297 -22.950  34.822  1.00  0.00     0.130 C 
HETATM   14  O1  UNL     1       0.110 -23.445  36.113  1.00  0.00    -0.385 OA
ENDBRANCH   3   7
BRANCH   1  15
HETATM   15  C3  UNL     1      -3.628 -18.485  34.846  1.00  0.00     0.174 C 
BRANCH  15  16
HETATM   16  C2  UNL     1      -4.852 -18.523  35.660  1.00  0.00    -0.015 C 
HETATM   17  C1  UNL     1      -5.227 -17.473  36.341  1.00  0.00     0.008 C 
ENDBRANCH  15  16
ENDBRANCH   1  15
TORSDOF 3
ENDMDL
MODEL 3
REMARK VINA RESULT: -6.836649644      1.788      2.640
REMARK  3 active torsions:
REMARK  status: ('A' for Active; 'I' for Inactive)
REMARK    1  A    between atoms: C2_2  and  C3_3 
REMARK    2  A    between atoms: C3_3  and  N1_4 
REMARK    3  A    between atoms: C5_6  and  C6_7 
ROOT
HETATM    1  N1  UNL     1      -2.338 -19.381  34.445  1.00  0.00    -0.300 N 
HETATM    2  C4  UNL     1      -1.139 -19.956  34.710  1.00  0.00     0.119 A 
HETATM    3  C5  UNL     1      -1.290 -20.893  35.712  1.00  0.00    -0.018 A 
HETATM    4  C13 UNL     1      -2.627 -20.860  36.040  1.00  0.00     0.116 A 
HETATM    5  N2  UNL     1      -3.225 -19.935  35.254  1.00  0.00    -0.309 N 
ATOM      6  H2  UNL     1      -4.217 -19.700  35.281  1.00  0.00     0.186 HD
ENDROOT
BRANCH   3   7
HETATM    7  C6  UNL     1      -0.230 -21.750  36.304  1.00  0.00     0.051 C 
HETATM    8  C7  UNL     1      -0.624 -23.217  36.307  1.00  0.00     0.018 C 
HETATM    9  C8  UNL     1       0.629 -23.990  35.887  1.00  0.00     0.010 C 
HETATM   10  C9  UNL     1       1.757 -23.490  36.769  1.00  0.00     0.009 C 
HETATM   11  C12 UNL     1       0.890 -23.595  34.440  1.00  0.00     0.172 C 
HETATM   12  C10 UNL     1       2.229 -22.174  36.161  1.00  0.00     0.033 C 
HETATM   13  C11 UNL     1       1.023 -21.557  35.488  1.00  0.00     0.130 C 
HETATM   14  O1  UNL     1       0.849 -22.225  34.276  1.00  0.00    -0.385 OA
ENDBRANCH   3   7
BRANCH   1  15
HETATM   15  C3  UNL     1      -2.578 -18.351  33.454  1.00  0.00     0.174 C 
BRANCH  15  16
HETATM   16  C2  UNL     1      -3.881 -17.697  33.647  1.00  0.00    -0.015 C 
HETATM   17  C1  UNL     1      -3.946 -16.458  34.055  1.00  0.00     0.008 C 
ENDBRANCH  15  16
ENDBRANCH   1  15
TORSDOF 3
ENDMDL
MODEL 4
REMARK VINA RESULT: -6.190179974      6.432      8.398
REMARK  3 active torsions:
REMARK  status: ('A' for Active; 'I' for Inactive)
REMARK    1  A    between atoms: C2_2  and  C3_3 
REMARK    2  A    between atoms: C3_3  and  N1_4 
REMARK    3  A    between atoms: C5_6  and  C6_7 
ROOT
HETATM    1  N1  UNL     1      -7.406 -18.946  41.691  1.00  0.00    -0.300 N 
HETATM    2  C4  UNL     1      -6.771 -18.385  40.633  1.00  0.00     0.119 A 
HETATM    3  C5  UNL     1      -7.591 -18.436  39.524  1.00  0.00    -0.018 A 
HETATM    4  C13 UNL     1      -8.746 -19.051  39.956  1.00  0.00     0.116 A 
HETATM    5  N2  UNL     1      -8.595 -19.342  41.269  1.00  0.00    -0.309 N 
ATOM      6  H2  UNL     1      -9.297 -19.802  41.849  1.00  0.00     0.186 HD
ENDROOT
BRANCH   3   7
HETATM    7  C6  UNL     1      -7.285 -17.935  38.160  1.00  0.00     0.051 C 
HETATM    8  C7  UNL     1      -5.869 -17.391  38.060  1.00  0.00     0.018 C 
HETATM    9  C8  UNL     1      -5.320 -17.894  36.723  1.00  0.00     0.010 C 
HETATM   10  C9  UNL     1      -6.358 -17.547  35.673  1.00  0.00     0.009 C 
HETATM   11  C12 UNL     1      -5.214 -19.406  36.864  1.00  0.00     0.172 C 
HETATM   12  C10 UNL     1      -7.436 -18.621  35.761  1.00  0.00     0.033 C 
HETATM   13  C11 UNL     1      -7.461 -19.085  37.200  1.00  0.00     0.130 C 
HETATM   14  O1  UNL     1      -6.379 -19.949  37.367  1.00  0.00    -0.385 OA
ENDBRANCH   3   7
BRANCH   1  15
HETATM   15  C3  UNL     1      -6.863 -19.076  43.028  1.00  0.00     0.174 C 
BRANCH  15  16
HETATM   16  C2  UNL     1      -6.513 -20.469  43.345  1.00  0.00    -0.015 C 
HETATM   17  C1  UNL     1      -5.298 -20.907  43.150  1.00  0.00     0.008 C 
ENDBRANCH  15  16
ENDBRANCH   1  15
TORSDOF 3
ENDMDL
MODEL 5
REMARK VINA RESULT: -6.173254664      6.243      8.373
REMARK  3 active torsions:
REMARK  status: ('A' for Active; 'I' for Inactive)
REMARK    1  A    between atoms: C2_2  and  C3_3 
REMARK    2  A    between atoms: C3_3  and  N1_4 
REMARK    3  A    between atoms: C5_6  and  C6_7 
ROOT
HETATM    1  N1  UNL     1      -7.544 -19.262  41.644  1.00  0.00    -0.300 N 
HETATM    2  C4  UNL     1      -7.977 -18.988  40.389  1.00  0.00     0.119 A 
HETATM    3  C5  UNL     1      -6.945 -18.438  39.656  1.00  0.00    -0.018 A 
HETATM    4  C13 UNL     1      -5.874 -18.389  40.520  1.00  0.00     0.116 A 
HETATM    5  N2  UNL     1      -6.275 -18.896  41.709  1.00  0.00    -0.309 N 
ATOM      6  H2  UNL     1      -5.684 -18.982  42.536  1.00  0.00     0.186 HD
ENDROOT
BRANCH   3   7
HETATM    7  C6  UNL     1      -6.990 -17.993  38.239  1.00  0.00     0.051 C 
HETATM    8  C7  UNL     1      -5.691 -17.331  37.812  1.00  0.00     0.018 C 
HETATM    9  C8  UNL     1      -5.391 -17.862  36.408  1.00  0.00     0.010 C 
HETATM   10  C9  UNL     1      -6.659 -17.673  35.597  1.00  0.00     0.009 C 
HETATM   11  C12 UNL     1      -5.105 -19.347  36.582  1.00  0.00     0.172 C 
HETATM   12  C10 UNL     1      -7.579 -18.832  35.960  1.00  0.00     0.033 C 
HETATM   13  C11 UNL     1      -7.250 -19.210  37.387  1.00  0.00     0.130 C 
HETATM   14  O1  UNL     1      -6.076 -19.961  37.347  1.00  0.00    -0.385 OA
ENDBRANCH   3   7
BRANCH   1  15
HETATM   15  C3  UNL     1      -8.343 -19.847  42.702  1.00  0.00     0.174 C 
BRANCH  15  16
HETATM   16  C2  UNL     1      -8.998 -18.820  43.526  1.00  0.00    -0.015 C 
HETATM   17  C1  UNL     1     -10.279 -18.595  43.409  1.00  0.00     0.008 C 
ENDBRANCH  15  16
ENDBRANCH   1  15
TORSDOF 3
ENDMDL
