MODEL 1
REMARK VINA RESULT: -7.489011136      0.000      0.000
REMARK  4 active torsions:
REMARK  status: ('A' for Active; 'I' for Inactive)
REMARK    1  A    between atoms: C2_2  and  C3_4 
REMARK    2  A    between atoms: C3_4  and  C4_5 
REMARK    3  A    between atoms: C4_5  and  O3_7 
REMARK    4  A    between atoms: O3_7  and  C5_8 
ROOT
HETATM    1  C5  UNL     1      -1.988 -21.716  36.265  1.00  0.00     0.132 C 
HETATM    2  C6  UNL     1      -1.681 -20.990  34.985  1.00  0.00     0.032 C 
HETATM    3  C7  UNL     1      -0.253 -20.648  34.768  1.00  0.00     0.002 C 
HETATM    4  C8  UNL     1       0.676 -21.156  35.843  1.00  0.00     0.001 C 
HETATM    5  C9  UNL     1       0.784 -22.650  35.678  1.00  0.00     0.009 C 
HETATM    6  C10 UNL     1      -0.162 -23.440  36.522  1.00  0.00    -0.045 C 
HETATM    7  C11 UNL     1       0.242 -23.282  37.961  1.00  0.00     0.015 C 
HETATM    8  C12 UNL     1       0.058 -24.908  36.155  1.00  0.00     0.015 C 
HETATM    9  C13 UNL     1      -1.613 -23.151  36.265  1.00  0.00     0.041 C 
ENDROOT
BRANCH   1  10
HETATM   10  O3  UNL     1      -3.411 -21.636  36.408  1.00  0.00    -0.316 OA
BRANCH  10  11
HETATM   11  C4  UNL     1      -4.058 -20.455  36.648  1.00  0.00     0.266 C 
HETATM   12  O2  UNL     1      -4.804 -20.401  37.677  1.00  0.00    -0.265 OA
BRANCH  11  13
HETATM   13  C3  UNL     1      -3.984 -19.221  35.828  1.00  0.00     0.188 C 
BRANCH  13  14
HETATM   14  C2  UNL     1      -5.304 -18.504  35.842  1.00  0.00     0.132 C 
HETATM   15  C1  UNL     1      -5.444 -17.203  36.577  1.00  0.00     0.091 C 
HETATM   16  O1  UNL     1      -6.297 -18.917  35.280  1.00  0.00    -0.298 OA
ENDBRANCH  13  14
ENDBRANCH  11  13
ENDBRANCH  10  11
ENDBRANCH   1  10
TORSDOF 4
ENDMDL
MODEL 2
REMARK VINA RESULT: -6.570811894      1.355      1.835
REMARK  4 active torsions:
REMARK  status: ('A' for Active; 'I' for Inactive)
REMARK    1  A    between atoms: C2_2  and  C3_4 
REMARK    2  A    between atoms: C3_4  and  C4_5 
REMARK    3  A    between atoms: C4_5  and  O3_7 
REMARK    4  A    between atoms: O3_7  and  C5_8 
ROOT
HETATM    1  C5  UNL     1      -1.041 -21.717  36.018  1.00  0.00     0.132 C 
HETATM    2  C6  UNL     1      -0.261 -21.323  34.796  1.00  0.00     0.032 C 
HETATM    3  C7  UNL     1       1.216 -21.371  34.936  1.00  0.00     0.002 C 
HETATM    4  C8  UNL     1       1.697 -21.885  36.271  1.00  0.00     0.001 C 
HETATM    5  C9  UNL     1       1.427 -23.367  36.309  1.00  0.00     0.009 C 
HETATM    6  C10 UNL     1       0.133 -23.749  36.948  1.00  0.00    -0.045 C 
HETATM    7  C11 UNL     1       0.220 -23.438  38.416  1.00  0.00     0.015 C 
HETATM    8  C12 UNL     1       0.023 -25.269  36.819  1.00  0.00     0.015 C 
HETATM    9  C13 UNL     1      -1.084 -23.177  36.279  1.00  0.00     0.041 C 
ENDROOT
BRANCH   1  10
HETATM   10  O3  UNL     1      -2.381 -21.280  35.762  1.00  0.00    -0.316 OA
BRANCH  10  11
HETATM   11  C4  UNL     1      -2.679 -19.990  35.419  1.00  0.00     0.266 C 
HETATM   12  O2  UNL     1      -1.769 -19.322  34.832  1.00  0.00    -0.265 OA
BRANCH  11  13
HETATM   13  C3  UNL     1      -3.958 -19.280  35.663  1.00  0.00     0.188 C 
BRANCH  13  14
HETATM   14  C2  UNL     1      -4.701 -19.919  36.802  1.00  0.00     0.132 C 
HETATM   15  C1  UNL     1      -5.816 -19.179  37.480  1.00  0.00     0.091 C 
HETATM   16  O1  UNL     1      -4.455 -21.031  37.221  1.00  0.00    -0.298 OA
ENDBRANCH  13  14
ENDBRANCH  11  13
ENDBRANCH  10  11
ENDBRANCH   1  10
TORSDOF 4
ENDMDL
MODEL 3
REMARK VINA RESULT: -6.232901630      2.447      3.254
REMARK  4 active torsions:
REMARK  status: ('A' for Active; 'I' for Inactive)
REMARK    1  A    between atoms: C2_2  and  C3_4 
REMARK    2  A    between atoms: C3_4  and  C4_5 
REMARK    3  A    between atoms: C4_5  and  O3_7 
REMARK    4  A    between atoms: O3_7  and  C5_8 
ROOT
HETATM    1  C5  UNL     1      -1.303 -21.026  34.623  1.00  0.00     0.132 C 
HETATM    2  C6  UNL     1      -2.228 -20.919  35.802  1.00  0.00     0.032 C 
HETATM    3  C7  UNL     1      -2.223 -22.079  36.729  1.00  0.00     0.002 C 
HETATM    4  C8  UNL     1      -1.225 -23.153  36.372  1.00  0.00     0.001 C 
HETATM    5  C9  UNL     1       0.148 -22.617  36.688  1.00  0.00     0.009 C 
HETATM    6  C10 UNL     1       0.849 -21.981  35.533  1.00  0.00    -0.045 C 
HETATM    7  C11 UNL     1       1.185 -23.052  34.533  1.00  0.00     0.015 C 
HETATM    8  C12 UNL     1       2.176 -21.448  36.078  1.00  0.00     0.015 C 
HETATM    9  C13 UNL     1       0.130 -20.804  34.941  1.00  0.00     0.041 C 
ENDROOT
BRANCH   1  10
HETATM   10  O3  UNL     1      -1.717 -19.987  33.728  1.00  0.00    -0.316 OA
BRANCH  10  11
HETATM   11  C4  UNL     1      -2.131 -18.760  34.170  1.00  0.00     0.266 C 
HETATM   12  O2  UNL     1      -1.237 -17.974  34.617  1.00  0.00    -0.265 OA
BRANCH  11  13
HETATM   13  C3  UNL     1      -3.523 -18.246  34.185  1.00  0.00     0.188 C 
BRANCH  13  14
HETATM   14  C2  UNL     1      -3.638 -17.023  33.320  1.00  0.00     0.132 C 
HETATM   15  C1  UNL     1      -4.260 -15.773  33.868  1.00  0.00     0.091 C 
HETATM   16  O1  UNL     1      -3.246 -16.976  32.172  1.00  0.00    -0.298 OA
ENDBRANCH  13  14
ENDBRANCH  11  13
ENDBRANCH  10  11
ENDBRANCH   1  10
TORSDOF 4
ENDMDL
MODEL 4
REMARK VINA RESULT: -6.139268523      5.276      8.883
REMARK  4 active torsions:
REMARK  status: ('A' for Active; 'I' for Inactive)
REMARK    1  A    between atoms: C2_2  and  C3_4 
REMARK    2  A    between atoms: C3_4  and  C4_5 
REMARK    3  A    between atoms: C4_5  and  O3_7 
REMARK    4  A    between atoms: O3_7  and  C5_8 
ROOT
HETATM    1  C5  UNL     1      -7.030 -18.676  41.375  1.00  0.00     0.132 C 
HETATM    2  C6  UNL     1      -6.955 -19.774  42.399  1.00  0.00     0.032 C 
HETATM    3  C7  UNL     1      -7.524 -19.448  43.731  1.00  0.00     0.002 C 
HETATM    4  C8  UNL     1      -8.157 -18.081  43.818  1.00  0.00     0.001 C 
HETATM    5  C9  UNL     1      -9.446 -18.129  43.038  1.00  0.00     0.009 C 
HETATM    6  C10 UNL     1      -9.333 -17.674  41.620  1.00  0.00    -0.045 C 
HETATM    7  C11 UNL     1      -9.055 -16.197  41.618  1.00  0.00     0.015 C 
HETATM    8  C12 UNL     1     -10.717 -17.868  40.997  1.00  0.00     0.015 C 
HETATM    9  C13 UNL     1      -8.376 -18.473  40.785  1.00  0.00     0.041 C 
ENDROOT
BRANCH   1  10
HETATM   10  O3  UNL     1      -6.148 -19.086  40.323  1.00  0.00    -0.316 OA
BRANCH  10  11
HETATM   11  C4  UNL     1      -6.048 -18.402  39.143  1.00  0.00     0.266 C 
HETATM   12  O2  UNL     1      -5.522 -17.244  39.187  1.00  0.00    -0.265 OA
BRANCH  11  13
HETATM   13  C3  UNL     1      -6.493 -18.869  37.807  1.00  0.00     0.188 C 
BRANCH  13  14
HETATM   14  C2  UNL     1      -5.347 -19.497  37.065  1.00  0.00     0.132 C 
HETATM   15  C1  UNL     1      -4.747 -18.798  35.881  1.00  0.00     0.091 C 
HETATM   16  O1  UNL     1      -4.856 -20.564  37.370  1.00  0.00    -0.298 OA
ENDBRANCH  13  14
ENDBRANCH  11  13
ENDBRANCH  10  11
ENDBRANCH   1  10
TORSDOF 4
ENDMDL
MODEL 5
REMARK VINA RESULT: -6.025818008      1.989      6.767
REMARK  4 active torsions:
REMARK  status: ('A' for Active; 'I' for Inactive)
REMARK    1  A    between atoms: C2_2  and  C3_4 
REMARK    2  A    between atoms: C3_4  and  C4_5 
REMARK    3  A    between atoms: C4_5  and  O3_7 
REMARK    4  A    between atoms: O3_7  and  C5_8 
ROOT
HETATM    1  C5  UNL     1      -5.370 -18.735  36.458  1.00  0.00     0.132 C 
HETATM    2  C6  UNL     1      -6.454 -19.042  35.464  1.00  0.00     0.032 C 
HETATM    3  C7  UNL     1      -7.833 -18.702  35.895  1.00  0.00     0.002 C 
HETATM    4  C8  UNL     1      -7.914 -18.028  37.242  1.00  0.00     0.001 C 
HETATM    5  C9  UNL     1      -7.386 -16.626  37.079  1.00  0.00     0.009 C 
HETATM    6  C10 UNL     1      -5.937 -16.464  37.402  1.00  0.00    -0.045 C 
HETATM    7  C11 UNL     1      -5.756 -16.665  38.881  1.00  0.00     0.015 C 
HETATM    8  C12 UNL     1      -5.592 -15.003  37.106  1.00  0.00     0.015 C 
HETATM    9  C13 UNL     1      -5.015 -17.297  36.560  1.00  0.00     0.041 C 
ENDROOT
BRANCH   1  10
HETATM   10  O3  UNL     1      -4.215 -19.436  35.980  1.00  0.00    -0.316 OA
BRANCH  10  11
HETATM   11  C4  UNL     1      -3.763 -20.587  36.565  1.00  0.00     0.266 C 
HETATM   12  O2  UNL     1      -4.471 -21.080  37.499  1.00  0.00    -0.265 OA
BRANCH  11  13
HETATM   13  C3  UNL     1      -2.522 -21.326  36.224  1.00  0.00     0.188 C 
BRANCH  13  14
HETATM   14  C2  UNL     1      -1.706 -20.546  35.232  1.00  0.00     0.132 C 
HETATM   15  C1  UNL     1      -0.297 -20.962  34.928  1.00  0.00     0.091 C 
HETATM   16  O1  UNL     1      -2.123 -19.573  34.639  1.00  0.00    -0.298 OA
ENDBRANCH  13  14
ENDBRANCH  11  13
ENDBRANCH  10  11
ENDBRANCH   1  10
TORSDOF 4
ENDMDL
