MODEL 1
REMARK VINA RESULT: -5.985163858      0.000      0.000
REMARK  14 active torsions:
REMARK  status: ('A' for Active; 'I' for Inactive)
REMARK    1  A    between atoms: C2_2  and  C4_4 
REMARK    2  A    between atoms: C4_4  and  O1_6 
REMARK    3  A    between atoms: C4_4  and  C6_8 
REMARK    4  A    between atoms: C7_9  and  C8_10 
REMARK    5  A    between atoms: C8_10  and  C10_12 
REMARK    6  A    between atoms: C10_12  and  C11_13 
REMARK    7  A    between atoms: C23_26  and  C24_27 
REMARK    8  A    between atoms: C23_26  and  C25_30 
REMARK    9  A    between atoms: C24_27  and  O3_28 
REMARK   10  A    between atoms: C25_30  and  O4_31 
REMARK   11  A    between atoms: O4_31  and  C26_32 
REMARK   12  A    between atoms: C29_38  and  C30_39 
REMARK   13  A    between atoms: C30_39  and  O8_40 
REMARK   14  A    between atoms: C32_42  and  O9_43 
ROOT
HETATM    1  C11 UNL     1      38.811 -34.390  14.613  1.00  0.00     0.128 C 
HETATM    2  O2  UNL     1      37.866 -34.592  13.659  1.00  0.00    -0.377 OA
HETATM    3  C12 UNL     1      38.054 -35.131  12.485  1.00  0.00     0.167 C 
HETATM    4  C13 UNL     1      36.966 -36.180  12.273  1.00  0.00     0.117 C 
HETATM    5  C14 UNL     1      37.067 -37.361  13.184  1.00  0.00     0.018 C 
HETATM    6  C15 UNL     1      36.182 -37.376  14.372  1.00  0.00     0.012 C 
HETATM    7  C16 UNL     1      36.638 -36.755  15.617  1.00  0.00    -0.023 A 
HETATM    8  C17 UNL     1      35.830 -35.652  16.233  1.00  0.00     0.020 C 
HETATM    9  C18 UNL     1      36.646 -34.366  15.959  1.00  0.00    -0.041 C 
HETATM   10  C19 UNL     1      35.906 -33.626  14.950  1.00  0.00     0.015 C 
HETATM   11  C20 UNL     1      36.548 -33.478  17.221  1.00  0.00     0.015 C 
HETATM   12  C21 UNL     1      37.996 -34.886  15.844  1.00  0.00     0.028 C 
HETATM   13  C22 UNL     1      38.037 -36.383  15.733  1.00  0.00     0.016 A 
HETATM   14  C23 UNL     1      37.562 -37.416  16.612  1.00  0.00     0.016 A 
HETATM   15  C28 UNL     1      36.913 -36.600  10.829  1.00  0.00     0.266 C 
HETATM   16  O6  UNL     1      35.830 -37.057  10.404  1.00  0.00    -0.265 OA
HETATM   17  O7  UNL     1      38.041 -36.458  10.077  1.00  0.00    -0.311 OA
HETATM   18  C29 UNL     1      39.195 -35.780  10.450  1.00  0.00     0.186 C 
HETATM   19  C32 UNL     1      39.316 -35.688  11.991  1.00  0.00     0.179 C 
ENDROOT
BRANCH   1  20
HETATM   20  C10 UNL     1      39.383 -33.055  14.739  1.00  0.00     0.040 C 
BRANCH  20  21
HETATM   21  C8  UNL     1      39.076 -32.130  15.828  1.00  0.00     0.006 C 
HETATM   22  C9  UNL     1      38.847 -30.698  15.622  1.00  0.00     0.014 C 
BRANCH  21  23
HETATM   23  C7  UNL     1      40.154 -32.234  16.888  1.00  0.00    -0.023 C 
HETATM   24  C6  UNL     1      39.954 -32.720  18.079  1.00  0.00     0.011 C 
BRANCH  24  25
HETATM   25  C4  UNL     1      41.044 -32.806  19.096  1.00  0.00     0.094 C 
HETATM   26  C5  UNL     1      42.252 -32.083  18.560  1.00  0.00     0.055 C 
BRANCH  25  27
HETATM   27  C2  UNL     1      41.402 -34.214  19.416  1.00  0.00    -0.056 C 
HETATM   28  C1  UNL     1      41.985 -35.038  18.560  1.00  0.00     0.017 C 
HETATM   29  C3  UNL     1      41.084 -34.710  20.779  1.00  0.00     0.046 C 
ENDBRANCH  25  27
BRANCH  25  30
HETATM   30  O1  UNL     1      40.673 -32.159  20.275  1.00  0.00    -0.382 OA
ATOM     31  H1  UNL     1      39.873 -31.670  20.116  1.00  0.00     0.211 HD
ENDBRANCH  25  30
ENDBRANCH  24  25
ENDBRANCH  21  23
ENDBRANCH  20  21
ENDBRANCH   1  20
BRANCH  19  32
HETATM   32  O9  UNL     1      40.466 -34.967  12.176  1.00  0.00    -0.390 OA
ATOM     33  H9  UNL     1      41.208 -35.145  11.610  1.00  0.00     0.210 HD
ENDBRANCH  19  32
BRANCH  14  34
HETATM   34  C24 UNL     1      37.245 -37.279  18.081  1.00  0.00     0.177 C 
BRANCH  34  35
HETATM   35  O3  UNL     1      38.279 -37.601  18.944  1.00  0.00    -0.400 OA
ATOM     36  H3  UNL     1      38.063 -37.566  19.869  1.00  0.00     0.209 HD
ENDBRANCH  34  35
ENDBRANCH  14  34
BRANCH  14  37
HETATM   37  C25 UNL     1      37.728 -38.871  16.223  1.00  0.00     0.191 C 
BRANCH  37  38
HETATM   38  O4  UNL     1      38.779 -39.556  16.797  1.00  0.00    -0.321 OA
BRANCH  38  39
HETATM   39  C26 UNL     1      40.105 -39.560  16.421  1.00  0.00     0.254 C 
HETATM   40  C27 UNL     1      41.028 -38.542  16.951  1.00  0.00     0.126 C 
HETATM   41  O5  UNL     1      40.474 -40.455  15.622  1.00  0.00    -0.266 OA
ENDBRANCH  38  39
ENDBRANCH  37  38
ENDBRANCH  14  37
BRANCH  18  42
HETATM   42  C30 UNL     1      40.413 -36.451   9.875  1.00  0.00     0.202 C 
BRANCH  42  43
HETATM   43  O8  UNL     1      40.056 -37.347   8.874  1.00  0.00    -0.393 OA
HETATM   44  C31 UNL     1      40.588 -38.610   9.036  1.00  0.00     0.201 C 
ENDBRANCH  42  43
ENDBRANCH  18  42
TORSDOF 14
ENDMDL
MODEL 2
REMARK VINA RESULT: -5.890389699      2.169      6.886
REMARK  14 active torsions:
REMARK  status: ('A' for Active; 'I' for Inactive)
REMARK    1  A    between atoms: C2_2  and  C4_4 
REMARK    2  A    between atoms: C4_4  and  O1_6 
REMARK    3  A    between atoms: C4_4  and  C6_8 
REMARK    4  A    between atoms: C7_9  and  C8_10 
REMARK    5  A    between atoms: C8_10  and  C10_12 
REMARK    6  A    between atoms: C10_12  and  C11_13 
REMARK    7  A    between atoms: C23_26  and  C24_27 
REMARK    8  A    between atoms: C23_26  and  C25_30 
REMARK    9  A    between atoms: C24_27  and  O3_28 
REMARK   10  A    between atoms: C25_30  and  O4_31 
REMARK   11  A    between atoms: O4_31  and  C26_32 
REMARK   12  A    between atoms: C29_38  and  C30_39 
REMARK   13  A    between atoms: C30_39  and  O8_40 
REMARK   14  A    between atoms: C32_42  and  O9_43 
ROOT
HETATM    1  C11 UNL     1      38.836 -36.841  17.107  1.00  0.00     0.128 C 
HETATM    2  O2  UNL     1      38.447 -35.568  16.844  1.00  0.00    -0.377 OA
HETATM    3  C12 UNL     1      39.150 -34.485  17.046  1.00  0.00     0.167 C 
HETATM    4  C13 UNL     1      39.078 -33.638  15.779  1.00  0.00     0.117 C 
HETATM    5  C14 UNL     1      39.761 -34.244  14.596  1.00  0.00     0.018 C 
HETATM    6  C15 UNL     1      38.906 -34.940  13.605  1.00  0.00     0.012 C 
HETATM    7  C16 UNL     1      38.609 -36.362  13.784  1.00  0.00    -0.023 A 
HETATM    8  C17 UNL     1      37.183 -36.813  13.887  1.00  0.00     0.020 C 
HETATM    9  C18 UNL     1      36.988 -37.168  15.380  1.00  0.00    -0.041 C 
HETATM   10  C19 UNL     1      36.143 -36.124  15.936  1.00  0.00     0.015 C 
HETATM   11  C20 UNL     1      36.107 -38.436  15.444  1.00  0.00     0.015 C 
HETATM   12  C21 UNL     1      38.340 -37.504  15.788  1.00  0.00     0.028 C 
HETATM   13  C22 UNL     1      39.371 -37.109  14.769  1.00  0.00     0.016 A 
HETATM   14  C23 UNL     1      39.540 -37.484  13.392  1.00  0.00     0.016 A 
HETATM   15  C28 UNL     1      39.574 -32.243  16.049  1.00  0.00     0.266 C 
HETATM   16  O6  UNL     1      39.156 -31.331  15.305  1.00  0.00    -0.265 OA
HETATM   17  O7  UNL     1      40.445 -32.061  17.083  1.00  0.00    -0.311 OA
HETATM   18  C29 UNL     1      40.780 -33.002  18.049  1.00  0.00     0.186 C 
HETATM   19  C32 UNL     1      40.530 -34.441  17.536  1.00  0.00     0.179 C 
ENDROOT
BRANCH   1  20
HETATM   20  C10 UNL     1      38.359 -37.464  18.336  1.00  0.00     0.040 C 
BRANCH  20  21
HETATM   21  C8  UNL     1      39.051 -38.547  19.030  1.00  0.00     0.006 C 
HETATM   22  C9  UNL     1      39.584 -38.417  20.389  1.00  0.00     0.014 C 
BRANCH  21  23
HETATM   23  C7  UNL     1      40.203 -39.031  18.172  1.00  0.00    -0.023 C 
HETATM   24  C6  UNL     1      40.183 -40.141  17.491  1.00  0.00     0.011 C 
BRANCH  24  25
HETATM   25  C4  UNL     1      41.339 -40.582  16.657  1.00  0.00     0.094 C 
HETATM   26  C5  UNL     1      40.847 -40.824  15.253  1.00  0.00     0.055 C 
BRANCH  25  27
HETATM   27  C2  UNL     1      41.973 -41.819  17.187  1.00  0.00    -0.056 C 
HETATM   28  C1  UNL     1      43.229 -42.162  16.949  1.00  0.00     0.017 C 
HETATM   29  C3  UNL     1      41.139 -42.710  18.032  1.00  0.00     0.046 C 
ENDBRANCH  25  27
BRANCH  25  30
HETATM   30  O1  UNL     1      42.306 -39.579  16.581  1.00  0.00    -0.382 OA
ATOM     31  H1  UNL     1      42.130 -39.043  15.816  1.00  0.00     0.211 HD
ENDBRANCH  25  30
ENDBRANCH  24  25
ENDBRANCH  21  23
ENDBRANCH  20  21
ENDBRANCH   1  20
BRANCH  19  32
HETATM   32  O9  UNL     1      40.868 -35.222  18.610  1.00  0.00    -0.390 OA
ATOM     33  H9  UNL     1      41.126 -36.123  18.452  1.00  0.00     0.210 HD
ENDBRANCH  19  32
BRANCH  14  34
HETATM   34  C24 UNL     1      38.954 -38.692  12.704  1.00  0.00     0.177 C 
BRANCH  34  35
HETATM   35  O3  UNL     1      39.862 -39.498  12.040  1.00  0.00    -0.400 OA
ATOM     36  H3  UNL     1      40.147 -39.177  11.192  1.00  0.00     0.209 HD
ENDBRANCH  34  35
ENDBRANCH  14  34
BRANCH  14  37
HETATM   37  C25 UNL     1      40.686 -36.902  12.589  1.00  0.00     0.191 C 
BRANCH  37  38
HETATM   38  O4  UNL     1      40.583 -36.967  11.214  1.00  0.00    -0.321 OA
BRANCH  38  39
HETATM   39  C26 UNL     1      39.878 -36.137  10.370  1.00  0.00     0.254 C 
HETATM   40  C27 UNL     1      38.655 -36.621   9.707  1.00  0.00     0.126 C 
HETATM   41  O5  UNL     1      40.323 -34.975  10.200  1.00  0.00    -0.266 OA
ENDBRANCH  38  39
ENDBRANCH  37  38
ENDBRANCH  14  37
BRANCH  18  42
HETATM   42  C30 UNL     1      42.217 -32.843  18.466  1.00  0.00     0.202 C 
BRANCH  42  43
HETATM   43  O8  UNL     1      42.391 -33.225  19.790  1.00  0.00    -0.393 OA
HETATM   44  C31 UNL     1      41.703 -32.443  20.696  1.00  0.00     0.201 C 
ENDBRANCH  42  43
ENDBRANCH  18  42
TORSDOF 14
ENDMDL
MODEL 3
REMARK VINA RESULT: -5.866359184      2.333      6.361
REMARK  14 active torsions:
REMARK  status: ('A' for Active; 'I' for Inactive)
REMARK    1  A    between atoms: C2_2  and  C4_4 
REMARK    2  A    between atoms: C4_4  and  O1_6 
REMARK    3  A    between atoms: C4_4  and  C6_8 
REMARK    4  A    between atoms: C7_9  and  C8_10 
REMARK    5  A    between atoms: C8_10  and  C10_12 
REMARK    6  A    between atoms: C10_12  and  C11_13 
REMARK    7  A    between atoms: C23_26  and  C24_27 
REMARK    8  A    between atoms: C23_26  and  C25_30 
REMARK    9  A    between atoms: C24_27  and  O3_28 
REMARK   10  A    between atoms: C25_30  and  O4_31 
REMARK   11  A    between atoms: O4_31  and  C26_32 
REMARK   12  A    between atoms: C29_38  and  C30_39 
REMARK   13  A    between atoms: C30_39  and  O8_40 
REMARK   14  A    between atoms: C32_42  and  O9_43 
ROOT
HETATM    1  C11 UNL     1      38.905 -36.692  17.226  1.00  0.00     0.128 C 
HETATM    2  O2  UNL     1      38.488 -35.433  16.937  1.00  0.00    -0.377 OA
HETATM    3  C12 UNL     1      39.171 -34.332  17.107  1.00  0.00     0.167 C 
HETATM    4  C13 UNL     1      39.072 -33.517  15.821  1.00  0.00     0.117 C 
HETATM    5  C14 UNL     1      39.758 -34.137  14.647  1.00  0.00     0.018 C 
HETATM    6  C15 UNL     1      38.909 -34.873  13.680  1.00  0.00     0.012 C 
HETATM    7  C16 UNL     1      38.642 -36.296  13.895  1.00  0.00    -0.023 A 
HETATM    8  C17 UNL     1      37.226 -36.773  14.020  1.00  0.00     0.020 C 
HETATM    9  C18 UNL     1      37.050 -37.096  15.523  1.00  0.00    -0.041 C 
HETATM   10  C19 UNL     1      36.189 -36.056  16.061  1.00  0.00     0.015 C 
HETATM   11  C20 UNL     1      36.195 -38.380  15.624  1.00  0.00     0.015 C 
HETATM   12  C21 UNL     1      38.412 -37.395  15.927  1.00  0.00     0.028 C 
HETATM   13  C22 UNL     1      39.427 -37.005  14.891  1.00  0.00     0.016 A 
HETATM   14  C23 UNL     1      39.592 -37.408  13.522  1.00  0.00     0.016 A 
HETATM   15  C28 UNL     1      39.543 -32.107  16.054  1.00  0.00     0.266 C 
HETATM   16  O6  UNL     1      39.100 -31.220  15.292  1.00  0.00    -0.265 OA
HETATM   17  O7  UNL     1      40.417 -31.882  17.076  1.00  0.00    -0.311 OA
HETATM   18  C29 UNL     1      40.779 -32.793  18.060  1.00  0.00     0.186 C 
HETATM   19  C32 UNL     1      40.554 -34.249  17.584  1.00  0.00     0.179 C 
ENDROOT
BRANCH   1  20
HETATM   20  C10 UNL     1      38.450 -37.294  18.473  1.00  0.00     0.040 C 
BRANCH  20  21
HETATM   21  C8  UNL     1      39.225 -38.260  19.249  1.00  0.00     0.006 C 
HETATM   22  C9  UNL     1      38.721 -39.589  19.608  1.00  0.00     0.014 C 
BRANCH  21  23
HETATM   23  C7  UNL     1      39.667 -37.615  20.547  1.00  0.00    -0.023 C 
HETATM   24  C6  UNL     1      40.910 -37.524  20.924  1.00  0.00     0.011 C 
BRANCH  24  25
HETATM   25  C4  UNL     1      41.306 -36.880  22.211  1.00  0.00     0.094 C 
HETATM   26  C5  UNL     1      40.609 -35.548  22.308  1.00  0.00     0.055 C 
BRANCH  25  27
HETATM   27  C2  UNL     1      42.777 -36.686  22.312  1.00  0.00    -0.056 C 
HETATM   28  C1  UNL     1      43.476 -36.918  23.412  1.00  0.00     0.017 C 
HETATM   29  C3  UNL     1      43.490 -36.205  21.102  1.00  0.00     0.046 C 
ENDBRANCH  25  27
BRANCH  25  30
HETATM   30  O1  UNL     1      40.878 -37.643  23.298  1.00  0.00    -0.382 OA
ATOM     31  H1  UNL     1      40.806 -37.078  24.058  1.00  0.00     0.211 HD
ENDBRANCH  25  30
ENDBRANCH  24  25
ENDBRANCH  21  23
ENDBRANCH  20  21
ENDBRANCH   1  20
BRANCH  19  32
HETATM   32  O9  UNL     1      40.916 -34.997  18.673  1.00  0.00    -0.390 OA
ATOM     33  H9  UNL     1      40.276 -35.135  19.362  1.00  0.00     0.210 HD
ENDBRANCH  19  32
BRANCH  14  34
HETATM   34  C24 UNL     1      39.024 -38.644  12.868  1.00  0.00     0.177 C 
BRANCH  34  35
HETATM   35  O3  UNL     1      39.951 -39.477  12.264  1.00  0.00    -0.400 OA
ATOM     36  H3  UNL     1      39.874 -39.556  11.320  1.00  0.00     0.209 HD
ENDBRANCH  34  35
ENDBRANCH  14  34
BRANCH  14  37
HETATM   37  C25 UNL     1      40.719 -36.823  12.695  1.00  0.00     0.191 C 
BRANCH  37  38
HETATM   38  O4  UNL     1      40.609 -36.928  11.323  1.00  0.00    -0.321 OA
BRANCH  38  39
HETATM   39  C26 UNL     1      39.896 -36.127  10.459  1.00  0.00     0.254 C 
HETATM   40  C27 UNL     1      38.655 -36.625   9.842  1.00  0.00     0.126 C 
HETATM   41  O5  UNL     1      40.348 -34.978  10.232  1.00  0.00    -0.266 OA
ENDBRANCH  38  39
ENDBRANCH  37  38
ENDBRANCH  14  37
BRANCH  18  42
HETATM   42  C30 UNL     1      42.216 -32.596  18.462  1.00  0.00     0.202 C 
BRANCH  42  43
HETATM   43  O8  UNL     1      42.426 -33.021  19.768  1.00  0.00    -0.393 OA
HETATM   44  C31 UNL     1      41.772 -32.260  20.717  1.00  0.00     0.201 C 
ENDBRANCH  42  43
ENDBRANCH  18  42
TORSDOF 14
ENDMDL
MODEL 4
REMARK VINA RESULT: -5.834792907     15.827     19.307
REMARK  14 active torsions:
REMARK  status: ('A' for Active; 'I' for Inactive)
REMARK    1  A    between atoms: C2_2  and  C4_4 
REMARK    2  A    between atoms: C4_4  and  O1_6 
REMARK    3  A    between atoms: C4_4  and  C6_8 
REMARK    4  A    between atoms: C7_9  and  C8_10 
REMARK    5  A    between atoms: C8_10  and  C10_12 
REMARK    6  A    between atoms: C10_12  and  C11_13 
REMARK    7  A    between atoms: C23_26  and  C24_27 
REMARK    8  A    between atoms: C23_26  and  C25_30 
REMARK    9  A    between atoms: C24_27  and  O3_28 
REMARK   10  A    between atoms: C25_30  and  O4_31 
REMARK   11  A    between atoms: O4_31  and  C26_32 
REMARK   12  A    between atoms: C29_38  and  C30_39 
REMARK   13  A    between atoms: C30_39  and  O8_40 
REMARK   14  A    between atoms: C32_42  and  O9_43 
ROOT
HETATM    1  C11 UNL     1      55.716 -36.638   8.928  1.00  0.00     0.128 C 
HETATM    2  O2  UNL     1      56.212 -37.884   9.137  1.00  0.00    -0.377 OA
HETATM    3  C12 UNL     1      56.195 -38.545  10.264  1.00  0.00     0.167 C 
HETATM    4  C13 UNL     1      55.684 -39.953   9.972  1.00  0.00     0.117 C 
HETATM    5  C14 UNL     1      54.252 -40.011   9.550  1.00  0.00     0.018 C 
HETATM    6  C15 UNL     1      53.980 -40.128   8.097  1.00  0.00     0.012 C 
HETATM    7  C16 UNL     1      53.858 -38.914   7.288  1.00  0.00    -0.023 A 
HETATM    8  C17 UNL     1      54.770 -38.712   6.115  1.00  0.00     0.020 C 
HETATM    9  C18 UNL     1      55.766 -37.621   6.575  1.00  0.00    -0.041 C 
HETATM   10  C19 UNL     1      57.039 -38.295   6.773  1.00  0.00     0.015 C 
HETATM   11  C20 UNL     1      56.021 -36.688   5.369  1.00  0.00     0.015 C 
HETATM   12  C21 UNL     1      54.992 -36.909   7.575  1.00  0.00     0.028 C 
HETATM   13  C22 UNL     1      53.739 -37.637   7.969  1.00  0.00     0.016 A 
HETATM   14  C23 UNL     1      52.608 -38.072   7.197  1.00  0.00     0.016 A 
HETATM   15  C28 UNL     1      55.952 -40.863  11.140  1.00  0.00     0.266 C 
HETATM   16  O6  UNL     1      56.042 -42.087  10.905  1.00  0.00    -0.265 OA
HETATM   17  O7  UNL     1      56.081 -40.301  12.376  1.00  0.00    -0.311 OA
HETATM   18  C29 UNL     1      56.184 -38.943  12.652  1.00  0.00     0.186 C 
HETATM   19  C32 UNL     1      55.574 -38.093  11.512  1.00  0.00     0.179 C 
ENDROOT
BRANCH   1  20
HETATM   20  C10 UNL     1      56.652 -35.520   8.921  1.00  0.00     0.040 C 
BRANCH  20  21
HETATM   21  C8  UNL     1      58.070 -35.635   9.255  1.00  0.00     0.006 C 
HETATM   22  C9  UNL     1      58.703 -34.873  10.335  1.00  0.00     0.014 C 
BRANCH  21  23
HETATM   23  C7  UNL     1      58.896 -35.369   8.013  1.00  0.00    -0.023 C 
HETATM   24  C6  UNL     1      59.011 -34.197   7.457  1.00  0.00     0.011 C 
BRANCH  24  25
HETATM   25  C4  UNL     1      59.836 -33.976   6.233  1.00  0.00     0.094 C 
HETATM   26  C5  UNL     1      59.614 -35.134   5.295  1.00  0.00     0.055 C 
BRANCH  25  27
HETATM   27  C2  UNL     1      61.285 -33.854   6.547  1.00  0.00    -0.056 C 
HETATM   28  C1  UNL     1      62.234 -34.530   5.919  1.00  0.00     0.017 C 
HETATM   29  C3  UNL     1      61.675 -32.915   7.629  1.00  0.00     0.046 C 
ENDBRANCH  25  27
BRANCH  25  30
HETATM   30  O1  UNL     1      59.424 -32.824   5.561  1.00  0.00    -0.382 OA
ATOM     31  H1  UNL     1      58.493 -32.703   5.704  1.00  0.00     0.211 HD
ENDBRANCH  25  30
ENDBRANCH  24  25
ENDBRANCH  21  23
ENDBRANCH  20  21
ENDBRANCH   1  20
BRANCH  19  32
HETATM   32  O9  UNL     1      55.796 -36.805  11.924  1.00  0.00    -0.390 OA
ATOM     33  H9  UNL     1      55.337 -36.491  12.694  1.00  0.00     0.210 HD
ENDBRANCH  19  32
BRANCH  14  34
HETATM   34  C24 UNL     1      52.188 -37.561   5.841  1.00  0.00     0.177 C 
BRANCH  34  35
HETATM   35  O3  UNL     1      51.388 -36.432   5.853  1.00  0.00    -0.400 OA
ATOM     36  H3  UNL     1      51.782 -35.656   6.235  1.00  0.00     0.209 HD
ENDBRANCH  34  35
ENDBRANCH  14  34
BRANCH  14  37
HETATM   37  C25 UNL     1      51.474 -38.815   7.874  1.00  0.00     0.191 C 
BRANCH  37  38
HETATM   38  O4  UNL     1      50.425 -38.057   8.351  1.00  0.00    -0.321 OA
BRANCH  38  39
HETATM   39  C26 UNL     1      50.134 -37.725   9.656  1.00  0.00     0.254 C 
HETATM   40  C27 UNL     1      48.748 -37.800  10.147  1.00  0.00     0.126 C 
HETATM   41  O5  UNL     1      51.090 -37.365  10.386  1.00  0.00    -0.266 OA
ENDBRANCH  38  39
ENDBRANCH  37  38
ENDBRANCH  14  37
BRANCH  18  42
HETATM   42  C30 UNL     1      55.512 -38.617  13.958  1.00  0.00     0.202 C 
BRANCH  42  43
HETATM   43  O8  UNL     1      56.114 -37.519  14.561  1.00  0.00    -0.393 OA
HETATM   44  C31 UNL     1      57.375 -37.774  15.062  1.00  0.00     0.201 C 
ENDBRANCH  42  43
ENDBRANCH  18  42
TORSDOF 14
ENDMDL
MODEL 5
REMARK VINA RESULT: -5.738296684     15.131     18.266
REMARK  14 active torsions:
REMARK  status: ('A' for Active; 'I' for Inactive)
REMARK    1  A    between atoms: C2_2  and  C4_4 
REMARK    2  A    between atoms: C4_4  and  O1_6 
REMARK    3  A    between atoms: C4_4  and  C6_8 
REMARK    4  A    between atoms: C7_9  and  C8_10 
REMARK    5  A    between atoms: C8_10  and  C10_12 
REMARK    6  A    between atoms: C10_12  and  C11_13 
REMARK    7  A    between atoms: C23_26  and  C24_27 
REMARK    8  A    between atoms: C23_26  and  C25_30 
REMARK    9  A    between atoms: C24_27  and  O3_28 
REMARK   10  A    between atoms: C25_30  and  O4_31 
REMARK   11  A    between atoms: O4_31  and  C26_32 
REMARK   12  A    between atoms: C29_38  and  C30_39 
REMARK   13  A    between atoms: C30_39  and  O8_40 
REMARK   14  A    between atoms: C32_42  and  O9_43 
ROOT
HETATM    1  C11 UNL     1      55.754 -37.723  11.989  1.00  0.00     0.128 C 
HETATM    2  O2  UNL     1      56.400 -38.897  11.771  1.00  0.00    -0.377 OA
HETATM    3  C12 UNL     1      55.883 -40.094  11.857  1.00  0.00     0.167 C 
HETATM    4  C13 UNL     1      56.285 -40.868  10.605  1.00  0.00     0.117 C 
HETATM    5  C14 UNL     1      55.676 -40.350   9.342  1.00  0.00     0.018 C 
HETATM    6  C15 UNL     1      56.520 -39.478   8.493  1.00  0.00     0.012 C 
HETATM    7  C16 UNL     1      56.527 -38.033   8.728  1.00  0.00    -0.023 A 
HETATM    8  C17 UNL     1      57.819 -37.340   9.040  1.00  0.00     0.020 C 
HETATM    9  C18 UNL     1      57.735 -37.011  10.550  1.00  0.00    -0.041 C 
HETATM   10  C19 UNL     1      58.669 -37.907  11.211  1.00  0.00     0.015 C 
HETATM   11  C20 UNL     1      58.355 -35.609  10.754  1.00  0.00     0.015 C 
HETATM   12  C21 UNL     1      56.301 -36.935  10.762  1.00  0.00     0.028 C 
HETATM   13  C22 UNL     1      55.512 -37.469   9.601  1.00  0.00     0.016 A 
HETATM   14  C23 UNL     1      55.472 -37.081   8.218  1.00  0.00     0.016 A 
HETATM   15  C28 UNL     1      56.016 -42.337  10.786  1.00  0.00     0.266 C 
HETATM   16  O6  UNL     1      56.693 -43.133  10.100  1.00  0.00    -0.265 OA
HETATM   17  O7  UNL     1      55.057 -42.709  11.681  1.00  0.00    -0.311 OA
HETATM   18  C29 UNL     1      54.425 -41.879  12.598  1.00  0.00     0.186 C 
HETATM   19  C32 UNL     1      54.479 -40.401  12.143  1.00  0.00     0.179 C 
ENDROOT
BRANCH   1  20
HETATM   20  C10 UNL     1      55.934 -37.071  13.280  1.00  0.00     0.040 C 
BRANCH  20  21
HETATM   21  C8  UNL     1      57.103 -37.255  14.137  1.00  0.00     0.006 C 
HETATM   22  C9  UNL     1      57.165 -38.259  15.203  1.00  0.00     0.014 C 
BRANCH  21  23
HETATM   23  C7  UNL     1      57.457 -35.932  14.785  1.00  0.00    -0.023 C 
HETATM   24  C6  UNL     1      56.588 -34.998  15.046  1.00  0.00     0.011 C 
BRANCH  24  25
HETATM   25  C4  UNL     1      56.978 -33.707  15.687  1.00  0.00     0.094 C 
HETATM   26  C5  UNL     1      58.164 -33.960  16.581  1.00  0.00     0.055 C 
BRANCH  25  27
HETATM   27  C2  UNL     1      55.867 -33.117  16.480  1.00  0.00    -0.056 C 
HETATM   28  C1  UNL     1      55.952 -32.838  17.772  1.00  0.00     0.017 C 
HETATM   29  C3  UNL     1      54.595 -32.828  15.770  1.00  0.00     0.046 C 
ENDBRANCH  25  27
BRANCH  25  30
HETATM   30  O1  UNL     1      57.384 -32.780  14.726  1.00  0.00    -0.382 OA
ATOM     31  H1  UNL     1      58.301 -32.930  14.527  1.00  0.00     0.211 HD
ENDBRANCH  25  30
ENDBRANCH  24  25
ENDBRANCH  21  23
ENDBRANCH  20  21
ENDBRANCH   1  20
BRANCH  19  32
HETATM   32  O9  UNL     1      53.858 -39.732  13.165  1.00  0.00    -0.390 OA
ATOM     33  H9  UNL     1      53.335 -40.231  13.781  1.00  0.00     0.210 HD
ENDBRANCH  19  32
BRANCH  14  34
HETATM   34  C24 UNL     1      55.921 -35.763   7.635  1.00  0.00     0.177 C 
BRANCH  34  35
HETATM   35  O3  UNL     1      55.999 -35.720   6.254  1.00  0.00    -0.400 OA
ATOM     36  H3  UNL     1      56.809 -36.047   5.880  1.00  0.00     0.209 HD
ENDBRANCH  34  35
ENDBRANCH  14  34
BRANCH  14  37
HETATM   37  C25 UNL     1      54.575 -37.827   7.251  1.00  0.00     0.191 C 
BRANCH  37  38
HETATM   38  O4  UNL     1      53.398 -37.208   6.884  1.00  0.00    -0.321 OA
BRANCH  38  39
HETATM   39  C26 UNL     1      52.366 -36.784   7.693  1.00  0.00     0.254 C 
HETATM   40  C27 UNL     1      51.801 -37.690   8.707  1.00  0.00     0.126 C 
HETATM   41  O5  UNL     1      51.945 -35.614   7.523  1.00  0.00    -0.266 OA
ENDBRANCH  38  39
ENDBRANCH  37  38
ENDBRANCH  14  37
BRANCH  18  42
HETATM   42  C30 UNL     1      52.997 -42.306  12.802  1.00  0.00     0.202 C 
BRANCH  42  43
HETATM   43  O8  UNL     1      52.136 -41.532  12.033  1.00  0.00    -0.393 OA
HETATM   44  C31 UNL     1      50.875 -42.074  11.885  1.00  0.00     0.201 C 
ENDBRANCH  42  43
ENDBRANCH  18  42
TORSDOF 14
ENDMDL
