MODEL 1
REMARK VINA RESULT: -7.174761219      0.000      0.000
REMARK  14 active torsions:
REMARK  status: ('A' for Active; 'I' for Inactive)
REMARK    1  A    between atoms: O1_2  and  C2_3 
REMARK    2  A    between atoms: C2_3  and  O3_5 
REMARK    3  A    between atoms: O3_5  and  C3_6 
REMARK    4  A    between atoms: C3_6  and  C4_8 
REMARK    5  A    between atoms: C11_18  and  C12_19 
REMARK    6  A    between atoms: C12_19  and  O8_21 
REMARK    7  A    between atoms: C12_19  and  C14_23 
REMARK    8  A    between atoms: C14_23  and  O9_24 
REMARK    9  A    between atoms: C14_23  and  C15_26 
REMARK   10  A    between atoms: C15_26  and  C16_27 
REMARK   11  A    between atoms: C16_27  and  C18_29 
REMARK   12  A    between atoms: C19_30  and  C21_32 
REMARK   13  A    between atoms: C21_32  and  O10_33 
REMARK   14  A    between atoms: C21_32  and  C22_35 
ROOT
HETATM    1  C4  UNL     1      45.280 -25.927  13.888  1.00  0.00     0.166 C 
HETATM    2  C5  UNL     1      44.706 -27.233  13.534  1.00  0.00     0.170 C 
HETATM    3  O5  UNL     1      43.749 -27.675  14.169  1.00  0.00    -0.294 OA
HETATM    4  C6  UNL     1      45.201 -28.098  12.431  1.00  0.00     0.204 C 
HETATM    5  O6  UNL     1      45.152 -29.426  12.851  1.00  0.00    -0.364 OA
HETATM    6  C7  UNL     1      46.489 -29.572  12.499  1.00  0.00     0.203 C 
HETATM    7  C8  UNL     1      47.357 -30.213  13.486  1.00  0.00     0.160 C 
HETATM    8  O7  UNL     1      46.798 -31.169  14.048  1.00  0.00    -0.295 OA
HETATM    9  C9  UNL     1      48.754 -29.960  13.950  1.00  0.00     0.061 C 
HETATM   10  C10 UNL     1      49.701 -29.794  12.779  1.00  0.00     0.018 C 
HETATM   11  C11 UNL     1      48.731 -28.768  14.852  1.00  0.00     0.033 C 
HETATM   12  C25 UNL     1      47.410 -27.999  14.677  1.00  0.00     0.014 C 
HETATM   13  C26 UNL     1      47.310 -27.335  13.346  1.00  0.00     0.009 C 
HETATM   14  C27 UNL     1      46.729 -25.923  13.510  1.00  0.00    -0.024 C 
HETATM   15  C28 UNL     1      46.769 -25.200  12.150  1.00  0.00     0.016 C 
HETATM   16  C29 UNL     1      47.601 -25.076  14.385  1.00  0.00     0.016 C 
HETATM   17  C30 UNL     1      46.677 -28.121  12.274  1.00  0.00     0.027 C 
HETATM   18  C31 UNL     1      47.210 -27.885  10.855  1.00  0.00     0.022 C 
ENDROOT
BRANCH  11  19
HETATM   19  C12 UNL     1      48.837 -29.091  16.300  1.00  0.00     0.084 C 
HETATM   20  C13 UNL     1      49.490 -27.948  17.036  1.00  0.00     0.049 C 
BRANCH  19  21
HETATM   21  O8  UNL     1      47.549 -29.253  16.809  1.00  0.00    -0.387 OA
ATOM     22  H8  UNL     1      47.609 -29.722  17.633  1.00  0.00     0.210 HD
ENDBRANCH  19  21
BRANCH  19  23
HETATM   23  C14 UNL     1      49.609 -30.335  16.638  1.00  0.00     0.153 C 
BRANCH  23  24
HETATM   24  O9  UNL     1      49.564 -30.471  18.027  1.00  0.00    -0.393 OA
ATOM     25  H9  UNL     1      50.452 -30.350  18.343  1.00  0.00     0.210 HD
ENDBRANCH  23  24
BRANCH  23  26
HETATM   26  C15 UNL     1      51.034 -30.284  16.226  1.00  0.00     0.043 C 
BRANCH  26  27
HETATM   27  C16 UNL     1      51.634 -31.694  16.023  1.00  0.00     0.007 C 
HETATM   28  C17 UNL     1      52.026 -31.656  14.519  1.00  0.00     0.014 C 
BRANCH  27  29
HETATM   29  C18 UNL     1      52.852 -31.853  16.815  1.00  0.00    -0.018 C 
HETATM   30  C19 UNL     1      54.014 -32.365  16.610  1.00  0.00    -0.059 C 
HETATM   31  C20 UNL     1      54.984 -32.264  17.842  1.00  0.00     0.046 C 
BRANCH  30  32
HETATM   32  C21 UNL     1      54.698 -32.981  15.490  1.00  0.00     0.149 C 
BRANCH  32  33
HETATM   33  O10 UNL     1      55.092 -32.003  14.529  1.00  0.00    -0.391 OA
ATOM     34  H10 UNL     1      55.398 -32.415  13.729  1.00  0.00     0.210 HD
ENDBRANCH  32  33
BRANCH  32  35
HETATM   35  C22 UNL     1      55.852 -33.872  15.667  1.00  0.00     0.010 C 
HETATM   36  C23 UNL     1      55.826 -34.863  14.453  1.00  0.00     0.012 C 
HETATM   37  C24 UNL     1      57.174 -33.121  15.423  1.00  0.00     0.012 C 
ENDBRANCH  32  35
ENDBRANCH  30  32
ENDBRANCH  27  29
ENDBRANCH  26  27
ENDBRANCH  23  26
ENDBRANCH  19  23
ENDBRANCH  11  19
BRANCH   1  38
HETATM   38  C3  UNL     1      45.019 -25.575  15.289  1.00  0.00     0.280 C 
HETATM   39  O4  UNL     1      45.586 -26.227  16.200  1.00  0.00    -0.264 OA
BRANCH  38  40
HETATM   40  O3  UNL     1      44.177 -24.556  15.690  1.00  0.00    -0.220 OA
BRANCH  40  41
HETATM   41  C2  UNL     1      43.011 -24.705  16.389  1.00  0.00     0.413 C 
HETATM   42  O2  UNL     1      43.068 -24.713  17.645  1.00  0.00    -0.229 OA
BRANCH  41  43
HETATM   43  O1  UNL     1      41.773 -24.848  15.768  1.00  0.00    -0.303 OA
HETATM   44  C1  UNL     1      41.600 -24.580  14.397  1.00  0.00     0.215 C 
ENDBRANCH  41  43
ENDBRANCH  40  41
ENDBRANCH  38  40
ENDBRANCH   1  38
TORSDOF 14
ENDMDL
MODEL 2
REMARK VINA RESULT: -7.114634969     10.728     12.812
REMARK  14 active torsions:
REMARK  status: ('A' for Active; 'I' for Inactive)
REMARK    1  A    between atoms: O1_2  and  C2_3 
REMARK    2  A    between atoms: C2_3  and  O3_5 
REMARK    3  A    between atoms: O3_5  and  C3_6 
REMARK    4  A    between atoms: C3_6  and  C4_8 
REMARK    5  A    between atoms: C11_18  and  C12_19 
REMARK    6  A    between atoms: C12_19  and  O8_21 
REMARK    7  A    between atoms: C12_19  and  C14_23 
REMARK    8  A    between atoms: C14_23  and  O9_24 
REMARK    9  A    between atoms: C14_23  and  C15_26 
REMARK   10  A    between atoms: C15_26  and  C16_27 
REMARK   11  A    between atoms: C16_27  and  C18_29 
REMARK   12  A    between atoms: C19_30  and  C21_32 
REMARK   13  A    between atoms: C21_32  and  O10_33 
REMARK   14  A    between atoms: C21_32  and  C22_35 
ROOT
HETATM    1  C4  UNL     1      38.233 -34.644  14.516  1.00  0.00     0.166 C 
HETATM    2  C5  UNL     1      37.192 -35.216  15.380  1.00  0.00     0.170 C 
HETATM    3  O5  UNL     1      37.107 -34.860  16.555  1.00  0.00    -0.294 OA
HETATM    4  C6  UNL     1      36.193 -36.226  14.940  1.00  0.00     0.204 C 
HETATM    5  O6  UNL     1      36.005 -37.144  15.972  1.00  0.00    -0.364 OA
HETATM    6  C7  UNL     1      36.266 -38.178  15.079  1.00  0.00     0.203 C 
HETATM    7  C8  UNL     1      37.209 -39.202  15.525  1.00  0.00     0.160 C 
HETATM    8  O7  UNL     1      37.048 -39.496  16.721  1.00  0.00    -0.295 OA
HETATM    9  C9  UNL     1      38.309 -39.956  14.851  1.00  0.00     0.061 C 
HETATM   10  C10 UNL     1      37.851 -40.526  13.524  1.00  0.00     0.018 C 
HETATM   11  C11 UNL     1      39.482 -39.038  14.716  1.00  0.00     0.033 C 
HETATM   12  C25 UNL     1      39.039 -37.581  14.934  1.00  0.00     0.014 C 
HETATM   13  C26 UNL     1      38.172 -37.078  13.831  1.00  0.00     0.009 C 
HETATM   14  C27 UNL     1      38.581 -35.646  13.458  1.00  0.00    -0.024 C 
HETATM   15  C28 UNL     1      37.775 -35.196  12.224  1.00  0.00     0.016 C 
HETATM   16  C29 UNL     1      40.002 -35.593  12.989  1.00  0.00     0.016 C 
HETATM   17  C30 UNL     1      36.721 -37.257  14.013  1.00  0.00     0.027 C 
HETATM   18  C31 UNL     1      35.904 -37.502  12.738  1.00  0.00     0.022 C 
ENDROOT
BRANCH  11  19
HETATM   19  C12 UNL     1      40.576 -39.292  15.690  1.00  0.00     0.084 C 
HETATM   20  C13 UNL     1      40.344 -40.606  16.394  1.00  0.00     0.049 C 
BRANCH  19  21
HETATM   21  O8  UNL     1      41.777 -39.383  14.989  1.00  0.00    -0.387 OA
ATOM     22  H8  UNL     1      42.386 -39.899  15.504  1.00  0.00     0.210 HD
ENDBRANCH  19  21
BRANCH  19  23
HETATM   23  C14 UNL     1      40.759 -38.246  16.754  1.00  0.00     0.153 C 
BRANCH  23  24
HETATM   24  O9  UNL     1      42.129 -37.979  16.822  1.00  0.00    -0.393 OA
ATOM     25  H9  UNL     1      42.218 -37.088  17.141  1.00  0.00     0.210 HD
ENDBRANCH  23  24
BRANCH  23  26
HETATM   26  C15 UNL     1      40.306 -38.676  18.099  1.00  0.00     0.043 C 
BRANCH  26  27
HETATM   27  C16 UNL     1      39.874 -37.479  18.979  1.00  0.00     0.007 C 
HETATM   28  C17 UNL     1      38.678 -38.084  19.768  1.00  0.00     0.014 C 
BRANCH  27  29
HETATM   29  C18 UNL     1      40.929 -37.135  19.931  1.00  0.00    -0.018 C 
HETATM   30  C19 UNL     1      41.793 -36.188  20.033  1.00  0.00    -0.059 C 
HETATM   31  C20 UNL     1      42.721 -36.302  21.296  1.00  0.00     0.046 C 
BRANCH  30  32
HETATM   32  C21 UNL     1      42.109 -34.981  19.292  1.00  0.00     0.149 C 
BRANCH  32  33
HETATM   33  O10 UNL     1      42.530 -35.291  17.965  1.00  0.00    -0.391 OA
ATOM     34  H10 UNL     1      41.906 -35.863  17.534  1.00  0.00     0.210 HD
ENDBRANCH  32  33
BRANCH  32  35
HETATM   35  C22 UNL     1      41.166 -33.862  19.175  1.00  0.00     0.010 C 
HETATM   36  C23 UNL     1      41.026 -33.258  20.614  1.00  0.00     0.012 C 
HETATM   37  C24 UNL     1      41.795 -32.685  18.406  1.00  0.00     0.012 C 
ENDBRANCH  32  35
ENDBRANCH  30  32
ENDBRANCH  27  29
ENDBRANCH  26  27
ENDBRANCH  23  26
ENDBRANCH  19  23
ENDBRANCH  11  19
BRANCH   1  38
HETATM   38  C3  UNL     1      39.383 -34.157  15.288  1.00  0.00     0.280 C 
HETATM   39  O4  UNL     1      40.005 -34.957  16.029  1.00  0.00    -0.264 OA
BRANCH  38  40
HETATM   40  O3  UNL     1      39.841 -32.854  15.261  1.00  0.00    -0.220 OA
BRANCH  40  41
HETATM   41  C2  UNL     1      39.216 -31.771  15.813  1.00  0.00     0.413 C 
HETATM   42  O2  UNL     1      39.103 -30.730  15.117  1.00  0.00    -0.229 OA
BRANCH  41  43
HETATM   43  O1  UNL     1      38.703 -31.776  17.108  1.00  0.00    -0.303 OA
HETATM   44  C1  UNL     1      37.349 -31.494  17.367  1.00  0.00     0.215 C 
ENDBRANCH  41  43
ENDBRANCH  40  41
ENDBRANCH  38  40
ENDBRANCH   1  38
TORSDOF 14
ENDMDL
MODEL 3
REMARK VINA RESULT: -7.063346457     10.454     13.764
REMARK  14 active torsions:
REMARK  status: ('A' for Active; 'I' for Inactive)
REMARK    1  A    between atoms: O1_2  and  C2_3 
REMARK    2  A    between atoms: C2_3  and  O3_5 
REMARK    3  A    between atoms: O3_5  and  C3_6 
REMARK    4  A    between atoms: C3_6  and  C4_8 
REMARK    5  A    between atoms: C11_18  and  C12_19 
REMARK    6  A    between atoms: C12_19  and  O8_21 
REMARK    7  A    between atoms: C12_19  and  C14_23 
REMARK    8  A    between atoms: C14_23  and  O9_24 
REMARK    9  A    between atoms: C14_23  and  C15_26 
REMARK   10  A    between atoms: C15_26  and  C16_27 
REMARK   11  A    between atoms: C16_27  and  C18_29 
REMARK   12  A    between atoms: C19_30  and  C21_32 
REMARK   13  A    between atoms: C21_32  and  O10_33 
REMARK   14  A    between atoms: C21_32  and  C22_35 
ROOT
HETATM    1  C4  UNL     1      40.364 -40.049  13.049  1.00  0.00     0.166 C 
HETATM    2  C5  UNL     1      40.994 -39.179  12.046  1.00  0.00     0.170 C 
HETATM    3  O5  UNL     1      42.186 -38.892  12.145  1.00  0.00    -0.294 OA
HETATM    4  C6  UNL     1      40.286 -38.594  10.876  1.00  0.00     0.204 C 
HETATM    5  O6  UNL     1      40.745 -37.291  10.685  1.00  0.00    -0.364 OA
HETATM    6  C7  UNL     1      39.430 -36.842  10.699  1.00  0.00     0.203 C 
HETATM    7  C8  UNL     1      39.147 -35.680  11.540  1.00  0.00     0.160 C 
HETATM    8  O7  UNL     1      40.050 -34.829  11.480  1.00  0.00    -0.295 OA
HETATM    9  C9  UNL     1      38.015 -35.309  12.443  1.00  0.00     0.061 C 
HETATM   10  C10 UNL     1      36.678 -35.522  11.763  1.00  0.00     0.018 C 
HETATM   11  C11 UNL     1      38.156 -36.098  13.706  1.00  0.00     0.033 C 
HETATM   12  C25 UNL     1      39.136 -37.264  13.493  1.00  0.00     0.014 C 
HETATM   13  C26 UNL     1      38.588 -38.309  12.580  1.00  0.00     0.009 C 
HETATM   14  C27 UNL     1      38.908 -39.705  13.134  1.00  0.00    -0.024 C 
HETATM   15  C28 UNL     1      38.212 -40.766  12.260  1.00  0.00     0.016 C 
HETATM   16  C29 UNL     1      38.296 -39.906  14.486  1.00  0.00     0.016 C 
HETATM   17  C30 UNL     1      38.898 -38.148  11.150  1.00  0.00     0.027 C 
HETATM   18  C31 UNL     1      37.826 -38.633  10.166  1.00  0.00     0.022 C 
ENDROOT
BRANCH  11  19
HETATM   19  C12 UNL     1      38.680 -35.320  14.860  1.00  0.00     0.084 C 
HETATM   20  C13 UNL     1      37.826 -35.569  16.078  1.00  0.00     0.049 C 
BRANCH  19  21
HETATM   21  O8  UNL     1      39.972 -35.763  15.140  1.00  0.00    -0.387 OA
ATOM     22  H8  UNL     1      40.499 -35.661  14.357  1.00  0.00     0.210 HD
ENDBRANCH  19  21
BRANCH  19  23
HETATM   23  C14 UNL     1      38.752 -33.831  14.666  1.00  0.00     0.153 C 
BRANCH  23  24
HETATM   24  O9  UNL     1      40.046 -33.546  14.227  1.00  0.00    -0.393 OA
ATOM     25  H9  UNL     1      40.280 -32.701  14.595  1.00  0.00     0.210 HD
ENDBRANCH  23  24
BRANCH  23  26
HETATM   26  C15 UNL     1      38.504 -33.054  15.906  1.00  0.00     0.043 C 
BRANCH  26  27
HETATM   27  C16 UNL     1      39.659 -32.075  16.221  1.00  0.00     0.007 C 
HETATM   28  C17 UNL     1      38.983 -30.699  15.962  1.00  0.00     0.014 C 
BRANCH  27  29
HETATM   29  C18 UNL     1      40.026 -32.152  17.634  1.00  0.00    -0.018 C 
HETATM   30  C19 UNL     1      40.542 -33.050  18.396  1.00  0.00    -0.059 C 
HETATM   31  C20 UNL     1      40.731 -32.593  19.887  1.00  0.00     0.046 C 
BRANCH  30  32
HETATM   32  C21 UNL     1      41.056 -34.395  18.221  1.00  0.00     0.149 C 
BRANCH  32  33
HETATM   33  O10 UNL     1      42.432 -34.372  17.843  1.00  0.00    -0.391 OA
ATOM     34  H10 UNL     1      42.956 -34.904  18.431  1.00  0.00     0.210 HD
ENDBRANCH  32  33
BRANCH  32  35
HETATM   35  C22 UNL     1      40.932 -35.426  19.259  1.00  0.00     0.010 C 
HETATM   36  C23 UNL     1      40.253 -36.658  18.569  1.00  0.00     0.012 C 
HETATM   37  C24 UNL     1      42.310 -36.003  19.634  1.00  0.00     0.012 C 
ENDBRANCH  32  35
ENDBRANCH  30  32
ENDBRANCH  27  29
ENDBRANCH  26  27
ENDBRANCH  23  26
ENDBRANCH  19  23
ENDBRANCH  11  19
BRANCH   1  38
HETATM   38  C3  UNL     1      41.071 -40.007  14.335  1.00  0.00     0.280 C 
HETATM   39  O4  UNL     1      41.196 -38.907  14.928  1.00  0.00    -0.264 OA
BRANCH  38  40
HETATM   40  O3  UNL     1      41.622 -41.111  14.954  1.00  0.00    -0.220 OA
BRANCH  40  41
HETATM   41  C2  UNL     1      41.612 -41.368  16.297  1.00  0.00     0.413 C 
HETATM   42  O2  UNL     1      42.714 -41.461  16.894  1.00  0.00    -0.229 OA
BRANCH  41  43
HETATM   43  O1  UNL     1      40.435 -41.529  17.024  1.00  0.00    -0.303 OA
HETATM   44  C1  UNL     1      39.944 -40.515  17.868  1.00  0.00     0.215 C 
ENDBRANCH  41  43
ENDBRANCH  40  41
ENDBRANCH  38  40
ENDBRANCH   1  38
TORSDOF 14
ENDMDL
MODEL 4
REMARK VINA RESULT: -7.043009159     10.637     13.538
REMARK  14 active torsions:
REMARK  status: ('A' for Active; 'I' for Inactive)
REMARK    1  A    between atoms: O1_2  and  C2_3 
REMARK    2  A    between atoms: C2_3  and  O3_5 
REMARK    3  A    between atoms: O3_5  and  C3_6 
REMARK    4  A    between atoms: C3_6  and  C4_8 
REMARK    5  A    between atoms: C11_18  and  C12_19 
REMARK    6  A    between atoms: C12_19  and  O8_21 
REMARK    7  A    between atoms: C12_19  and  C14_23 
REMARK    8  A    between atoms: C14_23  and  O9_24 
REMARK    9  A    between atoms: C14_23  and  C15_26 
REMARK   10  A    between atoms: C15_26  and  C16_27 
REMARK   11  A    between atoms: C16_27  and  C18_29 
REMARK   12  A    between atoms: C19_30  and  C21_32 
REMARK   13  A    between atoms: C21_32  and  O10_33 
REMARK   14  A    between atoms: C21_32  and  C22_35 
ROOT
HETATM    1  C4  UNL     1      39.068 -37.613  10.934  1.00  0.00     0.166 C 
HETATM    2  C5  UNL     1      39.273 -36.220  11.354  1.00  0.00     0.170 C 
HETATM    3  O5  UNL     1      40.326 -35.646  11.079  1.00  0.00    -0.294 OA
HETATM    4  C6  UNL     1      38.279 -35.414  12.110  1.00  0.00     0.204 C 
HETATM    5  O6  UNL     1      38.957 -34.639  13.050  1.00  0.00    -0.364 OA
HETATM    6  C7  UNL     1      38.123 -35.140  14.043  1.00  0.00     0.203 C 
HETATM    7  C8  UNL     1      38.774 -35.611  15.264  1.00  0.00     0.160 C 
HETATM    8  O7  UNL     1      39.708 -34.871  15.611  1.00  0.00    -0.295 OA
HETATM    9  C9  UNL     1      38.552 -36.781  16.167  1.00  0.00     0.061 C 
HETATM   10  C10 UNL     1      37.089 -36.924  16.531  1.00  0.00     0.018 C 
HETATM   11  C11 UNL     1      39.102 -37.996  15.491  1.00  0.00     0.033 C 
HETATM   12  C25 UNL     1      39.329 -37.711  13.996  1.00  0.00     0.014 C 
HETATM   13  C26 UNL     1      38.051 -37.541  13.249  1.00  0.00     0.009 C 
HETATM   14  C27 UNL     1      38.133 -38.272  11.901  1.00  0.00    -0.024 C 
HETATM   15  C28 UNL     1      36.758 -38.209  11.208  1.00  0.00     0.016 C 
HETATM   16  C29 UNL     1      38.363 -39.740  12.093  1.00  0.00     0.016 C 
HETATM   17  C30 UNL     1      37.534 -36.165  13.151  1.00  0.00     0.027 C 
HETATM   18  C31 UNL     1      36.008 -36.014  13.132  1.00  0.00     0.022 C 
ENDROOT
BRANCH  11  19
HETATM   19  C12 UNL     1      40.409 -38.460  16.029  1.00  0.00     0.084 C 
HETATM   20  C13 UNL     1      40.334 -39.927  16.369  1.00  0.00     0.049 C 
BRANCH  19  21
HETATM   21  O8  UNL     1      41.376 -38.293  15.040  1.00  0.00    -0.387 OA
ATOM     22  H8  UNL     1      41.421 -37.372  14.816  1.00  0.00     0.210 HD
ENDBRANCH  19  21
BRANCH  19  23
HETATM   23  C14 UNL     1      40.900 -37.745  17.257  1.00  0.00     0.153 C 
BRANCH  23  24
HETATM   24  O9  UNL     1      42.296 -37.788  17.215  1.00  0.00    -0.393 OA
ATOM     25  H9  UNL     1      42.608 -37.091  17.781  1.00  0.00     0.210 HD
ENDBRANCH  23  24
BRANCH  23  26
HETATM   26  C15 UNL     1      40.458 -38.369  18.529  1.00  0.00     0.043 C 
BRANCH  26  27
HETATM   27  C16 UNL     1      40.087 -37.315  19.597  1.00  0.00     0.007 C 
HETATM   28  C17 UNL     1      39.154 -38.133  20.535  1.00  0.00     0.014 C 
BRANCH  27  29
HETATM   29  C18 UNL     1      41.270 -36.914  20.356  1.00  0.00    -0.018 C 
HETATM   30  C19 UNL     1      42.101 -35.933  20.302  1.00  0.00    -0.059 C 
HETATM   31  C20 UNL     1      43.228 -35.989  21.395  1.00  0.00     0.046 C 
BRANCH  30  32
HETATM   32  C21 UNL     1      42.241 -34.729  19.506  1.00  0.00     0.149 C 
BRANCH  32  33
HETATM   33  O10 UNL     1      42.726 -35.033  18.199  1.00  0.00    -0.391 OA
ATOM     34  H10 UNL     1      42.751 -34.255  17.656  1.00  0.00     0.210 HD
ENDBRANCH  32  33
BRANCH  32  35
HETATM   35  C22 UNL     1      41.139 -33.774  19.324  1.00  0.00     0.010 C 
HETATM   36  C23 UNL     1      41.148 -32.854  20.592  1.00  0.00     0.012 C 
HETATM   37  C24 UNL     1      41.461 -32.764  18.207  1.00  0.00     0.012 C 
ENDBRANCH  32  35
ENDBRANCH  30  32
ENDBRANCH  27  29
ENDBRANCH  26  27
ENDBRANCH  23  26
ENDBRANCH  19  23
ENDBRANCH  11  19
BRANCH   1  38
HETATM   38  C3  UNL     1      40.339 -38.323  10.744  1.00  0.00     0.280 C 
HETATM   39  O4  UNL     1      40.547 -38.926   9.662  1.00  0.00    -0.264 OA
BRANCH  38  40
HETATM   40  O3  UNL     1      41.346 -38.379  11.688  1.00  0.00    -0.220 OA
BRANCH  40  41
HETATM   41  C2  UNL     1      42.077 -39.486  12.018  1.00  0.00     0.413 C 
HETATM   42  O2  UNL     1      43.187 -39.657  11.455  1.00  0.00    -0.229 OA
BRANCH  41  43
HETATM   43  O1  UNL     1      41.640 -40.426  12.949  1.00  0.00    -0.303 OA
HETATM   44  C1  UNL     1      42.540 -41.283  13.610  1.00  0.00     0.215 C 
ENDBRANCH  41  43
ENDBRANCH  40  41
ENDBRANCH  38  40
ENDBRANCH   1  38
TORSDOF 14
ENDMDL
MODEL 5
REMARK VINA RESULT: -6.986568399     10.905     13.806
REMARK  14 active torsions:
REMARK  status: ('A' for Active; 'I' for Inactive)
REMARK    1  A    between atoms: O1_2  and  C2_3 
REMARK    2  A    between atoms: C2_3  and  O3_5 
REMARK    3  A    between atoms: O3_5  and  C3_6 
REMARK    4  A    between atoms: C3_6  and  C4_8 
REMARK    5  A    between atoms: C11_18  and  C12_19 
REMARK    6  A    between atoms: C12_19  and  O8_21 
REMARK    7  A    between atoms: C12_19  and  C14_23 
REMARK    8  A    between atoms: C14_23  and  O9_24 
REMARK    9  A    between atoms: C14_23  and  C15_26 
REMARK   10  A    between atoms: C15_26  and  C16_27 
REMARK   11  A    between atoms: C16_27  and  C18_29 
REMARK   12  A    between atoms: C19_30  and  C21_32 
REMARK   13  A    between atoms: C21_32  and  O10_33 
REMARK   14  A    between atoms: C21_32  and  C22_35 
ROOT
HETATM    1  C4  UNL     1      38.989 -38.282  10.406  1.00  0.00     0.166 C 
HETATM    2  C5  UNL     1      39.302 -36.857  10.583  1.00  0.00     0.170 C 
HETATM    3  O5  UNL     1      40.380 -36.413  10.189  1.00  0.00    -0.294 OA
HETATM    4  C6  UNL     1      38.393 -35.868  11.220  1.00  0.00     0.204 C 
HETATM    5  O6  UNL     1      39.156 -35.000  11.999  1.00  0.00    -0.364 OA
HETATM    6  C7  UNL     1      38.328 -35.269  13.083  1.00  0.00     0.203 C 
HETATM    7  C8  UNL     1      38.993 -35.579  14.348  1.00  0.00     0.160 C 
HETATM    8  O7  UNL     1      39.986 -34.861  14.542  1.00  0.00    -0.295 OA
HETATM    9  C9  UNL     1      38.727 -36.566  15.439  1.00  0.00     0.061 C 
HETATM   10  C10 UNL     1      37.272 -36.541  15.860  1.00  0.00     0.018 C 
HETATM   11  C11 UNL     1      39.170 -37.911  14.961  1.00  0.00     0.033 C 
HETATM   12  C25 UNL     1      39.359 -37.893  13.434  1.00  0.00     0.014 C 
HETATM   13  C26 UNL     1      38.067 -37.757  12.702  1.00  0.00     0.009 C 
HETATM   14  C27 UNL     1      38.049 -38.704  11.494  1.00  0.00    -0.024 C 
HETATM   15  C28 UNL     1      36.657 -38.657  10.836  1.00  0.00     0.016 C 
HETATM   16  C29 UNL     1      38.189 -40.132  11.922  1.00  0.00     0.016 C 
HETATM   17  C30 UNL     1      37.640 -36.382  12.391  1.00  0.00     0.027 C 
HETATM   18  C31 UNL     1      36.127 -36.128  12.387  1.00  0.00     0.022 C 
ENDROOT
BRANCH  11  19
HETATM   19  C12 UNL     1      40.462 -38.373  15.535  1.00  0.00     0.084 C 
HETATM   20  C13 UNL     1      40.405 -39.856  15.805  1.00  0.00     0.049 C 
BRANCH  19  21
HETATM   21  O8  UNL     1      41.467 -38.142  14.597  1.00  0.00    -0.387 OA
ATOM     22  H8  UNL     1      41.972 -38.939  14.497  1.00  0.00     0.210 HD
ENDBRANCH  19  21
BRANCH  19  23
HETATM   23  C14 UNL     1      40.884 -37.705  16.814  1.00  0.00     0.153 C 
BRANCH  23  24
HETATM   24  O9  UNL     1      42.275 -37.818  16.886  1.00  0.00    -0.393 OA
ATOM     25  H9  UNL     1      42.589 -37.045  17.340  1.00  0.00     0.210 HD
ENDBRANCH  23  24
BRANCH  23  26
HETATM   26  C15 UNL     1      40.307 -38.327  18.031  1.00  0.00     0.043 C 
BRANCH  26  27
HETATM   27  C16 UNL     1      39.870 -37.272  19.074  1.00  0.00     0.007 C 
HETATM   28  C17 UNL     1      38.702 -38.006  19.792  1.00  0.00     0.014 C 
BRANCH  27  29
HETATM   29  C18 UNL     1      40.937 -37.038  20.046  1.00  0.00    -0.018 C 
HETATM   30  C19 UNL     1      41.910 -36.203  20.150  1.00  0.00    -0.059 C 
HETATM   31  C20 UNL     1      42.785 -36.399  21.439  1.00  0.00     0.046 C 
BRANCH  30  32
HETATM   32  C21 UNL     1      42.391 -35.064  19.392  1.00  0.00     0.149 C 
BRANCH  32  33
HETATM   33  O10 UNL     1      42.998 -35.482  18.171  1.00  0.00    -0.391 OA
ATOM     34  H10 UNL     1      42.891 -34.823  17.494  1.00  0.00     0.210 HD
ENDBRANCH  32  33
BRANCH  32  35
HETATM   35  C22 UNL     1      41.530 -33.923  19.054  1.00  0.00     0.010 C 
HETATM   36  C23 UNL     1      42.487 -32.698  18.861  1.00  0.00     0.012 C 
HETATM   37  C24 UNL     1      40.935 -34.077  17.642  1.00  0.00     0.012 C 
ENDBRANCH  32  35
ENDBRANCH  30  32
ENDBRANCH  27  29
ENDBRANCH  26  27
ENDBRANCH  23  26
ENDBRANCH  19  23
ENDBRANCH  11  19
BRANCH   1  38
HETATM   38  C3  UNL     1      40.202 -39.103  10.304  1.00  0.00     0.280 C 
HETATM   39  O4  UNL     1      41.070 -39.027  11.209  1.00  0.00    -0.264 OA
BRANCH  38  40
HETATM   40  O3  UNL     1      40.467 -39.971   9.263  1.00  0.00    -0.220 OA
BRANCH  40  41
HETATM   41  C2  UNL     1      40.854 -39.617   8.000  1.00  0.00     0.413 C 
HETATM   42  O2  UNL     1      42.078 -39.657   7.719  1.00  0.00    -0.229 OA
BRANCH  41  43
HETATM   43  O1  UNL     1      39.949 -39.215   7.021  1.00  0.00    -0.303 OA
HETATM   44  C1  UNL     1      38.897 -40.050   6.601  1.00  0.00     0.215 C 
ENDBRANCH  41  43
ENDBRANCH  40  41
ENDBRANCH  38  40
ENDBRANCH   1  38
TORSDOF 14
ENDMDL
