MODEL 1
REMARK VINA RESULT: -7.303463513      0.000      0.000
REMARK  9 active torsions:
REMARK  status: ('A' for Active; 'I' for Inactive)
REMARK       I    between atoms: C2_2  and  N1_4 
REMARK    1  A    between atoms: N1_4  and  C3_6 
REMARK    2  A    between atoms: C3_6  and  C4_7 
REMARK    3  A    between atoms: C4_7  and  O2_8 
REMARK    4  A    between atoms: O2_8  and  C5_9 
REMARK    5  A    between atoms: C5_9  and  N2_11 
REMARK    6  A    between atoms: N2_11  and  N3_13 
REMARK    7  A    between atoms: C9_24  and  C10_25 
REMARK    8  A    between atoms: C10_25  and  O6_26 
REMARK    9  A    between atoms: C11_28  and  O7_29 
ROOT
HETATM    1  C4  UNL     1       7.402  -3.320 -26.641  1.00  0.00     0.336 C 
HETATM    2  O3  UNL     1       6.619  -3.539 -25.539  1.00  0.00    -0.168 OA
HETATM    3  O4  UNL     1       5.326  -3.392 -25.733  1.00  0.00    -0.217 OA
HETATM    4  C6  UNL     1       5.138  -2.109 -26.167  1.00  0.00     0.170 C 
HETATM    5  C7  UNL     1       5.705  -1.060 -25.263  1.00  0.00     0.057 C 
HETATM    6  C8  UNL     1       5.818  -2.025 -27.544  1.00  0.00     0.306 C 
HETATM    7  O5  UNL     1       5.381  -0.772 -27.935  1.00  0.00    -0.348 OA
HETATM    8  C9  UNL     1       4.055  -0.649 -27.591  1.00  0.00     0.180 C 
HETATM    9  C11 UNL     1       3.752  -1.733 -26.548  1.00  0.00     0.191 C 
HETATM   10  O8  UNL     1       7.159  -2.125 -27.314  1.00  0.00    -0.295 OA
ENDROOT
BRANCH   1  11
HETATM   11  C3  UNL     1       7.186  -4.505 -27.595  1.00  0.00     0.228 C 
BRANCH  11  12
HETATM   12  N1  UNL     1       7.498  -5.717 -26.821  1.00  0.00    -0.354 N 
HETATM   13  C2  UNL     1       8.623  -6.508 -27.163  1.00  0.00     0.213 C 
HETATM   14  C1  UNL     1       8.977  -7.732 -26.417  1.00  0.00     0.117 C 
HETATM   15  O1  UNL     1       9.364  -6.182 -28.132  1.00  0.00    -0.274 OA
ATOM     16  H1  UNL     1       6.904  -5.987 -26.037  1.00  0.00     0.162 HD
ENDBRANCH  11  12
ENDBRANCH   1  11
BRANCH   1  17
HETATM   17  O2  UNL     1       8.752  -3.433 -26.241  1.00  0.00    -0.259 OA
BRANCH  17  18
HETATM   18  C5  UNL     1       9.806  -2.787 -26.787  1.00  0.00     0.234 C 
HETATM   19  S1  UNL     1      10.521  -1.572 -25.984  1.00  0.00    -0.031 SA
BRANCH  18  20
HETATM   20  N2  UNL     1      10.303  -3.149 -28.051  1.00  0.00    -0.256 N 
ATOM     21  H2  UNL     1       9.903  -3.964 -28.516  1.00  0.00     0.191 HD
BRANCH  20  22
HETATM   22  N3  UNL     1      11.331  -2.436 -28.706  1.00  0.00    -0.247 N 
HETATM   23  N4  UNL     1      12.299  -3.133 -29.174  1.00  0.00    -0.331 N 
ATOM     24  H42 UNL     1      12.312  -4.148 -29.071  1.00  0.00     0.178 HD
ATOM     25  H41 UNL     1      13.041  -2.618 -29.648  1.00  0.00     0.178 HD
ATOM     26  H3  UNL     1      11.304  -1.421 -28.802  1.00  0.00     0.207 HD
ENDBRANCH  20  22
ENDBRANCH  18  20
ENDBRANCH  17  18
ENDBRANCH   1  17
BRANCH   9  27
HETATM   27  O7  UNL     1       3.087  -2.804 -27.157  1.00  0.00    -0.390 OA
ATOM     28  H7  UNL     1       2.564  -2.510 -27.893  1.00  0.00     0.210 HD
ENDBRANCH   9  27
BRANCH   8  29
HETATM   29  C10 UNL     1       3.113  -0.761 -28.763  1.00  0.00     0.198 C 
BRANCH  29  30
HETATM   30  O6  UNL     1       3.810  -1.231 -29.848  1.00  0.00    -0.398 OA
ATOM     31  H6  UNL     1       3.273  -1.130 -30.625  1.00  0.00     0.209 HD
ENDBRANCH  29  30
ENDBRANCH   8  29
TORSDOF 9
ENDMDL
MODEL 2
REMARK VINA RESULT: -7.232812787      4.626      5.600
REMARK  9 active torsions:
REMARK  status: ('A' for Active; 'I' for Inactive)
REMARK       I    between atoms: C2_2  and  N1_4 
REMARK    1  A    between atoms: N1_4  and  C3_6 
REMARK    2  A    between atoms: C3_6  and  C4_7 
REMARK    3  A    between atoms: C4_7  and  O2_8 
REMARK    4  A    between atoms: O2_8  and  C5_9 
REMARK    5  A    between atoms: C5_9  and  N2_11 
REMARK    6  A    between atoms: N2_11  and  N3_13 
REMARK    7  A    between atoms: C9_24  and  C10_25 
REMARK    8  A    between atoms: C10_25  and  O6_26 
REMARK    9  A    between atoms: C11_28  and  O7_29 
ROOT
HETATM    1  C4  UNL     1       5.633  -2.334 -23.677  1.00  0.00     0.336 C 
HETATM    2  O3  UNL     1       4.682  -1.366 -23.492  1.00  0.00    -0.168 OA
HETATM    3  O4  UNL     1       3.809  -1.246 -24.469  1.00  0.00    -0.217 OA
HETATM    4  C6  UNL     1       4.522  -0.961 -25.600  1.00  0.00     0.170 C 
HETATM    5  C7  UNL     1       5.419   0.231 -25.484  1.00  0.00     0.057 C 
HETATM    6  C8  UNL     1       5.365  -2.214 -25.894  1.00  0.00     0.306 C 
HETATM    7  O5  UNL     1       5.860  -1.867 -27.138  1.00  0.00    -0.348 OA
HETATM    8  C9  UNL     1       4.842  -1.291 -27.863  1.00  0.00     0.180 C 
HETATM    9  C11 UNL     1       3.751  -0.875 -26.867  1.00  0.00     0.191 C 
HETATM   10  O8  UNL     1       6.297  -2.288 -24.900  1.00  0.00    -0.295 OA
ENDROOT
BRANCH   1  11
HETATM   11  C3  UNL     1       4.934  -3.693 -23.517  1.00  0.00     0.228 C 
BRANCH  11  12
HETATM   12  N1  UNL     1       3.716  -3.438 -22.731  1.00  0.00    -0.354 N 
HETATM   13  C2  UNL     1       3.685  -3.748 -21.348  1.00  0.00     0.213 C 
HETATM   14  C1  UNL     1       2.486  -3.511 -20.519  1.00  0.00     0.117 C 
HETATM   15  O1  UNL     1       4.697  -4.245 -20.781  1.00  0.00    -0.274 OA
ATOM     16  H1  UNL     1       2.894  -3.037 -23.182  1.00  0.00     0.162 HD
ENDBRANCH  11  12
ENDBRANCH   1  11
BRANCH   1  17
HETATM   17  O2  UNL     1       6.532  -2.270 -22.589  1.00  0.00    -0.259 OA
BRANCH  17  18
HETATM   18  C5  UNL     1       6.656  -1.251 -21.711  1.00  0.00     0.234 C 
HETATM   19  S1  UNL     1       7.714  -0.055 -21.998  1.00  0.00    -0.031 SA
BRANCH  18  20
HETATM   20  N2  UNL     1       5.879  -1.202 -20.542  1.00  0.00    -0.256 N 
ATOM     21  H2  UNL     1       5.077  -0.572 -20.516  1.00  0.00     0.191 HD
BRANCH  20  22
HETATM   22  N3  UNL     1       6.158  -1.985 -19.399  1.00  0.00    -0.247 N 
HETATM   23  N4  UNL     1       7.057  -2.888 -19.534  1.00  0.00    -0.331 N 
ATOM     24  H42 UNL     1       7.536  -3.022 -20.425  1.00  0.00     0.178 HD
ATOM     25  H41 UNL     1       7.259  -3.453 -18.710  1.00  0.00     0.178 HD
ATOM     26  H3  UNL     1       5.671  -1.839 -18.515  1.00  0.00     0.207 HD
ENDBRANCH  20  22
ENDBRANCH  18  20
ENDBRANCH  17  18
ENDBRANCH   1  17
BRANCH   9  27
HETATM   27  O7  UNL     1       2.708  -1.808 -26.889  1.00  0.00    -0.390 OA
ATOM     28  H7  UNL     1       2.276  -1.820 -27.735  1.00  0.00     0.210 HD
ENDBRANCH   9  27
BRANCH   8  29
HETATM   29  C10 UNL     1       4.273  -2.194 -28.928  1.00  0.00     0.198 C 
BRANCH  29  30
HETATM   30  O6  UNL     1       3.321  -1.501 -29.633  1.00  0.00    -0.398 OA
ATOM     31  H6  UNL     1       3.755  -0.949 -30.273  1.00  0.00     0.209 HD
ENDBRANCH  29  30
ENDBRANCH   8  29
TORSDOF 9
ENDMDL
MODEL 3
REMARK VINA RESULT: -7.078953348      4.178      6.237
REMARK  9 active torsions:
REMARK  status: ('A' for Active; 'I' for Inactive)
REMARK       I    between atoms: C2_2  and  N1_4 
REMARK    1  A    between atoms: N1_4  and  C3_6 
REMARK    2  A    between atoms: C3_6  and  C4_7 
REMARK    3  A    between atoms: C4_7  and  O2_8 
REMARK    4  A    between atoms: O2_8  and  C5_9 
REMARK    5  A    between atoms: C5_9  and  N2_11 
REMARK    6  A    between atoms: N2_11  and  N3_13 
REMARK    7  A    between atoms: C9_24  and  C10_25 
REMARK    8  A    between atoms: C10_25  and  O6_26 
REMARK    9  A    between atoms: C11_28  and  O7_29 
ROOT
HETATM    1  C4  UNL     1       5.656  -2.280 -25.025  1.00  0.00     0.336 C 
HETATM    2  O3  UNL     1       6.411  -3.418 -24.929  1.00  0.00    -0.168 OA
HETATM    3  O4  UNL     1       6.093  -4.219 -23.935  1.00  0.00    -0.217 OA
HETATM    4  C6  UNL     1       6.231  -3.493 -22.785  1.00  0.00     0.170 C 
HETATM    5  C7  UNL     1       7.577  -2.866 -22.606  1.00  0.00     0.057 C 
HETATM    6  C8  UNL     1       5.155  -2.396 -22.848  1.00  0.00     0.306 C 
HETATM    7  O5  UNL     1       5.277  -1.886 -21.568  1.00  0.00    -0.348 OA
HETATM    8  C9  UNL     1       5.420  -2.939 -20.695  1.00  0.00     0.180 C 
HETATM    9  C11 UNL     1       5.829  -4.165 -21.523  1.00  0.00     0.191 C 
HETATM   10  O8  UNL     1       5.534  -1.547 -23.847  1.00  0.00    -0.295 OA
ENDROOT
BRANCH   1  11
HETATM   11  C3  UNL     1       4.263  -2.701 -25.519  1.00  0.00     0.228 C 
BRANCH  11  12
HETATM   12  N1  UNL     1       4.308  -2.624 -26.988  1.00  0.00    -0.354 N 
HETATM   13  C2  UNL     1       3.565  -1.628 -27.671  1.00  0.00     0.213 C 
HETATM   14  C1  UNL     1       3.579  -1.511 -29.142  1.00  0.00     0.117 C 
HETATM   15  O1  UNL     1       2.861  -0.802 -27.027  1.00  0.00    -0.274 OA
ATOM     16  H1  UNL     1       4.875  -3.288 -27.516  1.00  0.00     0.162 HD
ENDBRANCH  11  12
ENDBRANCH   1  11
BRANCH   1  17
HETATM   17  O2  UNL     1       6.181  -1.500 -26.079  1.00  0.00    -0.259 OA
BRANCH  17  18
HETATM   18  C5  UNL     1       6.507  -0.190 -26.020  1.00  0.00     0.234 C 
HETATM   19  S1  UNL     1       8.045   0.255 -25.759  1.00  0.00    -0.031 SA
BRANCH  18  20
HETATM   20  N2  UNL     1       5.531   0.808 -26.182  1.00  0.00    -0.256 N 
ATOM     21  H2  UNL     1       5.601   1.430 -26.987  1.00  0.00     0.191 HD
BRANCH  20  22
HETATM   22  N3  UNL     1       4.457   0.987 -25.282  1.00  0.00    -0.247 N 
HETATM   23  N4  UNL     1       4.768   1.144 -24.049  1.00  0.00    -0.331 N 
ATOM     24  H42 UNL     1       5.742   1.136 -23.749  1.00  0.00     0.178 HD
ATOM     25  H41 UNL     1       3.992   1.274 -23.399  1.00  0.00     0.178 HD
ATOM     26  H3  UNL     1       3.487   0.992 -25.597  1.00  0.00     0.207 HD
ENDBRANCH  20  22
ENDBRANCH  18  20
ENDBRANCH  17  18
ENDBRANCH   1  17
BRANCH   9  27
HETATM   27  O7  UNL     1       4.719  -4.995 -21.723  1.00  0.00    -0.390 OA
ATOM     28  H7  UNL     1       4.432  -5.386 -20.906  1.00  0.00     0.210 HD
ENDBRANCH   9  27
BRANCH   8  29
HETATM   29  C10 UNL     1       4.178  -3.231 -19.891  1.00  0.00     0.198 C 
BRANCH  29  30
HETATM   30  O6  UNL     1       3.878  -2.131 -19.126  1.00  0.00    -0.398 OA
ATOM     31  H6  UNL     1       4.514  -1.449 -19.308  1.00  0.00     0.209 HD
ENDBRANCH  29  30
ENDBRANCH   8  29
TORSDOF 9
ENDMDL
MODEL 4
REMARK VINA RESULT: -7.054811013      2.493      3.842
REMARK  9 active torsions:
REMARK  status: ('A' for Active; 'I' for Inactive)
REMARK       I    between atoms: C2_2  and  N1_4 
REMARK    1  A    between atoms: N1_4  and  C3_6 
REMARK    2  A    between atoms: C3_6  and  C4_7 
REMARK    3  A    between atoms: C4_7  and  O2_8 
REMARK    4  A    between atoms: O2_8  and  C5_9 
REMARK    5  A    between atoms: C5_9  and  N2_11 
REMARK    6  A    between atoms: N2_11  and  N3_13 
REMARK    7  A    between atoms: C9_24  and  C10_25 
REMARK    8  A    between atoms: C10_25  and  O6_26 
REMARK    9  A    between atoms: C11_28  and  O7_29 
ROOT
HETATM    1  C4  UNL     1       6.925  -3.906 -25.669  1.00  0.00     0.336 C 
HETATM    2  O3  UNL     1       7.550  -2.738 -25.324  1.00  0.00    -0.168 OA
HETATM    3  O4  UNL     1       6.929  -1.640 -25.696  1.00  0.00    -0.217 OA
HETATM    4  C6  UNL     1       6.811  -1.697 -27.056  1.00  0.00     0.170 C 
HETATM    5  C7  UNL     1       8.103  -1.899 -27.783  1.00  0.00     0.057 C 
HETATM    6  C8  UNL     1       5.867  -2.876 -27.348  1.00  0.00     0.306 C 
HETATM    7  O5  UNL     1       5.684  -2.688 -28.706  1.00  0.00    -0.348 OA
HETATM    8  C9  UNL     1       5.522  -1.343 -28.939  1.00  0.00     0.180 C 
HETATM    9  C11 UNL     1       6.048  -0.599 -27.704  1.00  0.00     0.191 C 
HETATM   10  O8  UNL     1       6.550  -4.006 -27.007  1.00  0.00    -0.295 OA
ENDROOT
BRANCH   1  11
HETATM   11  C3  UNL     1       5.685  -4.040 -24.772  1.00  0.00     0.228 C 
BRANCH  11  12
HETATM   12  N1  UNL     1       6.133  -3.733 -23.404  1.00  0.00    -0.354 N 
HETATM   13  C2  UNL     1       5.261  -3.074 -22.501  1.00  0.00     0.213 C 
HETATM   14  C1  UNL     1       5.666  -2.745 -21.120  1.00  0.00     0.117 C 
HETATM   15  O1  UNL     1       4.097  -2.745 -22.861  1.00  0.00    -0.274 OA
ATOM     16  H1  UNL     1       7.073  -3.995 -23.105  1.00  0.00     0.162 HD
ENDBRANCH  11  12
ENDBRANCH   1  11
BRANCH   1  17
HETATM   17  O2  UNL     1       7.760  -4.976 -25.276  1.00  0.00    -0.259 OA
BRANCH  17  18
HETATM   18  C5  UNL     1       8.631  -5.643 -26.063  1.00  0.00     0.234 C 
HETATM   19  S1  UNL     1       8.866  -7.234 -25.851  1.00  0.00    -0.031 SA
BRANCH  18  20
HETATM   20  N2  UNL     1       9.347  -4.981 -27.075  1.00  0.00    -0.256 N 
ATOM     21  H2  UNL     1       9.930  -4.185 -26.819  1.00  0.00     0.191 HD
BRANCH  20  22
HETATM   22  N3  UNL     1       9.296  -5.370 -28.433  1.00  0.00    -0.247 N 
HETATM   23  N4  UNL     1       8.138  -5.370 -28.982  1.00  0.00    -0.331 N 
ATOM     24  H42 UNL     1       7.307  -5.102 -28.454  1.00  0.00     0.178 HD
ATOM     25  H41 UNL     1       8.101  -5.650 -29.962  1.00  0.00     0.178 HD
ATOM     26  H3  UNL     1      10.135  -5.635 -28.948  1.00  0.00     0.207 HD
ENDBRANCH  20  22
ENDBRANCH  18  20
ENDBRANCH  17  18
ENDBRANCH   1  17
BRANCH   9  27
HETATM   27  O7  UNL     1       4.975  -0.188 -26.904  1.00  0.00    -0.390 OA
ATOM     28  H7  UNL     1       4.306   0.243 -27.423  1.00  0.00     0.210 HD
ENDBRANCH   9  27
BRANCH   8  29
HETATM   29  C10 UNL     1       4.096  -0.947 -29.230  1.00  0.00     0.198 C 
BRANCH  29  30
HETATM   30  O6  UNL     1       4.097   0.255 -29.894  1.00  0.00    -0.398 OA
ATOM     31  H6  UNL     1       4.868   0.747 -29.635  1.00  0.00     0.209 HD
ENDBRANCH  29  30
ENDBRANCH   8  29
TORSDOF 9
ENDMDL
MODEL 5
REMARK VINA RESULT: -7.051842688      2.918      4.141
REMARK  9 active torsions:
REMARK  status: ('A' for Active; 'I' for Inactive)
REMARK       I    between atoms: C2_2  and  N1_4 
REMARK    1  A    between atoms: N1_4  and  C3_6 
REMARK    2  A    between atoms: C3_6  and  C4_7 
REMARK    3  A    between atoms: C4_7  and  O2_8 
REMARK    4  A    between atoms: O2_8  and  C5_9 
REMARK    5  A    between atoms: C5_9  and  N2_11 
REMARK    6  A    between atoms: N2_11  and  N3_13 
REMARK    7  A    between atoms: C9_24  and  C10_25 
REMARK    8  A    between atoms: C10_25  and  O6_26 
REMARK    9  A    between atoms: C11_28  and  O7_29 
ROOT
HETATM    1  C4  UNL     1       6.700  -2.886 -24.440  1.00  0.00     0.336 C 
HETATM    2  O3  UNL     1       5.665  -3.744 -24.702  1.00  0.00    -0.168 OA
HETATM    3  O4  UNL     1       5.179  -3.677 -25.922  1.00  0.00    -0.217 OA
HETATM    4  C6  UNL     1       4.751  -2.392 -26.105  1.00  0.00     0.170 C 
HETATM    5  C7  UNL     1       3.779  -1.910 -25.074  1.00  0.00     0.057 C 
HETATM    6  C8  UNL     1       6.015  -1.517 -26.070  1.00  0.00     0.306 C 
HETATM    7  O5  UNL     1       5.466  -0.310 -26.461  1.00  0.00    -0.348 OA
HETATM    8  C9  UNL     1       4.580  -0.550 -27.486  1.00  0.00     0.180 C 
HETATM    9  C11 UNL     1       4.244  -2.046 -27.458  1.00  0.00     0.191 C 
HETATM   10  O8  UNL     1       6.471  -1.556 -24.785  1.00  0.00    -0.295 OA
ENDROOT
BRANCH   1  11
HETATM   11  C3  UNL     1       7.929  -3.414 -25.196  1.00  0.00     0.228 C 
BRANCH  11  12
HETATM   12  N1  UNL     1       7.881  -4.880 -25.083  1.00  0.00    -0.354 N 
HETATM   13  C2  UNL     1       8.625  -5.687 -25.982  1.00  0.00     0.213 C 
HETATM   14  C1  UNL     1       8.609  -7.161 -25.909  1.00  0.00     0.117 C 
HETATM   15  O1  UNL     1       9.333  -5.155 -26.882  1.00  0.00    -0.274 OA
ATOM     16  H1  UNL     1       7.312  -5.317 -24.359  1.00  0.00     0.162 HD
ENDBRANCH  11  12
ENDBRANCH   1  11
BRANCH   1  17
HETATM   17  O2  UNL     1       7.041  -3.024 -23.076  1.00  0.00    -0.259 OA
BRANCH  17  18
HETATM   18  C5  UNL     1       6.355  -2.524 -22.025  1.00  0.00     0.234 C 
HETATM   19  S1  UNL     1       7.148  -1.827 -20.793  1.00  0.00    -0.031 SA
BRANCH  18  20
HETATM   20  N2  UNL     1       4.953  -2.595 -21.974  1.00  0.00    -0.256 N 
ATOM     21  H2  UNL     1       4.421  -1.725 -21.970  1.00  0.00     0.191 HD
BRANCH  20  22
HETATM   22  N3  UNL     1       4.245  -3.817 -21.928  1.00  0.00    -0.247 N 
HETATM   23  N4  UNL     1       4.947  -4.885 -22.028  1.00  0.00    -0.331 N 
ATOM     24  H42 UNL     1       5.960  -4.839 -22.135  1.00  0.00     0.178 HD
ATOM     25  H41 UNL     1       4.436  -5.767 -21.994  1.00  0.00     0.178 HD
ATOM     26  H3  UNL     1       3.232  -3.848 -21.821  1.00  0.00     0.207 HD
ENDBRANCH  20  22
ENDBRANCH  18  20
ENDBRANCH  17  18
ENDBRANCH   1  17
BRANCH   9  27
HETATM   27  O7  UNL     1       4.967  -2.714 -28.454  1.00  0.00    -0.390 OA
ATOM     28  H7  UNL     1       4.990  -2.209 -29.259  1.00  0.00     0.210 HD
ENDBRANCH   9  27
BRANCH   8  29
HETATM   29  C10 UNL     1       5.102  -0.147 -28.843  1.00  0.00     0.198 C 
BRANCH  29  30
HETATM   30  O6  UNL     1       4.046  -0.062 -29.716  1.00  0.00    -0.398 OA
ATOM     31  H6  UNL     1       3.512   0.687 -29.478  1.00  0.00     0.209 HD
ENDBRANCH  29  30
ENDBRANCH   8  29
TORSDOF 9
ENDMDL
