MODEL 1
REMARK VINA RESULT: -6.632186651      0.000      0.000
REMARK  9 active torsions:
REMARK  status: ('A' for Active; 'I' for Inactive)
REMARK    1  A    between atoms: C6_7  and  C7_8 
REMARK    2  A    between atoms: C7_8  and  C8_9 
REMARK    3  A    between atoms: C8_9  and  N1_10 
REMARK    4  A    between atoms: N1_10  and  C9_13 
REMARK    5  A    between atoms: C9_13  and  C10_14 
REMARK    6  A    between atoms: C10_14  and  O1_15 
REMARK    7  A    between atoms: C10_14  and  C11_17 
REMARK    8  A    between atoms: C11_17  and  O2_18 
REMARK    9  A    between atoms: O2_18  and  C12_19 
ROOT
HETATM    1  C8  UNL     1       0.468  89.208  98.839  1.00  0.00     0.237 C 
ENDROOT
BRANCH   1   2
HETATM    2  C7  UNL     1       1.237  87.960  99.134  1.00  0.00     0.067 C 
BRANCH   2   3
HETATM    3  C6  UNL     1       2.611  88.315  99.589  1.00  0.00    -0.042 A 
HETATM    4  C4  UNL     1       2.907  88.333 100.926  1.00  0.00    -0.033 A 
HETATM    5  C3  UNL     1       4.213  88.682 101.267  1.00  0.00     0.047 A 
HETATM    6  C5  UNL     1       1.920  88.004 101.978  1.00  0.00     0.050 C 
HETATM    7  C2  UNL     1       5.175  88.997 100.341  1.00  0.00    -0.022 A 
HETATM    8 CL1  UNL     1       4.600  88.705 102.979  1.00  0.00    -0.083 Cl
HETATM    9  C1  UNL     1       6.572  89.370 100.759  1.00  0.00     0.051 C 
HETATM   10  C17 UNL     1       4.841  88.969  98.997  1.00  0.00     0.025 A 
HETATM   11  C15 UNL     1       3.563  88.630  98.619  1.00  0.00    -0.037 A 
HETATM   12 BR1  UNL     1       6.143  89.401  97.661  1.00  0.00    -0.050 Br
HETATM   13  C16 UNL     1       3.229  88.609  97.174  1.00  0.00     0.050 C 
ENDBRANCH   2   3
ENDBRANCH   1   2
BRANCH   1  14
HETATM   14  N1  UNL     1      -0.786  89.215  99.509  1.00  0.00    -0.072 N 
ATOM     15  H12 UNL     1      -1.196  88.281  99.536  1.00  0.00     0.277 HD
ATOM     16  H11 UNL     1      -0.668  89.368 100.511  1.00  0.00     0.277 HD
BRANCH  14  17
HETATM   17  C9  UNL     1      -1.695  90.166  98.941  1.00  0.00     0.265 C 
BRANCH  17  18
HETATM   18  C10 UNL     1      -2.721  90.657  99.934  1.00  0.00     0.167 C 
BRANCH  18  19
HETATM   19  O1  UNL     1      -3.541  91.656  99.464  1.00  0.00    -0.392 OA
ATOM     20  H1  UNL     1      -4.341  91.778  99.962  1.00  0.00     0.210 HD
ENDBRANCH  18  19
BRANCH  18  21
HETATM   21  C11 UNL     1      -2.040  91.042 101.216  1.00  0.00     0.201 C 
BRANCH  21  22
HETATM   22  O2  UNL     1      -0.975  91.877 100.941  1.00  0.00    -0.384 OA
BRANCH  22  23
HETATM   23  C12 UNL     1      -0.017  91.836 101.961  1.00  0.00     0.113 C 
HETATM   24  C13 UNL     1      -0.411  90.768 102.926  1.00  0.00     0.039 C 
HETATM   25  C14 UNL     1       1.379  91.679 101.422  1.00  0.00     0.039 C 
ENDBRANCH  22  23
ENDBRANCH  21  22
ENDBRANCH  18  21
ENDBRANCH  17  18
ENDBRANCH  14  17
ENDBRANCH   1  14
TORSDOF 9
ENDMDL
MODEL 2
REMARK VINA RESULT: -6.548715403      1.691      2.486
REMARK  9 active torsions:
REMARK  status: ('A' for Active; 'I' for Inactive)
REMARK    1  A    between atoms: C6_7  and  C7_8 
REMARK    2  A    between atoms: C7_8  and  C8_9 
REMARK    3  A    between atoms: C8_9  and  N1_10 
REMARK    4  A    between atoms: N1_10  and  C9_13 
REMARK    5  A    between atoms: C9_13  and  C10_14 
REMARK    6  A    between atoms: C10_14  and  O1_15 
REMARK    7  A    between atoms: C10_14  and  C11_17 
REMARK    8  A    between atoms: C11_17  and  O2_18 
REMARK    9  A    between atoms: O2_18  and  C12_19 
ROOT
HETATM    1  C8  UNL     1       0.494  89.162  98.869  1.00  0.00     0.237 C 
ENDROOT
BRANCH   1   2
HETATM    2  C7  UNL     1       1.302  87.941  99.175  1.00  0.00     0.067 C 
BRANCH   2   3
HETATM    3  C6  UNL     1       2.711  88.333  99.463  1.00  0.00    -0.042 A 
HETATM    4  C4  UNL     1       3.563  88.627  98.433  1.00  0.00    -0.033 A 
HETATM    5  C3  UNL     1       4.866  88.977  98.787  1.00  0.00     0.047 A 
HETATM    6  C5  UNL     1       3.160  88.585  97.010  1.00  0.00     0.050 C 
HETATM    7  C2  UNL     1       5.303  89.035 100.086  1.00  0.00    -0.022 A 
HETATM    8 CL1  UNL     1       5.965  89.356  97.472  1.00  0.00    -0.083 Cl
HETATM    9  C1  UNL     1       6.721  89.417 100.419  1.00  0.00     0.051 C 
HETATM   10  C17 UNL     1       4.414  88.732 101.104  1.00  0.00     0.025 A 
HETATM   11  C15 UNL     1       3.120  88.380 100.796  1.00  0.00    -0.037 A 
HETATM   12 BR1  UNL     1       4.970  88.794 102.935  1.00  0.00    -0.050 Br
HETATM   13  C16 UNL     1       2.187  88.058 101.902  1.00  0.00     0.050 C 
ENDBRANCH   2   3
ENDBRANCH   1   2
BRANCH   1  14
HETATM   14  N1  UNL     1      -0.778  89.115  99.502  1.00  0.00    -0.072 N 
ATOM     15  H12 UNL     1      -1.152  88.165  99.509  1.00  0.00     0.277 HD
ATOM     16  H11 UNL     1      -0.696  89.263 100.508  1.00  0.00     0.277 HD
BRANCH  14  17
HETATM   17  C9  UNL     1      -1.706  90.035  98.915  1.00  0.00     0.265 C 
BRANCH  17  18
HETATM   18  C10 UNL     1      -2.739  90.529  99.899  1.00  0.00     0.167 C 
BRANCH  18  19
HETATM   19  O1  UNL     1      -3.550  91.532  99.423  1.00  0.00    -0.392 OA
ATOM     20  H1  UNL     1      -4.151  91.892 100.064  1.00  0.00     0.210 HD
ENDBRANCH  18  19
BRANCH  18  21
HETATM   21  C11 UNL     1      -2.068  90.909 101.188  1.00  0.00     0.201 C 
BRANCH  21  22
HETATM   22  O2  UNL     1      -1.015  91.764 100.926  1.00  0.00    -0.384 OA
BRANCH  22  23
HETATM   23  C12 UNL     1      -0.054  91.716 101.943  1.00  0.00     0.113 C 
HETATM   24  C13 UNL     1      -0.398  90.586 102.855  1.00  0.00     0.039 C 
HETATM   25  C14 UNL     1       1.346  91.650 101.397  1.00  0.00     0.039 C 
ENDBRANCH  22  23
ENDBRANCH  21  22
ENDBRANCH  18  21
ENDBRANCH  17  18
ENDBRANCH  14  17
ENDBRANCH   1  14
TORSDOF 9
ENDMDL
MODEL 3
REMARK VINA RESULT: -6.422056523      0.694      1.068
REMARK  9 active torsions:
REMARK  status: ('A' for Active; 'I' for Inactive)
REMARK    1  A    between atoms: C6_7  and  C7_8 
REMARK    2  A    between atoms: C7_8  and  C8_9 
REMARK    3  A    between atoms: C8_9  and  N1_10 
REMARK    4  A    between atoms: N1_10  and  C9_13 
REMARK    5  A    between atoms: C9_13  and  C10_14 
REMARK    6  A    between atoms: C10_14  and  O1_15 
REMARK    7  A    between atoms: C10_14  and  C11_17 
REMARK    8  A    between atoms: C11_17  and  O2_18 
REMARK    9  A    between atoms: O2_18  and  C12_19 
ROOT
HETATM    1  C8  UNL     1       0.820  89.283  99.021  1.00  0.00     0.237 C 
ENDROOT
BRANCH   1   2
HETATM    2  C7  UNL     1       1.628  88.035  99.187  1.00  0.00     0.067 C 
BRANCH   2   3
HETATM    3  C6  UNL     1       2.979  88.381  99.715  1.00  0.00    -0.042 A 
HETATM    4  C4  UNL     1       3.211  88.368 101.064  1.00  0.00    -0.033 A 
HETATM    5  C3  UNL     1       4.499  88.710 101.475  1.00  0.00     0.047 A 
HETATM    6  C5  UNL     1       2.176  88.015 102.061  1.00  0.00     0.050 C 
HETATM    7  C2  UNL     1       5.503  89.046 100.603  1.00  0.00    -0.022 A 
HETATM    8 CL1  UNL     1       4.804  88.695 103.203  1.00  0.00    -0.083 Cl
HETATM    9  C1  UNL     1       6.878  89.411 101.094  1.00  0.00     0.051 C 
HETATM   10  C17 UNL     1       5.233  89.049  99.244  1.00  0.00     0.025 A 
HETATM   11  C15 UNL     1       3.975  88.718  98.798  1.00  0.00    -0.037 A 
HETATM   12 BR1  UNL     1       6.597  89.512  97.981  1.00  0.00    -0.050 Br
HETATM   13  C16 UNL     1       3.710  88.730  97.339  1.00  0.00     0.050 C 
ENDBRANCH   2   3
ENDBRANCH   1   2
BRANCH   1  14
HETATM   14  N1  UNL     1      -0.573  88.999  99.002  1.00  0.00    -0.072 N 
ATOM     15  H12 UNL     1      -0.778  88.194  98.410  1.00  0.00     0.277 HD
ATOM     16  H11 UNL     1      -0.886  88.624  99.898  1.00  0.00     0.277 HD
BRANCH  14  17
HETATM   17  C9  UNL     1      -1.350  90.139  98.616  1.00  0.00     0.265 C 
BRANCH  17  18
HETATM   18  C10 UNL     1      -2.537  90.369  99.520  1.00  0.00     0.167 C 
BRANCH  18  19
HETATM   19  O1  UNL     1      -3.554  91.102  98.955  1.00  0.00    -0.392 OA
ATOM     20  H1  UNL     1      -4.170  91.469  99.578  1.00  0.00     0.210 HD
ENDBRANCH  18  19
BRANCH  18  21
HETATM   21  C11 UNL     1      -2.075  90.956 100.823  1.00  0.00     0.201 C 
BRANCH  21  22
HETATM   22  O2  UNL     1      -1.506  89.967 101.600  1.00  0.00    -0.384 OA
BRANCH  22  23
HETATM   23  C12 UNL     1      -0.478  90.476 102.404  1.00  0.00     0.113 C 
HETATM   24  C13 UNL     1       0.033  91.726 101.768  1.00  0.00     0.039 C 
HETATM   25  C14 UNL     1      -0.913  90.657 103.833  1.00  0.00     0.039 C 
ENDBRANCH  22  23
ENDBRANCH  21  22
ENDBRANCH  18  21
ENDBRANCH  17  18
ENDBRANCH  14  17
ENDBRANCH   1  14
TORSDOF 9
ENDMDL
MODEL 4
REMARK VINA RESULT: -6.291042582     15.688     18.101
REMARK  9 active torsions:
REMARK  status: ('A' for Active; 'I' for Inactive)
REMARK    1  A    between atoms: C6_7  and  C7_8 
REMARK    2  A    between atoms: C7_8  and  C8_9 
REMARK    3  A    between atoms: C8_9  and  N1_10 
REMARK    4  A    between atoms: N1_10  and  C9_13 
REMARK    5  A    between atoms: C9_13  and  C10_14 
REMARK    6  A    between atoms: C10_14  and  O1_15 
REMARK    7  A    between atoms: C10_14  and  C11_17 
REMARK    8  A    between atoms: C11_17  and  O2_18 
REMARK    9  A    between atoms: O2_18  and  C12_19 
ROOT
HETATM    1  C8  UNL     1      14.754  81.042 108.584  1.00  0.00     0.237 C 
ENDROOT
BRANCH   1   2
HETATM    2  C7  UNL     1      14.278  79.747 108.005  1.00  0.00     0.067 C 
BRANCH   2   3
HETATM    3  C6  UNL     1      15.226  78.657 108.373  1.00  0.00    -0.042 A 
HETATM    4  C4  UNL     1      16.361  78.459 107.634  1.00  0.00    -0.033 A 
HETATM    5  C3  UNL     1      17.191  77.414 108.041  1.00  0.00     0.047 A 
HETATM    6  C5  UNL     1      16.720  79.287 106.461  1.00  0.00     0.050 C 
HETATM    7  C2  UNL     1      16.917  76.611 109.118  1.00  0.00    -0.022 A 
HETATM    8 CL1  UNL     1      18.649  77.154 107.098  1.00  0.00    -0.083 Cl
HETATM    9  C1  UNL     1      17.843  75.493 109.518  1.00  0.00     0.051 C 
HETATM   10  C17 UNL     1      15.760  76.840 109.844  1.00  0.00     0.025 A 
HETATM   11  C15 UNL     1      14.914  77.860 109.475  1.00  0.00    -0.037 A 
HETATM   12 BR1  UNL     1      15.326  75.748 111.356  1.00  0.00    -0.050 Br
HETATM   13  C16 UNL     1      13.681  78.085 110.266  1.00  0.00     0.050 C 
ENDBRANCH   2   3
ENDBRANCH   1   2
BRANCH   1  14
HETATM   14  N1  UNL     1      13.857  81.527 109.575  1.00  0.00    -0.072 N 
ATOM     15  H12 UNL     1      13.829  80.905 110.384  1.00  0.00     0.277 HD
ATOM     16  H11 UNL     1      14.224  82.365 110.027  1.00  0.00     0.277 HD
BRANCH  14  17
HETATM   17  C9  UNL     1      12.544  81.753 109.048  1.00  0.00     0.265 C 
BRANCH  17  18
HETATM   18  C10 UNL     1      12.337  83.175 108.587  1.00  0.00     0.167 C 
BRANCH  18  19
HETATM   19  O1  UNL     1      11.786  84.009 109.531  1.00  0.00    -0.392 OA
ATOM     20  H1  UNL     1      12.418  84.490 110.053  1.00  0.00     0.210 HD
ENDBRANCH  18  19
BRANCH  18  21
HETATM   21  C11 UNL     1      11.559  83.184 107.303  1.00  0.00     0.201 C 
BRANCH  21  22
HETATM   22  O2  UNL     1      10.984  84.426 107.119  1.00  0.00    -0.384 OA
BRANCH  22  23
HETATM   23  C12 UNL     1       9.605  84.323 106.900  1.00  0.00     0.113 C 
HETATM   24  C13 UNL     1       9.246  82.874 106.864  1.00  0.00     0.039 C 
HETATM   25  C14 UNL     1       8.810  85.118 107.900  1.00  0.00     0.039 C 
ENDBRANCH  22  23
ENDBRANCH  21  22
ENDBRANCH  18  21
ENDBRANCH  17  18
ENDBRANCH  14  17
ENDBRANCH   1  14
TORSDOF 9
ENDMDL
MODEL 5
REMARK VINA RESULT: -6.256014389      1.446      2.010
REMARK  9 active torsions:
REMARK  status: ('A' for Active; 'I' for Inactive)
REMARK    1  A    between atoms: C6_7  and  C7_8 
REMARK    2  A    between atoms: C7_8  and  C8_9 
REMARK    3  A    between atoms: C8_9  and  N1_10 
REMARK    4  A    between atoms: N1_10  and  C9_13 
REMARK    5  A    between atoms: C9_13  and  C10_14 
REMARK    6  A    between atoms: C10_14  and  O1_15 
REMARK    7  A    between atoms: C10_14  and  C11_17 
REMARK    8  A    between atoms: C11_17  and  O2_18 
REMARK    9  A    between atoms: O2_18  and  C12_19 
ROOT
HETATM    1  C8  UNL     1       1.124  89.266  98.698  1.00  0.00     0.237 C 
ENDROOT
BRANCH   1   2
HETATM    2  C7  UNL     1       1.921  88.023  98.939  1.00  0.00     0.067 C 
BRANCH   2   3
HETATM    3  C6  UNL     1       3.211  88.377  99.596  1.00  0.00    -0.042 A 
HETATM    4  C4  UNL     1       3.316  88.340 100.961  1.00  0.00    -0.033 A 
HETATM    5  C3  UNL     1       4.555  88.692 101.497  1.00  0.00     0.047 A 
HETATM    6  C5  UNL     1       2.199  87.953 101.850  1.00  0.00     0.050 C 
HETATM    7  C2  UNL     1       5.631  89.060 100.729  1.00  0.00    -0.022 A 
HETATM    8 CL1  UNL     1       4.698  88.646 103.245  1.00  0.00    -0.083 Cl
HETATM    9  C1  UNL     1       6.948  89.433 101.354  1.00  0.00     0.051 C 
HETATM   10  C17 UNL     1       5.489  89.086  99.351  1.00  0.00     0.025 A 
HETATM   11  C15 UNL     1       4.283  88.747  98.783  1.00  0.00    -0.037 A 
HETATM   12 BR1  UNL     1       6.956  89.593  98.230  1.00  0.00    -0.050 Br
HETATM   13  C16 UNL     1       4.155  88.784  97.307  1.00  0.00     0.050 C 
ENDBRANCH   2   3
ENDBRANCH   1   2
BRANCH   1  14
HETATM   14  N1  UNL     1       0.479  89.230  97.430  1.00  0.00    -0.072 N 
ATOM     15  H12 UNL     1       0.480  90.149  96.989  1.00  0.00     0.277 HD
ATOM     16  H11 UNL     1       1.039  88.721  96.745  1.00  0.00     0.277 HD
BRANCH  14  17
HETATM   17  C9  UNL     1      -0.848  88.696  97.516  1.00  0.00     0.265 C 
BRANCH  17  18
HETATM   18  C10 UNL     1      -1.905  89.695  97.114  1.00  0.00     0.167 C 
BRANCH  18  19
HETATM   19  O1  UNL     1      -1.429  90.792  96.436  1.00  0.00    -0.392 OA
ATOM     20  H1  UNL     1      -2.060  91.206  95.859  1.00  0.00     0.210 HD
ENDBRANCH  18  19
BRANCH  18  21
HETATM   21  C11 UNL     1      -2.718  90.083  98.315  1.00  0.00     0.201 C 
BRANCH  21  22
HETATM   22  O2  UNL     1      -2.161  89.526  99.450  1.00  0.00    -0.384 OA
BRANCH  22  23
HETATM   23  C12 UNL     1      -2.310  90.368 100.558  1.00  0.00     0.113 C 
HETATM   24  C13 UNL     1      -1.130  90.176 101.451  1.00  0.00     0.039 C 
HETATM   25  C14 UNL     1      -2.537  91.801 100.155  1.00  0.00     0.039 C 
ENDBRANCH  22  23
ENDBRANCH  21  22
ENDBRANCH  18  21
ENDBRANCH  17  18
ENDBRANCH  14  17
ENDBRANCH   1  14
TORSDOF 9
ENDMDL
