MODEL 1
REMARK VINA RESULT: -8.723666323      0.000      0.000
REMARK  6 active torsions:
REMARK  status: ('A' for Active; 'I' for Inactive)
REMARK    1  A    between atoms: C9_9  and  N1_10 
REMARK    2  A    between atoms: N1_10  and  C10_12 
REMARK    3  A    between atoms: C11_13  and  N2_14 
REMARK    4  A    between atoms: C14_17  and  C15_18 
REMARK    5  A    between atoms: C15_18  and  O1_19 
REMARK    6  A    between atoms: C15_18  and  C16_21 
ROOT
HETATM    1  C10 UNL     1      -1.437 -19.501  20.766  1.00  0.00     0.144 A 
HETATM    2  C11 UNL     1      -0.680 -20.680  20.546  1.00  0.00     0.144 A 
HETATM    3  C18 UNL     1      -0.669 -21.708  21.497  1.00  0.00     0.281 A 
HETATM    4  O2  UNL     1       0.005 -22.770  21.317  1.00  0.00    -0.265 OA
HETATM    5  N3  UNL     1      -1.383 -21.569  22.615  1.00  0.00    -0.269 N 
HETATM    6  C19 UNL     1      -1.349 -22.666  23.590  1.00  0.00     0.164 C 
HETATM    7  C20 UNL     1      -2.090 -20.465  22.808  1.00  0.00     0.332 A 
HETATM    8  O3  UNL     1      -2.758 -20.359  23.872  1.00  0.00    -0.246 OA
HETATM    9  N4  UNL     1      -2.128 -19.439  21.913  1.00  0.00    -0.287 N 
HETATM   10  C21 UNL     1      -2.926 -18.286  22.332  1.00  0.00     0.163 C 
ENDROOT
BRANCH   2  11
HETATM   11  N2  UNL     1      -0.044 -20.985  19.324  1.00  0.00    -0.373 N 
HETATM   12  C12 UNL     1       1.232 -20.633  18.775  1.00  0.00     0.123 C 
HETATM   13  C13 UNL     1       1.875 -21.976  18.387  1.00  0.00     0.029 C 
HETATM   14  C14 UNL     1       0.700 -22.756  17.914  1.00  0.00     0.043 C 
HETATM   15  C17 UNL     1      -0.508 -21.931  18.307  1.00  0.00     0.130 C 
BRANCH  14  16
HETATM   16  C15 UNL     1       0.768 -22.954  16.406  1.00  0.00     0.231 C 
BRANCH  16  17
HETATM   17  O1  UNL     1       1.500 -21.849  15.915  1.00  0.00    -0.386 OA
ATOM     18  H1  UNL     1       0.859 -21.289  15.493  1.00  0.00     0.210 HD
ENDBRANCH  16  17
BRANCH  16  19
HETATM   19  C16 UNL     1       1.578 -24.187  16.112  1.00  0.00     0.413 C 
HETATM   20  F1  UNL     1       2.879 -23.876  15.884  1.00  0.00    -0.168 F 
HETATM   21  F2  UNL     1       1.402 -25.083  17.146  1.00  0.00    -0.168 F 
HETATM   22  F3  UNL     1       1.024 -24.773  14.969  1.00  0.00    -0.168 F 
ENDBRANCH  16  19
ENDBRANCH  14  16
ENDBRANCH   2  11
BRANCH   1  23
HETATM   23  N1  UNL     1      -1.290 -18.443  19.880  1.00  0.00    -0.347 N 
ATOM     24  H1  UNL     1      -0.501 -17.867  20.173  1.00  0.00     0.167 HD
BRANCH  23  25
HETATM   25  C9  UNL     1      -1.854 -17.896  18.723  1.00  0.00    -0.008 C 
HETATM   26  C2  UNL     1      -2.792 -16.724  18.859  1.00  0.00     0.028 C 
HETATM   27  C1  UNL     1      -4.257 -17.104  18.935  1.00  0.00     0.016 C 
HETATM   28  C3  UNL     1      -2.661 -15.724  17.749  1.00  0.00     0.019 C 
HETATM   29  C4  UNL     1      -2.532 -16.301  16.391  1.00  0.00    -0.047 C 
HETATM   30  C5  UNL     1      -1.409 -15.546  15.671  1.00  0.00     0.015 C 
HETATM   31  C6  UNL     1      -3.780 -16.072  15.532  1.00  0.00     0.015 C 
HETATM   32  C7  UNL     1      -2.198 -17.760  16.327  1.00  0.00     0.014 C 
HETATM   33  C8  UNL     1      -1.124 -17.979  17.417  1.00  0.00     0.053 C 
ENDBRANCH  23  25
ENDBRANCH   1  23
TORSDOF 6
ENDMDL
MODEL 2
REMARK VINA RESULT: -8.719212229      1.498      1.962
REMARK  6 active torsions:
REMARK  status: ('A' for Active; 'I' for Inactive)
REMARK    1  A    between atoms: C9_9  and  N1_10 
REMARK    2  A    between atoms: N1_10  and  C10_12 
REMARK    3  A    between atoms: C11_13  and  N2_14 
REMARK    4  A    between atoms: C14_17  and  C15_18 
REMARK    5  A    between atoms: C15_18  and  O1_19 
REMARK    6  A    between atoms: C15_18  and  C16_21 
ROOT
HETATM    1  C10 UNL     1      -1.662 -19.092  20.783  1.00  0.00     0.144 A 
HETATM    2  C11 UNL     1      -0.948 -20.285  21.065  1.00  0.00     0.144 A 
HETATM    3  C18 UNL     1      -1.132 -20.956  22.280  1.00  0.00     0.281 A 
HETATM    4  O2  UNL     1      -0.499 -22.024  22.550  1.00  0.00    -0.265 OA
HETATM    5  N3  UNL     1      -1.991 -20.462  23.173  1.00  0.00    -0.269 N 
HETATM    6  C19 UNL     1      -2.159 -21.191  24.436  1.00  0.00     0.164 C 
HETATM    7  C20 UNL     1      -2.655 -19.349  22.898  1.00  0.00     0.332 A 
HETATM    8  O3  UNL     1      -3.463 -18.905  23.757  1.00  0.00    -0.246 OA
HETATM    9  N4  UNL     1      -2.507 -18.663  21.731  1.00  0.00    -0.287 N 
HETATM   10  C21 UNL     1      -3.292 -17.431  21.637  1.00  0.00     0.163 C 
ENDROOT
BRANCH   2  11
HETATM   11  N2  UNL     1      -0.160 -20.969  20.114  1.00  0.00    -0.373 N 
HETATM   12  C12 UNL     1      -0.303 -22.236  19.460  1.00  0.00     0.123 C 
HETATM   13  C13 UNL     1      -0.197 -21.916  17.959  1.00  0.00     0.029 C 
HETATM   14  C14 UNL     1       0.817 -20.828  17.945  1.00  0.00     0.043 C 
HETATM   15  C17 UNL     1       1.003 -20.440  19.397  1.00  0.00     0.130 C 
BRANCH  14  16
HETATM   16  C15 UNL     1       2.120 -21.326  17.334  1.00  0.00     0.231 C 
BRANCH  16  17
HETATM   17  O1  UNL     1       1.990 -22.732  17.269  1.00  0.00    -0.386 OA
ATOM     18  H1  UNL     1       1.731 -22.920  16.374  1.00  0.00     0.210 HD
ENDBRANCH  16  17
BRANCH  16  19
HETATM   19  C16 UNL     1       2.218 -20.825  15.920  1.00  0.00     0.413 C 
HETATM   20  F1  UNL     1       2.054 -21.835  15.029  1.00  0.00    -0.168 F 
HETATM   21  F2  UNL     1       1.312 -19.797  15.755  1.00  0.00    -0.168 F 
HETATM   22  F3  UNL     1       3.494 -20.268  15.774  1.00  0.00    -0.168 F 
ENDBRANCH  16  19
ENDBRANCH  14  16
ENDBRANCH   2  11
BRANCH   1  23
HETATM   23  N1  UNL     1      -1.331 -18.374  19.643  1.00  0.00    -0.347 N 
ATOM     24  H1  UNL     1      -0.333 -18.164  19.657  1.00  0.00     0.167 HD
BRANCH  23  25
HETATM   25  C9  UNL     1      -1.897 -17.839  18.481  1.00  0.00    -0.008 C 
HETATM   26  C2  UNL     1      -2.823 -16.657  18.606  1.00  0.00     0.028 C 
HETATM   27  C1  UNL     1      -4.291 -17.024  18.696  1.00  0.00     0.016 C 
HETATM   28  C3  UNL     1      -2.691 -15.674  17.481  1.00  0.00     0.019 C 
HETATM   29  C4  UNL     1      -2.575 -16.271  16.131  1.00  0.00    -0.047 C 
HETATM   30  C5  UNL     1      -1.449 -15.536  15.394  1.00  0.00     0.015 C 
HETATM   31  C6  UNL     1      -3.825 -16.044  15.276  1.00  0.00     0.015 C 
HETATM   32  C7  UNL     1      -2.253 -17.733  16.086  1.00  0.00     0.014 C 
HETATM   33  C8  UNL     1      -1.174 -17.947  17.172  1.00  0.00     0.053 C 
ENDBRANCH  23  25
ENDBRANCH   1  23
TORSDOF 6
ENDMDL
MODEL 3
REMARK VINA RESULT: -8.253549535      7.753     10.325
REMARK  6 active torsions:
REMARK  status: ('A' for Active; 'I' for Inactive)
REMARK    1  A    between atoms: C9_9  and  N1_10 
REMARK    2  A    between atoms: N1_10  and  C10_12 
REMARK    3  A    between atoms: C11_13  and  N2_14 
REMARK    4  A    between atoms: C14_17  and  C15_18 
REMARK    5  A    between atoms: C15_18  and  O1_19 
REMARK    6  A    between atoms: C15_18  and  C16_21 
ROOT
HETATM    1  C10 UNL     1       2.752 -22.065  12.430  1.00  0.00     0.144 A 
HETATM    2  C11 UNL     1       3.028 -23.275  11.743  1.00  0.00     0.144 A 
HETATM    3  C18 UNL     1       3.407 -24.424  12.447  1.00  0.00     0.281 A 
HETATM    4  O2  UNL     1       3.659 -25.516  11.848  1.00  0.00    -0.265 OA
HETATM    5  N3  UNL     1       3.501 -24.371  13.777  1.00  0.00    -0.269 N 
HETATM    6  C19 UNL     1       3.900 -25.595  14.483  1.00  0.00     0.164 C 
HETATM    7  C20 UNL     1       3.237 -23.237  14.408  1.00  0.00     0.332 A 
HETATM    8  O3  UNL     1       3.333 -23.215  15.665  1.00  0.00    -0.246 OA
HETATM    9  N4  UNL     1       2.869 -22.095  13.765  1.00  0.00    -0.287 N 
HETATM   10  C21 UNL     1       2.669 -20.936  14.635  1.00  0.00     0.163 C 
ENDROOT
BRANCH   2  11
HETATM   11  N2  UNL     1       2.781 -23.467  10.366  1.00  0.00    -0.373 N 
HETATM   12  C12 UNL     1       1.593 -23.756   9.620  1.00  0.00     0.123 C 
HETATM   13  C13 UNL     1       1.534 -22.662   8.539  1.00  0.00     0.029 C 
HETATM   14  C14 UNL     1       2.971 -22.477   8.206  1.00  0.00     0.043 C 
HETATM   15  C17 UNL     1       3.727 -23.249   9.269  1.00  0.00     0.130 C 
BRANCH  14  16
HETATM   16  C15 UNL     1       3.266 -23.019   6.814  1.00  0.00     0.231 C 
BRANCH  16  17
HETATM   17  O1  UNL     1       2.003 -23.282   6.238  1.00  0.00    -0.386 OA
ATOM     18  H1  UNL     1       1.748 -24.136   6.569  1.00  0.00     0.210 HD
ENDBRANCH  16  17
BRANCH  16  19
HETATM   19  C16 UNL     1       3.908 -21.933   5.995  1.00  0.00     0.413 C 
HETATM   20  F1  UNL     1       4.278 -22.394   4.774  1.00  0.00    -0.168 F 
HETATM   21  F2  UNL     1       3.042 -20.860   5.936  1.00  0.00    -0.168 F 
HETATM   22  F3  UNL     1       5.037 -21.505   6.702  1.00  0.00    -0.168 F 
ENDBRANCH  16  19
ENDBRANCH  14  16
ENDBRANCH   2  11
BRANCH   1  23
HETATM   23  N1  UNL     1       2.541 -20.912  11.686  1.00  0.00    -0.347 N 
ATOM     24  H1  UNL     1       1.539 -20.743  11.607  1.00  0.00     0.167 HD
BRANCH  23  25
HETATM   25  C9  UNL     1       3.233 -19.904  11.008  1.00  0.00    -0.008 C 
HETATM   26  C2  UNL     1       4.739 -19.957  10.974  1.00  0.00     0.028 C 
HETATM   27  C1  UNL     1       5.415 -19.157  12.070  1.00  0.00     0.016 C 
HETATM   28  C3  UNL     1       5.324 -19.489   9.674  1.00  0.00     0.019 C 
HETATM   29  C4  UNL     1       4.701 -18.273   9.104  1.00  0.00    -0.047 C 
HETATM   30  C5  UNL     1       4.482 -18.522   7.607  1.00  0.00     0.015 C 
HETATM   31  C6  UNL     1       5.623 -17.051   9.173  1.00  0.00     0.015 C 
HETATM   32  C7  UNL     1       3.379 -17.878   9.685  1.00  0.00     0.014 C 
HETATM   33  C8  UNL     1       2.595 -19.200   9.849  1.00  0.00     0.053 C 
ENDBRANCH  23  25
ENDBRANCH   1  23
TORSDOF 6
ENDMDL
MODEL 4
REMARK VINA RESULT: -7.933611117      1.030      1.266
REMARK  6 active torsions:
REMARK  status: ('A' for Active; 'I' for Inactive)
REMARK    1  A    between atoms: C9_9  and  N1_10 
REMARK    2  A    between atoms: N1_10  and  C10_12 
REMARK    3  A    between atoms: C11_13  and  N2_14 
REMARK    4  A    between atoms: C14_17  and  C15_18 
REMARK    5  A    between atoms: C15_18  and  O1_19 
REMARK    6  A    between atoms: C15_18  and  C16_21 
ROOT
HETATM    1  C10 UNL     1      -0.847 -20.426  20.641  1.00  0.00     0.144 A 
HETATM    2  C11 UNL     1      -0.147 -21.576  20.195  1.00  0.00     0.144 A 
HETATM    3  C18 UNL     1      -0.130 -22.744  20.968  1.00  0.00     0.281 A 
HETATM    4  O2  UNL     1       0.493 -23.783  20.586  1.00  0.00    -0.265 OA
HETATM    5  N3  UNL     1      -0.784 -22.765  22.131  1.00  0.00    -0.269 N 
HETATM    6  C19 UNL     1      -0.745 -24.005  22.915  1.00  0.00     0.164 C 
HETATM    7  C20 UNL     1      -1.437 -21.686  22.535  1.00  0.00     0.332 A 
HETATM    8  O3  UNL     1      -2.049 -21.733  23.636  1.00  0.00    -0.246 OA
HETATM    9  N4  UNL     1      -1.479 -20.529  21.819  1.00  0.00    -0.287 N 
HETATM   10  C21 UNL     1      -2.212 -19.435  22.458  1.00  0.00     0.163 C 
ENDROOT
BRANCH   2  11
HETATM   11  N2  UNL     1       0.417 -21.699  18.907  1.00  0.00    -0.373 N 
HETATM   12  C12 UNL     1       1.657 -21.259  18.341  1.00  0.00     0.123 C 
HETATM   13  C13 UNL     1       2.280 -22.527  17.731  1.00  0.00     0.029 C 
HETATM   14  C14 UNL     1       1.083 -23.247  17.222  1.00  0.00     0.043 C 
HETATM   15  C17 UNL     1      -0.104 -22.499  17.796  1.00  0.00     0.130 C 
BRANCH  14  16
HETATM   16  C15 UNL     1       1.063 -23.230  15.699  1.00  0.00     0.231 C 
BRANCH  16  17
HETATM   17  O1  UNL     1       1.933 -22.182  15.324  1.00  0.00    -0.386 OA
ATOM     18  H1  UNL     1       1.440 -21.652  14.709  1.00  0.00     0.210 HD
ENDBRANCH  16  17
BRANCH  16  19
HETATM   19  C16 UNL     1       1.666 -24.510  15.190  1.00  0.00     0.413 C 
HETATM   20  F1  UNL     1       1.708 -25.454  16.163  1.00  0.00    -0.168 F 
HETATM   21  F2  UNL     1       0.966 -24.909  14.070  1.00  0.00    -0.168 F 
HETATM   22  F3  UNL     1       2.965 -24.206  14.768  1.00  0.00    -0.168 F 
ENDBRANCH  16  19
ENDBRANCH  14  16
ENDBRANCH   2  11
BRANCH   1  23
HETATM   23  N1  UNL     1      -0.703 -19.244  19.928  1.00  0.00    -0.347 N 
ATOM     24  H1  UNL     1       0.144 -18.767  20.236  1.00  0.00     0.167 HD
BRANCH  23  25
HETATM   25  C9  UNL     1      -1.323 -18.482  18.932  1.00  0.00    -0.008 C 
HETATM   26  C2  UNL     1      -2.074 -17.239  19.333  1.00  0.00     0.028 C 
HETATM   27  C1  UNL     1      -3.557 -17.454  19.559  1.00  0.00     0.016 C 
HETATM   28  C3  UNL     1      -1.944 -16.118  18.345  1.00  0.00     0.019 C 
HETATM   29  C4  UNL     1      -2.054 -16.516  16.923  1.00  0.00    -0.047 C 
HETATM   30  C5  UNL     1      -0.934 -15.804  16.155  1.00  0.00     0.015 C 
HETATM   31  C6  UNL     1      -3.353 -16.028  16.272  1.00  0.00     0.015 C 
HETATM   32  C7  UNL     1      -1.925 -17.980  16.638  1.00  0.00     0.014 C 
HETATM   33  C8  UNL     1      -0.769 -18.470  17.539  1.00  0.00     0.053 C 
ENDBRANCH  23  25
ENDBRANCH   1  23
TORSDOF 6
ENDMDL
MODEL 5
REMARK VINA RESULT: -7.783694365      3.731      6.089
REMARK  6 active torsions:
REMARK  status: ('A' for Active; 'I' for Inactive)
REMARK    1  A    between atoms: C9_9  and  N1_10 
REMARK    2  A    between atoms: N1_10  and  C10_12 
REMARK    3  A    between atoms: C11_13  and  N2_14 
REMARK    4  A    between atoms: C14_17  and  C15_18 
REMARK    5  A    between atoms: C15_18  and  O1_19 
REMARK    6  A    between atoms: C15_18  and  C16_21 
ROOT
HETATM    1  C10 UNL     1      -0.339 -20.285  19.745  1.00  0.00     0.144 A 
HETATM    2  C11 UNL     1      -0.850 -20.959  20.884  1.00  0.00     0.144 A 
HETATM    3  C18 UNL     1      -0.593 -22.322  21.080  1.00  0.00     0.281 A 
HETATM    4  O2  UNL     1      -1.044 -22.942  22.092  1.00  0.00    -0.265 OA
HETATM    5  N3  UNL     1       0.143 -22.981  20.184  1.00  0.00    -0.269 N 
HETATM    6  C19 UNL     1       0.394 -24.408  20.422  1.00  0.00     0.164 C 
HETATM    7  C20 UNL     1       0.619 -22.340  19.127  1.00  0.00     0.332 A 
HETATM    8  O3  UNL     1       1.314 -22.985  18.297  1.00  0.00    -0.246 OA
HETATM    9  N4  UNL     1       0.392 -21.018  18.894  1.00  0.00    -0.287 N 
HETATM   10  C21 UNL     1       0.961 -20.506  17.646  1.00  0.00     0.163 C 
ENDROOT
BRANCH   2  11
HETATM   11  N2  UNL     1      -1.483 -20.305  21.962  1.00  0.00    -0.373 N 
HETATM   12  C12 UNL     1      -2.580 -19.387  22.036  1.00  0.00     0.123 C 
HETATM   13  C13 UNL     1      -3.552 -20.019  23.049  1.00  0.00     0.029 C 
HETATM   14  C14 UNL     1      -2.619 -20.633  24.032  1.00  0.00     0.043 C 
HETATM   15  C17 UNL     1      -1.250 -20.542  23.389  1.00  0.00     0.130 C 
BRANCH  14  16
HETATM   16  C15 UNL     1      -2.662 -19.871  25.350  1.00  0.00     0.231 C 
BRANCH  16  17
HETATM   17  O1  UNL     1      -4.035 -19.722  25.652  1.00  0.00    -0.386 OA
ATOM     18  H1  UNL     1      -4.404 -19.245  24.918  1.00  0.00     0.210 HD
ENDBRANCH  16  17
BRANCH  16  19
HETATM   19  C16 UNL     1      -2.062 -20.730  26.429  1.00  0.00     0.413 C 
HETATM   20  F1  UNL     1      -1.571 -21.887  25.919  1.00  0.00    -0.168 F 
HETATM   21  F2  UNL     1      -1.118 -19.985  27.107  1.00  0.00    -0.168 F 
HETATM   22  F3  UNL     1      -3.087 -21.011  27.340  1.00  0.00    -0.168 F 
ENDBRANCH  16  19
ENDBRANCH  14  16
ENDBRANCH   2  11
BRANCH   1  23
HETATM   23  N1  UNL     1      -0.753 -18.982  19.505  1.00  0.00    -0.347 N 
ATOM     24  H1  UNL     1      -0.432 -18.383  20.265  1.00  0.00     0.167 HD
BRANCH  23  25
HETATM   25  C9  UNL     1      -1.458 -18.210  18.577  1.00  0.00    -0.008 C 
HETATM   26  C2  UNL     1      -2.262 -17.036  19.074  1.00  0.00     0.028 C 
HETATM   27  C1  UNL     1      -3.719 -17.350  19.348  1.00  0.00     0.016 C 
HETATM   28  C3  UNL     1      -2.241 -15.860  18.143  1.00  0.00     0.019 C 
HETATM   29  C4  UNL     1      -2.390 -16.191  16.707  1.00  0.00    -0.047 C 
HETATM   30  C5  UNL     1      -1.347 -15.375  15.932  1.00  0.00     0.015 C 
HETATM   31  C6  UNL     1      -3.742 -15.750  16.137  1.00  0.00     0.015 C 
HETATM   32  C7  UNL     1      -2.189 -17.629  16.339  1.00  0.00     0.014 C 
HETATM   33  C8  UNL     1      -0.968 -18.093  17.165  1.00  0.00     0.053 C 
ENDBRANCH  23  25
ENDBRANCH   1  23
TORSDOF 6
ENDMDL
