MODEL 1
REMARK VINA RESULT: -7.969882741      0.000      0.000
REMARK  19 active torsions:
REMARK  status: ('A' for Active; 'I' for Inactive)
REMARK    1  A    between atoms: C2_2  and  C4_4 
REMARK    2  A    between atoms: C5_5  and  C6_6 
REMARK    3  A    between atoms: C6_6  and  N1_7 
REMARK    4  A    between atoms: N1_7  and  C8_9 
REMARK    5  A    between atoms: C8_9  and  C10_11 
REMARK    6  A    between atoms: C8_9  and  C13_18 
REMARK    7  A    between atoms: C10_11  and  O2_13 
REMARK    8  A    between atoms: O2_13  and  C11_14 
REMARK    9  A    between atoms: C11_14  and  C12_15 
REMARK   10  A    between atoms: C12_15  and  O3_16 
REMARK   11  A    between atoms: C13_18  and  O4_19 
REMARK   12  A    between atoms: C13_18  and  O5_21 
REMARK   13  A    between atoms: C16_29  and  N4_30 
REMARK   14  A    between atoms: C20_36  and  C21_37 
REMARK   15  A    between atoms: C21_37  and  O7_38 
REMARK   16  A    between atoms: C21_37  and  N6_40 
REMARK   17  A    between atoms: N6_40  and  C22_42 
REMARK   18  A    between atoms: C23_43  and  C24_44 
REMARK   19  A    between atoms: C26_51  and  C27_52 
REMARK       I    between atoms: C27_52  and  N9_54 
ROOT
HETATM    1  C27 UNL     1      18.701 -58.028 -52.339  1.00  0.00     0.285 C 
HETATM    2  O10 UNL     1      17.613 -58.621 -52.694  1.00  0.00    -0.265 OA
HETATM    3  N9  UNL     1      19.827 -58.858 -52.339  1.00  0.00    -0.258 N 
ATOM      4  H9  UNL     1      20.735 -58.479 -52.072  1.00  0.00     0.181 HD
HETATM    5  C28 UNL     1      19.715 -60.237 -52.713  1.00  0.00     0.184 C 
HETATM    6  N10 UNL     1      19.605 -61.350 -53.005  1.00  0.00    -0.172 NA
ENDROOT
BRANCH   1   7
HETATM    7  C26 UNL     1      18.660 -56.622 -51.988  1.00  0.00     0.148 A 
HETATM    8  C22 UNL     1      17.789 -55.733 -52.612  1.00  0.00     0.103 A 
HETATM    9  C23 UNL     1      17.996 -54.506 -52.069  1.00  0.00     0.154 A 
HETATM   10  N7  UNL     1      18.980 -54.645 -51.127  1.00  0.00    -0.290 N 
HETATM   11  N8  UNL     1      19.371 -55.929 -51.090  1.00  0.00    -0.289 N 
ATOM     12  H7  UNL     1      19.356 -53.894 -50.548  1.00  0.00     0.187 HD
HETATM   13  C25 UNL     1      20.407 -56.455 -50.202  1.00  0.00     0.178 C 
BRANCH   8  14
HETATM   14  N6  UNL     1      16.854 -56.103 -53.668  1.00  0.00    -0.332 N 
ATOM     15  H6  UNL     1      16.025 -56.665 -53.481  1.00  0.00     0.168 HD
BRANCH  14  16
HETATM   16  C21 UNL     1      17.162 -55.639 -54.966  1.00  0.00     0.155 C 
BRANCH  16  17
HETATM   17  C20 UNL     1      16.508 -55.834 -56.112  1.00  0.00     0.071 A 
HETATM   18  C4  UNL     1      16.534 -57.041 -56.764  1.00  0.00    -0.007 A 
HETATM   19  C5  UNL     1      15.392 -57.488 -57.456  1.00  0.00    -0.002 A 
HETATM   20  C14 UNL     1      14.293 -56.633 -57.447  1.00  0.00     0.113 A 
HETATM   21  N2  UNL     1      14.250 -55.450 -56.847  1.00  0.00    -0.258 N 
HETATM   22  C15 UNL     1      13.156 -54.674 -56.925  1.00  0.00     0.346 A 
HETATM   23  C19 UNL     1      15.358 -55.022 -56.164  1.00  0.00     0.146 A 
HETATM   24  O6  UNL     1      12.164 -55.092 -57.551  1.00  0.00    -0.246 OA
HETATM   25  N3  UNL     1      13.131 -53.451 -56.329  1.00  0.00    -0.141 N 
HETATM   26  C16 UNL     1      14.211 -53.003 -55.649  1.00  0.00     0.686 A 
ATOM     27  H3  UNL     1      12.295 -52.870 -56.394  1.00  0.00     0.189 HD
HETATM   28  N5  UNL     1      15.269 -53.825 -55.608  1.00  0.00    -0.175 N 
ATOM     29  H5  UNL     1      16.088 -53.495 -55.097  1.00  0.00     0.186 HD
BRANCH  18  30
HETATM   30  C2  UNL     1      17.644 -57.730 -56.830  1.00  0.00    -0.076 C 
HETATM   31  C1  UNL     1      18.072 -58.944 -56.131  1.00  0.00     0.044 C 
HETATM   32  C3  UNL     1      18.480 -57.661 -58.168  1.00  0.00     0.044 C 
ENDBRANCH  18  30
BRANCH  19  33
HETATM   33  C6  UNL     1      15.260 -58.777 -58.137  1.00  0.00     0.314 C 
BRANCH  33  34
HETATM   34  N1  UNL     1      15.034 -59.864 -57.148  1.00  0.00     0.112 N 
HETATM   35  C7  UNL     1      13.728 -59.749 -56.586  1.00  0.00     0.312 C 
BRANCH  34  36
HETATM   36  C8  UNL     1      15.391 -61.120 -57.662  1.00  0.00     0.290 C 
HETATM   37  C9  UNL     1      14.265 -61.749 -58.500  1.00  0.00     0.066 C 
BRANCH  36  38
HETATM   38  C10 UNL     1      15.804 -62.162 -56.699  1.00  0.00     0.303 C 
HETATM   39  O1  UNL     1      15.514 -63.346 -56.894  1.00  0.00    -0.262 OA
BRANCH  38  40
HETATM   40  O2  UNL     1      16.504 -61.777 -55.604  1.00  0.00    -0.317 OA
BRANCH  40  41
HETATM   41  C11 UNL     1      16.192 -61.815 -54.284  1.00  0.00     0.204 C 
BRANCH  41  42
HETATM   42  C12 UNL     1      16.323 -63.155 -53.652  1.00  0.00     0.191 C 
BRANCH  42  43
HETATM   43  O3  UNL     1      15.209 -63.924 -53.823  1.00  0.00    -0.399 OA
ATOM     44  H3  UNL     1      14.693 -63.999 -53.029  1.00  0.00     0.209 HD
ENDBRANCH  42  43
ENDBRANCH  41  42
ENDBRANCH  40  41
ENDBRANCH  38  40
ENDBRANCH  36  38
BRANCH  36  45
HETATM   45  C13 UNL     1      16.525 -60.934 -58.679  1.00  0.00     0.302 C 
BRANCH  45  46
HETATM   46  O4  UNL     1      16.111 -61.440 -59.922  1.00  0.00    -0.368 OA
ATOM     47  H4  UNL     1      16.766 -62.048 -60.241  1.00  0.00     0.212 HD
ENDBRANCH  45  46
BRANCH  45  48
HETATM   48  O5  UNL     1      17.667 -61.626 -58.356  1.00  0.00    -0.368 OA
ATOM     49  H5  UNL     1      18.193 -61.860 -59.112  1.00  0.00     0.212 HD
ENDBRANCH  45  48
ENDBRANCH  36  45
ENDBRANCH  34  36
ENDBRANCH  33  34
ENDBRANCH  19  33
BRANCH  26  50
HETATM   50  N4  UNL     1      14.208 -51.736 -55.030  1.00  0.00    -0.214 N 
HETATM   51  C17 UNL     1      14.078 -50.993 -53.739  1.00  0.00     0.161 A 
HETATM   52  C18 UNL     1      14.309 -50.300 -55.046  1.00  0.00     0.161 A 
ENDBRANCH  26  50
ENDBRANCH  16  17
BRANCH  16  53
HETATM   53  O7  UNL     1      18.348 -54.841 -55.035  1.00  0.00    -0.345 OA
ATOM     54  H7  UNL     1      18.462 -54.190 -54.351  1.00  0.00     0.219 HD
ENDBRANCH  16  53
ENDBRANCH  14  16
ENDBRANCH   8  14
BRANCH   9  55
HETATM   55  C24 UNL     1      17.330 -53.243 -52.364  1.00  0.00     0.230 C 
HETATM   56  O8  UNL     1      17.013 -53.005 -53.558  1.00  0.00    -0.643 OA
HETATM   57  O9  UNL     1      17.031 -52.307 -51.435  1.00  0.00    -0.643 OA
ENDBRANCH   9  55
ENDBRANCH   1   7
TORSDOF 19
ENDMDL
MODEL 2
REMARK VINA RESULT: -7.910728827      1.525      2.110
REMARK  19 active torsions:
REMARK  status: ('A' for Active; 'I' for Inactive)
REMARK    1  A    between atoms: C2_2  and  C4_4 
REMARK    2  A    between atoms: C5_5  and  C6_6 
REMARK    3  A    between atoms: C6_6  and  N1_7 
REMARK    4  A    between atoms: N1_7  and  C8_9 
REMARK    5  A    between atoms: C8_9  and  C10_11 
REMARK    6  A    between atoms: C8_9  and  C13_18 
REMARK    7  A    between atoms: C10_11  and  O2_13 
REMARK    8  A    between atoms: O2_13  and  C11_14 
REMARK    9  A    between atoms: C11_14  and  C12_15 
REMARK   10  A    between atoms: C12_15  and  O3_16 
REMARK   11  A    between atoms: C13_18  and  O4_19 
REMARK   12  A    between atoms: C13_18  and  O5_21 
REMARK   13  A    between atoms: C16_29  and  N4_30 
REMARK   14  A    between atoms: C20_36  and  C21_37 
REMARK   15  A    between atoms: C21_37  and  O7_38 
REMARK   16  A    between atoms: C21_37  and  N6_40 
REMARK   17  A    between atoms: N6_40  and  C22_42 
REMARK   18  A    between atoms: C23_43  and  C24_44 
REMARK   19  A    between atoms: C26_51  and  C27_52 
REMARK       I    between atoms: C27_52  and  N9_54 
ROOT
HETATM    1  C27 UNL     1      17.747 -59.083 -52.803  1.00  0.00     0.285 C 
HETATM    2  O10 UNL     1      16.616 -58.986 -53.413  1.00  0.00    -0.265 OA
HETATM    3  N9  UNL     1      18.220 -60.394 -52.683  1.00  0.00    -0.258 N 
ATOM      4  H9  UNL     1      19.107 -60.572 -52.213  1.00  0.00     0.181 HD
HETATM    5  C28 UNL     1      17.466 -61.491 -53.216  1.00  0.00     0.184 C 
HETATM    6  N10 UNL     1      16.840 -62.365 -53.641  1.00  0.00    -0.172 NA
ENDROOT
BRANCH   1   7
HETATM    7  C26 UNL     1      18.396 -57.881 -52.317  1.00  0.00     0.148 A 
HETATM    8  C22 UNL     1      17.961 -56.610 -52.687  1.00  0.00     0.103 A 
HETATM    9  C23 UNL     1      18.768 -55.706 -52.074  1.00  0.00     0.154 A 
HETATM   10  N7  UNL     1      19.683 -56.416 -51.342  1.00  0.00    -0.290 N 
HETATM   11  N8  UNL     1      19.444 -57.728 -51.499  1.00  0.00    -0.289 N 
ATOM     12  H7  UNL     1      20.425 -56.012 -50.771  1.00  0.00     0.187 HD
HETATM   13  C25 UNL     1      20.221 -58.793 -50.866  1.00  0.00     0.178 C 
BRANCH   8  14
HETATM   14  N6  UNL     1      16.845 -56.353 -53.589  1.00  0.00    -0.332 N 
ATOM     15  H6  UNL     1      15.895 -56.651 -53.368  1.00  0.00     0.168 HD
BRANCH  14  16
HETATM   16  C21 UNL     1      17.152 -55.671 -54.785  1.00  0.00     0.155 C 
BRANCH  16  17
HETATM   17  C20 UNL     1      16.495 -55.659 -55.946  1.00  0.00     0.071 A 
HETATM   18  C4  UNL     1      16.400 -56.778 -56.736  1.00  0.00    -0.007 A 
HETATM   19  C5  UNL     1      15.226 -57.016 -57.475  1.00  0.00    -0.002 A 
HETATM   20  C14 UNL     1      14.224 -56.054 -57.366  1.00  0.00     0.113 A 
HETATM   21  N2  UNL     1      14.300 -54.952 -56.631  1.00  0.00    -0.258 N 
HETATM   22  C15 UNL     1      13.296 -54.059 -56.617  1.00  0.00     0.346 A 
HETATM   23  C19 UNL     1      15.439 -54.728 -55.902  1.00  0.00     0.146 A 
HETATM   24  O6  UNL     1      12.273 -54.293 -57.287  1.00  0.00    -0.246 OA
HETATM   25  N3  UNL     1      13.394 -52.918 -55.881  1.00  0.00    -0.141 N 
HETATM   26  C16 UNL     1      14.508 -52.672 -55.154  1.00  0.00     0.686 A 
ATOM     27  H3  UNL     1      12.626 -52.247 -55.878  1.00  0.00     0.189 HD
HETATM   28  N5  UNL     1      15.471 -53.601 -55.210  1.00  0.00    -0.175 N 
ATOM     29  H5  UNL     1      16.314 -53.423 -54.663  1.00  0.00     0.186 HD
BRANCH  18  30
HETATM   30  C2  UNL     1      17.431 -57.569 -56.882  1.00  0.00    -0.076 C 
HETATM   31  C1  UNL     1      17.640 -58.967 -56.499  1.00  0.00     0.044 C 
HETATM   32  C3  UNL     1      18.429 -57.273 -58.070  1.00  0.00     0.044 C 
ENDBRANCH  18  30
BRANCH  19  33
HETATM   33  C6  UNL     1      14.966 -58.195 -58.303  1.00  0.00     0.314 C 
BRANCH  33  34
HETATM   34  N1  UNL     1      13.621 -58.752 -58.001  1.00  0.00     0.112 N 
HETATM   35  C7  UNL     1      12.737 -58.515 -59.096  1.00  0.00     0.312 C 
BRANCH  34  36
HETATM   36  C8  UNL     1      13.697 -60.070 -57.525  1.00  0.00     0.290 C 
HETATM   37  C9  UNL     1      14.039 -60.127 -56.026  1.00  0.00     0.066 C 
BRANCH  36  38
HETATM   38  C10 UNL     1      14.647 -60.985 -58.189  1.00  0.00     0.303 C 
HETATM   39  O1  UNL     1      14.591 -61.169 -59.409  1.00  0.00    -0.262 OA
BRANCH  38  40
HETATM   40  O2  UNL     1      15.573 -61.609 -57.422  1.00  0.00    -0.317 OA
BRANCH  40  41
HETATM   41  C11 UNL     1      15.796 -62.927 -57.184  1.00  0.00     0.204 C 
BRANCH  41  42
HETATM   42  C12 UNL     1      14.708 -63.618 -56.442  1.00  0.00     0.191 C 
BRANCH  42  43
HETATM   43  O3  UNL     1      15.107 -64.048 -55.211  1.00  0.00    -0.399 OA
ATOM     44  H3  UNL     1      14.376 -64.294 -54.656  1.00  0.00     0.209 HD
ENDBRANCH  42  43
ENDBRANCH  41  42
ENDBRANCH  40  41
ENDBRANCH  38  40
ENDBRANCH  36  38
BRANCH  36  45
HETATM   45  C13 UNL     1      12.299 -60.701 -57.591  1.00  0.00     0.302 C 
BRANCH  45  46
HETATM   46  O4  UNL     1      11.862 -60.979 -56.286  1.00  0.00    -0.368 OA
ATOM     47  H4  UNL     1      11.139 -60.401 -56.074  1.00  0.00     0.212 HD
ENDBRANCH  45  46
BRANCH  45  48
HETATM   48  O5  UNL     1      12.275 -61.902 -58.257  1.00  0.00    -0.368 OA
ATOM     49  H5  UNL     1      11.610 -62.498 -57.936  1.00  0.00     0.212 HD
ENDBRANCH  45  48
ENDBRANCH  36  45
ENDBRANCH  34  36
ENDBRANCH  33  34
ENDBRANCH  19  33
BRANCH  26  50
HETATM   50  N4  UNL     1      14.631 -51.492 -54.391  1.00  0.00    -0.214 N 
HETATM   51  C17 UNL     1      14.789 -50.922 -53.017  1.00  0.00     0.161 A 
HETATM   52  C18 UNL     1      14.713 -50.062 -54.242  1.00  0.00     0.161 A 
ENDBRANCH  26  50
ENDBRANCH  16  17
BRANCH  16  53
HETATM   53  O7  UNL     1      18.341 -54.877 -54.716  1.00  0.00    -0.345 OA
ATOM     54  H7  UNL     1      19.043 -55.110 -55.312  1.00  0.00     0.219 HD
ENDBRANCH  16  53
ENDBRANCH  14  16
ENDBRANCH   8  14
BRANCH   9  55
HETATM   55  C24 UNL     1      18.724 -54.250 -52.123  1.00  0.00     0.230 C 
HETATM   56  O8  UNL     1      19.807 -53.629 -52.282  1.00  0.00    -0.643 OA
HETATM   57  O9  UNL     1      17.592 -53.520 -52.007  1.00  0.00    -0.643 OA
ENDBRANCH   9  55
ENDBRANCH   1   7
TORSDOF 19
ENDMDL
MODEL 3
REMARK VINA RESULT: -7.899735514      8.051     12.788
REMARK  19 active torsions:
REMARK  status: ('A' for Active; 'I' for Inactive)
REMARK    1  A    between atoms: C2_2  and  C4_4 
REMARK    2  A    between atoms: C5_5  and  C6_6 
REMARK    3  A    between atoms: C6_6  and  N1_7 
REMARK    4  A    between atoms: N1_7  and  C8_9 
REMARK    5  A    between atoms: C8_9  and  C10_11 
REMARK    6  A    between atoms: C8_9  and  C13_18 
REMARK    7  A    between atoms: C10_11  and  O2_13 
REMARK    8  A    between atoms: O2_13  and  C11_14 
REMARK    9  A    between atoms: C11_14  and  C12_15 
REMARK   10  A    between atoms: C12_15  and  O3_16 
REMARK   11  A    between atoms: C13_18  and  O4_19 
REMARK   12  A    between atoms: C13_18  and  O5_21 
REMARK   13  A    between atoms: C16_29  and  N4_30 
REMARK   14  A    between atoms: C20_36  and  C21_37 
REMARK   15  A    between atoms: C21_37  and  O7_38 
REMARK   16  A    between atoms: C21_37  and  N6_40 
REMARK   17  A    between atoms: N6_40  and  C22_42 
REMARK   18  A    between atoms: C23_43  and  C24_44 
REMARK   19  A    between atoms: C26_51  and  C27_52 
REMARK       I    between atoms: C27_52  and  N9_54 
ROOT
HETATM    1  C27 UNL     1      27.697 -51.039 -50.550  1.00  0.00     0.285 C 
HETATM    2  O10 UNL     1      27.834 -50.450 -49.412  1.00  0.00    -0.265 OA
HETATM    3  N9  UNL     1      27.926 -52.418 -50.508  1.00  0.00    -0.258 N 
ATOM      4  H9  UNL     1      27.842 -52.971 -51.361  1.00  0.00     0.181 HD
HETATM    5  C28 UNL     1      28.278 -53.061 -49.276  1.00  0.00     0.184 C 
HETATM    6  N10 UNL     1      28.572 -53.562 -48.277  1.00  0.00    -0.172 NA
ENDROOT
BRANCH   1   7
HETATM    7  C26 UNL     1      27.335 -50.255 -51.714  1.00  0.00     0.148 A 
HETATM    8  C22 UNL     1      26.050 -49.749 -51.891  1.00  0.00     0.103 A 
HETATM    9  C23 UNL     1      26.033 -49.071 -53.067  1.00  0.00     0.154 A 
HETATM   10  N7  UNL     1      27.291 -49.163 -53.601  1.00  0.00    -0.290 N 
HETATM   11  N8  UNL     1      28.066 -49.880 -52.772  1.00  0.00    -0.289 N 
ATOM     12  H7  UNL     1      27.591 -48.752 -54.485  1.00  0.00     0.187 HD
HETATM   13  C25 UNL     1      29.476 -50.187 -53.012  1.00  0.00     0.178 C 
BRANCH   8  14
HETATM   14  N6  UNL     1      24.949 -49.956 -50.957  1.00  0.00    -0.332 N 
ATOM     15  H6  UNL     1      24.307 -50.743 -51.049  1.00  0.00     0.168 HD
BRANCH  14  16
HETATM   16  C21 UNL     1      24.823 -49.007 -49.920  1.00  0.00     0.155 C 
BRANCH  16  17
HETATM   17  C20 UNL     1      23.904 -48.924 -48.956  1.00  0.00     0.071 A 
HETATM   18  C4  UNL     1      22.560 -48.975 -49.230  1.00  0.00    -0.007 A 
HETATM   19  C5  UNL     1      21.684 -49.601 -48.323  1.00  0.00    -0.002 A 
HETATM   20  C14 UNL     1      22.261 -50.118 -47.166  1.00  0.00     0.113 A 
HETATM   21  N2  UNL     1      23.552 -50.059 -46.864  1.00  0.00    -0.258 N 
HETATM   22  C15 UNL     1      24.014 -50.552 -45.703  1.00  0.00     0.346 A 
HETATM   23  C19 UNL     1      24.406 -49.461 -47.753  1.00  0.00     0.146 A 
HETATM   24  O6  UNL     1      23.214 -51.092 -44.917  1.00  0.00    -0.246 OA
HETATM   25  N3  UNL     1      25.336 -50.463 -45.390  1.00  0.00    -0.141 N 
HETATM   26  C16 UNL     1      26.200 -49.876 -46.249  1.00  0.00     0.686 A 
ATOM     27  H3  UNL     1      25.676 -50.840 -44.505  1.00  0.00     0.189 HD
HETATM   28  N5  UNL     1      25.677 -49.406 -47.390  1.00  0.00    -0.175 N 
ATOM     29  H5  UNL     1      26.322 -48.962 -48.043  1.00  0.00     0.186 HD
BRANCH  18  30
HETATM   30  C2  UNL     1      22.079 -48.359 -50.278  1.00  0.00    -0.076 C 
HETATM   31  C1  UNL     1      21.376 -48.864 -51.460  1.00  0.00     0.044 C 
HETATM   32  C3  UNL     1      21.664 -46.843 -50.120  1.00  0.00     0.044 C 
ENDBRANCH  18  30
BRANCH  19  33
HETATM   33  C6  UNL     1      20.244 -49.783 -48.519  1.00  0.00     0.314 C 
BRANCH  33  34
HETATM   34  N1  UNL     1      19.823 -51.127 -48.041  1.00  0.00     0.112 N 
HETATM   35  C7  UNL     1      18.749 -51.000 -47.112  1.00  0.00     0.312 C 
BRANCH  34  36
HETATM   36  C8  UNL     1      19.637 -52.023 -49.104  1.00  0.00     0.290 C 
HETATM   37  C9  UNL     1      18.597 -51.516 -50.118  1.00  0.00     0.066 C 
BRANCH  36  38
HETATM   38  C10 UNL     1      19.232 -53.405 -48.772  1.00  0.00     0.303 C 
HETATM   39  O1  UNL     1      19.391 -53.847 -47.630  1.00  0.00    -0.262 OA
BRANCH  38  40
HETATM   40  O2  UNL     1      18.686 -54.163 -49.753  1.00  0.00    -0.317 OA
BRANCH  40  41
HETATM   41  C11 UNL     1      18.795 -55.488 -50.024  1.00  0.00     0.204 C 
BRANCH  41  42
HETATM   42  C12 UNL     1      19.480 -55.807 -51.306  1.00  0.00     0.191 C 
BRANCH  42  43
HETATM   43  O3  UNL     1      19.877 -54.688 -51.978  1.00  0.00    -0.399 OA
ATOM     44  H3  UNL     1      20.463 -54.885 -52.699  1.00  0.00     0.209 HD
ENDBRANCH  42  43
ENDBRANCH  41  42
ENDBRANCH  40  41
ENDBRANCH  38  40
ENDBRANCH  36  38
BRANCH  36  45
HETATM   45  C13 UNL     1      20.929 -52.089 -49.928  1.00  0.00     0.302 C 
BRANCH  45  46
HETATM   46  O4  UNL     1      20.599 -52.120 -51.293  1.00  0.00    -0.368 OA
ATOM     47  H4  UNL     1      20.085 -52.899 -51.468  1.00  0.00     0.212 HD
ENDBRANCH  45  46
BRANCH  45  48
HETATM   48  O5  UNL     1      21.666 -53.226 -49.697  1.00  0.00    -0.368 OA
ATOM     49  H5  UNL     1      22.604 -53.077 -49.715  1.00  0.00     0.212 HD
ENDBRANCH  45  48
ENDBRANCH  36  45
ENDBRANCH  34  36
ENDBRANCH  33  34
ENDBRANCH  19  33
BRANCH  26  50
HETATM   50  N4  UNL     1      27.572 -49.768 -45.941  1.00  0.00    -0.214 N 
HETATM   51  C17 UNL     1      28.864 -50.506 -45.784  1.00  0.00     0.161 A 
HETATM   52  C18 UNL     1      28.752 -49.025 -45.580  1.00  0.00     0.161 A 
ENDBRANCH  26  50
ENDBRANCH  16  17
BRANCH  16  53
HETATM   53  O7  UNL     1      25.843 -48.005 -49.918  1.00  0.00    -0.345 OA
ATOM     54  H7  UNL     1      25.554 -47.104 -50.007  1.00  0.00     0.219 HD
ENDBRANCH  16  53
ENDBRANCH  14  16
ENDBRANCH   8  14
BRANCH   9  55
HETATM   55  C24 UNL     1      24.937 -48.347 -53.699  1.00  0.00     0.230 C 
HETATM   56  O8  UNL     1      23.831 -48.935 -53.820  1.00  0.00    -0.643 OA
HETATM   57  O9  UNL     1      25.031 -47.082 -54.166  1.00  0.00    -0.643 OA
ENDBRANCH   9  55
ENDBRANCH   1   7
TORSDOF 19
ENDMDL
MODEL 4
REMARK VINA RESULT: -7.841417820      2.551      9.002
REMARK  19 active torsions:
REMARK  status: ('A' for Active; 'I' for Inactive)
REMARK    1  A    between atoms: C2_2  and  C4_4 
REMARK    2  A    between atoms: C5_5  and  C6_6 
REMARK    3  A    between atoms: C6_6  and  N1_7 
REMARK    4  A    between atoms: N1_7  and  C8_9 
REMARK    5  A    between atoms: C8_9  and  C10_11 
REMARK    6  A    between atoms: C8_9  and  C13_18 
REMARK    7  A    between atoms: C10_11  and  O2_13 
REMARK    8  A    between atoms: O2_13  and  C11_14 
REMARK    9  A    between atoms: C11_14  and  C12_15 
REMARK   10  A    between atoms: C12_15  and  O3_16 
REMARK   11  A    between atoms: C13_18  and  O4_19 
REMARK   12  A    between atoms: C13_18  and  O5_21 
REMARK   13  A    between atoms: C16_29  and  N4_30 
REMARK   14  A    between atoms: C20_36  and  C21_37 
REMARK   15  A    between atoms: C21_37  and  O7_38 
REMARK   16  A    between atoms: C21_37  and  N6_40 
REMARK   17  A    between atoms: N6_40  and  C22_42 
REMARK   18  A    between atoms: C23_43  and  C24_44 
REMARK   19  A    between atoms: C26_51  and  C27_52 
REMARK       I    between atoms: C27_52  and  N9_54 
ROOT
HETATM    1  C27 UNL     1      12.506 -55.100 -57.890  1.00  0.00     0.285 C 
HETATM    2  O10 UNL     1      13.499 -54.529 -57.299  1.00  0.00    -0.265 OA
HETATM    3  N9  UNL     1      11.275 -54.476 -57.668  1.00  0.00    -0.258 N 
ATOM      4  H9  UNL     1      10.430 -54.856 -58.094  1.00  0.00     0.181 HD
HETATM    5  C28 UNL     1      11.191 -53.305 -56.846  1.00  0.00     0.184 C 
HETATM    6  N10 UNL     1      11.138 -52.368 -56.170  1.00  0.00    -0.172 NA
ENDROOT
BRANCH   1   7
HETATM    7  C26 UNL     1      12.746 -56.283 -58.693  1.00  0.00     0.148 A 
HETATM    8  C22 UNL     1      13.572 -57.315 -58.255  1.00  0.00     0.103 A 
HETATM    9  C23 UNL     1      13.593 -58.265 -59.225  1.00  0.00     0.154 A 
HETATM   10  N7  UNL     1      12.791 -57.818 -60.242  1.00  0.00    -0.290 N 
HETATM   11  N8  UNL     1      12.287 -56.620 -59.905  1.00  0.00    -0.289 N 
ATOM     12  H7  UNL     1      12.608 -58.315 -61.113  1.00  0.00     0.187 HD
HETATM   13  C25 UNL     1      11.385 -55.834 -60.746  1.00  0.00     0.178 C 
BRANCH   8  14
HETATM   14  N6  UNL     1      14.280 -57.316 -56.980  1.00  0.00    -0.332 N 
ATOM     15  H6  UNL     1      13.790 -57.425 -56.093  1.00  0.00     0.168 HD
BRANCH  14  16
HETATM   16  C21 UNL     1      15.682 -57.158 -57.043  1.00  0.00     0.155 C 
BRANCH  16  17
HETATM   17  C20 UNL     1      16.594 -57.301 -56.081  1.00  0.00     0.071 A 
HETATM   18  C4  UNL     1      16.822 -56.322 -55.147  1.00  0.00    -0.007 A 
HETATM   19  C5  UNL     1      17.156 -56.677 -53.827  1.00  0.00    -0.002 A 
HETATM   20  C14 UNL     1      17.257 -58.040 -53.562  1.00  0.00     0.113 A 
HETATM   21  N2  UNL     1      17.067 -59.007 -54.452  1.00  0.00    -0.258 N 
HETATM   22  C15 UNL     1      17.224 -60.298 -54.114  1.00  0.00     0.346 A 
HETATM   23  C19 UNL     1      16.730 -58.660 -55.734  1.00  0.00     0.146 A 
HETATM   24  O6  UNL     1      17.528 -60.581 -52.941  1.00  0.00    -0.246 OA
HETATM   25  N3  UNL     1      17.053 -61.281 -55.040  1.00  0.00    -0.141 N 
HETATM   26  C16 UNL     1      16.722 -60.966 -56.313  1.00  0.00     0.686 A 
ATOM     27  H3  UNL     1      17.175 -62.258 -54.773  1.00  0.00     0.189 HD
HETATM   28  N5  UNL     1      16.579 -59.662 -56.584  1.00  0.00    -0.175 N 
ATOM     29  H5  UNL     1      16.329 -59.417 -57.542  1.00  0.00     0.186 HD
BRANCH  18  30
HETATM   30  C2  UNL     1      16.830 -55.063 -55.503  1.00  0.00    -0.076 C 
HETATM   31  C1  UNL     1      16.068 -53.913 -55.010  1.00  0.00     0.044 C 
HETATM   32  C3  UNL     1      18.148 -54.485 -56.153  1.00  0.00     0.044 C 
ENDBRANCH  18  30
BRANCH  19  33
HETATM   33  C6  UNL     1      17.363 -55.740 -52.720  1.00  0.00     0.314 C 
BRANCH  33  34
HETATM   34  N1  UNL     1      18.788 -55.748 -52.295  1.00  0.00     0.112 N 
HETATM   35  C7  UNL     1      19.419 -54.528 -52.681  1.00  0.00     0.312 C 
BRANCH  34  36
HETATM   36  C8  UNL     1      18.931 -56.136 -50.954  1.00  0.00     0.290 C 
HETATM   37  C9  UNL     1      17.672 -55.833 -50.123  1.00  0.00     0.066 C 
BRANCH  36  38
HETATM   38  C10 UNL     1      20.062 -55.567 -50.193  1.00  0.00     0.303 C 
HETATM   39  O1  UNL     1      21.171 -56.109 -50.219  1.00  0.00    -0.262 OA
BRANCH  38  40
HETATM   40  O2  UNL     1      19.842 -54.441 -49.472  1.00  0.00    -0.317 OA
BRANCH  40  41
HETATM   41  C11 UNL     1      20.581 -53.840 -48.506  1.00  0.00     0.204 C 
BRANCH  41  42
HETATM   42  C12 UNL     1      19.876 -53.648 -47.211  1.00  0.00     0.191 C 
BRANCH  42  43
HETATM   43  O3  UNL     1      18.888 -54.568 -47.013  1.00  0.00    -0.399 OA
ATOM     44  H3  UNL     1      18.081 -54.175 -46.703  1.00  0.00     0.209 HD
ENDBRANCH  42  43
ENDBRANCH  41  42
ENDBRANCH  40  41
ENDBRANCH  38  40
ENDBRANCH  36  38
BRANCH  36  45
HETATM   45  C13 UNL     1      19.034 -57.666 -50.891  1.00  0.00     0.302 C 
BRANCH  45  46
HETATM   46  O4  UNL     1      19.344 -58.048 -49.576  1.00  0.00    -0.368 OA
ATOM     47  H4  UNL     1      20.145 -57.614 -49.309  1.00  0.00     0.212 HD
ENDBRANCH  45  46
BRANCH  45  48
HETATM   48  O5  UNL     1      20.040 -58.178 -51.675  1.00  0.00    -0.368 OA
ATOM     49  H5  UNL     1      20.902 -57.857 -51.439  1.00  0.00     0.212 HD
ENDBRANCH  45  48
ENDBRANCH  36  45
ENDBRANCH  34  36
ENDBRANCH  33  34
ENDBRANCH  19  33
BRANCH  26  50
HETATM   50  N4  UNL     1      16.547 -61.970 -57.288  1.00  0.00    -0.214 N 
HETATM   51  C17 UNL     1      15.646 -63.046 -57.805  1.00  0.00     0.161 A 
HETATM   52  C18 UNL     1      16.964 -62.726 -58.441  1.00  0.00     0.161 A 
ENDBRANCH  26  50
ENDBRANCH  16  17
BRANCH  16  53
HETATM   53  O7  UNL     1      16.171 -56.798 -58.339  1.00  0.00    -0.345 OA
ATOM     54  H7  UNL     1      15.933 -55.935 -58.658  1.00  0.00     0.219 HD
ENDBRANCH  16  53
ENDBRANCH  14  16
ENDBRANCH   8  14
BRANCH   9  55
HETATM   55  C24 UNL     1      14.293 -59.543 -59.249  1.00  0.00     0.230 C 
HETATM   56  O8  UNL     1      13.634 -60.585 -58.999  1.00  0.00    -0.643 OA
HETATM   57  O9  UNL     1      15.611 -59.683 -59.520  1.00  0.00    -0.643 OA
ENDBRANCH   9  55
ENDBRANCH   1   7
TORSDOF 19
ENDMDL
MODEL 5
REMARK VINA RESULT: -7.827785296      2.442      6.028
REMARK  19 active torsions:
REMARK  status: ('A' for Active; 'I' for Inactive)
REMARK    1  A    between atoms: C2_2  and  C4_4 
REMARK    2  A    between atoms: C5_5  and  C6_6 
REMARK    3  A    between atoms: C6_6  and  N1_7 
REMARK    4  A    between atoms: N1_7  and  C8_9 
REMARK    5  A    between atoms: C8_9  and  C10_11 
REMARK    6  A    between atoms: C8_9  and  C13_18 
REMARK    7  A    between atoms: C10_11  and  O2_13 
REMARK    8  A    between atoms: O2_13  and  C11_14 
REMARK    9  A    between atoms: C11_14  and  C12_15 
REMARK   10  A    between atoms: C12_15  and  O3_16 
REMARK   11  A    between atoms: C13_18  and  O4_19 
REMARK   12  A    between atoms: C13_18  and  O5_21 
REMARK   13  A    between atoms: C16_29  and  N4_30 
REMARK   14  A    between atoms: C20_36  and  C21_37 
REMARK   15  A    between atoms: C21_37  and  O7_38 
REMARK   16  A    between atoms: C21_37  and  N6_40 
REMARK   17  A    between atoms: N6_40  and  C22_42 
REMARK   18  A    between atoms: C23_43  and  C24_44 
REMARK   19  A    between atoms: C26_51  and  C27_52 
REMARK       I    between atoms: C27_52  and  N9_54 
ROOT
HETATM    1  C27 UNL     1      15.603 -62.261 -55.834  1.00  0.00     0.285 C 
HETATM    2  O10 UNL     1      15.945 -63.110 -56.741  1.00  0.00    -0.265 OA
HETATM    3  N9  UNL     1      14.366 -61.650 -56.063  1.00  0.00    -0.258 N 
ATOM      4  H9  UNL     1      14.010 -60.962 -55.400  1.00  0.00     0.181 HD
HETATM    5  C28 UNL     1      13.593 -61.984 -57.224  1.00  0.00     0.184 C 
HETATM    6  N10 UNL     1      12.988 -62.255 -58.171  1.00  0.00    -0.172 NA
ENDROOT
BRANCH   1   7
HETATM    7  C26 UNL     1      16.490 -62.028 -54.712  1.00  0.00     0.148 A 
HETATM    8  C22 UNL     1      17.459 -61.028 -54.735  1.00  0.00     0.103 A 
HETATM    9  C23 UNL     1      18.120 -61.068 -53.550  1.00  0.00     0.154 A 
HETATM   10  N7  UNL     1      17.562 -62.079 -52.814  1.00  0.00    -0.290 N 
HETATM   11  N8  UNL     1      16.579 -62.649 -53.529  1.00  0.00    -0.289 N 
ATOM     12  H7  UNL     1      17.848 -62.354 -51.874  1.00  0.00     0.187 HD
HETATM   13  C25 UNL     1      15.756 -63.765 -53.064  1.00  0.00     0.178 C 
BRANCH   8  14
HETATM   14  N6  UNL     1      17.693 -60.136 -55.866  1.00  0.00    -0.332 N 
ATOM     15  H6  UNL     1      18.390 -60.344 -56.580  1.00  0.00     0.168 HD
BRANCH  14  16
HETATM   16  C21 UNL     1      16.900 -58.969 -55.916  1.00  0.00     0.155 C 
BRANCH  16  17
HETATM   17  C20 UNL     1      17.050 -57.876 -56.664  1.00  0.00     0.071 A 
HETATM   18  C4  UNL     1      16.615 -57.822 -57.964  1.00  0.00    -0.007 A 
HETATM   19  C5  UNL     1      16.100 -56.619 -58.482  1.00  0.00    -0.002 A 
HETATM   20  C14 UNL     1      16.093 -55.528 -57.615  1.00  0.00     0.113 A 
HETATM   21  N2  UNL     1      16.532 -55.546 -56.362  1.00  0.00    -0.258 N 
HETATM   22  C15 UNL     1      16.522 -54.433 -55.611  1.00  0.00     0.346 A 
HETATM   23  C19 UNL     1      17.021 -56.721 -55.856  1.00  0.00     0.146 A 
HETATM   24  O6  UNL     1      16.068 -53.380 -56.099  1.00  0.00    -0.246 OA
HETATM   25  N3  UNL     1      16.999 -54.453 -54.336  1.00  0.00    -0.141 N 
HETATM   26  C16 UNL     1      17.489 -55.600 -53.812  1.00  0.00     0.686 A 
ATOM     27  H3  UNL     1      16.986 -53.602 -53.774  1.00  0.00     0.189 HD
HETATM   28  N5  UNL     1      17.469 -56.675 -54.613  1.00  0.00    -0.175 N 
ATOM     29  H5  UNL     1      17.836 -57.543 -54.224  1.00  0.00     0.186 HD
BRANCH  18  30
HETATM   30  C2  UNL     1      16.769 -58.855 -58.752  1.00  0.00    -0.076 C 
HETATM   31  C1  UNL     1      15.919 -60.024 -58.992  1.00  0.00     0.044 C 
HETATM   32  C3  UNL     1      17.665 -58.676 -60.040  1.00  0.00     0.044 C 
ENDBRANCH  18  30
BRANCH  19  33
HETATM   33  C6  UNL     1      15.545 -56.438 -59.825  1.00  0.00     0.314 C 
BRANCH  33  34
HETATM   34  N1  UNL     1      14.407 -55.481 -59.789  1.00  0.00     0.112 N 
HETATM   35  C7  UNL     1      14.606 -54.450 -60.754  1.00  0.00     0.312 C 
BRANCH  34  36
HETATM   36  C8  UNL     1      13.169 -56.141 -59.816  1.00  0.00     0.290 C 
HETATM   37  C9  UNL     1      12.237 -55.584 -60.906  1.00  0.00     0.066 C 
BRANCH  36  38
HETATM   38  C10 UNL     1      12.371 -56.152 -58.573  1.00  0.00     0.303 C 
HETATM   39  O1  UNL     1      12.886 -55.838 -57.495  1.00  0.00    -0.262 OA
BRANCH  38  40
HETATM   40  O2  UNL     1      11.068 -56.515 -58.654  1.00  0.00    -0.317 OA
BRANCH  40  41
HETATM   41  C11 UNL     1      10.272 -57.187 -57.784  1.00  0.00     0.204 C 
BRANCH  41  42
HETATM   42  C12 UNL     1      10.245 -58.661 -57.975  1.00  0.00     0.191 C 
BRANCH  42  43
HETATM   43  O3  UNL     1      10.327 -59.019 -59.289  1.00  0.00    -0.399 OA
ATOM     44  H3  UNL     1      11.223 -59.034 -59.607  1.00  0.00     0.209 HD
ENDBRANCH  42  43
ENDBRANCH  41  42
ENDBRANCH  40  41
ENDBRANCH  38  40
ENDBRANCH  36  38
BRANCH  36  45
HETATM   45  C13 UNL     1      13.393 -57.595 -60.253  1.00  0.00     0.302 C 
BRANCH  45  46
HETATM   46  O4  UNL     1      12.488 -57.906 -61.281  1.00  0.00    -0.368 OA
ATOM     47  H4  UNL     1      11.871 -58.554 -60.963  1.00  0.00     0.212 HD
ENDBRANCH  45  46
BRANCH  45  48
HETATM   48  O5  UNL     1      13.153 -58.508 -59.255  1.00  0.00    -0.368 OA
ATOM     49  H5  UNL     1      13.928 -58.983 -58.984  1.00  0.00     0.212 HD
ENDBRANCH  45  48
ENDBRANCH  36  45
ENDBRANCH  34  36
ENDBRANCH  33  34
ENDBRANCH  19  33
BRANCH  26  50
HETATM   50  N4  UNL     1      17.993 -55.641 -52.496  1.00  0.00    -0.214 N 
HETATM   51  C17 UNL     1      17.798 -56.181 -51.115  1.00  0.00     0.161 A 
HETATM   52  C18 UNL     1      18.950 -55.293 -51.477  1.00  0.00     0.161 A 
ENDBRANCH  26  50
ENDBRANCH  16  17
BRANCH  16  53
HETATM   53  O7  UNL     1      15.775 -58.990 -55.032  1.00  0.00    -0.345 OA
ATOM     54  H7  UNL     1      15.946 -58.780 -54.121  1.00  0.00     0.219 HD
ENDBRANCH  16  53
ENDBRANCH  14  16
ENDBRANCH   8  14
BRANCH   9  55
HETATM   55  C24 UNL     1      19.209 -60.224 -53.073  1.00  0.00     0.230 C 
HETATM   56  O8  UNL     1      20.389 -60.576 -53.333  1.00  0.00    -0.643 OA
HETATM   57  O9  UNL     1      19.034 -59.085 -52.366  1.00  0.00    -0.643 OA
ENDBRANCH   9  55
ENDBRANCH   1   7
TORSDOF 19
ENDMDL
