MODEL 1
REMARK VINA RESULT: -6.509701141      0.000      0.000
REMARK  8 active torsions:
REMARK  status: ('A' for Active; 'I' for Inactive)
REMARK    1  A    between atoms: C3_4  and  O2_5 
REMARK    2  A    between atoms: O2_5  and  C4_6 
REMARK    3  A    between atoms: C5_9  and  O5_10 
REMARK    4  A    between atoms: C6_12  and  O6_13 
REMARK    5  A    between atoms: C7_15  and  O7_16 
REMARK    6  A    between atoms: C8_18  and  O8_19 
REMARK    7  A    between atoms: C9_21  and  O9_22 
REMARK    8  A    between atoms: C10_24  and  O10_25 
ROOT
HETATM    1  C1  UNL     1      32.006  67.069  20.892  1.00  0.00     0.042 C 
HETATM    2  C2  UNL     1      33.185  67.857  20.323  1.00  0.00     0.152 C 
HETATM    3  O1  UNL     1      33.514  67.492  19.064  1.00  0.00    -0.351 OA
HETATM    4  C3  UNL     1      34.697  66.848  18.866  1.00  0.00     0.294 C 
HETATM    5  C8  UNL     1      35.161  65.960  19.971  1.00  0.00     0.204 C 
HETATM    6  C9  UNL     1      35.118  66.610  21.330  1.00  0.00     0.183 C 
HETATM    7  C10 UNL     1      34.297  67.867  21.322  1.00  0.00     0.178 C 
ENDROOT
BRANCH   4   8
HETATM    8  O2  UNL     1      35.683  67.803  18.632  1.00  0.00    -0.323 OA
BRANCH   8   9
HETATM    9  C4  UNL     1      36.008  67.841  17.300  1.00  0.00     0.331 C 
HETATM   10  O3  UNL     1      35.307  66.800  16.662  1.00  0.00    -0.203 OA
HETATM   11  O4  UNL     1      34.796  67.154  15.528  1.00  0.00    -0.203 OA
HETATM   12  C5  UNL     1      35.715  67.734  14.653  1.00  0.00     0.325 C 
HETATM   13  C6  UNL     1      36.188  69.070  15.209  1.00  0.00     0.209 C 
HETATM   14  C7  UNL     1      35.648  69.151  16.631  1.00  0.00     0.210 C 
BRANCH  12  15
HETATM   15  O5  UNL     1      34.983  68.030  13.479  1.00  0.00    -0.366 OA
ATOM     16  H5  UNL     1      35.334  67.453  12.809  1.00  0.00     0.212 HD
ENDBRANCH  12  15
BRANCH  13  17
HETATM   17  O6  UNL     1      37.583  68.986  15.334  1.00  0.00    -0.388 OA
ATOM     18  H6  UNL     1      37.888  68.422  14.634  1.00  0.00     0.210 HD
ENDBRANCH  13  17
BRANCH  14  19
HETATM   19  O7  UNL     1      34.269  69.339  16.566  1.00  0.00    -0.388 OA
ATOM     20  H7  UNL     1      34.039  70.098  16.043  1.00  0.00     0.210 HD
ENDBRANCH  14  19
ENDBRANCH   8   9
ENDBRANCH   4   8
BRANCH   5  21
HETATM   21  O8  UNL     1      34.447  64.751  19.949  1.00  0.00    -0.388 OA
ATOM     22  H8  UNL     1      34.527  64.342  19.095  1.00  0.00     0.210 HD
ENDBRANCH   5  21
BRANCH   6  23
HETATM   23  O9  UNL     1      36.395  66.929  21.787  1.00  0.00    -0.390 OA
ATOM     24  H9  UNL     1      36.839  66.168  22.142  1.00  0.00     0.210 HD
ENDBRANCH   6  23
BRANCH   7  25
HETATM   25  O10 UNL     1      35.047  69.014  21.176  1.00  0.00    -0.390 OA
ATOM     26  H10 UNL     1      35.538  68.979  20.364  1.00  0.00     0.210 HD
ENDBRANCH   7  25
TORSDOF 8
ENDMDL
MODEL 2
REMARK VINA RESULT: -6.507761739      1.391      2.913
REMARK  8 active torsions:
REMARK  status: ('A' for Active; 'I' for Inactive)
REMARK    1  A    between atoms: C3_4  and  O2_5 
REMARK    2  A    between atoms: O2_5  and  C4_6 
REMARK    3  A    between atoms: C5_9  and  O5_10 
REMARK    4  A    between atoms: C6_12  and  O6_13 
REMARK    5  A    between atoms: C7_15  and  O7_16 
REMARK    6  A    between atoms: C8_18  and  O8_19 
REMARK    7  A    between atoms: C9_21  and  O9_22 
REMARK    8  A    between atoms: C10_24  and  O10_25 
ROOT
HETATM    1  C1  UNL     1      35.700  67.359  22.238  1.00  0.00     0.042 C 
HETATM    2  C2  UNL     1      35.764  66.858  20.796  1.00  0.00     0.152 C 
HETATM    3  O1  UNL     1      35.847  67.854  19.887  1.00  0.00    -0.351 OA
HETATM    4  C3  UNL     1      34.781  68.075  19.070  1.00  0.00     0.294 C 
HETATM    5  C8  UNL     1      33.435  67.799  19.649  1.00  0.00     0.204 C 
HETATM    6  C9  UNL     1      33.330  66.457  20.327  1.00  0.00     0.183 C 
HETATM    7  C10 UNL     1      34.681  65.852  20.578  1.00  0.00     0.178 C 
ENDROOT
BRANCH   4   8
HETATM    8  O2  UNL     1      34.933  67.293  17.929  1.00  0.00    -0.323 OA
BRANCH   8   9
HETATM    9  C4  UNL     1      34.719  68.043  16.800  1.00  0.00     0.331 C 
HETATM   10  O3  UNL     1      34.769  69.399  17.176  1.00  0.00    -0.203 OA
HETATM   11  O4  UNL     1      35.423  70.133  16.337  1.00  0.00    -0.203 OA
HETATM   12  C5  UNL     1      34.987  70.006  15.017  1.00  0.00     0.325 C 
HETATM   13  C6  UNL     1      35.290  68.606  14.505  1.00  0.00     0.209 C 
HETATM   14  C7  UNL     1      35.746  67.801  15.714  1.00  0.00     0.210 C 
BRANCH  12  15
HETATM   15  O5  UNL     1      35.797  70.889  14.265  1.00  0.00    -0.366 OA
ATOM     16  H5  UNL     1      35.585  70.715  13.355  1.00  0.00     0.212 HD
ENDBRANCH  12  15
BRANCH  13  17
HETATM   17  O6  UNL     1      34.066  68.043  14.111  1.00  0.00    -0.388 OA
ATOM     18  H6  UNL     1      34.264  67.392  13.449  1.00  0.00     0.210 HD
ENDBRANCH  13  17
BRANCH  14  19
HETATM   19  O7  UNL     1      37.011  68.251  16.088  1.00  0.00    -0.388 OA
ATOM     20  H7  UNL     1      37.693  67.640  15.835  1.00  0.00     0.210 HD
ENDBRANCH  14  19
ENDBRANCH   8   9
ENDBRANCH   4   8
BRANCH   5  21
HETATM   21  O8  UNL     1      33.054  68.846  20.504  1.00  0.00    -0.388 OA
ATOM     22  H8  UNL     1      33.038  68.542  21.404  1.00  0.00     0.210 HD
ENDBRANCH   5  21
BRANCH   6  23
HETATM   23  O9  UNL     1      32.585  65.556  19.569  1.00  0.00    -0.390 OA
ATOM     24  H9  UNL     1      31.675  65.540  19.842  1.00  0.00     0.210 HD
ENDBRANCH   6  23
BRANCH   7  25
HETATM   25  O10 UNL     1      35.067  64.949  19.611  1.00  0.00    -0.390 OA
ATOM     26  H10 UNL     1      35.437  65.410  18.867  1.00  0.00     0.210 HD
ENDBRANCH   7  25
TORSDOF 8
ENDMDL
MODEL 3
REMARK VINA RESULT: -6.484147209      1.346      5.741
REMARK  8 active torsions:
REMARK  status: ('A' for Active; 'I' for Inactive)
REMARK    1  A    between atoms: C3_4  and  O2_5 
REMARK    2  A    between atoms: O2_5  and  C4_6 
REMARK    3  A    between atoms: C5_9  and  O5_10 
REMARK    4  A    between atoms: C6_12  and  O6_13 
REMARK    5  A    between atoms: C7_15  and  O7_16 
REMARK    6  A    between atoms: C8_18  and  O8_19 
REMARK    7  A    between atoms: C9_21  and  O9_22 
REMARK    8  A    between atoms: C10_24  and  O10_25 
ROOT
HETATM    1  C1  UNL     1      34.946  71.486  15.221  1.00  0.00     0.042 C 
HETATM    2  C2  UNL     1      34.542  70.158  15.858  1.00  0.00     0.152 C 
HETATM    3  O1  UNL     1      35.310  69.817  16.917  1.00  0.00    -0.351 OA
HETATM    4  C3  UNL     1      36.146  68.749  16.792  1.00  0.00     0.294 C 
HETATM    5  C8  UNL     1      36.718  68.512  15.435  1.00  0.00     0.204 C 
HETATM    6  C9  UNL     1      35.692  68.530  14.332  1.00  0.00     0.183 C 
HETATM    7  C10 UNL     1      34.391  69.125  14.789  1.00  0.00     0.178 C 
ENDROOT
BRANCH   4   8
HETATM    8  O2  UNL     1      35.456  67.604  17.179  1.00  0.00    -0.323 OA
BRANCH   8   9
HETATM    9  C4  UNL     1      35.698  67.321  18.500  1.00  0.00     0.331 C 
HETATM   10  O3  UNL     1      36.603  68.287  18.981  1.00  0.00    -0.203 OA
HETATM   11  O4  UNL     1      36.297  68.725  20.159  1.00  0.00    -0.203 OA
HETATM   12  C5  UNL     1      36.109  67.714  21.104  1.00  0.00     0.325 C 
HETATM   13  C6  UNL     1      34.876  66.896  20.748  1.00  0.00     0.209 C 
HETATM   14  C7  UNL     1      34.451  67.352  19.359  1.00  0.00     0.210 C 
BRANCH  12  15
HETATM   15  O5  UNL     1      35.808  68.381  22.315  1.00  0.00    -0.366 OA
ATOM     16  H5  UNL     1      35.587  69.272  22.066  1.00  0.00     0.212 HD
ENDBRANCH  12  15
BRANCH  13  17
HETATM   17  O6  UNL     1      35.299  65.566  20.602  1.00  0.00    -0.388 OA
ATOM     18  H6  UNL     1      35.063  65.113  21.402  1.00  0.00     0.210 HD
ENDBRANCH  13  17
BRANCH  14  19
HETATM   19  O7  UNL     1      33.923  68.638  19.462  1.00  0.00    -0.388 OA
ATOM     20  H7  UNL     1      34.012  69.122  18.649  1.00  0.00     0.210 HD
ENDBRANCH  14  19
ENDBRANCH   8   9
ENDBRANCH   4   8
BRANCH   5  21
HETATM   21  O8  UNL     1      37.764  69.417  15.189  1.00  0.00    -0.388 OA
ATOM     22  H8  UNL     1      37.422  70.209  14.792  1.00  0.00     0.210 HD
ENDBRANCH   5  21
BRANCH   6  23
HETATM   23  O9  UNL     1      35.437  67.248  13.849  1.00  0.00    -0.390 OA
ATOM     24  H9  UNL     1      34.713  67.245  13.233  1.00  0.00     0.210 HD
ENDBRANCH   6  23
BRANCH   7  25
HETATM   25  O10 UNL     1      33.460  68.184  15.173  1.00  0.00    -0.390 OA
ATOM     26  H10 UNL     1      33.698  67.332  14.825  1.00  0.00     0.210 HD
ENDBRANCH   7  25
TORSDOF 8
ENDMDL
MODEL 4
REMARK VINA RESULT: -6.462919743      1.388      2.268
REMARK  8 active torsions:
REMARK  status: ('A' for Active; 'I' for Inactive)
REMARK    1  A    between atoms: C3_4  and  O2_5 
REMARK    2  A    between atoms: O2_5  and  C4_6 
REMARK    3  A    between atoms: C5_9  and  O5_10 
REMARK    4  A    between atoms: C6_12  and  O6_13 
REMARK    5  A    between atoms: C7_15  and  O7_16 
REMARK    6  A    between atoms: C8_18  and  O8_19 
REMARK    7  A    between atoms: C9_21  and  O9_22 
REMARK    8  A    between atoms: C10_24  and  O10_25 
ROOT
HETATM    1  C1  UNL     1      32.491  67.667  22.683  1.00  0.00     0.042 C 
HETATM    2  C2  UNL     1      33.747  67.708  21.815  1.00  0.00     0.152 C 
HETATM    3  O1  UNL     1      33.601  68.455  20.698  1.00  0.00    -0.351 OA
HETATM    4  C3  UNL     1      33.585  67.822  19.493  1.00  0.00     0.294 C 
HETATM    5  C8  UNL     1      32.993  66.452  19.473  1.00  0.00     0.204 C 
HETATM    6  C9  UNL     1      33.521  65.547  20.555  1.00  0.00     0.183 C 
HETATM    7  C10 UNL     1      34.253  66.315  21.618  1.00  0.00     0.178 C 
ENDROOT
BRANCH   4   8
HETATM    8  O2  UNL     1      34.892  67.737  19.023  1.00  0.00    -0.323 OA
BRANCH   8   9
HETATM    9  C4  UNL     1      34.993  68.302  17.778  1.00  0.00     0.331 C 
HETATM   10  O3  UNL     1      36.350  68.269  17.405  1.00  0.00    -0.203 OA
HETATM   11  O4  UNL     1      36.529  67.922  16.172  1.00  0.00    -0.203 OA
HETATM   12  C5  UNL     1      35.788  68.678  15.262  1.00  0.00     0.325 C 
HETATM   13  C6  UNL     1      34.303  68.405  15.448  1.00  0.00     0.209 C 
HETATM   14  C7  UNL     1      34.181  67.580  16.723  1.00  0.00     0.210 C 
BRANCH  12  15
HETATM   15  O5  UNL     1      36.128  68.172  13.985  1.00  0.00    -0.366 OA
ATOM     16  H5  UNL     1      35.475  68.521  13.391  1.00  0.00     0.212 HD
ENDBRANCH  12  15
BRANCH  13  17
HETATM   17  O6  UNL     1      33.695  69.637  15.731  1.00  0.00    -0.388 OA
ATOM     18  H6  UNL     1      34.181  70.299  15.253  1.00  0.00     0.210 HD
ENDBRANCH  13  17
BRANCH  14  19
HETATM   19  O7  UNL     1      34.679  66.304  16.469  1.00  0.00    -0.388 OA
ATOM     20  H7  UNL     1      33.983  65.662  16.389  1.00  0.00     0.210 HD
ENDBRANCH  14  19
ENDBRANCH   8   9
ENDBRANCH   4   8
BRANCH   5  21
HETATM   21  O8  UNL     1      31.591  66.534  19.501  1.00  0.00    -0.388 OA
ATOM     22  H8  UNL     1      31.238  65.875  20.086  1.00  0.00     0.210 HD
ENDBRANCH   5  21
BRANCH   6  23
HETATM   23  O9  UNL     1      34.389  64.585  20.041  1.00  0.00    -0.390 OA
ATOM     24  H9  UNL     1      34.319  63.764  20.513  1.00  0.00     0.210 HD
ENDBRANCH   6  23
BRANCH   7  25
HETATM   25  O10 UNL     1      35.620  66.334  21.442  1.00  0.00    -0.390 OA
ATOM     26  H10 UNL     1      36.043  65.851  22.142  1.00  0.00     0.210 HD
ENDBRANCH   7  25
TORSDOF 8
ENDMDL
MODEL 5
REMARK VINA RESULT: -6.403209938      3.081      5.240
REMARK  8 active torsions:
REMARK  status: ('A' for Active; 'I' for Inactive)
REMARK    1  A    between atoms: C3_4  and  O2_5 
REMARK    2  A    between atoms: O2_5  and  C4_6 
REMARK    3  A    between atoms: C5_9  and  O5_10 
REMARK    4  A    between atoms: C6_12  and  O6_13 
REMARK    5  A    between atoms: C7_15  and  O7_16 
REMARK    6  A    between atoms: C8_18  and  O8_19 
REMARK    7  A    between atoms: C9_21  and  O9_22 
REMARK    8  A    between atoms: C10_24  and  O10_25 
ROOT
HETATM    1  C1  UNL     1      35.912  68.502  21.273  1.00  0.00     0.042 C 
HETATM    2  C2  UNL     1      34.683  68.098  20.459  1.00  0.00     0.152 C 
HETATM    3  O1  UNL     1      33.522  68.255  21.131  1.00  0.00    -0.351 OA
HETATM    4  C3  UNL     1      32.831  67.141  21.498  1.00  0.00     0.294 C 
HETATM    5  C8  UNL     1      33.646  65.935  21.827  1.00  0.00     0.204 C 
HETATM    6  C9  UNL     1      34.692  65.609  20.793  1.00  0.00     0.183 C 
HETATM    7  C10 UNL     1      34.919  66.754  19.848  1.00  0.00     0.178 C 
ENDROOT
BRANCH   4   8
HETATM    8  O2  UNL     1      31.956  66.807  20.468  1.00  0.00    -0.323 OA
BRANCH   8   9
HETATM    9  C4  UNL     1      31.254  67.911  20.057  1.00  0.00     0.331 C 
HETATM   10  O3  UNL     1      31.491  68.077  18.679  1.00  0.00    -0.203 OA
HETATM   11  O4  UNL     1      30.423  68.380  18.015  1.00  0.00    -0.203 OA
HETATM   12  C5  UNL     1      29.733  69.479  18.529  1.00  0.00     0.325 C 
HETATM   13  C6  UNL     1      29.159  69.135  19.896  1.00  0.00     0.209 C 
HETATM   14  C7  UNL     1      29.761  67.791  20.284  1.00  0.00     0.210 C 
BRANCH  12  15
HETATM   15  O5  UNL     1      28.625  69.665  17.669  1.00  0.00    -0.366 OA
ATOM     16  H5  UNL     1      28.958  70.162  16.931  1.00  0.00     0.212 HD
ENDBRANCH  12  15
BRANCH  13  17
HETATM   17  O6  UNL     1      29.686  70.066  20.804  1.00  0.00    -0.388 OA
ATOM     18  H6  UNL     1      29.070  70.787  20.848  1.00  0.00     0.210 HD
ENDBRANCH  13  17
BRANCH  14  19
HETATM   19  O7  UNL     1      29.192  66.807  19.476  1.00  0.00    -0.388 OA
ATOM     20  H7  UNL     1      28.259  66.944  19.357  1.00  0.00     0.210 HD
ENDBRANCH  14  19
ENDBRANCH   8   9
ENDBRANCH   4   8
BRANCH   5  21
HETATM   21  O8  UNL     1      34.203  66.066  23.109  1.00  0.00    -0.388 OA
ATOM     22  H8  UNL     1      33.532  66.318  23.732  1.00  0.00     0.210 HD
ENDBRANCH   5  21
BRANCH   6  23
HETATM   23  O9  UNL     1      34.338  64.490  20.041  1.00  0.00    -0.390 OA
ATOM     24  H9  UNL     1      33.398  64.438  19.915  1.00  0.00     0.210 HD
ENDBRANCH   6  23
BRANCH   7  25
HETATM   25  O10 UNL     1      34.212  66.645  18.670  1.00  0.00    -0.390 OA
ATOM     26  H10 UNL     1      33.498  67.271  18.662  1.00  0.00     0.210 HD
ENDBRANCH   7  25
TORSDOF 8
ENDMDL
