MODEL 1
REMARK VINA RESULT: -6.611456427      0.000      0.000
REMARK  8 active torsions:
REMARK  status: ('A' for Active; 'I' for Inactive)
REMARK    1  A    between atoms: O1_1  and  S1_3 
REMARK    2  A    between atoms: S1_3  and  C1_4 
REMARK    3  A    between atoms: C3_8  and  C4_9 
REMARK    4  A    between atoms: C5_10  and  O4_11 
REMARK    5  A    between atoms: C6_13  and  O5_14 
REMARK    6  A    between atoms: C7_16  and  O6_17 
REMARK    7  A    between atoms: C8_19  and  O7_20 
REMARK    8  A    between atoms: C9_22  and  O8_23 
ROOT
HETATM    1  C4  UNL     1      32.844  68.253  21.031  1.00  0.00     0.104 C 
HETATM    2  C5  UNL     1      33.788  67.678  20.016  1.00  0.00     0.161 C 
HETATM    3  C6  UNL     1      35.185  68.008  20.524  1.00  0.00     0.178 C 
HETATM    4  C7  UNL     1      35.410  67.535  21.932  1.00  0.00     0.180 C 
HETATM    5  C8  UNL     1      34.240  66.750  22.485  1.00  0.00     0.178 C 
HETATM    6  C9  UNL     1      32.939  67.486  22.312  1.00  0.00     0.161 C 
ENDROOT
BRANCH   1   7
HETATM    7  C3  UNL     1      31.437  68.392  20.542  1.00  0.00     0.275 C 
HETATM    8  O3  UNL     1      30.732  69.433  21.112  1.00  0.00    -0.336 OA
HETATM    9  C2  UNL     1      29.581  69.614  20.343  1.00  0.00     0.345 C 
HETATM   10  O2  UNL     1      28.830  68.462  20.211  1.00  0.00    -0.326 OA
HETATM   11  C1  UNL     1      29.572  67.333  19.933  1.00  0.00     0.357 C 
HETATM   12  O9  UNL     1      30.716  67.230  20.740  1.00  0.00    -0.319 OA
BRANCH  11  13
HETATM   13  S1  UNL     1      30.140  67.285  18.203  1.00  0.00     0.047 SA
BRANCH  13  14
HETATM   14  O1  UNL     1      31.263  66.018  17.944  1.00  0.00    -0.326 OA
ATOM     15  H1  UNL     1      30.870  65.295  17.469  1.00  0.00     0.228 HD
ENDBRANCH  13  14
ENDBRANCH  11  13
ENDBRANCH   1   7
BRANCH   2  16
HETATM   16  O4  UNL     1      33.611  66.327  19.791  1.00  0.00    -0.392 OA
ATOM     17  H4  UNL     1      34.295  65.932  19.263  1.00  0.00     0.210 HD
ENDBRANCH   2  16
BRANCH   6  18
HETATM   18  O8  UNL     1      32.836  68.377  23.390  1.00  0.00    -0.392 OA
ATOM     19  H8  UNL     1      33.250  69.200  23.155  1.00  0.00     0.210 HD
ENDBRANCH   6  18
BRANCH   3  20
HETATM   20  O5  UNL     1      35.248  69.411  20.548  1.00  0.00    -0.390 OA
ATOM     21  H5  UNL     1      35.906  69.643  19.904  1.00  0.00     0.210 HD
ENDBRANCH   3  20
BRANCH   5  22
HETATM   22  O7  UNL     1      34.490  66.636  23.863  1.00  0.00    -0.390 OA
ATOM     23  H7  UNL     1      35.318  66.174  23.929  1.00  0.00     0.210 HD
ENDBRANCH   5  22
BRANCH   4  24
HETATM   24  O6  UNL     1      36.537  66.704  21.934  1.00  0.00    -0.390 OA
ATOM     25  H6  UNL     1      37.091  66.960  21.206  1.00  0.00     0.210 HD
ENDBRANCH   4  24
TORSDOF 8
ENDMDL
MODEL 2
REMARK VINA RESULT: -6.346105195      2.669      3.892
REMARK  8 active torsions:
REMARK  status: ('A' for Active; 'I' for Inactive)
REMARK    1  A    between atoms: O1_1  and  S1_3 
REMARK    2  A    between atoms: S1_3  and  C1_4 
REMARK    3  A    between atoms: C3_8  and  C4_9 
REMARK    4  A    between atoms: C5_10  and  O4_11 
REMARK    5  A    between atoms: C6_13  and  O5_14 
REMARK    6  A    between atoms: C7_16  and  O6_17 
REMARK    7  A    between atoms: C8_19  and  O7_20 
REMARK    8  A    between atoms: C9_22  and  O8_23 
ROOT
HETATM    1  C4  UNL     1      34.230  67.589  20.358  1.00  0.00     0.104 C 
HETATM    2  C5  UNL     1      35.418  66.807  20.837  1.00  0.00     0.161 C 
HETATM    3  C6  UNL     1      35.538  67.114  22.324  1.00  0.00     0.178 C 
HETATM    4  C7  UNL     1      34.263  66.843  23.069  1.00  0.00     0.180 C 
HETATM    5  C8  UNL     1      33.187  66.229  22.198  1.00  0.00     0.178 C 
HETATM    6  C9  UNL     1      32.974  67.017  20.934  1.00  0.00     0.161 C 
ENDROOT
BRANCH   1   7
HETATM    7  C3  UNL     1      34.166  67.747  18.871  1.00  0.00     0.275 C 
HETATM    8  O3  UNL     1      32.888  67.865  18.363  1.00  0.00    -0.336 OA
HETATM    9  C2  UNL     1      33.015  68.308  17.045  1.00  0.00     0.345 C 
HETATM   10  O2  UNL     1      33.829  67.499  16.276  1.00  0.00    -0.326 OA
HETATM   11  C1  UNL     1      34.998  67.117  16.901  1.00  0.00     0.357 C 
HETATM   12  O9  UNL     1      34.788  66.697  18.224  1.00  0.00    -0.319 OA
BRANCH  11  13
HETATM   13  S1  UNL     1      36.222  68.465  16.965  1.00  0.00     0.047 SA
BRANCH  13  14
HETATM   14  O1  UNL     1      37.121  68.569  15.511  1.00  0.00    -0.326 OA
ATOM     15  H1  UNL     1      37.882  69.130  15.610  1.00  0.00     0.228 HD
ENDBRANCH  13  14
ENDBRANCH  11  13
ENDBRANCH   1   7
BRANCH   2  16
HETATM   16  O4  UNL     1      35.335  65.452  20.581  1.00  0.00    -0.392 OA
ATOM     17  H4  UNL     1      35.012  65.244  19.712  1.00  0.00     0.210 HD
ENDBRANCH   2  16
BRANCH   6  18
HETATM   18  O8  UNL     1      32.099  68.064  21.258  1.00  0.00    -0.392 OA
ATOM     19  H8  UNL     1      31.319  67.996  20.719  1.00  0.00     0.210 HD
ENDBRANCH   6  18
BRANCH   3  20
HETATM   20  O5  UNL     1      35.770  68.498  22.397  1.00  0.00    -0.390 OA
ATOM     21  H5  UNL     1      36.660  68.585  22.716  1.00  0.00     0.210 HD
ENDBRANCH   3  20
BRANCH   5  22
HETATM   22  O7  UNL     1      32.008  66.306  22.958  1.00  0.00    -0.390 OA
ATOM     23  H7  UNL     1      32.160  65.748  23.713  1.00  0.00     0.210 HD
ENDBRANCH   5  22
BRANCH   4  24
HETATM   24  O6  UNL     1      34.552  65.948  24.107  1.00  0.00    -0.390 OA
ATOM     25  H6  UNL     1      35.477  66.021  24.308  1.00  0.00     0.210 HD
ENDBRANCH   4  24
TORSDOF 8
ENDMDL
MODEL 3
REMARK VINA RESULT: -6.231064218      3.622      5.833
REMARK  8 active torsions:
REMARK  status: ('A' for Active; 'I' for Inactive)
REMARK    1  A    between atoms: O1_1  and  S1_3 
REMARK    2  A    between atoms: S1_3  and  C1_4 
REMARK    3  A    between atoms: C3_8  and  C4_9 
REMARK    4  A    between atoms: C5_10  and  O4_11 
REMARK    5  A    between atoms: C6_13  and  O5_14 
REMARK    6  A    between atoms: C7_16  and  O6_17 
REMARK    7  A    between atoms: C8_19  and  O7_20 
REMARK    8  A    between atoms: C9_22  and  O8_23 
ROOT
HETATM    1  C4  UNL     1      34.871  68.567  17.719  1.00  0.00     0.104 C 
HETATM    2  C5  UNL     1      34.020  67.595  16.955  1.00  0.00     0.161 C 
HETATM    3  C6  UNL     1      33.784  68.240  15.596  1.00  0.00     0.178 C 
HETATM    4  C7  UNL     1      35.065  68.626  14.914  1.00  0.00     0.180 C 
HETATM    5  C8  UNL     1      36.296  68.194  15.682  1.00  0.00     0.178 C 
HETATM    6  C9  UNL     1      36.240  68.630  17.121  1.00  0.00     0.161 C 
ENDROOT
BRANCH   1   7
HETATM    7  C3  UNL     1      34.895  68.323  19.196  1.00  0.00     0.275 C 
HETATM    8  O3  UNL     1      35.489  69.328  19.932  1.00  0.00    -0.336 OA
HETATM    9  C2  UNL     1      35.157  69.102  21.270  1.00  0.00     0.345 C 
HETATM   10  O2  UNL     1      35.499  67.837  21.707  1.00  0.00    -0.326 OA
HETATM   11  C1  UNL     1      35.175  66.828  20.825  1.00  0.00     0.357 C 
HETATM   12  O9  UNL     1      35.530  67.136  19.502  1.00  0.00    -0.319 OA
BRANCH  11  13
HETATM   13  S1  UNL     1      33.392  66.457  20.819  1.00  0.00     0.047 SA
BRANCH  13  14
HETATM   14  O1  UNL     1      32.964  65.437  19.512  1.00  0.00    -0.326 OA
ATOM     15  H1  UNL     1      32.393  64.731  19.792  1.00  0.00     0.228 HD
ENDBRANCH  13  14
ENDBRANCH  11  13
ENDBRANCH   1   7
BRANCH   2  16
HETATM   16  O4  UNL     1      34.568  66.331  16.854  1.00  0.00    -0.392 OA
ATOM     17  H4  UNL     1      33.968  65.678  16.516  1.00  0.00     0.210 HD
ENDBRANCH   2  16
BRANCH   6  18
HETATM   18  O8  UNL     1      36.697  69.955  17.157  1.00  0.00    -0.392 OA
ATOM     19  H8  UNL     1      36.554  70.357  16.308  1.00  0.00     0.210 HD
ENDBRANCH   6  18
BRANCH   3  20
HETATM   20  O5  UNL     1      33.088  69.430  15.868  1.00  0.00    -0.390 OA
ATOM     21  H5  UNL     1      33.756  70.057  16.121  1.00  0.00     0.210 HD
ENDBRANCH   3  20
BRANCH   5  22
HETATM   22  O7  UNL     1      37.368  68.866  15.069  1.00  0.00    -0.390 OA
ATOM     23  H7  UNL     1      37.900  69.193  15.786  1.00  0.00     0.210 HD
ENDBRANCH   5  22
BRANCH   4  24
HETATM   24  O6  UNL     1      35.090  68.007  13.658  1.00  0.00    -0.390 OA
ATOM     25  H6  UNL     1      35.695  67.276  13.704  1.00  0.00     0.210 HD
ENDBRANCH   4  24
TORSDOF 8
ENDMDL
MODEL 4
REMARK VINA RESULT: -6.211723704      2.480      4.402
REMARK  8 active torsions:
REMARK  status: ('A' for Active; 'I' for Inactive)
REMARK    1  A    between atoms: O1_1  and  S1_3 
REMARK    2  A    between atoms: S1_3  and  C1_4 
REMARK    3  A    between atoms: C3_8  and  C4_9 
REMARK    4  A    between atoms: C5_10  and  O4_11 
REMARK    5  A    between atoms: C6_13  and  O5_14 
REMARK    6  A    between atoms: C7_16  and  O6_17 
REMARK    7  A    between atoms: C8_19  and  O7_20 
REMARK    8  A    between atoms: C9_22  and  O8_23 
ROOT
HETATM    1  C4  UNL     1      34.610  67.446  20.266  1.00  0.00     0.104 C 
HETATM    2  C5  UNL     1      33.110  67.487  20.270  1.00  0.00     0.161 C 
HETATM    3  C6  UNL     1      32.668  66.192  20.940  1.00  0.00     0.178 C 
HETATM    4  C7  UNL     1      33.297  66.003  22.291  1.00  0.00     0.180 C 
HETATM    5  C8  UNL     1      34.140  67.184  22.722  1.00  0.00     0.178 C 
HETATM    6  C9  UNL     1      35.131  67.581  21.661  1.00  0.00     0.161 C 
ENDROOT
BRANCH   1   7
HETATM    7  C3  UNL     1      35.241  68.414  19.316  1.00  0.00     0.275 C 
HETATM    8  O3  UNL     1      35.839  69.502  19.921  1.00  0.00    -0.336 OA
HETATM    9  C2  UNL     1      36.628  70.124  18.950  1.00  0.00     0.345 C 
HETATM   10  O2  UNL     1      35.923  70.459  17.811  1.00  0.00    -0.326 OA
HETATM   11  C1  UNL     1      35.076  69.469  17.359  1.00  0.00     0.357 C 
HETATM   12  O9  UNL     1      34.328  68.887  18.394  1.00  0.00    -0.319 OA
BRANCH  11  13
HETATM   13  S1  UNL     1      35.971  68.116  16.531  1.00  0.00     0.047 SA
BRANCH  13  14
HETATM   14  O1  UNL     1      34.905  66.885  16.002  1.00  0.00    -0.326 OA
ATOM     15  H1  UNL     1      35.377  66.150  15.628  1.00  0.00     0.228 HD
ENDBRANCH  13  14
ENDBRANCH  11  13
ENDBRANCH   1   7
BRANCH   2  16
HETATM   16  O4  UNL     1      32.584  68.607  20.882  1.00  0.00    -0.392 OA
ATOM     17  H4  UNL     1      32.624  68.582  21.831  1.00  0.00     0.210 HD
ENDBRANCH   2  16
BRANCH   6  18
HETATM   18  O8  UNL     1      36.244  66.743  21.820  1.00  0.00    -0.392 OA
ATOM     19  H8  UNL     1      35.950  65.842  21.886  1.00  0.00     0.210 HD
ENDBRANCH   6  18
BRANCH   3  20
HETATM   20  O5  UNL     1      33.152  65.164  20.114  1.00  0.00    -0.390 OA
ATOM     21  H5  UNL     1      32.480  64.493  20.131  1.00  0.00     0.210 HD
ENDBRANCH   3  20
BRANCH   5  22
HETATM   22  O7  UNL     1      34.862  66.734  23.840  1.00  0.00    -0.390 OA
ATOM     23  H7  UNL     1      35.409  66.027  23.517  1.00  0.00     0.210 HD
ENDBRANCH   5  22
BRANCH   4  24
HETATM   24  O6  UNL     1      32.268  65.832  23.226  1.00  0.00    -0.390 OA
ATOM     25  H6  UNL     1      32.233  64.912  23.459  1.00  0.00     0.210 HD
ENDBRANCH   4  24
TORSDOF 8
ENDMDL
MODEL 5
REMARK VINA RESULT: -6.185282632      3.534      5.292
REMARK  8 active torsions:
REMARK  status: ('A' for Active; 'I' for Inactive)
REMARK    1  A    between atoms: O1_1  and  S1_3 
REMARK    2  A    between atoms: S1_3  and  C1_4 
REMARK    3  A    between atoms: C3_8  and  C4_9 
REMARK    4  A    between atoms: C5_10  and  O4_11 
REMARK    5  A    between atoms: C6_13  and  O5_14 
REMARK    6  A    between atoms: C7_16  and  O6_17 
REMARK    7  A    between atoms: C8_19  and  O7_20 
REMARK    8  A    between atoms: C9_22  and  O8_23 
ROOT
HETATM    1  C4  UNL     1      34.963  68.140  18.942  1.00  0.00     0.104 C 
HETATM    2  C5  UNL     1      35.913  68.837  19.872  1.00  0.00     0.161 C 
HETATM    3  C6  UNL     1      35.242  68.809  21.239  1.00  0.00     0.178 C 
HETATM    4  C7  UNL     1      34.854  67.420  21.659  1.00  0.00     0.180 C 
HETATM    5  C8  UNL     1      35.310  66.358  20.682  1.00  0.00     0.178 C 
HETATM    6  C9  UNL     1      34.901  66.682  19.271  1.00  0.00     0.161 C 
ENDROOT
BRANCH   1   7
HETATM    7  C3  UNL     1      35.235  68.396  17.493  1.00  0.00     0.275 C 
HETATM    8  O3  UNL     1      34.441  67.672  16.626  1.00  0.00    -0.336 OA
HETATM    9  C2  UNL     1      34.597  68.243  15.361  1.00  0.00     0.345 C 
HETATM   10  O2  UNL     1      35.916  68.312  14.956  1.00  0.00    -0.326 OA
HETATM   11  C1  UNL     1      36.784  68.757  15.931  1.00  0.00     0.357 C 
HETATM   12  O9  UNL     1      36.555  68.145  17.173  1.00  0.00    -0.319 OA
BRANCH  11  13
HETATM   13  S1  UNL     1      36.663  70.554  16.199  1.00  0.00     0.047 SA
BRANCH  13  14
HETATM   14  O1  UNL     1      37.677  71.421  15.124  1.00  0.00    -0.326 OA
ATOM     15  H1  UNL     1      38.075  72.172  15.548  1.00  0.00     0.228 HD
ENDBRANCH  13  14
ENDBRANCH  11  13
ENDBRANCH   1   7
BRANCH   2  16
HETATM   16  O4  UNL     1      37.180  68.285  19.893  1.00  0.00    -0.392 OA
ATOM     17  H4  UNL     1      37.865  68.885  19.624  1.00  0.00     0.210 HD
ENDBRANCH   2  16
BRANCH   6  18
HETATM   18  O8  UNL     1      33.581  66.234  19.124  1.00  0.00    -0.392 OA
ATOM     19  H8  UNL     1      33.439  65.488  19.695  1.00  0.00     0.210 HD
ENDBRANCH   6  18
BRANCH   3  20
HETATM   20  O5  UNL     1      34.051  69.537  21.079  1.00  0.00    -0.390 OA
ATOM     21  H5  UNL     1      33.711  69.657  21.959  1.00  0.00     0.210 HD
ENDBRANCH   3  20
BRANCH   5  22
HETATM   22  O7  UNL     1      34.636  65.187  21.068  1.00  0.00    -0.390 OA
ATOM     23  H7  UNL     1      33.765  65.266  20.698  1.00  0.00     0.210 HD
ENDBRANCH   5  22
BRANCH   4  24
HETATM   24  O6  UNL     1      35.450  67.162  22.900  1.00  0.00    -0.390 OA
ATOM     25  H6  UNL     1      35.371  66.232  23.074  1.00  0.00     0.210 HD
ENDBRANCH   4  24
TORSDOF 8
ENDMDL
