MODEL 1
REMARK VINA RESULT: -6.857603825      0.000      0.000
REMARK  13 active torsions:
REMARK  status: ('A' for Active; 'I' for Inactive)
REMARK    1  A    between atoms: C2_2  and  C3_3 
REMARK    2  A    between atoms: C3_3  and  C5_5 
REMARK       I    between atoms: C5_5  and  N1_7 
REMARK    3  A    between atoms: N1_7  and  C6_9 
REMARK    4  A    between atoms: C7_10  and  O2_11 
REMARK    5  A    between atoms: C8_14  and  C9_15 
REMARK    6  A    between atoms: C9_15  and  N2_16 
REMARK    7  A    between atoms: N2_16  and  C10_18 
REMARK    8  A    between atoms: C11_19  and  N3_20 
REMARK    9  A    between atoms: C13_25  and  N4_26 
REMARK   10  A    between atoms: N4_26  and  C14_28 
REMARK   11  A    between atoms: C22_38  and  O6_39 
REMARK   12  A    between atoms: C23_42  and  O8_43 
REMARK   13  A    between atoms: C24_45  and  O9_46 
ROOT
HETATM    1  C10 UNL     1      27.209 -14.544   2.391  1.00  0.00     0.162 C 
HETATM    2  C11 UNL     1      26.514 -15.527   1.506  1.00  0.00     0.214 C 
HETATM    3  C12 UNL     1      25.137 -15.096   1.030  1.00  0.00     0.088 C 
HETATM    4  C13 UNL     1      25.019 -13.669   0.661  1.00  0.00     0.222 C 
HETATM    5  O7  UNL     1      26.105 -12.910   1.176  1.00  0.00    -0.335 OA
HETATM    6  C23 UNL     1      26.366 -13.294   2.489  1.00  0.00     0.283 C 
ENDROOT
BRANCH   1   7
HETATM    7  N2  UNL     1      27.435 -15.105   3.690  1.00  0.00    -0.408 N 
ATOM      8  H2  UNL     1      27.623 -14.528   4.509  1.00  0.00     0.153 HD
BRANCH   7   9
HETATM    9  C9  UNL     1      27.377 -16.544   3.756  1.00  0.00     0.149 C 
BRANCH   9  10
HETATM   10  C8  UNL     1      28.016 -16.937   5.084  1.00  0.00     0.172 C 
HETATM   11  O3  UNL     1      29.326 -17.218   4.873  1.00  0.00    -0.350 OA
HETATM   12  C7  UNL     1      29.716 -18.385   5.472  1.00  0.00     0.282 C 
HETATM   13  C6  UNL     1      28.564 -18.810   6.333  1.00  0.00     0.170 C 
HETATM   14  C24 UNL     1      27.374 -18.197   5.631  1.00  0.00     0.176 C 
BRANCH  12  15
HETATM   15  O2  UNL     1      30.857 -18.103   6.242  1.00  0.00    -0.369 OA
ATOM     16  H2  UNL     1      31.271 -17.294   5.967  1.00  0.00     0.212 HD
ENDBRANCH  12  15
BRANCH  13  17
HETATM   17  N1  UNL     1      28.448 -20.252   6.420  1.00  0.00    -0.349 N 
HETATM   18  C5  UNL     1      28.248 -20.838   7.695  1.00  0.00     0.222 C 
HETATM   19  O1  UNL     1      28.174 -20.126   8.718  1.00  0.00    -0.273 OA
ATOM     20  H1  UNL     1      28.509 -20.831   5.583  1.00  0.00     0.163 HD
BRANCH  18  21
HETATM   21  C3  UNL     1      28.123 -22.340   7.814  1.00  0.00     0.073 C 
HETATM   22  C4  UNL     1      27.987 -22.756   9.241  1.00  0.00     0.020 C 
BRANCH  21  23
HETATM   23  C2  UNL     1      29.346 -22.946   7.160  1.00  0.00     0.009 C 
HETATM   24  C1  UNL     1      29.016 -23.874   6.042  1.00  0.00     0.006 C 
ENDBRANCH  21  23
ENDBRANCH  18  21
ENDBRANCH  13  17
BRANCH  14  25
HETATM   25  O9  UNL     1      27.010 -19.083   4.618  1.00  0.00    -0.391 OA
ATOM     26  H9  UNL     1      26.662 -18.556   3.909  1.00  0.00     0.210 HD
ENDBRANCH  14  25
ENDBRANCH   9  10
ENDBRANCH   7   9
ENDBRANCH   1   7
BRANCH   2  27
HETATM   27  N3  UNL     1      27.304 -15.803   0.295  1.00  0.00    -0.073 N 
ATOM     28  H33 UNL     1      27.007 -15.220  -0.488  1.00  0.00     0.274 HD
ATOM     29  H32 UNL     1      28.262 -15.464   0.387  1.00  0.00     0.274 HD
ATOM     30  H31 UNL     1      27.277 -16.794   0.055  1.00  0.00     0.274 HD
ENDBRANCH   2  27
BRANCH   6  31
HETATM   31  O8  UNL     1      25.259 -13.479   3.270  1.00  0.00    -0.369 OA
ATOM     32  H8  UNL     1      25.337 -13.043   4.111  1.00  0.00     0.212 HD
ENDBRANCH   6  31
BRANCH   4  33
HETATM   33  N4  UNL     1      23.800 -13.002   0.831  1.00  0.00    -0.389 N 
ATOM     34  H4  UNL     1      23.135 -13.376   1.509  1.00  0.00     0.156 HD
BRANCH  33  35
HETATM   35  C14 UNL     1      23.445 -11.853   0.123  1.00  0.00     0.116 C 
HETATM   36  C15 UNL     1      22.261 -11.834  -0.763  1.00  0.00     0.038 C 
HETATM   37  C16 UNL     1      22.406 -10.713  -1.798  1.00  0.00     0.015 C 
HETATM   38  C17 UNL     1      21.099 -11.491   0.165  1.00  0.00     0.162 C 
HETATM   39  O4  UNL     1      20.296 -10.504  -0.361  1.00  0.00    -0.347 OA
HETATM   40  C21 UNL     1      21.700 -10.824   1.372  1.00  0.00     0.185 C 
HETATM   41  C18 UNL     1      19.847  -9.832   0.770  1.00  0.00     0.158 C 
HETATM   42  C19 UNL     1      18.830 -10.658   1.540  1.00  0.00     0.078 C 
HETATM   43  C20 UNL     1      19.226  -8.495   0.398  1.00  0.00     0.078 C 
HETATM   44  O5  UNL     1      21.020  -9.641   1.492  1.00  0.00    -0.345 OA
HETATM   45  C22 UNL     1      23.147 -10.673   1.057  1.00  0.00     0.172 C 
BRANCH  45  46
HETATM   46  O6  UNL     1      23.963 -10.719   2.183  1.00  0.00    -0.391 OA
ATOM     47  H6  UNL     1      23.951  -9.886   2.640  1.00  0.00     0.210 HD
ENDBRANCH  45  46
ENDBRANCH  33  35
ENDBRANCH   4  33
TORSDOF 13
ENDMDL
MODEL 2
REMARK VINA RESULT: -6.675961393      2.719      4.937
REMARK  13 active torsions:
REMARK  status: ('A' for Active; 'I' for Inactive)
REMARK    1  A    between atoms: C2_2  and  C3_3 
REMARK    2  A    between atoms: C3_3  and  C5_5 
REMARK       I    between atoms: C5_5  and  N1_7 
REMARK    3  A    between atoms: N1_7  and  C6_9 
REMARK    4  A    between atoms: C7_10  and  O2_11 
REMARK    5  A    between atoms: C8_14  and  C9_15 
REMARK    6  A    between atoms: C9_15  and  N2_16 
REMARK    7  A    between atoms: N2_16  and  C10_18 
REMARK    8  A    between atoms: C11_19  and  N3_20 
REMARK    9  A    between atoms: C13_25  and  N4_26 
REMARK   10  A    between atoms: N4_26  and  C14_28 
REMARK   11  A    between atoms: C22_38  and  O6_39 
REMARK   12  A    between atoms: C23_42  and  O8_43 
REMARK   13  A    between atoms: C24_45  and  O9_46 
ROOT
HETATM    1  C10 UNL     1      25.788 -11.320   0.782  1.00  0.00     0.162 C 
HETATM    2  C11 UNL     1      24.870 -11.857  -0.267  1.00  0.00     0.214 C 
HETATM    3  C12 UNL     1      23.410 -11.944   0.145  1.00  0.00     0.088 C 
HETATM    4  C13 UNL     1      22.914 -10.801   0.941  1.00  0.00     0.222 C 
HETATM    5  O7  UNL     1      23.987 -10.038   1.476  1.00  0.00    -0.335 OA
HETATM    6  C23 UNL     1      24.968 -10.891   1.976  1.00  0.00     0.283 C 
ENDROOT
BRANCH   1   7
HETATM    7  N2  UNL     1      26.756 -12.306   1.160  1.00  0.00    -0.408 N 
ATOM      8  H2  UNL     1      27.172 -12.335   2.090  1.00  0.00     0.153 HD
BRANCH   7   9
HETATM    9  C9  UNL     1      27.100 -13.254   0.130  1.00  0.00     0.149 C 
BRANCH   9  10
HETATM   10  C8  UNL     1      26.772 -14.634   0.692  1.00  0.00     0.172 C 
HETATM   11  O3  UNL     1      25.738 -14.517   1.563  1.00  0.00    -0.350 OA
HETATM   12  C7  UNL     1      25.962 -15.182   2.737  1.00  0.00     0.282 C 
HETATM   13  C6  UNL     1      27.212 -15.983   2.524  1.00  0.00     0.170 C 
HETATM   14  C24 UNL     1      27.949 -15.185   1.473  1.00  0.00     0.176 C 
BRANCH  12  15
HETATM   15  O2  UNL     1      24.853 -16.012   2.970  1.00  0.00    -0.369 OA
ATOM     16  H2  UNL     1      24.866 -16.371   3.849  1.00  0.00     0.212 HD
ENDBRANCH  12  15
BRANCH  13  17
HETATM   17  N1  UNL     1      27.992 -16.115   3.738  1.00  0.00    -0.349 N 
HETATM   18  C5  UNL     1      27.773 -17.248   4.562  1.00  0.00     0.222 C 
HETATM   19  O1  UNL     1      26.926 -18.110   4.247  1.00  0.00    -0.273 OA
ATOM     20  H1  UNL     1      28.682 -15.409   3.994  1.00  0.00     0.163 HD
BRANCH  18  21
HETATM   21  C3  UNL     1      28.573 -17.410   5.834  1.00  0.00     0.073 C 
HETATM   22  C4  UNL     1      29.999 -17.734   5.534  1.00  0.00     0.020 C 
BRANCH  21  23
HETATM   23  C2  UNL     1      27.904 -18.495   6.651  1.00  0.00     0.009 C 
HETATM   24  C1  UNL     1      27.585 -18.071   8.043  1.00  0.00     0.006 C 
ENDBRANCH  21  23
ENDBRANCH  18  21
ENDBRANCH  13  17
BRANCH  14  25
HETATM   25  O9  UNL     1      28.645 -14.184   2.150  1.00  0.00    -0.391 OA
ATOM     26  H9  UNL     1      29.293 -13.847   1.543  1.00  0.00     0.210 HD
ENDBRANCH  14  25
ENDBRANCH   9  10
ENDBRANCH   7   9
ENDBRANCH   1   7
BRANCH   2  27
HETATM   27  N3  UNL     1      24.909 -11.028  -1.483  1.00  0.00    -0.073 N 
ATOM     28  H33 UNL     1      23.984 -10.936  -1.904  1.00  0.00     0.274 HD
ATOM     29  H32 UNL     1      25.078 -10.046  -1.262  1.00  0.00     0.274 HD
ATOM     30  H31 UNL     1      25.591 -11.386  -2.152  1.00  0.00     0.274 HD
ENDBRANCH   2  27
BRANCH   6  31
HETATM   31  O8  UNL     1      24.497 -11.961   2.688  1.00  0.00    -0.369 OA
ATOM     32  H8  UNL     1      23.568 -12.102   2.547  1.00  0.00     0.212 HD
ENDBRANCH   6  31
BRANCH   4  33
HETATM   33  N4  UNL     1      21.902 -10.996   1.888  1.00  0.00    -0.389 N 
ATOM     34  H4  UNL     1      21.631 -10.207   2.475  1.00  0.00     0.156 HD
BRANCH  33  35
HETATM   35  C14 UNL     1      21.242 -12.213   2.072  1.00  0.00     0.116 C 
HETATM   36  C15 UNL     1      21.496 -13.048   3.266  1.00  0.00     0.038 C 
HETATM   37  C16 UNL     1      21.109 -14.502   2.973  1.00  0.00     0.015 C 
HETATM   38  C17 UNL     1      20.545 -12.496   4.324  1.00  0.00     0.162 C 
HETATM   39  O4  UNL     1      19.859 -13.500   4.971  1.00  0.00    -0.347 OA
HETATM   40  C21 UNL     1      19.457 -11.770   3.582  1.00  0.00     0.185 C 
HETATM   41  C18 UNL     1      18.638 -12.901   5.265  1.00  0.00     0.158 C 
HETATM   42  C19 UNL     1      18.777 -11.875   6.378  1.00  0.00     0.078 C 
HETATM   43  C20 UNL     1      17.607 -13.941   5.670  1.00  0.00     0.078 C 
HETATM   44  O5  UNL     1      18.291 -12.315   4.054  1.00  0.00    -0.345 OA
HETATM   45  C22 UNL     1      19.720 -12.036   2.141  1.00  0.00     0.172 C 
BRANCH  45  46
HETATM   46  O6  UNL     1      19.307 -11.001   1.307  1.00  0.00    -0.391 OA
ATOM     47  H6  UNL     1      19.857 -10.956   0.533  1.00  0.00     0.210 HD
ENDBRANCH  45  46
ENDBRANCH  33  35
ENDBRANCH   4  33
TORSDOF 13
ENDMDL
MODEL 3
REMARK VINA RESULT: -6.506336468      3.971      6.902
REMARK  13 active torsions:
REMARK  status: ('A' for Active; 'I' for Inactive)
REMARK    1  A    between atoms: C2_2  and  C3_3 
REMARK    2  A    between atoms: C3_3  and  C5_5 
REMARK       I    between atoms: C5_5  and  N1_7 
REMARK    3  A    between atoms: N1_7  and  C6_9 
REMARK    4  A    between atoms: C7_10  and  O2_11 
REMARK    5  A    between atoms: C8_14  and  C9_15 
REMARK    6  A    between atoms: C9_15  and  N2_16 
REMARK    7  A    between atoms: N2_16  and  C10_18 
REMARK    8  A    between atoms: C11_19  and  N3_20 
REMARK    9  A    between atoms: C13_25  and  N4_26 
REMARK   10  A    between atoms: N4_26  and  C14_28 
REMARK   11  A    between atoms: C22_38  and  O6_39 
REMARK   12  A    between atoms: C23_42  and  O8_43 
REMARK   13  A    between atoms: C24_45  and  O9_46 
ROOT
HETATM    1  C10 UNL     1      23.288 -18.475   1.197  1.00  0.00     0.162 C 
HETATM    2  C11 UNL     1      22.906 -18.178   2.611  1.00  0.00     0.214 C 
HETATM    3  C12 UNL     1      21.940 -17.018   2.782  1.00  0.00     0.088 C 
HETATM    4  C13 UNL     1      20.862 -16.947   1.772  1.00  0.00     0.222 C 
HETATM    5  O7  UNL     1      21.161 -17.749   0.638  1.00  0.00    -0.335 OA
HETATM    6  C23 UNL     1      22.495 -17.576   0.278  1.00  0.00     0.283 C 
ENDROOT
BRANCH   1   7
HETATM    7  N2  UNL     1      24.695 -18.285   1.003  1.00  0.00    -0.408 N 
ATOM      8  H2  UNL     1      25.128 -18.319   0.081  1.00  0.00     0.153 HD
BRANCH   7   9
HETATM    9  C9  UNL     1      25.453 -18.041   2.204  1.00  0.00     0.149 C 
BRANCH   9  10
HETATM   10  C8  UNL     1      26.676 -17.234   1.782  1.00  0.00     0.172 C 
HETATM   11  O3  UNL     1      27.383 -16.899   2.891  1.00  0.00    -0.350 OA
HETATM   12  C7  UNL     1      27.746 -15.580   2.904  1.00  0.00     0.282 C 
HETATM   13  C6  UNL     1      27.394 -15.044   1.548  1.00  0.00     0.170 C 
HETATM   14  C24 UNL     1      26.256 -15.939   1.116  1.00  0.00     0.176 C 
BRANCH  12  15
HETATM   15  O2  UNL     1      29.130 -15.526   3.135  1.00  0.00    -0.369 OA
ATOM     16  H2  UNL     1      29.449 -16.329   3.530  1.00  0.00     0.212 HD
ENDBRANCH  12  15
BRANCH  13  17
HETATM   17  N1  UNL     1      26.992 -13.653   1.596  1.00  0.00    -0.349 N 
HETATM   18  C5  UNL     1      27.003 -12.903   0.394  1.00  0.00     0.222 C 
HETATM   19  O1  UNL     1      27.354 -13.431  -0.682  1.00  0.00    -0.273 OA
ATOM     20  H1  UNL     1      26.706 -13.223   2.477  1.00  0.00     0.163 HD
BRANCH  18  21
HETATM   21  C3  UNL     1      26.587 -11.450   0.417  1.00  0.00     0.073 C 
HETATM   22  C4  UNL     1      25.759 -11.147   1.621  1.00  0.00     0.020 C 
BRANCH  21  23
HETATM   23  C2  UNL     1      25.839 -11.177  -0.870  1.00  0.00     0.009 C 
HETATM   24  C1  UNL     1      24.376 -11.443  -0.769  1.00  0.00     0.006 C 
ENDBRANCH  21  23
ENDBRANCH  18  21
ENDBRANCH  13  17
BRANCH  14  25
HETATM   25  O9  UNL     1      25.097 -15.409   1.682  1.00  0.00    -0.391 OA
ATOM     26  H9  UNL     1      24.398 -16.024   1.493  1.00  0.00     0.210 HD
ENDBRANCH  14  25
ENDBRANCH   9  10
ENDBRANCH   7   9
ENDBRANCH   1   7
BRANCH   2  27
HETATM   27  N3  UNL     1      22.271 -19.344   3.247  1.00  0.00    -0.073 N 
ATOM     28  H33 UNL     1      22.776 -19.638   4.082  1.00  0.00     0.274 HD
ATOM     29  H32 UNL     1      21.381 -19.096   3.681  1.00  0.00     0.274 HD
ATOM     30  H31 UNL     1      22.164 -20.113   2.584  1.00  0.00     0.274 HD
ENDBRANCH   2  27
BRANCH   6  31
HETATM   31  O8  UNL     1      22.942 -16.284   0.311  1.00  0.00    -0.369 OA
ATOM     32  H8  UNL     1      22.564 -15.794   1.032  1.00  0.00     0.212 HD
ENDBRANCH   6  31
BRANCH   4  33
HETATM   33  N4  UNL     1      20.336 -15.704   1.398  1.00  0.00    -0.389 N 
ATOM     34  H4  UNL     1      19.900 -15.622   0.479  1.00  0.00     0.156 HD
BRANCH  33  35
HETATM   35  C14 UNL     1      20.378 -14.573   2.214  1.00  0.00     0.116 C 
HETATM   36  C15 UNL     1      21.519 -13.634   2.165  1.00  0.00     0.038 C 
HETATM   37  C16 UNL     1      21.594 -12.840   3.474  1.00  0.00     0.015 C 
HETATM   38  C17 UNL     1      21.171 -12.672   1.032  1.00  0.00     0.162 C 
HETATM   39  O4  UNL     1      21.364 -11.358   1.397  1.00  0.00    -0.347 OA
HETATM   40  C21 UNL     1      19.680 -12.752   0.848  1.00  0.00     0.185 C 
HETATM   41  C18 UNL     1      20.381 -10.688   0.677  1.00  0.00     0.158 C 
HETATM   42  C19 UNL     1      20.717 -10.635  -0.804  1.00  0.00     0.078 C 
HETATM   43  C20 UNL     1      20.195  -9.273   1.199  1.00  0.00     0.078 C 
HETATM   44  O5  UNL     1      19.249 -11.454   0.930  1.00  0.00    -0.345 OA
HETATM   45  C22 UNL     1      19.196 -13.630   1.949  1.00  0.00     0.172 C 
BRANCH  45  46
HETATM   46  O6  UNL     1      18.056 -14.355   1.613  1.00  0.00    -0.391 OA
ATOM     47  H6  UNL     1      17.788 -14.164   0.722  1.00  0.00     0.210 HD
ENDBRANCH  45  46
ENDBRANCH  33  35
ENDBRANCH   4  33
TORSDOF 13
ENDMDL
MODEL 4
REMARK VINA RESULT: -6.503724563      4.304     10.317
REMARK  13 active torsions:
REMARK  status: ('A' for Active; 'I' for Inactive)
REMARK    1  A    between atoms: C2_2  and  C3_3 
REMARK    2  A    between atoms: C3_3  and  C5_5 
REMARK       I    between atoms: C5_5  and  N1_7 
REMARK    3  A    between atoms: N1_7  and  C6_9 
REMARK    4  A    between atoms: C7_10  and  O2_11 
REMARK    5  A    between atoms: C8_14  and  C9_15 
REMARK    6  A    between atoms: C9_15  and  N2_16 
REMARK    7  A    between atoms: N2_16  and  C10_18 
REMARK    8  A    between atoms: C11_19  and  N3_20 
REMARK    9  A    between atoms: C13_25  and  N4_26 
REMARK   10  A    between atoms: N4_26  and  C14_28 
REMARK   11  A    between atoms: C22_38  and  O6_39 
REMARK   12  A    between atoms: C23_42  and  O8_43 
REMARK   13  A    between atoms: C24_45  and  O9_46 
ROOT
HETATM    1  C10 UNL     1      27.525 -15.502   1.585  1.00  0.00     0.162 C 
HETATM    2  C11 UNL     1      26.698 -15.855   2.778  1.00  0.00     0.214 C 
HETATM    3  C12 UNL     1      25.583 -16.853   2.511  1.00  0.00     0.088 C 
HETATM    4  C13 UNL     1      25.939 -17.959   1.595  1.00  0.00     0.222 C 
HETATM    5  O7  UNL     1      27.120 -17.665   0.862  1.00  0.00    -0.335 OA
HETATM    6  C23 UNL     1      27.080 -16.347   0.414  1.00  0.00     0.283 C 
ENDROOT
BRANCH   1   7
HETATM    7  N2  UNL     1      27.401 -14.107   1.279  1.00  0.00    -0.408 N 
ATOM      8  H2  UNL     1      27.799 -13.696   0.436  1.00  0.00     0.153 HD
BRANCH   7   9
HETATM    9  C9  UNL     1      26.675 -13.328   2.250  1.00  0.00     0.149 C 
BRANCH   9  10
HETATM   10  C8  UNL     1      26.182 -12.084   1.518  1.00  0.00     0.172 C 
HETATM   11  O3  UNL     1      25.587 -11.256   2.413  1.00  0.00    -0.350 OA
HETATM   12  C7  UNL     1      24.381 -10.785   1.972  1.00  0.00     0.282 C 
HETATM   13  C6  UNL     1      24.273 -11.210   0.537  1.00  0.00     0.170 C 
HETATM   14  C24 UNL     1      25.132 -12.453   0.488  1.00  0.00     0.176 C 
BRANCH  12  15
HETATM   15  O2  UNL     1      24.404  -9.387   2.094  1.00  0.00    -0.369 OA
ATOM     16  H2  UNL     1      23.572  -9.051   2.405  1.00  0.00     0.212 HD
ENDBRANCH  12  15
BRANCH  13  17
HETATM   17  N1  UNL     1      22.906 -11.490   0.149  1.00  0.00    -0.349 N 
HETATM   18  C5  UNL     1      22.486 -11.131  -1.156  1.00  0.00     0.222 C 
HETATM   19  O1  UNL     1      23.279 -10.586  -1.952  1.00  0.00    -0.273 OA
ATOM     20  H1  UNL     1      22.260 -11.935   0.801  1.00  0.00     0.163 HD
BRANCH  18  21
HETATM   21  C3  UNL     1      21.065 -11.413  -1.586  1.00  0.00     0.073 C 
HETATM   22  C4  UNL     1      20.836 -12.877  -1.759  1.00  0.00     0.020 C 
BRANCH  21  23
HETATM   23  C2  UNL     1      20.823 -10.645  -2.868  1.00  0.00     0.009 C 
HETATM   24  C1  UNL     1      19.974 -11.383  -3.845  1.00  0.00     0.006 C 
ENDBRANCH  21  23
ENDBRANCH  18  21
ENDBRANCH  13  17
BRANCH  14  25
HETATM   25  O9  UNL     1      24.327 -13.509   0.914  1.00  0.00    -0.391 OA
ATOM     26  H9  UNL     1      24.788 -13.927   1.632  1.00  0.00     0.210 HD
ENDBRANCH  14  25
ENDBRANCH   9  10
ENDBRANCH   7   9
ENDBRANCH   1   7
BRANCH   2  27
HETATM   27  N3  UNL     1      27.527 -16.436   3.847  1.00  0.00    -0.073 N 
ATOM     28  H33 UNL     1      27.557 -17.454   3.787  1.00  0.00     0.274 HD
ATOM     29  H32 UNL     1      28.517 -16.242   3.700  1.00  0.00     0.274 HD
ATOM     30  H31 UNL     1      27.215 -16.124   4.766  1.00  0.00     0.274 HD
ENDBRANCH   2  27
BRANCH   6  31
HETATM   31  O8  UNL     1      25.873 -15.940  -0.084  1.00  0.00    -0.369 OA
ATOM     32  H8  UNL     1      25.660 -16.374  -0.903  1.00  0.00     0.212 HD
ENDBRANCH   6  31
BRANCH   4  33
HETATM   33  N4  UNL     1      24.957 -18.533   0.779  1.00  0.00    -0.389 N 
ATOM     34  H4  UNL     1      24.432 -17.922   0.153  1.00  0.00     0.156 HD
BRANCH  33  35
HETATM   35  C14 UNL     1      24.659 -19.897   0.775  1.00  0.00     0.116 C 
HETATM   36  C15 UNL     1      23.269 -20.377   0.928  1.00  0.00     0.038 C 
HETATM   37  C16 UNL     1      23.273 -21.824   1.434  1.00  0.00     0.015 C 
HETATM   38  C17 UNL     1      22.703 -20.359  -0.489  1.00  0.00     0.162 C 
HETATM   39  O4  UNL     1      22.041 -21.528  -0.792  1.00  0.00    -0.347 OA
HETATM   40  C21 UNL     1      23.884 -20.393  -1.420  1.00  0.00     0.185 C 
HETATM   41  C18 UNL     1      22.269 -21.669  -2.157  1.00  0.00     0.158 C 
HETATM   42  C19 UNL     1      21.468 -20.660  -2.962  1.00  0.00     0.078 C 
HETATM   43  C20 UNL     1      21.918 -23.073  -2.623  1.00  0.00     0.078 C 
HETATM   44  O5  UNL     1      23.638 -21.450  -2.257  1.00  0.00    -0.345 OA
HETATM   45  C22 UNL     1      25.072 -20.571  -0.540  1.00  0.00     0.172 C 
BRANCH  45  46
HETATM   46  O6  UNL     1      26.227 -19.986  -1.050  1.00  0.00    -0.391 OA
ATOM     47  H6  UNL     1      26.010 -19.330  -1.702  1.00  0.00     0.210 HD
ENDBRANCH  45  46
ENDBRANCH  33  35
ENDBRANCH   4  33
TORSDOF 13
ENDMDL
MODEL 5
REMARK VINA RESULT: -6.488124808      5.338      8.342
REMARK  13 active torsions:
REMARK  status: ('A' for Active; 'I' for Inactive)
REMARK    1  A    between atoms: C2_2  and  C3_3 
REMARK    2  A    between atoms: C3_3  and  C5_5 
REMARK       I    between atoms: C5_5  and  N1_7 
REMARK    3  A    between atoms: N1_7  and  C6_9 
REMARK    4  A    between atoms: C7_10  and  O2_11 
REMARK    5  A    between atoms: C8_14  and  C9_15 
REMARK    6  A    between atoms: C9_15  and  N2_16 
REMARK    7  A    between atoms: N2_16  and  C10_18 
REMARK    8  A    between atoms: C11_19  and  N3_20 
REMARK    9  A    between atoms: C13_25  and  N4_26 
REMARK   10  A    between atoms: N4_26  and  C14_28 
REMARK   11  A    between atoms: C22_38  and  O6_39 
REMARK   12  A    between atoms: C23_42  and  O8_43 
REMARK   13  A    between atoms: C24_45  and  O9_46 
ROOT
HETATM    1  C10 UNL     1      23.133 -19.709  -1.133  1.00  0.00     0.162 C 
HETATM    2  C11 UNL     1      22.209 -19.157  -0.096  1.00  0.00     0.214 C 
HETATM    3  C12 UNL     1      21.316 -18.024  -0.573  1.00  0.00     0.088 C 
HETATM    4  C13 UNL     1      20.764 -18.193  -1.935  1.00  0.00     0.222 C 
HETATM    5  O7  UNL     1      21.471 -19.188  -2.661  1.00  0.00    -0.335 OA
HETATM    6  C23 UNL     1      22.840 -19.038  -2.455  1.00  0.00     0.283 C 
ENDROOT
BRANCH   1   7
HETATM    7  N2  UNL     1      24.499 -19.506  -0.753  1.00  0.00    -0.408 N 
ATOM      8  H2  UNL     1      25.275 -19.681  -1.390  1.00  0.00     0.153 HD
BRANCH   7   9
HETATM    9  C9  UNL     1      24.697 -19.037   0.595  1.00  0.00     0.149 C 
BRANCH   9  10
HETATM   10  C8  UNL     1      25.943 -18.157   0.563  1.00  0.00     0.172 C 
HETATM   11  O3  UNL     1      26.292 -17.846   1.837  1.00  0.00    -0.350 OA
HETATM   12  C7  UNL     1      26.563 -16.514   1.997  1.00  0.00     0.282 C 
HETATM   13  C6  UNL     1      26.576 -15.929   0.616  1.00  0.00     0.170 C 
HETATM   14  C24 UNL     1      25.655 -16.851  -0.151  1.00  0.00     0.176 C 
BRANCH  12  15
HETATM   15  O2  UNL     1      27.822 -16.411   2.611  1.00  0.00    -0.369 OA
ATOM     16  H2  UNL     1      28.439 -17.035   2.247  1.00  0.00     0.212 HD
ENDBRANCH  12  15
BRANCH  13  17
HETATM   17  N1  UNL     1      26.099 -14.561   0.596  1.00  0.00    -0.349 N 
HETATM   18  C5  UNL     1      27.036 -13.515   0.789  1.00  0.00     0.222 C 
HETATM   19  O1  UNL     1      28.244 -13.769   0.972  1.00  0.00    -0.273 OA
ATOM     20  H1  UNL     1      25.111 -14.356   0.446  1.00  0.00     0.163 HD
BRANCH  18  21
HETATM   21  C3  UNL     1      26.565 -12.079   0.772  1.00  0.00     0.073 C 
HETATM   22  C4  UNL     1      25.694 -11.786   1.948  1.00  0.00     0.020 C 
BRANCH  21  23
HETATM   23  C2  UNL     1      25.842 -11.858  -0.539  1.00  0.00     0.009 C 
HETATM   24  C1  UNL     1      26.677 -11.169  -1.563  1.00  0.00     0.006 C 
ENDBRANCH  21  23
ENDBRANCH  18  21
ENDBRANCH  13  17
BRANCH  14  25
HETATM   25  O9  UNL     1      24.357 -16.400   0.084  1.00  0.00    -0.391 OA
ATOM     26  H9  UNL     1      23.785 -16.924  -0.465  1.00  0.00     0.210 HD
ENDBRANCH  14  25
ENDBRANCH   9  10
ENDBRANCH   7   9
ENDBRANCH   1   7
BRANCH   2  27
HETATM   27  N3  UNL     1      21.311 -20.201   0.426  1.00  0.00    -0.073 N 
ATOM     28  H33 UNL     1      21.796 -20.821   1.075  1.00  0.00     0.274 HD
ATOM     29  H32 UNL     1      20.619 -19.813   1.068  1.00  0.00     0.274 HD
ATOM     30  H31 UNL     1      20.870 -20.721  -0.332  1.00  0.00     0.274 HD
ENDBRANCH   2  27
BRANCH   6  31
HETATM   31  O8  UNL     1      23.293 -17.747  -2.487  1.00  0.00    -0.369 OA
ATOM     32  H8  UNL     1      22.777 -17.203  -3.071  1.00  0.00     0.212 HD
ENDBRANCH   6  31
BRANCH   4  33
HETATM   33  N4  UNL     1      20.503 -17.068  -2.727  1.00  0.00    -0.389 N 
ATOM     34  H4  UNL     1      20.924 -16.179  -2.456  1.00  0.00     0.156 HD
BRANCH  33  35
HETATM   35  C14 UNL     1      19.697 -17.098  -3.866  1.00  0.00     0.116 C 
HETATM   36  C15 UNL     1      18.486 -16.256  -3.970  1.00  0.00     0.038 C 
HETATM   37  C16 UNL     1      17.526 -16.854  -5.005  1.00  0.00     0.015 C 
HETATM   38  C17 UNL     1      18.999 -14.919  -4.499  1.00  0.00     0.162 C 
HETATM   39  O4  UNL     1      18.229 -14.450  -5.540  1.00  0.00    -0.347 OA
HETATM   40  C21 UNL     1      20.320 -15.200  -5.161  1.00  0.00     0.185 C 
HETATM   41  C18 UNL     1      19.151 -13.765  -6.325  1.00  0.00     0.158 C 
HETATM   42  C19 UNL     1      19.581 -12.464  -5.667  1.00  0.00     0.078 C 
HETATM   43  C20 UNL     1      18.577 -13.465  -7.700  1.00  0.00     0.078 C 
HETATM   44  O5  UNL     1      20.198 -14.674  -6.420  1.00  0.00    -0.345 OA
HETATM   45  C22 UNL     1      20.468 -16.681  -5.125  1.00  0.00     0.172 C 
BRANCH  45  46
HETATM   46  O6  UNL     1      21.794 -17.099  -5.051  1.00  0.00    -0.391 OA
ATOM     47  H6  UNL     1      22.198 -17.088  -5.911  1.00  0.00     0.210 HD
ENDBRANCH  45  46
ENDBRANCH  33  35
ENDBRANCH   4  33
TORSDOF 13
ENDMDL
