MODEL 1
REMARK VINA RESULT: -8.589472966      0.000      0.000
REMARK  5 active torsions:
REMARK  status: ('A' for Active; 'I' for Inactive)
REMARK    1  A    between atoms: C4_5  and  C5_6 
REMARK       I    between atoms: C5_6  and  N2_8 
REMARK    2  A    between atoms: N2_8  and  N3_10 
REMARK    3  A    between atoms: C6_12  and  C7_13 
REMARK    4  A    between atoms: C11_18  and  O3_19 
REMARK    5  A    between atoms: C12_21  and  C13_22 
ROOT
HETATM    1  N1  UNL     1      -3.145 -15.228  25.034  1.00  0.00    -0.195 NA
HETATM    2  C1  UNL     1      -2.543 -14.555  25.742  1.00  0.00     0.091 C 
HETATM    3  C2  UNL     1      -1.761 -13.716  26.658  1.00  0.00     0.229 C 
HETATM    4  C3  UNL     1      -0.368 -13.638  26.136  1.00  0.00     0.064 C 
HETATM    5  C4  UNL     1      -0.460 -12.954  24.790  1.00  0.00     0.114 C 
HETATM    6  C11 UNL     1      -1.186 -11.666  24.881  1.00  0.00     0.168 C 
HETATM    7  C12 UNL     1      -2.300 -11.597  25.851  1.00  0.00     0.229 C 
HETATM    8  O5  UNL     1      -2.392 -12.522  26.815  1.00  0.00    -0.355 OA
ENDROOT
BRANCH   5   9
HETATM    9  C5  UNL     1       0.852 -12.880  24.120  1.00  0.00     0.242 C 
HETATM   10  O1  UNL     1       1.033 -13.354  22.947  1.00  0.00    -0.271 OA
HETATM   11  N2  UNL     1       1.975 -12.279  24.747  1.00  0.00    -0.270 N 
ATOM     12  H2  UNL     1       1.864 -11.891  25.684  1.00  0.00     0.190 HD
BRANCH  11  13
HETATM   13  N3  UNL     1       3.219 -12.199  24.135  1.00  0.00    -0.307 N 
HETATM   14  C6  UNL     1       3.515 -11.263  23.292  1.00  0.00     0.144 C 
ATOM     15  H3  UNL     1       3.924 -12.901  24.358  1.00  0.00     0.186 HD
BRANCH  14  16
HETATM   16  C7  UNL     1       4.823 -11.191  22.656  1.00  0.00     0.091 A 
HETATM   17  C8  UNL     1       5.995 -11.683  23.228  1.00  0.00     0.040 A 
HETATM   18  C9  UNL     1       7.018 -11.434  22.338  1.00  0.00     0.027 A 
HETATM   19  C10 UNL     1       6.410 -10.800  21.265  1.00  0.00     0.142 A 
HETATM   20  O2  UNL     1       5.138 -10.688  21.509  1.00  0.00    -0.321 OA
ENDBRANCH  14  16
ENDBRANCH  11  13
ENDBRANCH   5   9
BRANCH   7  21
HETATM   21  C13 UNL     1      -2.339 -10.234  26.502  1.00  0.00     0.171 A 
HETATM   22  N4  UNL     1      -2.250  -9.958  27.820  1.00  0.00    -0.280 N 
HETATM   23  N5  UNL     1      -2.323  -8.662  28.026  1.00  0.00    -0.288 N 
ATOM     24  H4  UNL     1      -2.141 -10.658  28.554  1.00  0.00     0.189 HD
HETATM   25  C14 UNL     1      -2.461  -8.104  26.808  1.00  0.00     0.251 A 
ATOM     26  H5  UNL     1      -2.282  -8.178  28.924  1.00  0.00     0.188 HD
HETATM   27  O4  UNL     1      -2.468  -9.065  25.921  1.00  0.00    -0.288 OA
ENDBRANCH   7  21
BRANCH   6  28
HETATM   28  O3  UNL     1      -0.271 -10.663  25.198  1.00  0.00    -0.392 OA
ATOM     29  H3  UNL     1      -0.596  -9.838  24.855  1.00  0.00     0.210 HD
ENDBRANCH   6  28
TORSDOF 5
ENDMDL
MODEL 2
REMARK VINA RESULT: -7.991514308      2.326      7.234
REMARK  5 active torsions:
REMARK  status: ('A' for Active; 'I' for Inactive)
REMARK    1  A    between atoms: C4_5  and  C5_6 
REMARK       I    between atoms: C5_6  and  N2_8 
REMARK    2  A    between atoms: N2_8  and  N3_10 
REMARK    3  A    between atoms: C6_12  and  C7_13 
REMARK    4  A    between atoms: C11_18  and  O3_19 
REMARK    5  A    between atoms: C12_21  and  C13_22 
ROOT
HETATM    1  N1  UNL     1      -1.280 -15.610  22.436  1.00  0.00    -0.195 NA
HETATM    2  C1  UNL     1      -0.832 -14.632  22.036  1.00  0.00     0.091 C 
HETATM    3  C2  UNL     1      -0.278 -13.380  21.507  1.00  0.00     0.229 C 
HETATM    4  C3  UNL     1      -1.098 -12.254  22.034  1.00  0.00     0.064 C 
HETATM    5  C4  UNL     1      -0.929 -12.278  23.538  1.00  0.00     0.114 C 
HETATM    6  C11 UNL     1       0.500 -12.270  23.926  1.00  0.00     0.168 C 
HETATM    7  C12 UNL     1       1.435 -12.996  23.040  1.00  0.00     0.229 C 
HETATM    8  O5  UNL     1       1.048 -13.321  21.800  1.00  0.00    -0.355 OA
ENDROOT
BRANCH   5   9
HETATM    9  C5  UNL     1      -1.758 -11.253  24.200  1.00  0.00     0.242 C 
HETATM   10  O1  UNL     1      -2.413 -11.508  25.267  1.00  0.00    -0.271 OA
HETATM   11  N2  UNL     1      -1.867  -9.935  23.683  1.00  0.00    -0.270 N 
ATOM     12  H2  UNL     1      -1.356  -9.699  22.831  1.00  0.00     0.190 HD
BRANCH  11  13
HETATM   13  N3  UNL     1      -2.641  -8.955  24.290  1.00  0.00    -0.307 N 
HETATM   14  C6  UNL     1      -2.126  -8.032  25.037  1.00  0.00     0.144 C 
ATOM     15  H3  UNL     1      -3.650  -8.962  24.142  1.00  0.00     0.186 HD
BRANCH  14  16
HETATM   16  C7  UNL     1      -2.950  -7.011  25.668  1.00  0.00     0.091 A 
HETATM   17  C8  UNL     1      -3.086  -6.863  27.047  1.00  0.00     0.040 A 
HETATM   18  C9  UNL     1      -3.939  -5.800  27.260  1.00  0.00     0.027 A 
HETATM   19  C10 UNL     1      -4.277  -5.355  25.991  1.00  0.00     0.142 A 
HETATM   20  O2  UNL     1      -3.673  -6.097  25.110  1.00  0.00    -0.321 OA
ENDBRANCH  14  16
ENDBRANCH  11  13
ENDBRANCH   5   9
BRANCH   7  21
HETATM   21  C13 UNL     1       2.745 -12.251  22.944  1.00  0.00     0.171 A 
HETATM   22  N4  UNL     1       3.740 -12.230  23.856  1.00  0.00    -0.280 N 
HETATM   23  N5  UNL     1       4.732 -11.475  23.440  1.00  0.00    -0.288 N 
ATOM     24  H4  UNL     1       3.723 -12.730  24.745  1.00  0.00     0.189 HD
HETATM   25  C14 UNL     1       4.357 -11.008  22.234  1.00  0.00     0.251 A 
ATOM     26  H5  UNL     1       5.607 -11.283  23.929  1.00  0.00     0.188 HD
HETATM   27  O4  UNL     1       3.169 -11.487  21.966  1.00  0.00    -0.288 OA
ENDBRANCH   7  21
BRANCH   6  28
HETATM   28  O3  UNL     1       0.927 -10.945  24.015  1.00  0.00    -0.392 OA
ATOM     29  H3  UNL     1       1.495 -10.861  24.773  1.00  0.00     0.210 HD
ENDBRANCH   6  28
TORSDOF 5
ENDMDL
MODEL 3
REMARK VINA RESULT: -7.946459307      1.248      3.832
REMARK  5 active torsions:
REMARK  status: ('A' for Active; 'I' for Inactive)
REMARK    1  A    between atoms: C4_5  and  C5_6 
REMARK       I    between atoms: C5_6  and  N2_8 
REMARK    2  A    between atoms: N2_8  and  N3_10 
REMARK    3  A    between atoms: C6_12  and  C7_13 
REMARK    4  A    between atoms: C11_18  and  O3_19 
REMARK    5  A    between atoms: C12_21  and  C13_22 
ROOT
HETATM    1  N1  UNL     1      -1.606  -9.821  27.605  1.00  0.00    -0.195 NA
HETATM    2  C1  UNL     1      -1.972 -10.542  26.791  1.00  0.00     0.091 C 
HETATM    3  C2  UNL     1      -2.444 -11.443  25.733  1.00  0.00     0.229 C 
HETATM    4  C3  UNL     1      -1.355 -11.584  24.727  1.00  0.00     0.064 C 
HETATM    5  C4  UNL     1      -0.194 -12.230  25.451  1.00  0.00     0.114 C 
HETATM    6  C11 UNL     1      -0.604 -13.478  26.135  1.00  0.00     0.168 C 
HETATM    7  C12 UNL     1      -1.970 -13.510  26.700  1.00  0.00     0.229 C 
HETATM    8  O5  UNL     1      -2.871 -12.605  26.297  1.00  0.00    -0.355 OA
ENDROOT
BRANCH   5   9
HETATM    9  C5  UNL     1       0.992 -12.358  24.583  1.00  0.00     0.242 C 
HETATM   10  O1  UNL     1       0.929 -12.933  23.444  1.00  0.00    -0.271 OA
HETATM   11  N2  UNL     1       2.258 -11.848  24.974  1.00  0.00    -0.270 N 
ATOM     12  H2  UNL     1       2.342 -11.384  25.879  1.00  0.00     0.190 HD
BRANCH  11  13
HETATM   13  N3  UNL     1       3.388 -11.957  24.173  1.00  0.00    -0.307 N 
HETATM   14  C6  UNL     1       3.690 -11.070  23.281  1.00  0.00     0.144 C 
ATOM     15  H3  UNL     1       4.000 -12.764  24.292  1.00  0.00     0.186 HD
BRANCH  14  16
HETATM   16  C7  UNL     1       4.877 -11.198  22.447  1.00  0.00     0.091 A 
HETATM   17  C8  UNL     1       6.168 -11.356  22.948  1.00  0.00     0.040 A 
HETATM   18  C9  UNL     1       7.017 -11.439  21.865  1.00  0.00     0.027 A 
HETATM   19  C10 UNL     1       6.193 -11.327  20.756  1.00  0.00     0.142 A 
HETATM   20  O2  UNL     1       4.964 -11.188  21.158  1.00  0.00    -0.321 OA
ENDBRANCH  14  16
ENDBRANCH  11  13
ENDBRANCH   5   9
BRANCH   7  21
HETATM   21  C13 UNL     1      -2.574 -14.884  26.524  1.00  0.00     0.171 A 
HETATM   22  N4  UNL     1      -3.470 -15.267  25.591  1.00  0.00    -0.280 N 
HETATM   23  N5  UNL     1      -3.776 -16.536  25.738  1.00  0.00    -0.288 N 
ATOM     24  H4  UNL     1      -3.856 -14.655  24.871  1.00  0.00     0.189 HD
HETATM   25  C14 UNL     1      -3.055 -16.968  26.790  1.00  0.00     0.251 A 
ATOM     26  H5  UNL     1      -4.425 -17.083  25.171  1.00  0.00     0.188 HD
HETATM   27  O4  UNL     1      -2.350 -15.961  27.238  1.00  0.00    -0.288 OA
ENDBRANCH   7  21
BRANCH   6  28
HETATM   28  O3  UNL     1      -0.482 -14.537  25.235  1.00  0.00    -0.392 OA
ATOM     29  H3  UNL     1      -0.715 -15.342  25.682  1.00  0.00     0.210 HD
ENDBRANCH   6  28
TORSDOF 5
ENDMDL
MODEL 4
REMARK VINA RESULT: -7.801223841      1.287      1.401
REMARK  5 active torsions:
REMARK  status: ('A' for Active; 'I' for Inactive)
REMARK    1  A    between atoms: C4_5  and  C5_6 
REMARK       I    between atoms: C5_6  and  N2_8 
REMARK    2  A    between atoms: N2_8  and  N3_10 
REMARK    3  A    between atoms: C6_12  and  C7_13 
REMARK    4  A    between atoms: C11_18  and  O3_19 
REMARK    5  A    between atoms: C12_21  and  C13_22 
ROOT
HETATM    1  N1  UNL     1      -2.950 -14.158  24.937  1.00  0.00    -0.195 NA
HETATM    2  C1  UNL     1      -2.277 -13.427  25.510  1.00  0.00     0.091 C 
HETATM    3  C2  UNL     1      -1.399 -12.512  26.248  1.00  0.00     0.229 C 
HETATM    4  C3  UNL     1      -0.215 -12.218  25.394  1.00  0.00     0.064 C 
HETATM    5  C4  UNL     1      -0.747 -11.514  24.165  1.00  0.00     0.114 C 
HETATM    6  C11 UNL     1      -1.586 -10.349  24.524  1.00  0.00     0.168 C 
HETATM    7  C12 UNL     1      -2.405 -10.469  25.750  1.00  0.00     0.229 C 
HETATM    8  O5  UNL     1      -2.117 -11.426  26.642  1.00  0.00    -0.355 OA
ENDROOT
BRANCH   5   9
HETATM    9  C5  UNL     1       0.321 -11.233  23.187  1.00  0.00     0.242 C 
HETATM   10  O1  UNL     1       0.057 -10.876  21.990  1.00  0.00    -0.271 OA
HETATM   11  N2  UNL     1       1.694 -11.344  23.533  1.00  0.00    -0.270 N 
ATOM     12  H2  UNL     1       1.939 -11.627  24.482  1.00  0.00     0.190 HD
BRANCH  11  13
HETATM   13  N3  UNL     1       2.716 -11.083  22.629  1.00  0.00    -0.307 N 
HETATM   14  C6  UNL     1       3.940 -11.441  22.848  1.00  0.00     0.144 C 
ATOM     15  H3  UNL     1       2.494 -10.593  21.762  1.00  0.00     0.186 HD
BRANCH  14  16
HETATM   16  C7  UNL     1       5.002 -11.160  21.892  1.00  0.00     0.091 A 
HETATM   17  C8  UNL     1       6.312 -11.616  22.027  1.00  0.00     0.040 A 
HETATM   18  C9  UNL     1       7.019 -11.152  20.938  1.00  0.00     0.027 A 
HETATM   19  C10 UNL     1       6.096 -10.433  20.194  1.00  0.00     0.142 A 
HETATM   20  O2  UNL     1       4.945 -10.474  20.800  1.00  0.00    -0.321 OA
ENDBRANCH  14  16
ENDBRANCH  11  13
ENDBRANCH   5   9
BRANCH   7  21
HETATM   21  C13 UNL     1      -2.450  -9.147  26.478  1.00  0.00     0.171 A 
HETATM   22  N4  UNL     1      -2.124  -8.915  27.767  1.00  0.00    -0.280 N 
HETATM   23  N5  UNL     1      -2.285  -7.645  28.063  1.00  0.00    -0.288 N 
ATOM     24  H4  UNL     1      -1.797  -9.627  28.421  1.00  0.00     0.189 HD
HETATM   25  C14 UNL     1      -2.724  -7.058  26.933  1.00  0.00     0.251 A 
ATOM     26  H5  UNL     1      -2.113  -7.195  28.963  1.00  0.00     0.188 HD
HETATM   27  O4  UNL     1      -2.813  -7.978  26.007  1.00  0.00    -0.288 OA
ENDBRANCH   7  21
BRANCH   6  28
HETATM   28  O3  UNL     1      -0.760  -9.233  24.663  1.00  0.00    -0.392 OA
ATOM     29  H3  UNL     1      -0.227  -9.346  25.441  1.00  0.00     0.210 HD
ENDBRANCH   6  28
TORSDOF 5
ENDMDL
MODEL 5
REMARK VINA RESULT: -7.800040764      1.464      3.917
REMARK  5 active torsions:
REMARK  status: ('A' for Active; 'I' for Inactive)
REMARK    1  A    between atoms: C4_5  and  C5_6 
REMARK       I    between atoms: C5_6  and  N2_8 
REMARK    2  A    between atoms: N2_8  and  N3_10 
REMARK    3  A    between atoms: C6_12  and  C7_13 
REMARK    4  A    between atoms: C11_18  and  O3_19 
REMARK    5  A    between atoms: C12_21  and  C13_22 
ROOT
HETATM    1  N1  UNL     1      -1.604  -9.596  27.658  1.00  0.00    -0.195 NA
HETATM    2  C1  UNL     1      -1.959 -10.363  26.881  1.00  0.00     0.091 C 
HETATM    3  C2  UNL     1      -2.426 -11.324  25.876  1.00  0.00     0.229 C 
HETATM    4  C3  UNL     1      -1.639 -11.107  24.630  1.00  0.00     0.064 C 
HETATM    5  C4  UNL     1      -0.200 -11.414  24.982  1.00  0.00     0.114 C 
HETATM    6  C11 UNL     1      -0.065 -12.751  25.604  1.00  0.00     0.168 C 
HETATM    7  C12 UNL     1      -1.175 -13.198  26.472  1.00  0.00     0.229 C 
HETATM    8  O5  UNL     1      -2.361 -12.579  26.395  1.00  0.00    -0.355 OA
ENDROOT
BRANCH   5   9
HETATM    9  C5  UNL     1       0.708 -11.162  23.848  1.00  0.00     0.242 C 
HETATM   10  O1  UNL     1       0.283 -10.686  22.741  1.00  0.00    -0.271 OA
HETATM   11  N2  UNL     1       2.099 -11.438  23.933  1.00  0.00    -0.270 N 
ATOM     12  H2  UNL     1       2.471 -11.819  24.803  1.00  0.00     0.190 HD
BRANCH  11  13
HETATM   13  N3  UNL     1       2.973 -11.208  22.878  1.00  0.00    -0.307 N 
HETATM   14  C6  UNL     1       4.257 -11.296  23.013  1.00  0.00     0.144 C 
ATOM     15  H3  UNL     1       2.590 -10.962  21.965  1.00  0.00     0.186 HD
BRANCH  14  16
HETATM   16  C7  UNL     1       5.162 -11.051  21.899  1.00  0.00     0.091 A 
HETATM   17  C8  UNL     1       6.490 -11.472  21.866  1.00  0.00     0.040 A 
HETATM   18  C9  UNL     1       7.019 -11.059  20.662  1.00  0.00     0.027 A 
HETATM   19  C10 UNL     1       5.978 -10.405  20.022  1.00  0.00     0.142 A 
HETATM   20  O2  UNL     1       4.928 -10.433  20.789  1.00  0.00    -0.321 OA
ENDBRANCH  14  16
ENDBRANCH  11  13
ENDBRANCH   5   9
BRANCH   7  21
HETATM   21  C13 UNL     1      -1.408 -14.680  26.298  1.00  0.00     0.171 A 
HETATM   22  N4  UNL     1      -2.360 -15.273  25.546  1.00  0.00    -0.280 N 
HETATM   23  N5  UNL     1      -2.267 -16.581  25.632  1.00  0.00    -0.288 N 
ATOM     24  H4  UNL     1      -3.055 -14.775  24.990  1.00  0.00     0.189 HD
HETATM   25  C14 UNL     1      -1.231 -16.823  26.457  1.00  0.00     0.251 A 
ATOM     26  H5  UNL     1      -2.858 -17.272  25.168  1.00  0.00     0.188 HD
HETATM   27  O4  UNL     1      -0.740 -15.671  26.838  1.00  0.00    -0.288 OA
ENDBRANCH   7  21
BRANCH   6  28
HETATM   28  O3  UNL     1       0.103 -13.696  24.592  1.00  0.00    -0.392 OA
ATOM     29  H3  UNL     1       0.186 -14.555  24.991  1.00  0.00     0.210 HD
ENDBRANCH   6  28
TORSDOF 5
ENDMDL
