MODEL 1
REMARK VINA RESULT: -8.156247592      0.000      0.000
REMARK  5 active torsions:
REMARK  status: ('A' for Active; 'I' for Inactive)
REMARK    1  A    between atoms: C2_2  and  C5_5 
REMARK    2  A    between atoms: C5_5  and  O2_7 
REMARK    3  A    between atoms: O2_7  and  C6_8 
REMARK    4  A    between atoms: C16_18  and  O3_19 
REMARK    5  A    between atoms: C17_21  and  O4_22 
ROOT
HETATM    1  C6  UNL     1       7.213   3.402  98.248  1.00  0.00     0.163 C 
HETATM    2  C7  UNL     1       6.672   2.795  96.891  1.00  0.00     0.050 C 
HETATM    3  C8  UNL     1       5.413   2.747  97.782  1.00  0.00    -0.019 C 
HETATM    4  C9  UNL     1       4.490   1.898  97.029  1.00  0.00     0.019 C 
HETATM    5  C10 UNL     1       4.788   4.143  97.684  1.00  0.00     0.019 C 
HETATM    6  C11 UNL     1       6.248   2.527  98.957  1.00  0.00    -0.038 C 
HETATM    7  C12 UNL     1       6.141   1.993 100.246  1.00  0.00    -0.047 C 
HETATM    8  C13 UNL     1       7.266   2.423 101.160  1.00  0.00     0.006 C 
HETATM    9  C14 UNL     1       7.458   3.961 100.973  1.00  0.00     0.022 C 
HETATM   10  C15 UNL     1       8.602   1.828 100.881  1.00  0.00     0.022 C 
HETATM   11  C16 UNL     1       7.098   2.351 102.628  1.00  0.00     0.159 C 
HETATM   12  C17 UNL     1       5.842   2.504 103.331  1.00  0.00     0.148 C 
HETATM   13  C18 UNL     1       4.754   2.847 102.418  1.00  0.00     0.045 C 
HETATM   14  C19 UNL     1       4.109   1.676 101.672  1.00  0.00    -0.016 C 
HETATM   15  C20 UNL     1       2.965   2.441 101.015  1.00  0.00     0.018 C 
HETATM   16  C21 UNL     1       3.496   0.768 102.652  1.00  0.00     0.025 C 
HETATM   17  C22 UNL     1       2.101   0.250 102.297  1.00  0.00     0.026 C 
HETATM   18  C23 UNL     1       1.843  -1.147 102.817  1.00  0.00     0.066 C 
HETATM   19 BR1  UNL     1      -0.065  -1.440 102.820  1.00  0.00    -0.090 Br
HETATM   20  C24 UNL     1       2.344  -1.375 104.201  1.00  0.00    -0.031 C 
HETATM   21  C25 UNL     1       1.514  -0.631 105.240  1.00  0.00     0.016 C 
HETATM   22  C26 UNL     1       2.151  -2.857 104.518  1.00  0.00     0.016 C 
HETATM   23  C27 UNL     1       3.797  -1.069 104.369  1.00  0.00     0.044 C 
HETATM   24  C28 UNL     1       4.246  -0.390 103.093  1.00  0.00    -0.071 C 
HETATM   25  C29 UNL     1       5.300  -0.820 102.457  1.00  0.00     0.054 C 
HETATM   26  C30 UNL     1       5.768  -0.158 101.289  1.00  0.00     0.163 C 
HETATM   27  O5  UNL     1       6.779  -0.629 100.732  1.00  0.00    -0.292 OA
HETATM   28  C31 UNL     1       5.090   1.084 100.688  1.00  0.00     0.053 C 
HETATM   29  C32 UNL     1       4.221   0.303  99.762  1.00  0.00     0.029 C 
ENDROOT
BRANCH   1  30
HETATM   30  O2  UNL     1       8.592   3.238  98.187  1.00  0.00    -0.311 OA
BRANCH  30  31
HETATM   31  C5  UNL     1       9.340   3.425  97.031  1.00  0.00     0.267 C 
HETATM   32  O1  UNL     1       9.181   4.478  96.364  1.00  0.00    -0.264 OA
BRANCH  31  33
HETATM   33  C2  UNL     1      10.315   2.423  96.554  1.00  0.00     0.037 C 
HETATM   34  C1  UNL     1      10.887   1.704  97.776  1.00  0.00     0.025 C 
HETATM   35  C3  UNL     1       9.699   1.432  95.622  1.00  0.00     0.025 C 
HETATM   36  C4  UNL     1      11.497   3.107  95.874  1.00  0.00     0.025 C 
ENDBRANCH  31  33
ENDBRANCH  30  31
ENDBRANCH   1  30
BRANCH  11  37
HETATM   37  O3  UNL     1       7.847   1.278 103.172  1.00  0.00    -0.392 OA
ATOM     38  H3  UNL     1       7.320   0.490 103.228  1.00  0.00     0.210 HD
ENDBRANCH  11  37
BRANCH  12  39
HETATM   39  O4  UNL     1       5.975   3.621 104.246  1.00  0.00    -0.393 OA
ATOM     40  H4  UNL     1       5.251   4.215 104.091  1.00  0.00     0.210 HD
ENDBRANCH  12  39
TORSDOF 5
ENDMDL
MODEL 2
REMARK VINA RESULT: -7.655341245      2.704      4.971
REMARK  5 active torsions:
REMARK  status: ('A' for Active; 'I' for Inactive)
REMARK    1  A    between atoms: C2_2  and  C5_5 
REMARK    2  A    between atoms: C5_5  and  O2_7 
REMARK    3  A    between atoms: O2_7  and  C6_8 
REMARK    4  A    between atoms: C16_18  and  O3_19 
REMARK    5  A    between atoms: C17_21  and  O4_22 
ROOT
HETATM    1  C6  UNL     1       6.148   2.075 100.449  1.00  0.00     0.163 C 
HETATM    2  C7  UNL     1       7.090   3.062 101.248  1.00  0.00     0.050 C 
HETATM    3  C8  UNL     1       6.407   2.283 102.392  1.00  0.00    -0.019 C 
HETATM    4  C9  UNL     1       6.741   3.059 103.586  1.00  0.00     0.019 C 
HETATM    5  C10 UNL     1       7.221   0.994 102.552  1.00  0.00     0.019 C 
HETATM    6  C11 UNL     1       5.199   2.151 101.585  1.00  0.00    -0.038 C 
HETATM    7  C12 UNL     1       3.828   1.932 101.761  1.00  0.00    -0.047 C 
HETATM    8  C13 UNL     1       3.133   1.484 100.496  1.00  0.00     0.006 C 
HETATM    9  C14 UNL     1       4.017   0.374  99.846  1.00  0.00     0.022 C 
HETATM   10  C15 UNL     1       2.967   2.518  99.437  1.00  0.00     0.022 C 
HETATM   11  C16 UNL     1       1.833   0.781 100.573  1.00  0.00     0.159 C 
HETATM   12  C17 UNL     1       1.411  -0.071 101.663  1.00  0.00     0.148 C 
HETATM   13  C18 UNL     1       2.473  -0.246 102.652  1.00  0.00     0.045 C 
HETATM   14  C19 UNL     1       2.621   0.877 103.682  1.00  0.00    -0.016 C 
HETATM   15  C20 UNL     1       3.668   0.216 104.574  1.00  0.00     0.018 C 
HETATM   16  C21 UNL     1       1.387   0.957 104.477  1.00  0.00     0.025 C 
HETATM   17  C22 UNL     1       1.578   1.124 105.986  1.00  0.00     0.026 C 
HETATM   18  C23 UNL     1       0.477   1.937 106.631  1.00  0.00     0.066 C 
HETATM   19 BR1  UNL     1       0.511   1.588 108.529  1.00  0.00    -0.090 Br
HETATM   20  C24 UNL     1      -0.887   1.608 106.129  1.00  0.00    -0.031 C 
HETATM   21  C25 UNL     1      -1.358   0.241 106.607  1.00  0.00     0.016 C 
HETATM   22  C26 UNL     1      -1.857   2.610 106.754  1.00  0.00     0.016 C 
HETATM   23  C27 UNL     1      -1.021   1.724 104.645  1.00  0.00     0.044 C 
HETATM   24  C28 UNL     1       0.377   1.923 104.098  1.00  0.00    -0.071 C 
HETATM   25  C29 UNL     1       0.627   2.908 103.281  1.00  0.00     0.054 C 
HETATM   26  C30 UNL     1       1.920   3.076 102.714  1.00  0.00     0.163 C 
HETATM   27  O5  UNL     1       2.086   4.042 101.944  1.00  0.00    -0.292 OA
HETATM   28  C31 UNL     1       3.103   2.139 103.010  1.00  0.00     0.053 C 
HETATM   29  C32 UNL     1       3.617   2.959 104.144  1.00  0.00     0.029 C 
ENDROOT
BRANCH   1  30
HETATM   30  O2  UNL     1       5.994   2.663  99.198  1.00  0.00    -0.311 OA
BRANCH  30  31
HETATM   31  C5  UNL     1       6.953   2.600  98.195  1.00  0.00     0.267 C 
HETATM   32  O1  UNL     1       7.933   1.825  98.333  1.00  0.00    -0.264 OA
BRANCH  31  33
HETATM   33  C2  UNL     1       6.863   3.418  96.967  1.00  0.00     0.037 C 
HETATM   34  C1  UNL     1       5.393   3.773  96.745  1.00  0.00     0.025 C 
HETATM   35  C3  UNL     1       7.680   4.665  97.057  1.00  0.00     0.025 C 
HETATM   36  C4  UNL     1       7.291   2.604  95.749  1.00  0.00     0.025 C 
ENDBRANCH  31  33
ENDBRANCH  30  31
ENDBRANCH   1  30
BRANCH  11  37
HETATM   37  O3  UNL     1       0.775   1.627 100.160  1.00  0.00    -0.392 OA
ATOM     38  H3  UNL     1       0.964   2.022  99.317  1.00  0.00     0.210 HD
ENDBRANCH  11  37
BRANCH  12  39
HETATM   39  O4  UNL     1       1.137  -1.387 101.121  1.00  0.00    -0.393 OA
ATOM     40  H4  UNL     1       0.853  -1.945 101.835  1.00  0.00     0.210 HD
ENDBRANCH  12  39
TORSDOF 5
ENDMDL
MODEL 3
REMARK VINA RESULT: -7.600892425      2.612      4.721
REMARK  5 active torsions:
REMARK  status: ('A' for Active; 'I' for Inactive)
REMARK    1  A    between atoms: C2_2  and  C5_5 
REMARK    2  A    between atoms: C5_5  and  O2_7 
REMARK    3  A    between atoms: O2_7  and  C6_8 
REMARK    4  A    between atoms: C16_18  and  O3_19 
REMARK    5  A    between atoms: C17_21  and  O4_22 
ROOT
HETATM    1  C6  UNL     1       7.012   2.128 100.409  1.00  0.00     0.163 C 
HETATM    2  C7  UNL     1       8.072   3.132 101.017  1.00  0.00     0.050 C 
HETATM    3  C8  UNL     1       7.620   2.354 102.271  1.00  0.00    -0.019 C 
HETATM    4  C9  UNL     1       8.156   3.142 103.379  1.00  0.00     0.019 C 
HETATM    5  C10 UNL     1       8.465   1.075 102.287  1.00  0.00     0.019 C 
HETATM    6  C11 UNL     1       6.286   2.202 101.699  1.00  0.00    -0.038 C 
HETATM    7  C12 UNL     1       4.973   1.969 102.124  1.00  0.00    -0.047 C 
HETATM    8  C13 UNL     1       4.064   1.503 101.009  1.00  0.00     0.006 C 
HETATM    9  C14 UNL     1       4.828   0.398 100.215  1.00  0.00     0.022 C 
HETATM   10  C15 UNL     1       3.695   2.528  99.994  1.00  0.00     0.022 C 
HETATM   11  C16 UNL     1       2.810   0.787 101.326  1.00  0.00     0.159 C 
HETATM   12  C17 UNL     1       2.604  -0.062 102.480  1.00  0.00     0.148 C 
HETATM   13  C18 UNL     1       3.831  -0.217 103.259  1.00  0.00     0.045 C 
HETATM   14  C19 UNL     1       4.151   0.915 104.239  1.00  0.00    -0.016 C 
HETATM   15  C20 UNL     1       5.351   0.273 104.928  1.00  0.00     0.018 C 
HETATM   16  C21 UNL     1       3.082   0.988 105.246  1.00  0.00     0.025 C 
HETATM   17  C22 UNL     1       3.542   1.169 106.693  1.00  0.00     0.026 C 
HETATM   18  C23 UNL     1       2.568   1.974 107.524  1.00  0.00     0.066 C 
HETATM   19 BR1  UNL     1       2.952   1.640 109.386  1.00  0.00    -0.090 Br
HETATM   20  C24 UNL     1       1.140   1.626 107.281  1.00  0.00    -0.031 C 
HETATM   21  C25 UNL     1       0.781   0.257 107.845  1.00  0.00     0.016 C 
HETATM   22  C26 UNL     1       0.288   2.621 108.067  1.00  0.00     0.016 C 
HETATM   23  C27 UNL     1       0.735   1.729 105.846  1.00  0.00     0.044 C 
HETATM   24  C28 UNL     1       2.007   1.939 105.052  1.00  0.00    -0.071 C 
HETATM   25  C29 UNL     1       2.092   2.920 104.198  1.00  0.00     0.054 C 
HETATM   26  C30 UNL     1       3.257   3.098 103.403  1.00  0.00     0.163 C 
HETATM   27  O5  UNL     1       3.267   4.061 102.611  1.00  0.00    -0.292 OA
HETATM   28  C31 UNL     1       4.486   2.177 103.483  1.00  0.00     0.053 C 
HETATM   29  C32 UNL     1       5.188   3.012 104.500  1.00  0.00     0.029 C 
ENDROOT
BRANCH   1  30
HETATM   30  O2  UNL     1       6.626   2.705  99.204  1.00  0.00    -0.311 OA
BRANCH  30  31
HETATM   31  C5  UNL     1       7.335   2.560  98.019  1.00  0.00     0.267 C 
HETATM   32  O1  UNL     1       8.226   1.677  97.944  1.00  0.00    -0.264 OA
BRANCH  31  33
HETATM   33  C2  UNL     1       7.081   3.414  96.840  1.00  0.00     0.037 C 
HETATM   34  C1  UNL     1       5.577   3.681  96.767  1.00  0.00     0.025 C 
HETATM   35  C3  UNL     1       7.825   4.707  96.907  1.00  0.00     0.025 C 
HETATM   36  C4  UNL     1       7.443   2.675  95.555  1.00  0.00     0.025 C 
ENDBRANCH  31  33
ENDBRANCH  30  31
ENDBRANCH   1  30
BRANCH  11  37
HETATM   37  O3  UNL     1       1.683   1.618 101.110  1.00  0.00    -0.392 OA
ATOM     38  H3  UNL     1       1.340   1.502 100.232  1.00  0.00     0.210 HD
ENDBRANCH  11  37
BRANCH  12  39
HETATM   39  O4  UNL     1       2.252  -1.385 102.005  1.00  0.00    -0.393 OA
ATOM     40  H4  UNL     1       2.132  -1.946 102.762  1.00  0.00     0.210 HD
ENDBRANCH  12  39
TORSDOF 5
ENDMDL
MODEL 4
REMARK VINA RESULT: -7.082739146      3.336      8.383
REMARK  5 active torsions:
REMARK  status: ('A' for Active; 'I' for Inactive)
REMARK    1  A    between atoms: C2_2  and  C5_5 
REMARK    2  A    between atoms: C5_5  and  O2_7 
REMARK    3  A    between atoms: O2_7  and  C6_8 
REMARK    4  A    between atoms: C16_18  and  O3_19 
REMARK    5  A    between atoms: C17_21  and  O4_22 
ROOT
HETATM    1  C6  UNL     1       5.980  -1.228 105.794  1.00  0.00     0.163 C 
HETATM    2  C7  UNL     1       6.869  -2.504 105.508  1.00  0.00     0.050 C 
HETATM    3  C8  UNL     1       7.611  -1.416 104.703  1.00  0.00    -0.019 C 
HETATM    4  C9  UNL     1       8.538  -2.178 103.867  1.00  0.00     0.019 C 
HETATM    5  C10 UNL     1       8.523  -0.710 105.712  1.00  0.00     0.019 C 
HETATM    6  C11 UNL     1       6.345  -0.741 104.442  1.00  0.00    -0.038 C 
HETATM    7  C12 UNL     1       5.794   0.153 103.517  1.00  0.00    -0.047 C 
HETATM    8  C13 UNL     1       4.526   0.811 104.013  1.00  0.00     0.006 C 
HETATM    9  C14 UNL     1       4.785   1.277 105.480  1.00  0.00     0.022 C 
HETATM   10  C15 UNL     1       3.321  -0.060 104.088  1.00  0.00     0.022 C 
HETATM   11  C16 UNL     1       4.063   2.078 103.407  1.00  0.00     0.159 C 
HETATM   12  C17 UNL     1       4.924   3.094 102.840  1.00  0.00     0.148 C 
HETATM   13  C18 UNL     1       6.336   2.768 103.028  1.00  0.00     0.045 C 
HETATM   14  C19 UNL     1       6.940   1.793 102.014  1.00  0.00    -0.016 C 
HETATM   15  C20 UNL     1       8.395   1.886 102.464  1.00  0.00     0.018 C 
HETATM   16  C21 UNL     1       6.877   2.398 100.676  1.00  0.00     0.025 C 
HETATM   17  C22 UNL     1       8.136   2.253  99.820  1.00  0.00     0.026 C 
HETATM   18  C23 UNL     1       7.833   2.152  98.342  1.00  0.00     0.066 C 
HETATM   19 BR1  UNL     1       9.453   2.555  97.371  1.00  0.00    -0.090 Br
HETATM   20  C24 UNL     1       6.776   3.094  97.879  1.00  0.00    -0.031 C 
HETATM   21  C25 UNL     1       7.259   4.539  97.874  1.00  0.00     0.016 C 
HETATM   22  C26 UNL     1       6.478   2.765  96.417  1.00  0.00     0.016 C 
HETATM   23  C27 UNL     1       5.492   2.970  98.634  1.00  0.00     0.044 C 
HETATM   24  C28 UNL     1       5.768   2.056  99.809  1.00  0.00    -0.071 C 
HETATM   25  C29 UNL     1       4.996   1.032 100.038  1.00  0.00     0.054 C 
HETATM   26  C30 UNL     1       5.207   0.196 101.170  1.00  0.00     0.163 C 
HETATM   27  O5  UNL     1       4.430  -0.767 101.322  1.00  0.00    -0.292 OA
HETATM   28  C31 UNL     1       6.336   0.421 102.189  1.00  0.00     0.053 C 
HETATM   29  C32 UNL     1       7.301  -0.474 101.489  1.00  0.00     0.029 C 
ENDROOT
BRANCH   1  30
HETATM   30  O2  UNL     1       4.746  -1.734 106.189  1.00  0.00    -0.311 OA
BRANCH  30  31
HETATM   31  C5  UNL     1       4.436  -2.070 107.501  1.00  0.00     0.267 C 
HETATM   32  O1  UNL     1       4.684  -3.232 107.909  1.00  0.00    -0.264 OA
BRANCH  31  33
HETATM   33  C2  UNL     1       3.819  -1.106 108.435  1.00  0.00     0.037 C 
HETATM   34  C1  UNL     1       3.278  -1.891 109.631  1.00  0.00     0.025 C 
HETATM   35  C3  UNL     1       4.787  -0.070 108.902  1.00  0.00     0.025 C 
HETATM   36  C4  UNL     1       2.611  -0.432 107.789  1.00  0.00     0.025 C 
ENDBRANCH  31  33
ENDBRANCH  30  31
ENDBRANCH   1  30
BRANCH  11  37
HETATM   37  O3  UNL     1       2.934   1.862 102.580  1.00  0.00    -0.392 OA
ATOM     38  H3  UNL     1       3.187   1.465 101.755  1.00  0.00     0.210 HD
ENDBRANCH  11  37
BRANCH  12  39
HETATM   39  O4  UNL     1       4.691   4.331 103.559  1.00  0.00    -0.393 OA
ATOM     40  H4  UNL     1       5.391   4.933 103.341  1.00  0.00     0.210 HD
ENDBRANCH  12  39
TORSDOF 5
ENDMDL
MODEL 5
REMARK VINA RESULT: -6.885874477      3.089      8.189
REMARK  5 active torsions:
REMARK  status: ('A' for Active; 'I' for Inactive)
REMARK    1  A    between atoms: C2_2  and  C5_5 
REMARK    2  A    between atoms: C5_5  and  O2_7 
REMARK    3  A    between atoms: O2_7  and  C6_8 
REMARK    4  A    between atoms: C16_18  and  O3_19 
REMARK    5  A    between atoms: C17_21  and  O4_22 
ROOT
HETATM    1  C6  UNL     1       4.265   1.351 105.005  1.00  0.00     0.163 C 
HETATM    2  C7  UNL     1       4.062   2.872 105.386  1.00  0.00     0.050 C 
HETATM    3  C8  UNL     1       4.051   2.929 103.844  1.00  0.00    -0.019 C 
HETATM    4  C9  UNL     1       4.173   4.357 103.550  1.00  0.00     0.019 C 
HETATM    5  C10 UNL     1       2.613   2.591 103.431  1.00  0.00     0.019 C 
HETATM    6  C11 UNL     1       4.984   1.810 103.792  1.00  0.00    -0.038 C 
HETATM    7  C12 UNL     1       5.925   1.256 102.917  1.00  0.00    -0.047 C 
HETATM    8  C13 UNL     1       6.293  -0.168 103.266  1.00  0.00     0.006 C 
HETATM    9  C14 UNL     1       4.965  -0.934 103.560  1.00  0.00     0.022 C 
HETATM   10  C15 UNL     1       7.125  -0.350 104.487  1.00  0.00     0.022 C 
HETATM   11  C16 UNL     1       6.891  -1.052 102.242  1.00  0.00     0.159 C 
HETATM   12  C17 UNL     1       6.633  -0.973 100.821  1.00  0.00     0.148 C 
HETATM   13  C18 UNL     1       5.617   0.031 100.513  1.00  0.00     0.045 C 
HETATM   14  C19 UNL     1       6.107   1.479 100.431  1.00  0.00    -0.016 C 
HETATM   15  C20 UNL     1       4.815   2.118  99.933  1.00  0.00     0.018 C 
HETATM   16  C21 UNL     1       7.078   1.590  99.333  1.00  0.00     0.025 C 
HETATM   17  C22 UNL     1       6.923   2.814  98.429  1.00  0.00     0.026 C 
HETATM   18  C23 UNL     1       8.243   3.312  97.883  1.00  0.00     0.066 C 
HETATM   19 BR1  UNL     1       7.872   4.435  96.357  1.00  0.00    -0.090 Br
HETATM   20  C24 UNL     1       9.159   2.224  97.439  1.00  0.00    -0.031 C 
HETATM   21  C25 UNL     1       8.670   1.550  96.163  1.00  0.00     0.016 C 
HETATM   22  C26 UNL     1      10.491   2.873  97.065  1.00  0.00     0.016 C 
HETATM   23  C27 UNL     1       9.439   1.209  98.499  1.00  0.00     0.044 C 
HETATM   24  C28 UNL     1       8.491   1.504  99.641  1.00  0.00    -0.071 C 
HETATM   25  C29 UNL     1       8.946   1.626 100.857  1.00  0.00     0.054 C 
HETATM   26  C30 UNL     1       8.063   1.845 101.949  1.00  0.00     0.163 C 
HETATM   27  O5  UNL     1       8.572   1.955 103.082  1.00  0.00    -0.292 OA
HETATM   28  C31 UNL     1       6.537   1.960 101.796  1.00  0.00     0.053 C 
HETATM   29  C32 UNL     1       6.549   3.444 101.651  1.00  0.00     0.029 C 
ENDROOT
BRANCH   1  30
HETATM   30  O2  UNL     1       4.831   0.773 106.137  1.00  0.00    -0.311 OA
BRANCH  30  31
HETATM   31  C5  UNL     1       4.088   0.227 107.175  1.00  0.00     0.267 C 
HETATM   32  O1  UNL     1       3.133  -0.544 106.904  1.00  0.00    -0.264 OA
BRANCH  31  33
HETATM   33  C2  UNL     1       4.379   0.524 108.593  1.00  0.00     0.037 C 
HETATM   34  C1  UNL     1       5.712  -0.135 108.948  1.00  0.00     0.025 C 
HETATM   35  C3  UNL     1       4.449   1.992 108.861  1.00  0.00     0.025 C 
HETATM   36  C4  UNL     1       3.333  -0.119 109.501  1.00  0.00     0.025 C 
ENDBRANCH  31  33
ENDBRANCH  30  31
ENDBRANCH   1  30
BRANCH  11  37
HETATM   37  O3  UNL     1       8.271  -1.252 102.489  1.00  0.00    -0.392 OA
ATOM     38  H3  UNL     1       8.524  -0.879 103.325  1.00  0.00     0.210 HD
ENDBRANCH  11  37
BRANCH  12  39
HETATM   39  O4  UNL     1       6.090  -2.247 100.393  1.00  0.00    -0.393 OA
ATOM     40  H4  UNL     1       6.493  -2.929 100.917  1.00  0.00     0.210 HD
ENDBRANCH  12  39
TORSDOF 5
ENDMDL
