MODEL 1
REMARK VINA RESULT: -6.848981081      0.000      0.000
REMARK  4 active torsions:
REMARK  status: ('A' for Active; 'I' for Inactive)
REMARK    1  A    between atoms: C12_12  and  O1_13 
REMARK    2  A    between atoms: C17_19  and  O2_20 
REMARK    3  A    between atoms: C30_37  and  O5_38 
REMARK    4  A    between atoms: O5_38  and  C31_39 
ROOT
HETATM    1  C1  UNL     1       4.398  -0.783 100.122  1.00  0.00     0.026 C 
HETATM    2  C2  UNL     1       5.074   0.169 100.766  1.00  0.00    -0.007 C 
HETATM    3  C3  UNL     1       4.360   1.426 101.112  1.00  0.00    -0.033 C 
HETATM    4  C4  UNL     1       5.298   2.542 101.492  1.00  0.00    -0.040 C 
HETATM    5  C5  UNL     1       5.316   2.991 102.871  1.00  0.00     0.013 C 
HETATM    6  C6  UNL     1       5.715   2.219 104.019  1.00  0.00     0.015 C 
HETATM    7  C7  UNL     1       3.852   3.445 103.115  1.00  0.00     0.015 C 
HETATM    8  C8  UNL     1       2.968   2.205 103.105  1.00  0.00     0.008 C 
HETATM    9  C9  UNL     1       3.139   1.273 101.968  1.00  0.00    -0.009 C 
HETATM   10  C10 UNL     1       3.178  -0.148 102.587  1.00  0.00     0.021 C 
HETATM   11  C11 UNL     1       1.958   1.212 101.007  1.00  0.00     0.046 C 
HETATM   12  C12 UNL     1       0.815   2.120 101.314  1.00  0.00     0.124 C 
HETATM   13  C13 UNL     1       0.532   1.943 102.780  1.00  0.00     0.033 C 
HETATM   14  C14 UNL     1      -0.877   2.209 103.111  1.00  0.00    -0.015 C 
HETATM   15  C15 UNL     1      -1.509   3.367 102.343  1.00  0.00     0.018 C 
HETATM   16  C16 UNL     1      -1.684   0.974 102.674  1.00  0.00     0.018 C 
HETATM   17  C17 UNL     1      -1.130   2.457 104.574  1.00  0.00     0.130 C 
HETATM   18  C18 UNL     1       0.033   1.901 105.335  1.00  0.00     0.012 C 
HETATM   19  C19 UNL     1      -0.231   2.202 106.817  1.00  0.00     0.012 C 
HETATM   20  C20 UNL     1       1.357   2.457 105.005  1.00  0.00     0.017 C 
HETATM   21  C21 UNL     1       1.607   2.656 103.500  1.00  0.00    -0.032 C 
HETATM   22  C22 UNL     1       1.463   4.175 103.320  1.00  0.00     0.016 C 
HETATM   23  C23 UNL     1       6.526   2.342 100.740  1.00  0.00     0.124 C 
HETATM   24 BR1  UNL     1       5.922   2.199  98.859  1.00  0.00    -0.070 Br
HETATM   25  C24 UNL     1       7.538   3.380 100.672  1.00  0.00     0.163 C 
HETATM   26  O3  UNL     1       7.688   4.463 101.136  1.00  0.00    -0.295 OA
HETATM   27  C25 UNL     1       8.563   2.743  99.739  1.00  0.00     0.124 C 
HETATM   28  C26 UNL     1       8.523   3.344  98.378  1.00  0.00     0.026 C 
HETATM   29  C27 UNL     1       8.237   1.296  99.780  1.00  0.00     0.155 C 
HETATM   30  O4  UNL     1       8.611   0.492  99.008  1.00  0.00    -0.296 OA
HETATM   31  C28 UNL     1       7.376   1.134 100.964  1.00  0.00     0.096 C 
HETATM   32  C29 UNL     1       8.366   1.292 102.133  1.00  0.00     0.033 C 
HETATM   33  C30 UNL     1       6.539  -0.050 101.089  1.00  0.00     0.085 C 
ENDROOT
BRANCH  33  34
HETATM   34  O5  UNL     1       7.019  -1.253 100.616  1.00  0.00    -0.281 OA
BRANCH  34  35
HETATM   35  C31 UNL     1       7.354  -2.380 101.301  1.00  0.00     0.259 C 
HETATM   36  C32 UNL     1       7.202  -2.416 102.763  1.00  0.00     0.126 C 
HETATM   37  O6  UNL     1       7.770  -3.293 100.580  1.00  0.00    -0.265 OA
ENDBRANCH  34  35
ENDBRANCH  33  34
BRANCH  12  38
HETATM   38  O1  UNL     1      -0.268   1.689 100.525  1.00  0.00    -0.395 OA
ATOM     39  H1  UNL     1      -0.990   2.279 100.707  1.00  0.00     0.210 HD
ENDBRANCH  12  38
BRANCH  17  40
HETATM   40  O2  UNL     1      -2.274   1.784 105.056  1.00  0.00    -0.394 OA
ATOM     41  H2  UNL     1      -2.084   0.902 105.355  1.00  0.00     0.210 HD
ENDBRANCH  17  40
TORSDOF 4
ENDMDL
MODEL 2
REMARK VINA RESULT: -6.183489068      2.062      4.386
REMARK  4 active torsions:
REMARK  status: ('A' for Active; 'I' for Inactive)
REMARK    1  A    between atoms: C12_12  and  O1_13 
REMARK    2  A    between atoms: C17_19  and  O2_20 
REMARK    3  A    between atoms: C30_37  and  O5_38 
REMARK    4  A    between atoms: O5_38  and  C31_39 
ROOT
HETATM    1  C1  UNL     1       5.144   2.955 104.505  1.00  0.00     0.026 C 
HETATM    2  C2  UNL     1       4.938   2.249 103.392  1.00  0.00    -0.007 C 
HETATM    3  C3  UNL     1       3.610   1.609 103.202  1.00  0.00    -0.033 C 
HETATM    4  C4  UNL     1       3.619   0.561 102.120  1.00  0.00    -0.040 C 
HETATM    5  C5  UNL     1       2.892   0.828 100.893  1.00  0.00     0.013 C 
HETATM    6  C6  UNL     1       3.174   1.867  99.937  1.00  0.00     0.015 C 
HETATM    7  C7  UNL     1       1.436   1.045 101.385  1.00  0.00     0.015 C 
HETATM    8  C8  UNL     1       1.396   2.349 102.170  1.00  0.00     0.008 C 
HETATM    9  C9  UNL     1       2.428   2.531 103.214  1.00  0.00    -0.009 C 
HETATM   10  C10 UNL     1       2.962   3.976 103.035  1.00  0.00     0.021 C 
HETATM   11  C11 UNL     1       1.902   2.520 104.644  1.00  0.00     0.046 C 
HETATM   12  C12 UNL     1       0.437   2.289 104.801  1.00  0.00     0.124 C 
HETATM   13  C13 UNL     1      -0.232   3.209 103.818  1.00  0.00     0.033 C 
HETATM   14  C14 UNL     1      -1.581   3.603 104.256  1.00  0.00    -0.015 C 
HETATM   15  C15 UNL     1      -2.382   2.500 104.941  1.00  0.00     0.018 C 
HETATM   16  C16 UNL     1      -1.406   4.680 105.341  1.00  0.00     0.018 C 
HETATM   17  C17 UNL     1      -2.445   4.162 103.157  1.00  0.00     0.130 C 
HETATM   18  C18 UNL     1      -1.541   4.594 102.045  1.00  0.00     0.012 C 
HETATM   19  C19 UNL     1      -2.449   5.122 100.924  1.00  0.00     0.012 C 
HETATM   20  C20 UNL     1      -0.682   3.552 101.458  1.00  0.00     0.017 C 
HETATM   21  C21 UNL     1      -0.035   2.606 102.485  1.00  0.00    -0.032 C 
HETATM   22  C22 UNL     1      -0.863   1.319 102.345  1.00  0.00     0.016 C 
HETATM   23  C23 UNL     1       4.950  -0.024 102.104  1.00  0.00     0.124 C 
HETATM   24 BR1  UNL     1       5.252  -0.584 103.979  1.00  0.00    -0.070 Br
HETATM   25  C24 UNL     1       5.222  -1.240 101.360  1.00  0.00     0.163 C 
HETATM   26  O3  UNL     1       4.608  -1.965 100.646  1.00  0.00    -0.295 OA
HETATM   27  C25 UNL     1       6.688  -1.484 101.705  1.00  0.00     0.124 C 
HETATM   28  C26 UNL     1       6.851  -2.599 102.678  1.00  0.00     0.026 C 
HETATM   29  C27 UNL     1       7.167  -0.168 102.196  1.00  0.00     0.155 C 
HETATM   30  O4  UNL     1       8.156   0.013 102.805  1.00  0.00    -0.296 OA
HETATM   31  C28 UNL     1       6.147   0.797 101.750  1.00  0.00     0.096 C 
HETATM   32  C29 UNL     1       6.398   0.887 100.234  1.00  0.00     0.033 C 
HETATM   33  C30 UNL     1       6.064   2.103 102.387  1.00  0.00     0.085 C 
ENDROOT
BRANCH  33  34
HETATM   34  O5  UNL     1       7.230   2.716 102.795  1.00  0.00    -0.281 OA
BRANCH  34  35
HETATM   35  C31 UNL     1       8.190   3.328 102.049  1.00  0.00     0.259 C 
HETATM   36  C32 UNL     1       7.823   3.997 100.793  1.00  0.00     0.126 C 
HETATM   37  O6  UNL     1       9.323   3.247 102.538  1.00  0.00    -0.265 OA
ENDBRANCH  34  35
ENDBRANCH  33  34
BRANCH  12  38
HETATM   38  O1  UNL     1       0.114   2.630 106.128  1.00  0.00    -0.395 OA
ATOM     39  H1  UNL     1      -0.811   2.444 106.240  1.00  0.00     0.210 HD
ENDBRANCH  12  38
BRANCH  17  40
HETATM   40  O2  UNL     1      -3.161   5.314 103.553  1.00  0.00    -0.394 OA
ATOM     41  H2  UNL     1      -4.086   5.265 103.340  1.00  0.00     0.210 HD
ENDBRANCH  17  40
TORSDOF 4
ENDMDL
MODEL 3
REMARK VINA RESULT: -6.131657708      1.951      4.479
REMARK  4 active torsions:
REMARK  status: ('A' for Active; 'I' for Inactive)
REMARK    1  A    between atoms: C12_12  and  O1_13 
REMARK    2  A    between atoms: C17_19  and  O2_20 
REMARK    3  A    between atoms: C30_37  and  O5_38 
REMARK    4  A    between atoms: O5_38  and  C31_39 
ROOT
HETATM    1  C1  UNL     1       4.757   2.765 104.183  1.00  0.00     0.026 C 
HETATM    2  C2  UNL     1       4.376   2.342 102.977  1.00  0.00    -0.007 C 
HETATM    3  C3  UNL     1       2.968   1.900 102.800  1.00  0.00    -0.033 C 
HETATM    4  C4  UNL     1       2.760   1.115 101.531  1.00  0.00    -0.040 C 
HETATM    5  C5  UNL     1       1.975   1.715 100.468  1.00  0.00     0.013 C 
HETATM    6  C6  UNL     1       2.306   2.900  99.722  1.00  0.00     0.015 C 
HETATM    7  C7  UNL     1       0.602   1.971 101.145  1.00  0.00     0.015 C 
HETATM    8  C8  UNL     1       0.786   3.072 102.180  1.00  0.00     0.008 C 
HETATM    9  C9  UNL     1       1.914   2.916 103.125  1.00  0.00    -0.009 C 
HETATM   10  C10 UNL     1       2.607   4.301 103.191  1.00  0.00     0.021 C 
HETATM   11  C11 UNL     1       1.508   2.651 104.570  1.00  0.00     0.046 C 
HETATM   12  C12 UNL     1       0.043   2.544 104.829  1.00  0.00     0.124 C 
HETATM   13  C13 UNL     1      -0.584   3.719 104.132  1.00  0.00     0.033 C 
HETATM   14  C14 UNL     1      -1.834   4.148 104.780  1.00  0.00    -0.015 C 
HETATM   15  C15 UNL     1      -2.708   3.012 105.304  1.00  0.00     0.018 C 
HETATM   16  C16 UNL     1      -1.441   4.941 106.039  1.00  0.00     0.018 C 
HETATM   17  C17 UNL     1      -2.708   5.018 103.916  1.00  0.00     0.130 C 
HETATM   18  C18 UNL     1      -1.850   5.584 102.828  1.00  0.00     0.012 C 
HETATM   19  C19 UNL     1      -2.773   6.433 101.941  1.00  0.00     0.012 C 
HETATM   20  C20 UNL     1      -1.177   4.609 101.952  1.00  0.00     0.017 C 
HETATM   21  C21 UNL     1      -0.571   3.402 102.690  1.00  0.00    -0.032 C 
HETATM   22  C22 UNL     1      -1.561   2.268 102.377  1.00  0.00     0.016 C 
HETATM   23  C23 UNL     1       4.002   0.412 101.256  1.00  0.00     0.124 C 
HETATM   24 BR1  UNL     1       4.382  -0.568 102.934  1.00  0.00    -0.070 Br
HETATM   25  C24 UNL     1       4.061  -0.636 100.254  1.00  0.00     0.163 C 
HETATM   26  O3  UNL     1       3.306  -1.122  99.475  1.00  0.00    -0.295 OA
HETATM   27  C25 UNL     1       5.508  -1.100 100.386  1.00  0.00     0.124 C 
HETATM   28  C26 UNL     1       5.610  -2.409 101.087  1.00  0.00     0.026 C 
HETATM   29  C27 UNL     1       6.184   0.022 101.083  1.00  0.00     0.155 C 
HETATM   30  O4  UNL     1       7.234  -0.037 101.609  1.00  0.00    -0.296 OA
HETATM   31  C28 UNL     1       5.259   1.161 100.954  1.00  0.00     0.096 C 
HETATM   32  C29 UNL     1       5.397   1.550  99.471  1.00  0.00     0.033 C 
HETATM   33  C30 UNL     1       5.390   2.300 101.851  1.00  0.00     0.085 C 
ENDROOT
BRANCH  33  34
HETATM   34  O5  UNL     1       6.652   2.685 102.251  1.00  0.00    -0.281 OA
BRANCH  34  35
HETATM   35  C31 UNL     1       7.613   3.352 101.555  1.00  0.00     0.259 C 
HETATM   36  C32 UNL     1       9.031   3.048 101.794  1.00  0.00     0.126 C 
HETATM   37  O6  UNL     1       7.161   4.182 100.758  1.00  0.00    -0.265 OA
ENDBRANCH  34  35
ENDBRANCH  33  34
BRANCH  12  38
HETATM   38  O1  UNL     1      -0.127   2.622 106.224  1.00  0.00    -0.395 OA
ATOM     39  H1  UNL     1      -0.219   3.544 106.437  1.00  0.00     0.210 HD
ENDBRANCH  12  38
BRANCH  17  40
HETATM   40  O2  UNL     1      -3.241   6.125 104.613  1.00  0.00    -0.394 OA
ATOM     41  H2  UNL     1      -2.887   6.214 105.490  1.00  0.00     0.210 HD
ENDBRANCH  17  40
TORSDOF 4
ENDMDL
MODEL 4
REMARK VINA RESULT: -6.117577076      2.901      4.654
REMARK  4 active torsions:
REMARK  status: ('A' for Active; 'I' for Inactive)
REMARK    1  A    between atoms: C12_12  and  O1_13 
REMARK    2  A    between atoms: C17_19  and  O2_20 
REMARK    3  A    between atoms: C30_37  and  O5_38 
REMARK    4  A    between atoms: O5_38  and  C31_39 
ROOT
HETATM    1  C1  UNL     1       3.307   2.550 100.472  1.00  0.00     0.026 C 
HETATM    2  C2  UNL     1       4.343   1.735 100.678  1.00  0.00    -0.007 C 
HETATM    3  C3  UNL     1       4.303   0.835 101.861  1.00  0.00    -0.033 C 
HETATM    4  C4  UNL     1       5.652   0.249 102.190  1.00  0.00    -0.040 C 
HETATM    5  C5  UNL     1       5.856  -1.173 101.984  1.00  0.00     0.013 C 
HETATM    6  C6  UNL     1       5.822  -1.871 100.726  1.00  0.00     0.015 C 
HETATM    7  C7  UNL     1       4.778  -1.820 102.894  1.00  0.00     0.015 C 
HETATM    8  C8  UNL     1       3.413  -1.518 102.292  1.00  0.00     0.008 C 
HETATM    9  C9  UNL     1       3.141  -0.110 101.929  1.00  0.00    -0.009 C 
HETATM   10  C10 UNL     1       2.491  -0.152 100.522  1.00  0.00     0.021 C 
HETATM   11  C11 UNL     1       2.089   0.582 102.788  1.00  0.00     0.046 C 
HETATM   12  C12 UNL     1       1.509  -0.232 103.895  1.00  0.00     0.124 C 
HETATM   13  C13 UNL     1       1.150  -1.558 103.284  1.00  0.00     0.033 C 
HETATM   14  C14 UNL     1       0.030  -2.208 103.984  1.00  0.00    -0.015 C 
HETATM   15  C15 UNL     1       0.035  -2.039 105.501  1.00  0.00     0.018 C 
HETATM   16  C16 UNL     1      -1.259  -1.503 103.525  1.00  0.00     0.018 C 
HETATM   17  C17 UNL     1      -0.101  -3.681 103.703  1.00  0.00     0.130 C 
HETATM   18  C18 UNL     1       0.646  -3.969 102.438  1.00  0.00     0.012 C 
HETATM   19  C19 UNL     1       0.530  -5.481 102.197  1.00  0.00     0.012 C 
HETATM   20  C20 UNL     1       2.080  -3.633 102.435  1.00  0.00     0.017 C 
HETATM   21  C21 UNL     1       2.421  -2.285 103.093  1.00  0.00    -0.032 C 
HETATM   22  C22 UNL     1       3.018  -2.698 104.448  1.00  0.00     0.016 C 
HETATM   23  C23 UNL     1       6.651   1.227 101.792  1.00  0.00     0.124 C 
HETATM   24 BR1  UNL     1       6.084   2.891 102.704  1.00  0.00    -0.070 Br
HETATM   25  C24 UNL     1       8.035   1.091 102.208  1.00  0.00     0.163 C 
HETATM   26  O3  UNL     1       8.672   0.300 102.823  1.00  0.00    -0.295 OA
HETATM   27  C25 UNL     1       8.652   2.358 101.623  1.00  0.00     0.124 C 
HETATM   28  C26 UNL     1       8.925   3.378 102.672  1.00  0.00     0.026 C 
HETATM   29  C27 UNL     1       7.678   2.789 100.590  1.00  0.00     0.155 C 
HETATM   30  O4  UNL     1       7.639   3.854 100.092  1.00  0.00    -0.296 OA
HETATM   31  C28 UNL     1       6.823   1.612 100.360  1.00  0.00     0.096 C 
HETATM   32  C29 UNL     1       7.749   0.662  99.579  1.00  0.00     0.033 C 
HETATM   33  C30 UNL     1       5.522   1.779  99.727  1.00  0.00     0.085 C 
ENDROOT
BRANCH  33  34
HETATM   34  O5  UNL     1       5.383   2.735  98.743  1.00  0.00    -0.281 OA
BRANCH  34  35
HETATM   35  C31 UNL     1       5.251   2.577  97.398  1.00  0.00     0.259 C 
HETATM   36  C32 UNL     1       6.356   2.960  96.507  1.00  0.00     0.126 C 
HETATM   37  O6  UNL     1       4.160   2.104  97.060  1.00  0.00    -0.265 OA
ENDBRANCH  34  35
ENDBRANCH  33  34
BRANCH  12  38
HETATM   38  O1  UNL     1       0.364   0.454 104.344  1.00  0.00    -0.395 OA
ATOM     39  H1  UNL     1       0.663   1.290 104.682  1.00  0.00     0.210 HD
ENDBRANCH  12  38
BRANCH  17  40
HETATM   40  O2  UNL     1      -1.436  -4.080 103.471  1.00  0.00    -0.394 OA
ATOM     41  H2  UNL     1      -1.526  -5.019 103.356  1.00  0.00     0.210 HD
ENDBRANCH  17  40
TORSDOF 4
ENDMDL
MODEL 5
REMARK VINA RESULT: -5.751913112      4.882      9.091
REMARK  4 active torsions:
REMARK  status: ('A' for Active; 'I' for Inactive)
REMARK    1  A    between atoms: C12_12  and  O1_13 
REMARK    2  A    between atoms: C17_19  and  O2_20 
REMARK    3  A    between atoms: C30_37  and  O5_38 
REMARK    4  A    between atoms: O5_38  and  C31_39 
ROOT
HETATM    1  C1  UNL     1       0.575   3.478 103.815  1.00  0.00     0.026 C 
HETATM    2  C2  UNL     1      -0.601   3.432 103.189  1.00  0.00    -0.007 C 
HETATM    3  C3  UNL     1      -1.688   4.324 103.671  1.00  0.00    -0.033 C 
HETATM    4  C4  UNL     1      -3.043   3.927 103.143  1.00  0.00    -0.040 C 
HETATM    5  C5  UNL     1      -3.696   4.802 102.187  1.00  0.00     0.013 C 
HETATM    6  C6  UNL     1      -3.234   5.120 100.862  1.00  0.00     0.015 C 
HETATM    7  C7  UNL     1      -3.818   6.142 102.961  1.00  0.00     0.015 C 
HETATM    8  C8  UNL     1      -2.417   6.712 103.137  1.00  0.00     0.008 C 
HETATM    9  C9  UNL     1      -1.385   5.792 103.666  1.00  0.00    -0.009 C 
HETATM   10  C10 UNL     1      -0.131   6.007 102.780  1.00  0.00     0.021 C 
HETATM   11  C11 UNL     1      -0.891   6.123 105.069  1.00  0.00     0.046 C 
HETATM   12  C12 UNL     1      -1.536   7.294 105.732  1.00  0.00     0.124 C 
HETATM   13  C13 UNL     1      -1.530   8.397 104.712  1.00  0.00     0.033 C 
HETATM   14  C14 UNL     1      -1.500   9.731 105.335  1.00  0.00    -0.015 C 
HETATM   15  C15 UNL     1      -2.335   9.865 106.605  1.00  0.00     0.018 C 
HETATM   16  C16 UNL     1      -0.053   9.978 105.800  1.00  0.00     0.018 C 
HETATM   17  C17 UNL     1      -1.909  10.850 104.415  1.00  0.00     0.130 C 
HETATM   18  C18 UNL     1      -1.776  10.352 103.010  1.00  0.00     0.012 C 
HETATM   19  C19 UNL     1      -2.236  11.497 102.096  1.00  0.00     0.012 C 
HETATM   20  C20 UNL     1      -2.573   9.165 102.658  1.00  0.00     0.017 C 
HETATM   21  C21 UNL     1      -2.585   8.064 103.733  1.00  0.00    -0.032 C 
HETATM   22  C22 UNL     1      -3.977   8.211 104.368  1.00  0.00     0.016 C 
HETATM   23  C23 UNL     1      -3.026   2.484 102.967  1.00  0.00     0.124 C 
HETATM   24 BR1  UNL     1      -2.446   1.791 104.730  1.00  0.00    -0.070 Br
HETATM   25  C24 UNL     1      -4.252   1.748 102.722  1.00  0.00     0.163 C 
HETATM   26  O3  UNL     1      -5.399   2.018 102.572  1.00  0.00    -0.295 OA
HETATM   27  C25 UNL     1      -3.740   0.312 102.685  1.00  0.00     0.124 C 
HETATM   28  C26 UNL     1      -4.090  -0.435 103.923  1.00  0.00     0.026 C 
HETATM   29  C27 UNL     1      -2.282   0.455 102.447  1.00  0.00     0.155 C 
HETATM   30  O4  UNL     1      -1.479  -0.388 102.612  1.00  0.00    -0.296 OA
HETATM   31  C28 UNL     1      -2.109   1.841 101.979  1.00  0.00     0.096 C 
HETATM   32  C29 UNL     1      -2.683   1.797 100.552  1.00  0.00     0.033 C 
HETATM   33  C30 UNL     1      -0.793   2.462 102.040  1.00  0.00     0.085 C 
ENDROOT
BRANCH  33  34
HETATM   34  O5  UNL     1       0.318   1.681 101.806  1.00  0.00    -0.281 OA
BRANCH  34  35
HETATM   35  C31 UNL     1       1.085   1.583 100.685  1.00  0.00     0.259 C 
HETATM   36  C32 UNL     1       1.821   2.760 100.200  1.00  0.00     0.126 C 
HETATM   37  O6  UNL     1       1.073   0.458 100.175  1.00  0.00    -0.265 OA
ENDBRANCH  34  35
ENDBRANCH  33  34
BRANCH  12  38
HETATM   38  O1  UNL     1      -0.738   7.618 106.846  1.00  0.00    -0.395 OA
ATOM     39  H1  UNL     1      -1.143   8.368 107.263  1.00  0.00     0.210 HD
ENDBRANCH  12  38
BRANCH  17  40
HETATM   40  O2  UNL     1      -1.065  11.979 104.515  1.00  0.00    -0.394 OA
ATOM     41  H2  UNL     1      -0.518  12.099 103.747  1.00  0.00     0.210 HD
ENDBRANCH  17  40
TORSDOF 4
ENDMDL
