MODEL 1
REMARK VINA RESULT: -4.791844419      0.000      0.000
REMARK  3 active torsions:
REMARK  status: ('A' for Active; 'I' for Inactive)
REMARK    1  A    between atoms: C2_2  and  O1_3 
REMARK    2  A    between atoms: C4_6  and  O2_7 
REMARK    3  A    between atoms: C5_9  and  O3_11 
ROOT
HETATM    1  C1  UNL     1       4.217   2.258 -52.560  1.00  0.00     0.046 C 
HETATM    2  C2  UNL     1       2.887   2.950 -52.673  1.00  0.00     0.059 C 
HETATM    3  C3  UNL     1       2.508   3.005 -54.122  1.00  0.00     0.072 C 
HETATM    4  C4  UNL     1       1.172   2.316 -54.230  1.00  0.00     0.155 C 
HETATM    5  C5  UNL     1       0.998   1.478 -52.994  1.00  0.00     0.083 C 
HETATM    6  C6  UNL     1       1.590   0.103 -53.118  1.00  0.00     0.049 C 
HETATM    7  C7  UNL     1       1.789   2.242 -51.936  1.00  0.00     0.077 C 
ENDROOT
BRANCH   2   8
HETATM    8  O1  UNL     1       2.997   4.239 -52.113  1.00  0.00    -0.390 OA
ATOM      9  H1  UNL     1       2.901   4.883 -52.805  1.00  0.00     0.210 HD
ENDBRANCH   2   8
BRANCH   4  10
HETATM   10  O2  UNL     1       0.198   3.339 -54.149  1.00  0.00    -0.392 OA
ATOM     11  H2  UNL     1      -0.511   2.984 -53.625  1.00  0.00     0.210 HD
ENDBRANCH   4  10
BRANCH   5  12
HETATM   12  O3  UNL     1      -0.322   1.473 -52.572  1.00  0.00    -0.388 OA
ATOM     13  H3  UNL     1      -0.864   0.942 -53.143  1.00  0.00     0.210 HD
ENDBRANCH   5  12
TORSDOF 3
ENDMDL
MODEL 2
REMARK VINA RESULT: -4.597208968      1.103      3.442
REMARK  3 active torsions:
REMARK  status: ('A' for Active; 'I' for Inactive)
REMARK    1  A    between atoms: C2_2  and  O1_3 
REMARK    2  A    between atoms: C4_6  and  O2_7 
REMARK    3  A    between atoms: C5_9  and  O3_11 
ROOT
HETATM    1  C1  UNL     1       1.769   0.175 -53.222  1.00  0.00     0.046 C 
HETATM    2  C2  UNL     1       1.894   1.673 -53.248  1.00  0.00     0.059 C 
HETATM    3  C3  UNL     1       1.997   2.160 -51.835  1.00  0.00     0.072 C 
HETATM    4  C4  UNL     1       3.290   2.930 -51.752  1.00  0.00     0.155 C 
HETATM    5  C5  UNL     1       4.136   2.512 -52.924  1.00  0.00     0.083 C 
HETATM    6  C6  UNL     1       4.973   1.295 -52.650  1.00  0.00     0.049 C 
HETATM    7  C7  UNL     1       3.106   2.150 -53.991  1.00  0.00     0.077 C 
ENDROOT
BRANCH   2   8
HETATM    8  O1  UNL     1       0.769   2.211 -53.906  1.00  0.00    -0.390 OA
ATOM      9  H1  UNL     1       0.325   2.808 -53.314  1.00  0.00     0.210 HD
ENDBRANCH   2   8
BRANCH   4  10
HETATM   10  O2  UNL     1       2.953   4.285 -51.977  1.00  0.00    -0.392 OA
ATOM     11  H2  UNL     1       2.954   4.402 -52.920  1.00  0.00     0.210 HD
ENDBRANCH   4  10
BRANCH   5  12
HETATM   12  O3  UNL     1       4.864   3.580 -53.424  1.00  0.00    -0.388 OA
ATOM     13  H3  UNL     1       5.247   3.371 -54.267  1.00  0.00     0.210 HD
ENDBRANCH   5  12
TORSDOF 3
ENDMDL
MODEL 3
REMARK VINA RESULT: -4.578403495      1.666      2.932
REMARK  3 active torsions:
REMARK  status: ('A' for Active; 'I' for Inactive)
REMARK    1  A    between atoms: C2_2  and  O1_3 
REMARK    2  A    between atoms: C4_6  and  O2_7 
REMARK    3  A    between atoms: C5_9  and  O3_11 
ROOT
HETATM    1  C1  UNL     1       1.909   0.064 -53.188  1.00  0.00     0.046 C 
HETATM    2  C2  UNL     1       2.344   1.388 -53.753  1.00  0.00     0.059 C 
HETATM    3  C3  UNL     1       1.142   2.281 -53.834  1.00  0.00     0.072 C 
HETATM    4  C4  UNL     1       1.479   3.507 -53.026  1.00  0.00     0.155 C 
HETATM    5  C5  UNL     1       2.626   3.147 -52.121  1.00  0.00     0.083 C 
HETATM    6  C6  UNL     1       2.189   2.544 -50.816  1.00  0.00     0.049 C 
HETATM    7  C7  UNL     1       3.375   2.078 -52.911  1.00  0.00     0.077 C 
ENDROOT
BRANCH   2   8
HETATM    8  O1  UNL     1       2.922   1.173 -55.021  1.00  0.00    -0.390 OA
ATOM      9  H1  UNL     1       3.857   1.048 -54.913  1.00  0.00     0.210 HD
ENDBRANCH   2   8
BRANCH   4  10
HETATM   10  O2  UNL     1       1.989   4.454 -53.945  1.00  0.00    -0.392 OA
ATOM     11  H2  UNL     1       1.275   4.655 -54.538  1.00  0.00     0.210 HD
ENDBRANCH   4  10
BRANCH   5  12
HETATM   12  O3  UNL     1       3.500   4.212 -51.971  1.00  0.00    -0.388 OA
ATOM     13  H3  UNL     1       3.781   4.548 -52.814  1.00  0.00     0.210 HD
ENDBRANCH   5  12
TORSDOF 3
ENDMDL
MODEL 4
REMARK VINA RESULT: -4.435043682      1.526      1.986
REMARK  3 active torsions:
REMARK  status: ('A' for Active; 'I' for Inactive)
REMARK    1  A    between atoms: C2_2  and  O1_3 
REMARK    2  A    between atoms: C4_6  and  O2_7 
REMARK    3  A    between atoms: C5_9  and  O3_11 
ROOT
HETATM    1  C1  UNL     1       2.544   2.666 -50.540  1.00  0.00     0.046 C 
HETATM    2  C2  UNL     1       2.817   3.039 -51.971  1.00  0.00     0.059 C 
HETATM    3  C3  UNL     1       3.651   1.957 -52.587  1.00  0.00     0.072 C 
HETATM    4  C4  UNL     1       2.877   1.463 -53.781  1.00  0.00     0.155 C 
HETATM    5  C5  UNL     1       1.448   1.896 -53.600  1.00  0.00     0.083 C 
HETATM    6  C6  UNL     1       0.626   0.921 -52.805  1.00  0.00     0.049 C 
HETATM    7  C7  UNL     1       1.570   3.184 -52.791  1.00  0.00     0.077 C 
ENDROOT
BRANCH   2   8
HETATM    8  O1  UNL     1       3.476   4.285 -51.997  1.00  0.00    -0.390 OA
ATOM      9  H1  UNL     1       3.896   4.428 -51.157  1.00  0.00     0.210 HD
ENDBRANCH   2   8
BRANCH   4  10
HETATM   10  O2  UNL     1       3.366   2.188 -54.892  1.00  0.00    -0.392 OA
ATOM     11  H2  UNL     1       2.607   2.589 -55.299  1.00  0.00     0.210 HD
ENDBRANCH   4  10
BRANCH   5  12
HETATM   12  O3  UNL     1       0.871   2.244 -54.811  1.00  0.00    -0.388 OA
ATOM     13  H3  UNL     1       0.669   3.172 -54.842  1.00  0.00     0.210 HD
ENDBRANCH   5  12
TORSDOF 3
ENDMDL
MODEL 5
REMARK VINA RESULT: -4.392881472      1.215      3.454
REMARK  3 active torsions:
REMARK  status: ('A' for Active; 'I' for Inactive)
REMARK    1  A    between atoms: C2_2  and  O1_3 
REMARK    2  A    between atoms: C4_6  and  O2_7 
REMARK    3  A    between atoms: C5_9  and  O3_11 
ROOT
HETATM    1  C1  UNL     1       1.187   1.390 -54.889  1.00  0.00     0.046 C 
HETATM    2  C2  UNL     1       1.244   1.855 -53.460  1.00  0.00     0.059 C 
HETATM    3  C3  UNL     1       2.178   0.953 -52.711  1.00  0.00     0.072 C 
HETATM    4  C4  UNL     1       3.240   1.847 -52.126  1.00  0.00     0.155 C 
HETATM    5  C5  UNL     1       3.205   3.144 -52.888  1.00  0.00     0.083 C 
HETATM    6  C6  UNL     1       4.057   3.130 -54.125  1.00  0.00     0.049 C 
HETATM    7  C7  UNL     1       1.746   3.261 -53.317  1.00  0.00     0.077 C 
ENDROOT
BRANCH   2   8
HETATM    8  O1  UNL     1      -0.058   1.824 -52.920  1.00  0.00    -0.390 OA
ATOM      9  H1  UNL     1      -0.176   2.584 -52.361  1.00  0.00     0.210 HD
ENDBRANCH   2   8
BRANCH   4  10
HETATM   10  O2  UNL     1       2.812   2.155 -50.813  1.00  0.00    -0.392 OA
ATOM     11  H2  UNL     1       2.316   1.402 -50.515  1.00  0.00     0.210 HD
ENDBRANCH   4  10
BRANCH   5  12
HETATM   12  O3  UNL     1       3.460   4.223 -52.056  1.00  0.00    -0.388 OA
ATOM     13  H3  UNL     1       3.140   4.061 -51.175  1.00  0.00     0.210 HD
ENDBRANCH   5  12
TORSDOF 3
ENDMDL
