MODEL 1
REMARK VINA RESULT: -4.039874722      0.000      0.000
REMARK  3 active torsions:
REMARK  status: ('A' for Active; 'I' for Inactive)
REMARK    1  A    between atoms: C3_6  and  N2_7 
REMARK    2  A    between atoms: N2_7  and  N3_9 
REMARK    3  A    between atoms: N3_9  and  C4_11 
ROOT
HETATM    1  N2  UNL     1      19.167  20.693  21.640  1.00  0.00    -0.268 N 
ATOM      2  H2  UNL     1      18.891  20.829  20.667  1.00  0.00     0.190 HD
ENDROOT
BRANCH   1   3
HETATM    3  C3  UNL     1      19.850  19.502  22.013  1.00  0.00     0.197 A 
HETATM    4  N1  UNL     1      21.012  19.144  21.601  1.00  0.00    -0.352 N 
HETATM    5  C2  UNL     1      21.457  17.901  22.138  1.00  0.00     0.225 A 
ATOM      6  H1  UNL     1      21.567  19.699  20.949  1.00  0.00     0.163 HD
HETATM    7  C1  UNL     1      20.337  17.480  23.015  1.00  0.00     0.242 A 
HETATM    8  O1  UNL     1      20.314  16.419  23.693  1.00  0.00    -0.271 OA
HETATM    9  N6  UNL     1      19.358  18.511  22.905  1.00  0.00    -0.296 N 
ATOM     10  H6  UNL     1      18.458  18.533  23.384  1.00  0.00     0.172 HD
ENDBRANCH   1   3
BRANCH   1  11
HETATM   11  N3  UNL     1      18.866  21.681  22.584  1.00  0.00    -0.269 N 
ATOM     12  H3  UNL     1      18.294  21.439  23.393  1.00  0.00     0.190 HD
BRANCH  11  13
HETATM   13  C4  UNL     1      19.345  23.034  22.438  1.00  0.00     0.190 C 
HETATM   14  N4  UNL     1      20.210  23.636  23.170  1.00  0.00    -0.360 N 
HETATM   15  C5  UNL     1      20.467  24.993  22.751  1.00  0.00     0.142 C 
ATOM     16  H4  UNL     1      20.671  23.199  23.968  1.00  0.00     0.162 HD
HETATM   17  C6  UNL     1      19.735  25.145  21.454  1.00  0.00     0.142 C 
HETATM   18  N5  UNL     1      18.925  23.941  21.435  1.00  0.00    -0.360 N 
ATOM     19  H5  UNL     1      18.156  23.771  20.787  1.00  0.00     0.162 HD
ENDBRANCH  11  13
ENDBRANCH   1  11
TORSDOF 3
ENDMDL
MODEL 2
REMARK VINA RESULT: -3.934819911      2.713      6.074
REMARK  3 active torsions:
REMARK  status: ('A' for Active; 'I' for Inactive)
REMARK    1  A    between atoms: C3_6  and  N2_7 
REMARK    2  A    between atoms: N2_7  and  N3_9 
REMARK    3  A    between atoms: N3_9  and  C4_11 
ROOT
HETATM    1  N2  UNL     1      19.222  19.172  21.923  1.00  0.00    -0.268 N 
ATOM      2  H2  UNL     1      18.851  18.736  21.079  1.00  0.00     0.190 HD
ENDROOT
BRANCH   1   3
HETATM    3  C3  UNL     1      19.711  20.506  21.863  1.00  0.00     0.197 A 
HETATM    4  N1  UNL     1      20.874  20.861  21.450  1.00  0.00    -0.352 N 
HETATM    5  C2  UNL     1      21.098  22.268  21.497  1.00  0.00     0.225 A 
ATOM      6  H1  UNL     1      21.573  20.197  21.118  1.00  0.00     0.163 HD
HETATM    7  C1  UNL     1      19.826  22.805  22.039  1.00  0.00     0.242 A 
HETATM    8  O1  UNL     1      19.592  24.025  22.246  1.00  0.00    -0.271 OA
HETATM    9  N6  UNL     1      18.992  21.669  22.251  1.00  0.00    -0.296 N 
ATOM     10  H6  UNL     1      18.040  21.687  22.618  1.00  0.00     0.172 HD
ENDBRANCH   1   3
BRANCH   1  11
HETATM   11  N3  UNL     1      19.242  18.446  23.119  1.00  0.00    -0.269 N 
ATOM     12  H3  UNL     1      18.673  18.763  23.903  1.00  0.00     0.190 HD
BRANCH  11  13
HETATM   13  C4  UNL     1      20.049  17.258  23.269  1.00  0.00     0.190 C 
HETATM   14  N4  UNL     1      21.255  17.082  22.869  1.00  0.00    -0.360 N 
HETATM   15  C5  UNL     1      21.772  15.771  23.179  1.00  0.00     0.142 C 
ATOM     16  H4  UNL     1      21.794  17.797  22.380  1.00  0.00     0.162 HD
HETATM   17  C6  UNL     1      20.732  15.138  24.049  1.00  0.00     0.142 C 
HETATM   18  N5  UNL     1      19.625  16.063  23.899  1.00  0.00    -0.360 N 
ATOM     19  H5  UNL     1      18.670  15.878  24.206  1.00  0.00     0.162 HD
ENDBRANCH  11  13
ENDBRANCH   1  11
TORSDOF 3
ENDMDL
MODEL 3
REMARK VINA RESULT: -3.892364258      1.792      2.662
REMARK  3 active torsions:
REMARK  status: ('A' for Active; 'I' for Inactive)
REMARK    1  A    between atoms: C3_6  and  N2_7 
REMARK    2  A    between atoms: N2_7  and  N3_9 
REMARK    3  A    between atoms: N3_9  and  C4_11 
ROOT
HETATM    1  N2  UNL     1      19.221  18.418  23.152  1.00  0.00    -0.268 N 
ATOM      2  H2  UNL     1      18.625  18.735  23.918  1.00  0.00     0.190 HD
ENDROOT
BRANCH   1   3
HETATM    3  C3  UNL     1      20.013  17.249  23.322  1.00  0.00     0.197 A 
HETATM    4  N1  UNL     1      21.224  17.099  22.924  1.00  0.00    -0.352 N 
HETATM    5  C2  UNL     1      21.779  15.822  23.229  1.00  0.00     0.225 A 
ATOM      6  H1  UNL     1      21.743  17.829  22.434  1.00  0.00     0.163 HD
HETATM    7  C1  UNL     1      20.674  15.121  23.928  1.00  0.00     0.242 A 
HETATM    8  O1  UNL     1      20.738  13.946  24.377  1.00  0.00    -0.271 OA
HETATM    9  N6  UNL     1      19.594  16.051  23.963  1.00  0.00    -0.296 N 
ATOM     10  H6  UNL     1      18.677  15.886  24.377  1.00  0.00     0.172 HD
ENDBRANCH   1   3
BRANCH   1  11
HETATM   11  N3  UNL     1      19.242  19.140  21.955  1.00  0.00    -0.269 N 
ATOM     12  H3  UNL     1      18.873  18.711  21.107  1.00  0.00     0.190 HD
BRANCH  11  13
HETATM   13  C4  UNL     1      19.776  20.480  21.891  1.00  0.00     0.190 C 
HETATM   14  N4  UNL     1      20.960  20.830  21.542  1.00  0.00    -0.360 N 
HETATM   15  C5  UNL     1      21.171  22.256  21.588  1.00  0.00     0.142 C 
ATOM     16  H4  UNL     1      21.682  20.165  21.261  1.00  0.00     0.162 HD
HETATM   17  C6  UNL     1      19.820  22.840  21.861  1.00  0.00     0.142 C 
HETATM   18  N5  UNL     1      19.057  21.657  22.212  1.00  0.00    -0.360 N 
ATOM     19  H5  UNL     1      18.129  21.670  22.633  1.00  0.00     0.162 HD
ENDBRANCH  11  13
ENDBRANCH   1  11
TORSDOF 3
ENDMDL
MODEL 4
REMARK VINA RESULT: -3.889682573      1.787      2.473
REMARK  3 active torsions:
REMARK  status: ('A' for Active; 'I' for Inactive)
REMARK    1  A    between atoms: C3_6  and  N2_7 
REMARK    2  A    between atoms: N2_7  and  N3_9 
REMARK    3  A    between atoms: N3_9  and  C4_11 
ROOT
HETATM    1  N2  UNL     1      19.202  21.340  25.242  1.00  0.00    -0.268 N 
ATOM      2  H2  UNL     1      19.647  21.705  26.085  1.00  0.00     0.190 HD
ENDROOT
BRANCH   1   3
HETATM    3  C3  UNL     1      19.367  19.968  24.903  1.00  0.00     0.197 A 
HETATM    4  N1  UNL     1      18.934  18.970  25.585  1.00  0.00    -0.352 N 
HETATM    5  C2  UNL     1      19.241  17.702  25.010  1.00  0.00     0.225 A 
ATOM      6  H1  UNL     1      18.418  19.075  26.458  1.00  0.00     0.163 HD
HETATM    7  C1  UNL     1      19.985  18.051  23.775  1.00  0.00     0.242 A 
HETATM    8  O1  UNL     1      20.450  17.215  22.956  1.00  0.00    -0.271 OA
HETATM    9  N6  UNL     1      20.038  19.476  23.751  1.00  0.00    -0.296 N 
ATOM     10  H6  UNL     1      20.482  20.044  23.030  1.00  0.00     0.172 HD
ENDBRANCH   1   3
BRANCH   1  11
HETATM   11  N3  UNL     1      18.441  22.198  24.441  1.00  0.00    -0.269 N 
ATOM     12  H3  UNL     1      17.431  22.239  24.574  1.00  0.00     0.190 HD
BRANCH  11  13
HETATM   13  C4  UNL     1      19.053  23.027  23.430  1.00  0.00     0.190 C 
HETATM   14  N4  UNL     1      18.813  23.023  22.170  1.00  0.00    -0.360 N 
HETATM   15  C5  UNL     1      19.602  23.982  21.435  1.00  0.00     0.142 C 
ATOM     16  H4  UNL     1      18.133  22.402  21.731  1.00  0.00     0.162 HD
HETATM   17  C6  UNL     1      20.307  24.789  22.481  1.00  0.00     0.142 C 
HETATM   18  N5  UNL     1      20.045  24.007  23.675  1.00  0.00    -0.360 N 
ATOM     19  H5  UNL     1      20.513  24.145  24.571  1.00  0.00     0.162 HD
ENDBRANCH  11  13
ENDBRANCH   1  11
TORSDOF 3
ENDMDL
MODEL 5
REMARK VINA RESULT: -3.874495449      1.880      2.210
REMARK  3 active torsions:
REMARK  status: ('A' for Active; 'I' for Inactive)
REMARK    1  A    between atoms: C3_6  and  N2_7 
REMARK    2  A    between atoms: N2_7  and  N3_9 
REMARK    3  A    between atoms: N3_9  and  C4_11 
ROOT
HETATM    1  N2  UNL     1      19.138  21.186  25.146  1.00  0.00    -0.268 N 
ATOM      2  H2  UNL     1      18.989  21.058  26.147  1.00  0.00     0.190 HD
ENDROOT
BRANCH   1   3
HETATM    3  C3  UNL     1      20.066  20.350  24.465  1.00  0.00     0.197 A 
HETATM    4  N1  UNL     1      21.339  20.354  24.630  1.00  0.00    -0.352 N 
HETATM    5  C2  UNL     1      22.029  19.408  23.816  1.00  0.00     0.225 A 
ATOM      6  H1  UNL     1      21.814  20.977  25.283  1.00  0.00     0.163 HD
HETATM    7  C1  UNL     1      20.943  18.749  23.051  1.00  0.00     0.242 A 
HETATM    8  O1  UNL     1      21.114  17.835  22.202  1.00  0.00    -0.271 OA
HETATM    9  N6  UNL     1      19.736  19.370  23.490  1.00  0.00    -0.296 N 
ATOM     10  H6  UNL     1      18.797  19.148  23.161  1.00  0.00     0.172 HD
ENDBRANCH   1   3
BRANCH   1  11
HETATM   11  N3  UNL     1      18.425  22.180  24.467  1.00  0.00    -0.269 N 
ATOM     12  H3  UNL     1      17.442  22.330  24.693  1.00  0.00     0.190 HD
BRANCH  11  13
HETATM   13  C4  UNL     1      19.048  22.997  23.453  1.00  0.00     0.190 C 
HETATM   14  N4  UNL     1      18.811  22.988  22.192  1.00  0.00    -0.360 N 
HETATM   15  C5  UNL     1      19.613  23.935  21.455  1.00  0.00     0.142 C 
ATOM     16  H4  UNL     1      18.125  22.373  21.755  1.00  0.00     0.162 HD
HETATM   17  C6  UNL     1      20.323  24.739  22.498  1.00  0.00     0.142 C 
HETATM   18  N5  UNL     1      20.050  23.967  23.696  1.00  0.00    -0.360 N 
ATOM     19  H5  UNL     1      20.518  24.105  24.592  1.00  0.00     0.162 HD
ENDBRANCH  11  13
ENDBRANCH   1  11
TORSDOF 3
ENDMDL
