MODEL 1
REMARK VINA RESULT: -3.982852599      0.000      0.000
REMARK  4 active torsions:
REMARK  status: ('A' for Active; 'I' for Inactive)
REMARK    1  A    between atoms: C3_7  and  N3_8 
REMARK    2  A    between atoms: C4_13  and  N5_14 
REMARK    3  A    between atoms: N5_14  and  N6_16 
REMARK    4  A    between atoms: N6_16  and  C5_18 
ROOT
HETATM    1  C1  UNL     1      22.689  19.187  21.705  1.00  0.00     0.180 C 
HETATM    2  N1  UNL     1      21.522  18.544  22.273  1.00  0.00    -0.135 N 
HETATM    3  C2  UNL     1      21.541  17.330  22.843  1.00  0.00     0.354 A 
HETATM    4  O1  UNL     1      22.646  16.682  22.899  1.00  0.00    -0.245 OA
HETATM    5  N2  UNL     1      20.421  16.793  23.351  1.00  0.00    -0.140 N 
ATOM      6  H2  UNL     1      20.443  15.869  23.782  1.00  0.00     0.189 HD
HETATM    7  C3  UNL     1      19.266  17.482  23.287  1.00  0.00     0.694 A 
HETATM    8  N4  UNL     1      19.222  18.703  22.720  1.00  0.00    -0.021 N 
ATOM      9  H4  UNL     1      18.348  19.227  22.672  1.00  0.00     0.203 HD
HETATM   10  C4  UNL     1      20.358  19.210  22.222  1.00  0.00     0.717 A 
ENDROOT
BRANCH  10  11
HETATM   11  N5  UNL     1      20.289  20.400  21.675  1.00  0.00    -0.130 N 
ATOM     12  H5  UNL     1      21.053  20.711  21.074  1.00  0.00     0.205 HD
BRANCH  11  13
HETATM   13  N6  UNL     1      19.223  21.245  21.883  1.00  0.00    -0.282 N 
ATOM     14  H6  UNL     1      18.372  21.096  21.341  1.00  0.00     0.188 HD
BRANCH  13  15
HETATM   15  C5  UNL     1      19.253  22.326  22.828  1.00  0.00     0.191 C 
HETATM   16  N7  UNL     1      18.147  22.612  23.418  1.00  0.00    -0.394 N 
ATOM     17  H72 UNL     1      17.297  22.087  23.213  1.00  0.00     0.156 HD
ATOM     18  H71 UNL     1      18.169  23.379  24.089  1.00  0.00     0.156 HD
ENDBRANCH  13  15
ENDBRANCH  11  13
ENDBRANCH  10  11
BRANCH   7  19
HETATM   19  N3  UNL     1      18.192  16.983  23.767  1.00  0.00    -0.234 N 
ATOM     20  H32 UNL     1      17.998  15.993  23.621  1.00  0.00     0.174 HD
ATOM     21  H31 UNL     1      17.540  17.570  24.288  1.00  0.00     0.174 HD
ENDBRANCH   7  19
TORSDOF 4
ENDMDL
MODEL 2
REMARK VINA RESULT: -3.877606834      3.467      4.155
REMARK  4 active torsions:
REMARK  status: ('A' for Active; 'I' for Inactive)
REMARK    1  A    between atoms: C3_7  and  N3_8 
REMARK    2  A    between atoms: C4_13  and  N5_14 
REMARK    3  A    between atoms: N5_14  and  N6_16 
REMARK    4  A    between atoms: N6_16  and  C5_18 
ROOT
HETATM    1  C1  UNL     1      19.409  20.166  28.303  1.00  0.00     0.180 C 
HETATM    2  N1  UNL     1      19.203  19.249  27.200  1.00  0.00    -0.135 N 
HETATM    3  C2  UNL     1      18.945  17.941  27.354  1.00  0.00     0.354 A 
HETATM    4  O1  UNL     1      18.873  17.452  28.537  1.00  0.00    -0.245 OA
HETATM    5  N2  UNL     1      18.765  17.148  26.286  1.00  0.00    -0.140 N 
ATOM      6  H2  UNL     1      18.570  16.155  26.411  1.00  0.00     0.189 HD
HETATM    7  C3  UNL     1      18.842  17.672  25.049  1.00  0.00     0.694 A 
HETATM    8  N4  UNL     1      19.099  18.982  24.870  1.00  0.00    -0.021 N 
ATOM      9  H4  UNL     1      19.158  19.381  23.933  1.00  0.00     0.203 HD
HETATM   10  C4  UNL     1      19.275  19.747  25.955  1.00  0.00     0.717 A 
ENDROOT
BRANCH  10  11
HETATM   11  N5  UNL     1      19.524  21.019  25.755  1.00  0.00    -0.130 N 
ATOM     12  H5  UNL     1      20.309  21.450  26.243  1.00  0.00     0.205 HD
BRANCH  11  13
HETATM   13  N6  UNL     1      18.763  21.792  24.909  1.00  0.00    -0.282 N 
ATOM     14  H6  UNL     1      17.775  21.921  25.125  1.00  0.00     0.188 HD
BRANCH  13  15
HETATM   15  C5  UNL     1      19.295  22.425  23.735  1.00  0.00     0.191 C 
HETATM   16  N7  UNL     1      18.889  21.979  22.600  1.00  0.00    -0.394 N 
ATOM     17  H72 UNL     1      18.221  21.210  22.552  1.00  0.00     0.156 HD
ATOM     18  H71 UNL     1      19.267  22.430  21.766  1.00  0.00     0.156 HD
ENDBRANCH  13  15
ENDBRANCH  11  13
ENDBRANCH  10  11
BRANCH   7  19
HETATM   19  N3  UNL     1      18.672  16.928  24.024  1.00  0.00    -0.234 N 
ATOM     20  H32 UNL     1      17.912  16.248  24.027  1.00  0.00     0.174 HD
ATOM     21  H31 UNL     1      19.289  17.016  23.216  1.00  0.00     0.174 HD
ENDBRANCH   7  19
TORSDOF 4
ENDMDL
MODEL 3
REMARK VINA RESULT: -3.823512023      1.560      1.628
REMARK  4 active torsions:
REMARK  status: ('A' for Active; 'I' for Inactive)
REMARK    1  A    between atoms: C3_7  and  N3_8 
REMARK    2  A    between atoms: C4_13  and  N5_14 
REMARK    3  A    between atoms: N5_14  and  N6_16 
REMARK    4  A    between atoms: N6_16  and  C5_18 
ROOT
HETATM    1  C1  UNL     1      21.448  17.949  21.835  1.00  0.00     0.180 C 
HETATM    2  N1  UNL     1      20.680  17.705  23.039  1.00  0.00    -0.135 N 
HETATM    3  C2  UNL     1      20.671  16.535  23.696  1.00  0.00     0.354 A 
HETATM    4  O1  UNL     1      21.376  15.561  23.250  1.00  0.00    -0.245 OA
HETATM    5  N2  UNL     1      19.935  16.378  24.807  1.00  0.00    -0.140 N 
ATOM      6  H2  UNL     1      19.933  15.485  25.300  1.00  0.00     0.189 HD
HETATM    7  C3  UNL     1      19.199  17.406  25.267  1.00  0.00     0.694 A 
HETATM    8  N4  UNL     1      19.192  18.590  24.625  1.00  0.00    -0.021 N 
ATOM      9  H4  UNL     1      18.635  19.372  24.973  1.00  0.00     0.203 HD
HETATM   10  C4  UNL     1      19.937  18.715  23.518  1.00  0.00     0.717 A 
ENDROOT
BRANCH  10  11
HETATM   11  N5  UNL     1      19.914  19.878  22.911  1.00  0.00    -0.130 N 
ATOM     12  H5  UNL     1      19.974  19.903  21.894  1.00  0.00     0.205 HD
BRANCH  11  13
HETATM   13  N6  UNL     1      19.810  21.064  23.600  1.00  0.00    -0.282 N 
ATOM     14  H6  UNL     1      20.158  21.102  24.558  1.00  0.00     0.188 HD
BRANCH  13  15
HETATM   15  C5  UNL     1      19.237  22.252  23.034  1.00  0.00     0.191 C 
HETATM   16  N7  UNL     1      18.058  22.574  23.431  1.00  0.00    -0.394 N 
ATOM     17  H72 UNL     1      17.566  22.002  24.117  1.00  0.00     0.156 HD
ATOM     18  H71 UNL     1      17.650  23.418  23.028  1.00  0.00     0.156 HD
ENDBRANCH  13  15
ENDBRANCH  11  13
ENDBRANCH  10  11
BRANCH   7  19
HETATM   19  N3  UNL     1      18.494  17.271  26.324  1.00  0.00    -0.234 N 
ATOM     20  H32 UNL     1      18.926  16.877  27.159  1.00  0.00     0.174 HD
ATOM     21  H31 UNL     1      17.513  17.554  26.329  1.00  0.00     0.174 HD
ENDBRANCH   7  19
TORSDOF 4
ENDMDL
MODEL 4
REMARK VINA RESULT: -3.821702650      2.125      2.859
REMARK  4 active torsions:
REMARK  status: ('A' for Active; 'I' for Inactive)
REMARK    1  A    between atoms: C3_7  and  N3_8 
REMARK    2  A    between atoms: C4_13  and  N5_14 
REMARK    3  A    between atoms: N5_14  and  N6_16 
REMARK    4  A    between atoms: N6_16  and  C5_18 
ROOT
HETATM    1  C1  UNL     1      20.941  18.745  22.251  1.00  0.00     0.180 C 
HETATM    2  N1  UNL     1      20.893  17.427  22.850  1.00  0.00    -0.135 N 
HETATM    3  C2  UNL     1      21.797  16.465  22.611  1.00  0.00     0.354 A 
HETATM    4  O1  UNL     1      22.769  16.703  21.810  1.00  0.00    -0.245 OA
HETATM    5  N2  UNL     1      21.691  15.264  23.202  1.00  0.00    -0.140 N 
ATOM      6  H2  UNL     1      22.382  14.537  23.015  1.00  0.00     0.189 HD
HETATM    7  C3  UNL     1      20.668  15.024  24.041  1.00  0.00     0.694 A 
HETATM    8  N4  UNL     1      19.749  15.975  24.297  1.00  0.00    -0.021 N 
ATOM      9  H4  UNL     1      18.972  15.795  24.934  1.00  0.00     0.203 HD
HETATM   10  C4  UNL     1      19.881  17.162  23.691  1.00  0.00     0.717 A 
ENDROOT
BRANCH  10  11
HETATM   11  N5  UNL     1      18.973  18.072  23.956  1.00  0.00    -0.130 N 
ATOM     12  H5  UNL     1      18.383  18.413  23.198  1.00  0.00     0.205 HD
BRANCH  11  13
HETATM   13  N6  UNL     1      18.790  18.581  25.221  1.00  0.00    -0.282 N 
ATOM     14  H6  UNL     1      18.119  18.123  25.837  1.00  0.00     0.188 HD
BRANCH  13  15
HETATM   15  C5  UNL     1      19.500  19.728  25.714  1.00  0.00     0.191 C 
HETATM   16  N7  UNL     1      19.087  20.880  25.320  1.00  0.00    -0.394 N 
ATOM     17  H72 UNL     1      18.292  20.959  24.686  1.00  0.00     0.156 HD
ATOM     18  H71 UNL     1      19.591  21.694  25.670  1.00  0.00     0.156 HD
ENDBRANCH  13  15
ENDBRANCH  11  13
ENDBRANCH  10  11
BRANCH   7  19
HETATM   19  N3  UNL     1      20.556  13.885  24.611  1.00  0.00    -0.234 N 
ATOM     20  H32 UNL     1      19.643  13.432  24.633  1.00  0.00     0.174 HD
ATOM     21  H31 UNL     1      21.370  13.440  25.035  1.00  0.00     0.174 HD
ENDBRANCH   7  19
TORSDOF 4
ENDMDL
MODEL 5
REMARK VINA RESULT: -3.789603026      1.776      1.947
REMARK  4 active torsions:
REMARK  status: ('A' for Active; 'I' for Inactive)
REMARK    1  A    between atoms: C3_7  and  N3_8 
REMARK    2  A    between atoms: C4_13  and  N5_14 
REMARK    3  A    between atoms: N5_14  and  N6_16 
REMARK    4  A    between atoms: N6_16  and  C5_18 
ROOT
HETATM    1  C1  UNL     1      22.229  20.689  23.752  1.00  0.00     0.180 C 
HETATM    2  N1  UNL     1      21.289  19.589  23.674  1.00  0.00    -0.135 N 
HETATM    3  C2  UNL     1      21.460  18.514  22.889  1.00  0.00     0.354 A 
HETATM    4  O1  UNL     1      22.509  18.434  22.157  1.00  0.00    -0.245 OA
HETATM    5  N2  UNL     1      20.547  17.531  22.866  1.00  0.00    -0.140 N 
ATOM      6  H2  UNL     1      20.684  16.717  22.266  1.00  0.00     0.189 HD
HETATM    7  C3  UNL     1      19.449  17.624  23.638  1.00  0.00     0.694 A 
HETATM    8  N4  UNL     1      19.256  18.694  24.434  1.00  0.00    -0.021 N 
ATOM      9  H4  UNL     1      18.425  18.766  25.021  1.00  0.00     0.203 HD
HETATM   10  C4  UNL     1      20.185  19.659  24.435  1.00  0.00     0.717 A 
ENDROOT
BRANCH  10  11
HETATM   11  N5  UNL     1      19.974  20.690  25.218  1.00  0.00    -0.130 N 
ATOM     12  H5  UNL     1      20.630  20.874  25.977  1.00  0.00     0.205 HD
BRANCH  11  13
HETATM   13  N6  UNL     1      18.899  21.532  25.051  1.00  0.00    -0.282 N 
ATOM     14  H6  UNL     1      18.046  21.340  25.576  1.00  0.00     0.188 HD
BRANCH  13  15
HETATM   15  C5  UNL     1      18.921  22.667  24.172  1.00  0.00     0.191 C 
HETATM   16  N7  UNL     1      18.345  22.530  23.031  1.00  0.00    -0.394 N 
ATOM     17  H72 UNL     1      17.897  21.649  22.777  1.00  0.00     0.156 HD
ATOM     18  H71 UNL     1      18.360  23.336  22.407  1.00  0.00     0.156 HD
ENDBRANCH  13  15
ENDBRANCH  11  13
ENDBRANCH  10  11
BRANCH   7  19
HETATM   19  N3  UNL     1      18.572  16.695  23.626  1.00  0.00    -0.234 N 
ATOM     20  H32 UNL     1      17.811  16.743  22.950  1.00  0.00     0.174 HD
ATOM     21  H31 UNL     1      18.637  15.918  24.285  1.00  0.00     0.174 HD
ENDBRANCH   7  19
TORSDOF 4
ENDMDL
