MODEL 1
REMARK VINA RESULT: -6.123398607      0.000      0.000
REMARK  12 active torsions:
REMARK  status: ('A' for Active; 'I' for Inactive)
REMARK    1  A    between atoms: O1_2  and  C2_3 
REMARK    2  A    between atoms: C6_7  and  C7_8 
REMARK    3  A    between atoms: N3_13  and  C8_14 
REMARK    4  A    between atoms: C9_15  and  C10_16 
REMARK    5  A    between atoms: C10_16  and  O2_18 
REMARK    6  A    between atoms: C12_22  and  N5_23 
REMARK    7  A    between atoms: N5_23  and  N6_25 
REMARK    8  A    between atoms: C13_30  and  N8_31 
REMARK    9  A    between atoms: N8_31  and  N9_33 
REMARK   10  A    between atoms: C14_35  and  C16_37 
REMARK   11  A    between atoms: C16_37  and  N10_38 
REMARK   12  A    between atoms: C16_37  and  N11_42 
ROOT
HETATM    1  C8  UNL     1     -13.275  26.149  52.804  1.00  0.00     0.147 A 
HETATM    2  C9  UNL     1     -13.869  26.769  53.866  1.00  0.00     0.089 A 
HETATM    3  N4  UNL     1     -14.469  27.981  53.656  1.00  0.00    -0.189 N 
ATOM      4  H4  UNL     1     -14.911  28.445  54.449  1.00  0.00     0.184 HD
HETATM    5  C12 UNL     1     -14.506  28.590  52.464  1.00  0.00     0.698 A 
HETATM    6  N7  UNL     1     -13.915  27.972  51.409  1.00  0.00    -0.171 N 
ATOM      7  H7  UNL     1     -13.929  28.417  50.490  1.00  0.00     0.186 HD
HETATM    8  C13 UNL     1     -13.311  26.780  51.562  1.00  0.00     0.168 A 
ENDROOT
BRANCH   1   9
HETATM    9  N3  UNL     1     -12.650  24.880  52.922  1.00  0.00    -0.175 N 
HETATM   10  N2  UNL     1     -13.262  23.711  52.625  1.00  0.00    -0.219 N 
HETATM   11  N1  UNL     1     -12.459  22.696  52.824  1.00  0.00    -0.268 N 
ATOM     12  H2  UNL     1     -14.222  23.631  52.290  1.00  0.00     0.210 HD
HETATM   13  C7  UNL     1     -11.296  23.203  53.261  1.00  0.00     0.148 A 
ATOM     14  H1  UNL     1     -12.675  21.710  52.675  1.00  0.00     0.190 HD
HETATM   15  N12 UNL     1     -11.448  24.520  53.308  1.00  0.00    -0.261 N 
ATOM     16  H12 UNL     1     -10.721  25.172  53.606  1.00  0.00     0.191 HD
BRANCH  13  17
HETATM   17  C6  UNL     1     -10.100  22.403  53.613  1.00  0.00     0.013 A 
HETATM   18  C5  UNL     1      -9.300  22.721  54.687  1.00  0.00     0.015 A 
HETATM   19  C4  UNL     1      -8.179  21.968  55.017  1.00  0.00     0.004 A 
HETATM   20  C3  UNL     1      -7.834  20.866  54.268  1.00  0.00     0.037 A 
HETATM   21  C2  UNL     1      -8.627  20.537  53.190  1.00  0.00     0.069 A 
HETATM   22  C17 UNL     1      -9.752  21.301  52.867  1.00  0.00     0.052 A 
BRANCH  21  23
HETATM   23  O1  UNL     1      -8.314  19.435  52.410  1.00  0.00    -0.356 OA
HETATM   24  C1  UNL     1      -7.036  18.867  52.471  1.00  0.00     0.210 C 
ENDBRANCH  21  23
ENDBRANCH  13  17
ENDBRANCH   1   9
BRANCH   2  25
HETATM   25  C10 UNL     1     -13.884  26.230  55.228  1.00  0.00     0.167 C 
HETATM   26  C11 UNL     1     -15.262  26.454  55.874  1.00  0.00     0.046 C 
BRANCH  25  27
HETATM   27  O2  UNL     1     -12.952  26.957  56.021  1.00  0.00    -0.390 OA
ATOM     28  H2  UNL     1     -12.674  26.410  56.746  1.00  0.00     0.210 HD
ENDBRANCH  25  27
ENDBRANCH   2  25
BRANCH   8  29
HETATM   29  N8  UNL     1     -12.740  26.166  50.586  1.00  0.00    -0.283 N 
ATOM     30  H8  UNL     1     -13.298  25.480  50.077  1.00  0.00     0.188 HD
BRANCH  29  31
HETATM   31  N9  UNL     1     -11.443  26.353  50.170  1.00  0.00    -0.304 N 
HETATM   32  C14 UNL     1     -10.801  25.393  49.606  1.00  0.00     0.057 C 
HETATM   33  C15 UNL     1     -11.492  24.092  49.417  1.00  0.00     0.069 C 
ATOM     34  H9  UNL     1     -10.989  27.256  50.309  1.00  0.00     0.186 HD
BRANCH  32  35
HETATM   35  C16 UNL     1      -9.395  25.542  49.136  1.00  0.00     0.424 C 
BRANCH  35  36
HETATM   36  N10 UNL     1      -9.164  26.935  48.814  1.00  0.00    -0.045 N 
ATOM     37 3H10 UNL     1      -9.424  27.164  47.854  1.00  0.00     0.277 HD
ATOM     38 2H10 UNL     1      -9.818  27.560  49.287  1.00  0.00     0.277 HD
ATOM     39 1H10 UNL     1      -8.190  27.158  49.021  1.00  0.00     0.277 HD
ENDBRANCH  35  36
BRANCH  35  40
HETATM   40  N11 UNL     1      -9.226  24.764  47.938  1.00  0.00    -0.045 N 
ATOM     41 3H11 UNL     1      -8.869  25.318  47.159  1.00  0.00     0.277 HD
ATOM     42 2H11 UNL     1      -8.452  24.104  48.008  1.00  0.00     0.277 HD
ATOM     43 1H11 UNL     1     -10.111  24.307  47.719  1.00  0.00     0.277 HD
ENDBRANCH  35  40
ENDBRANCH  32  35
ENDBRANCH  29  31
ENDBRANCH   8  29
BRANCH   5  44
HETATM   44  N5  UNL     1     -15.090  29.734  52.331  1.00  0.00    -0.138 N 
ATOM     45  H5  UNL     1     -14.869  30.510  52.955  1.00  0.00     0.205 HD
BRANCH  44  46
HETATM   46  N6  UNL     1     -16.031  29.882  51.314  1.00  0.00    -0.331 N 
ATOM     47  H62 UNL     1     -15.770  29.685  50.348  1.00  0.00     0.177 HD
ATOM     48  H61 UNL     1     -16.971  30.188  51.566  1.00  0.00     0.177 HD
ENDBRANCH  44  46
ENDBRANCH   5  44
TORSDOF 12
ENDMDL
MODEL 2
REMARK VINA RESULT: -6.118270609      3.057      5.462
REMARK  12 active torsions:
REMARK  status: ('A' for Active; 'I' for Inactive)
REMARK    1  A    between atoms: O1_2  and  C2_3 
REMARK    2  A    between atoms: C6_7  and  C7_8 
REMARK    3  A    between atoms: N3_13  and  C8_14 
REMARK    4  A    between atoms: C9_15  and  C10_16 
REMARK    5  A    between atoms: C10_16  and  O2_18 
REMARK    6  A    between atoms: C12_22  and  N5_23 
REMARK    7  A    between atoms: N5_23  and  N6_25 
REMARK    8  A    between atoms: C13_30  and  N8_31 
REMARK    9  A    between atoms: N8_31  and  N9_33 
REMARK   10  A    between atoms: C14_35  and  C16_37 
REMARK   11  A    between atoms: C16_37  and  N10_38 
REMARK   12  A    between atoms: C16_37  and  N11_42 
ROOT
HETATM    1  C8  UNL     1     -13.995  26.533  53.140  1.00  0.00     0.147 A 
HETATM    2  C9  UNL     1     -15.167  26.889  52.536  1.00  0.00     0.089 A 
HETATM    3  N4  UNL     1     -16.257  27.126  53.327  1.00  0.00    -0.189 N 
ATOM      4  H4  UNL     1     -17.133  27.391  52.877  1.00  0.00     0.184 HD
HETATM    5  C12 UNL     1     -16.236  27.028  54.663  1.00  0.00     0.698 A 
HETATM    6  N7  UNL     1     -15.070  26.674  55.262  1.00  0.00    -0.171 N 
ATOM      7  H7  UNL     1     -15.029  26.592  56.278  1.00  0.00     0.186 HD
HETATM    8  C13 UNL     1     -13.969  26.429  54.530  1.00  0.00     0.168 A 
ENDROOT
BRANCH   1   9
HETATM    9  N3  UNL     1     -12.806  26.292  52.401  1.00  0.00    -0.175 N 
HETATM   10  N2  UNL     1     -11.819  27.203  52.249  1.00  0.00    -0.219 N 
HETATM   11  N1  UNL     1     -10.841  26.721  51.523  1.00  0.00    -0.268 N 
ATOM     12  H2  UNL     1     -11.834  28.143  52.646  1.00  0.00     0.210 HD
HETATM   13  C7  UNL     1     -11.190  25.469  51.190  1.00  0.00     0.148 A 
ATOM     14  H1  UNL     1      -9.982  27.204  51.261  1.00  0.00     0.190 HD
HETATM   15  N12 UNL     1     -12.378  25.245  51.737  1.00  0.00    -0.261 N 
ATOM     16  H12 UNL     1     -12.893  24.368  51.651  1.00  0.00     0.191 HD
BRANCH  13  17
HETATM   17  C6  UNL     1     -10.369  24.551  50.366  1.00  0.00     0.013 A 
HETATM   18  C5  UNL     1     -10.178  23.233  50.713  1.00  0.00     0.015 A 
HETATM   19  C4  UNL     1      -9.410  22.372  49.938  1.00  0.00     0.004 A 
HETATM   20  C3  UNL     1      -8.809  22.821  48.784  1.00  0.00     0.037 A 
HETATM   21  C2  UNL     1      -8.993  24.140  48.425  1.00  0.00     0.069 A 
HETATM   22  C17 UNL     1      -9.768  24.996  49.212  1.00  0.00     0.052 A 
BRANCH  21  23
HETATM   23  O1  UNL     1      -8.406  24.632  47.270  1.00  0.00    -0.356 OA
HETATM   24  C1  UNL     1      -7.565  23.816  46.502  1.00  0.00     0.210 C 
ENDBRANCH  21  23
ENDBRANCH  13  17
ENDBRANCH   1   9
BRANCH   2  25
HETATM   25  C10 UNL     1     -15.338  27.011  51.086  1.00  0.00     0.167 C 
HETATM   26  C11 UNL     1     -16.687  27.680  50.765  1.00  0.00     0.046 C 
BRANCH  25  27
HETATM   27  O2  UNL     1     -15.398  25.707  50.519  1.00  0.00    -0.390 OA
ATOM     28  H2  UNL     1     -15.094  25.750  49.620  1.00  0.00     0.210 HD
ENDBRANCH  25  27
ENDBRANCH   2  25
BRANCH   8  29
HETATM   29  N8  UNL     1     -12.847  26.090  55.062  1.00  0.00    -0.283 N 
ATOM     30  H8  UNL     1     -11.996  26.423  54.608  1.00  0.00     0.188 HD
BRANCH  29  31
HETATM   31  N9  UNL     1     -12.696  25.318  56.189  1.00  0.00    -0.304 N 
HETATM   32  C14 UNL     1     -11.888  24.318  56.183  1.00  0.00     0.057 C 
HETATM   33  C15 UNL     1     -11.130  24.026  54.940  1.00  0.00     0.069 C 
ATOM     34  H9  UNL     1     -13.227  25.538  57.032  1.00  0.00     0.186 HD
BRANCH  32  35
HETATM   35  C16 UNL     1     -11.686  23.449  57.377  1.00  0.00     0.424 C 
BRANCH  35  36
HETATM   36  N10 UNL     1     -11.440  24.297  58.525  1.00  0.00    -0.045 N 
ATOM     37 3H10 UNL     1     -10.457  24.314  58.796  1.00  0.00     0.277 HD
ATOM     38 2H10 UNL     1     -11.542  25.288  58.309  1.00  0.00     0.277 HD
ATOM     39 1H10 UNL     1     -12.052  23.997  59.285  1.00  0.00     0.277 HD
ENDBRANCH  35  36
BRANCH  35  40
HETATM   40  N11 UNL     1     -10.525  22.631  57.158  1.00  0.00    -0.045 N 
ATOM     41 3H11 UNL     1      -9.712  23.174  56.866  1.00  0.00     0.277 HD
ATOM     42 2H11 UNL     1     -10.140  22.258  58.026  1.00  0.00     0.277 HD
ATOM     43 1H11 UNL     1     -10.764  21.897  56.490  1.00  0.00     0.277 HD
ENDBRANCH  35  40
ENDBRANCH  32  35
ENDBRANCH  29  31
ENDBRANCH   8  29
BRANCH   5  44
HETATM   44  N5  UNL     1     -17.301  27.266  55.353  1.00  0.00    -0.138 N 
ATOM     45  H5  UNL     1     -18.103  27.737  54.934  1.00  0.00     0.205 HD
BRANCH  44  46
HETATM   46  N6  UNL     1     -17.327  26.864  56.687  1.00  0.00    -0.331 N 
ATOM     47  H62 UNL     1     -17.094  25.901  56.933  1.00  0.00     0.177 HD
ATOM     48  H61 UNL     1     -17.581  27.552  57.395  1.00  0.00     0.177 HD
ENDBRANCH  44  46
ENDBRANCH   5  44
TORSDOF 12
ENDMDL
MODEL 3
REMARK VINA RESULT: -6.113718531      4.644      6.945
REMARK  12 active torsions:
REMARK  status: ('A' for Active; 'I' for Inactive)
REMARK    1  A    between atoms: O1_2  and  C2_3 
REMARK    2  A    between atoms: C6_7  and  C7_8 
REMARK    3  A    between atoms: N3_13  and  C8_14 
REMARK    4  A    between atoms: C9_15  and  C10_16 
REMARK    5  A    between atoms: C10_16  and  O2_18 
REMARK    6  A    between atoms: C12_22  and  N5_23 
REMARK    7  A    between atoms: N5_23  and  N6_25 
REMARK    8  A    between atoms: C13_30  and  N8_31 
REMARK    9  A    between atoms: N8_31  and  N9_33 
REMARK   10  A    between atoms: C14_35  and  C16_37 
REMARK   11  A    between atoms: C16_37  and  N10_38 
REMARK   12  A    between atoms: C16_37  and  N11_42 
ROOT
HETATM    1  C8  UNL     1      -9.681  23.047  49.192  1.00  0.00     0.147 A 
HETATM    2  C9  UNL     1      -9.968  23.131  50.525  1.00  0.00     0.089 A 
HETATM    3  N4  UNL     1     -10.110  24.374  51.078  1.00  0.00    -0.189 N 
ATOM      4  H4  UNL     1     -10.323  24.439  52.073  1.00  0.00     0.184 HD
HETATM    5  C12 UNL     1      -9.984  25.512  50.382  1.00  0.00     0.698 A 
HETATM    6  N7  UNL     1      -9.698  25.426  49.057  1.00  0.00    -0.171 N 
ATOM      7  H7  UNL     1      -9.596  26.278  48.506  1.00  0.00     0.186 HD
HETATM    8  C13 UNL     1      -9.547  24.227  48.465  1.00  0.00     0.168 A 
ENDROOT
BRANCH   1   9
HETATM    9  N3  UNL     1      -9.540  21.799  48.527  1.00  0.00    -0.175 N 
HETATM   10  N2  UNL     1     -10.582  21.006  48.190  1.00  0.00    -0.219 N 
HETATM   11  N1  UNL     1     -10.170  19.918  47.588  1.00  0.00    -0.268 N 
ATOM     12  H2  UNL     1     -11.560  21.226  48.379  1.00  0.00     0.210 HD
HETATM   13  C7  UNL     1      -8.832  19.994  47.528  1.00  0.00     0.148 A 
ATOM     14  H1  UNL     1     -10.753  19.160  47.234  1.00  0.00     0.190 HD
HETATM   15  N12 UNL     1      -8.488  21.139  48.102  1.00  0.00    -0.261 N 
ATOM     16  H12 UNL     1      -7.526  21.466  48.201  1.00  0.00     0.191 HD
BRANCH  13  17
HETATM   17  C6  UNL     1      -7.950  18.967  46.926  1.00  0.00     0.013 A 
HETATM   18  C5  UNL     1      -7.176  18.128  47.695  1.00  0.00     0.015 A 
HETATM   19  C4  UNL     1      -6.351  17.163  47.128  1.00  0.00     0.004 A 
HETATM   20  C3  UNL     1      -6.285  17.018  45.761  1.00  0.00     0.037 A 
HETATM   21  C2  UNL     1      -7.056  17.852  44.979  1.00  0.00     0.069 A 
HETATM   22  C17 UNL     1      -7.882  18.818  45.560  1.00  0.00     0.052 A 
BRANCH  21  23
HETATM   23  O1  UNL     1      -7.019  17.738  43.599  1.00  0.00    -0.356 OA
HETATM   24  C1  UNL     1      -8.049  17.080  42.916  1.00  0.00     0.210 C 
ENDBRANCH  21  23
ENDBRANCH  13  17
ENDBRANCH   1   9
BRANCH   2  25
HETATM   25  C10 UNL     1     -10.110  21.972  51.409  1.00  0.00     0.167 C 
HETATM   26  C11 UNL     1      -9.925  22.397  52.877  1.00  0.00     0.046 C 
BRANCH  25  27
HETATM   27  O2  UNL     1      -9.063  21.049  51.129  1.00  0.00    -0.390 OA
ATOM     28  H2  UNL     1      -9.447  20.204  50.923  1.00  0.00     0.210 HD
ENDBRANCH  25  27
ENDBRANCH   2  25
BRANCH   8  29
HETATM   29  N8  UNL     1      -9.276  24.106  47.212  1.00  0.00    -0.283 N 
ATOM     30  H8  UNL     1     -10.064  24.015  46.571  1.00  0.00     0.188 HD
BRANCH  29  31
HETATM   31  N9  UNL     1      -8.015  24.090  46.664  1.00  0.00    -0.304 N 
HETATM   32  C14 UNL     1      -7.783  23.405  45.601  1.00  0.00     0.057 C 
HETATM   33  C15 UNL     1      -8.901  22.643  44.990  1.00  0.00     0.069 C 
ATOM     34  H9  UNL     1      -7.263  24.621  47.101  1.00  0.00     0.186 HD
BRANCH  32  35
HETATM   35  C16 UNL     1      -6.436  23.352  44.966  1.00  0.00     0.424 C 
BRANCH  35  36
HETATM   36  N10 UNL     1      -5.434  23.497  46.001  1.00  0.00    -0.045 N 
ATOM     37 3H10 UNL     1      -5.414  24.436  46.399  1.00  0.00     0.277 HD
ATOM     38 2H10 UNL     1      -5.675  22.990  46.853  1.00  0.00     0.277 HD
ATOM     39 1H10 UNL     1      -4.531  23.214  45.619  1.00  0.00     0.277 HD
ENDBRANCH  35  36
BRANCH  35  40
HETATM   40  N11 UNL     1      -6.314  24.459  44.056  1.00  0.00    -0.045 N 
ATOM     41 3H11 UNL     1      -5.619  24.293  43.329  1.00  0.00     0.277 HD
ATOM     42 2H11 UNL     1      -7.129  24.559  43.451  1.00  0.00     0.277 HD
ATOM     43 1H11 UNL     1      -6.122  25.304  44.595  1.00  0.00     0.277 HD
ENDBRANCH  35  40
ENDBRANCH  32  35
ENDBRANCH  29  31
ENDBRANCH   8  29
BRANCH   5  44
HETATM   44  N5  UNL     1     -10.131  26.655  50.965  1.00  0.00    -0.138 N 
ATOM     45  H5  UNL     1      -9.454  27.405  50.824  1.00  0.00     0.205 HD
BRANCH  44  46
HETATM   46  N6  UNL     1     -11.238  26.837  51.791  1.00  0.00    -0.331 N 
ATOM     47  H62 UNL     1     -11.290  27.655  52.398  1.00  0.00     0.177 HD
ATOM     48  H61 UNL     1     -11.979  26.137  51.767  1.00  0.00     0.177 HD
ENDBRANCH  44  46
ENDBRANCH   5  44
TORSDOF 12
ENDMDL
MODEL 4
REMARK VINA RESULT: -6.088183649      5.806      8.520
REMARK  12 active torsions:
REMARK  status: ('A' for Active; 'I' for Inactive)
REMARK    1  A    between atoms: O1_2  and  C2_3 
REMARK    2  A    between atoms: C6_7  and  C7_8 
REMARK    3  A    between atoms: N3_13  and  C8_14 
REMARK    4  A    between atoms: C9_15  and  C10_16 
REMARK    5  A    between atoms: C10_16  and  O2_18 
REMARK    6  A    between atoms: C12_22  and  N5_23 
REMARK    7  A    between atoms: N5_23  and  N6_25 
REMARK    8  A    between atoms: C13_30  and  N8_31 
REMARK    9  A    between atoms: N8_31  and  N9_33 
REMARK   10  A    between atoms: C14_35  and  C16_37 
REMARK   11  A    between atoms: C16_37  and  N10_38 
REMARK   12  A    between atoms: C16_37  and  N11_42 
ROOT
HETATM    1  C8  UNL     1      -8.784  22.837  47.788  1.00  0.00     0.147 A 
HETATM    2  C9  UNL     1      -9.649  22.938  48.841  1.00  0.00     0.089 A 
HETATM    3  N4  UNL     1      -9.891  24.179  49.362  1.00  0.00    -0.189 N 
ATOM      4  H4  UNL     1     -10.536  24.256  50.149  1.00  0.00     0.184 HD
HETATM    5  C12 UNL     1      -9.326  25.300  48.895  1.00  0.00     0.698 A 
HETATM    6  N7  UNL     1      -8.466  25.198  47.849  1.00  0.00    -0.171 N 
ATOM      7  H7  UNL     1      -8.022  26.037  47.476  1.00  0.00     0.186 HD
HETATM    8  C13 UNL     1      -8.193  24.000  47.300  1.00  0.00     0.168 A 
ENDROOT
BRANCH   1   9
HETATM    9  N3  UNL     1      -8.492  21.593  47.167  1.00  0.00    -0.175 N 
HETATM   10  N2  UNL     1      -7.789  20.604  47.763  1.00  0.00    -0.219 N 
HETATM   11  N1  UNL     1      -7.665  19.570  46.969  1.00  0.00    -0.268 N 
ATOM     12  H2  UNL     1      -7.406  20.655  48.707  1.00  0.00     0.210 HD
HETATM   13  C7  UNL     1      -8.297  19.884  45.827  1.00  0.00     0.148 A 
ATOM     14  H1  UNL     1      -7.183  18.696  47.177  1.00  0.00     0.190 HD
HETATM   15  N12 UNL     1      -8.782  21.108  45.983  1.00  0.00    -0.261 N 
ATOM     16  H12 UNL     1      -9.315  21.610  45.271  1.00  0.00     0.191 HD
BRANCH  13  17
HETATM   17  C6  UNL     1      -8.403  18.996  44.645  1.00  0.00     0.013 A 
HETATM   18  C5  UNL     1      -9.279  19.255  43.615  1.00  0.00     0.015 A 
HETATM   19  C4  UNL     1      -9.376  18.422  42.507  1.00  0.00     0.004 A 
HETATM   20  C3  UNL     1      -8.587  17.299  42.406  1.00  0.00     0.037 A 
HETATM   21  C2  UNL     1      -7.706  17.029  43.431  1.00  0.00     0.069 A 
HETATM   22  C17 UNL     1      -7.616  17.873  44.541  1.00  0.00     0.052 A 
BRANCH  21  23
HETATM   23  O1  UNL     1      -6.894  15.908  43.368  1.00  0.00    -0.356 OA
HETATM   24  C1  UNL     1      -7.250  14.822  42.560  1.00  0.00     0.210 C 
ENDBRANCH  21  23
ENDBRANCH  13  17
ENDBRANCH   1   9
BRANCH   2  25
HETATM   25  C10 UNL     1     -10.319  21.794  49.465  1.00  0.00     0.167 C 
HETATM   26  C11 UNL     1     -11.511  22.274  50.312  1.00  0.00     0.046 C 
BRANCH  25  27
HETATM   27  O2  UNL     1      -9.415  21.171  50.371  1.00  0.00    -0.390 OA
ATOM     28  H2  UNL     1      -9.895  20.544  50.900  1.00  0.00     0.210 HD
ENDBRANCH  25  27
ENDBRANCH   2  25
BRANCH   8  29
HETATM   29  N8  UNL     1      -7.384  23.864  46.308  1.00  0.00    -0.283 N 
ATOM     30  H8  UNL     1      -6.561  23.279  46.455  1.00  0.00     0.188 HD
BRANCH  29  31
HETATM   31  N9  UNL     1      -7.532  24.440  45.068  1.00  0.00    -0.304 N 
HETATM   32  C14 UNL     1      -6.625  24.280  44.171  1.00  0.00     0.057 C 
HETATM   33  C15 UNL     1      -5.430  23.466  44.507  1.00  0.00     0.069 C 
ATOM     34  H9  UNL     1      -8.362  24.994  44.861  1.00  0.00     0.186 HD
BRANCH  32  35
HETATM   35  C16 UNL     1      -6.736  24.880  42.812  1.00  0.00     0.424 C 
BRANCH  35  36
HETATM   36  N10 UNL     1      -6.039  26.150  42.813  1.00  0.00    -0.045 N 
ATOM     37 3H10 UNL     1      -5.121  26.093  43.254  1.00  0.00     0.277 HD
ATOM     38 2H10 UNL     1      -5.728  26.427  41.882  1.00  0.00     0.277 HD
ATOM     39 1H10 UNL     1      -6.641  26.849  43.249  1.00  0.00     0.277 HD
ENDBRANCH  35  36
BRANCH  35  40
HETATM   40  N11 UNL     1      -8.124  25.123  42.529  1.00  0.00    -0.045 N 
ATOM     41 3H11 UNL     1      -8.745  24.673  43.201  1.00  0.00     0.277 HD
ATOM     42 2H11 UNL     1      -8.397  26.089  42.711  1.00  0.00     0.277 HD
ATOM     43 1H11 UNL     1      -8.316  24.837  41.568  1.00  0.00     0.277 HD
ENDBRANCH  35  40
ENDBRANCH  32  35
ENDBRANCH  29  31
ENDBRANCH   8  29
BRANCH   5  44
HETATM   44  N5  UNL     1      -9.597  26.443  49.432  1.00  0.00    -0.138 N 
ATOM     45  H5  UNL     1      -9.326  27.314  48.976  1.00  0.00     0.205 HD
BRANCH  44  46
HETATM   46  N6  UNL     1     -10.270  26.455  50.652  1.00  0.00    -0.331 N 
ATOM     47  H62 UNL     1     -11.169  25.982  50.742  1.00  0.00     0.177 HD
ATOM     48  H61 UNL     1      -9.840  26.945  51.437  1.00  0.00     0.177 HD
ENDBRANCH  44  46
ENDBRANCH   5  44
TORSDOF 12
ENDMDL
MODEL 5
REMARK VINA RESULT: -6.062549606      0.953      1.525
REMARK  12 active torsions:
REMARK  status: ('A' for Active; 'I' for Inactive)
REMARK    1  A    between atoms: O1_2  and  C2_3 
REMARK    2  A    between atoms: C6_7  and  C7_8 
REMARK    3  A    between atoms: N3_13  and  C8_14 
REMARK    4  A    between atoms: C9_15  and  C10_16 
REMARK    5  A    between atoms: C10_16  and  O2_18 
REMARK    6  A    between atoms: C12_22  and  N5_23 
REMARK    7  A    between atoms: N5_23  and  N6_25 
REMARK    8  A    between atoms: C13_30  and  N8_31 
REMARK    9  A    between atoms: N8_31  and  N9_33 
REMARK   10  A    between atoms: C14_35  and  C16_37 
REMARK   11  A    between atoms: C16_37  and  N10_38 
REMARK   12  A    between atoms: C16_37  and  N11_42 
ROOT
HETATM    1  C8  UNL     1     -13.207  26.132  52.693  1.00  0.00     0.147 A 
HETATM    2  C9  UNL     1     -13.805  26.796  53.727  1.00  0.00     0.089 A 
HETATM    3  N4  UNL     1     -14.358  28.022  53.475  1.00  0.00    -0.189 N 
ATOM      4  H4  UNL     1     -14.803  28.518  54.246  1.00  0.00     0.184 HD
HETATM    5  C12 UNL     1     -14.344  28.605  52.269  1.00  0.00     0.698 A 
HETATM    6  N7  UNL     1     -13.749  27.945  51.243  1.00  0.00    -0.171 N 
ATOM      7  H7  UNL     1     -13.725  28.368  50.316  1.00  0.00     0.186 HD
HETATM    8  C13 UNL     1     -13.190  26.736  51.437  1.00  0.00     0.168 A 
ENDROOT
BRANCH   1   9
HETATM    9  N3  UNL     1     -12.629  24.845  52.855  1.00  0.00    -0.175 N 
HETATM   10  N2  UNL     1     -13.307  23.689  52.672  1.00  0.00    -0.219 N 
HETATM   11  N1  UNL     1     -12.536  22.653  52.886  1.00  0.00    -0.268 N 
ATOM     12  H2  UNL     1     -14.290  23.633  52.403  1.00  0.00     0.210 HD
HETATM   13  C7  UNL     1     -11.328  23.133  53.217  1.00  0.00     0.148 A 
ATOM     14  H1  UNL     1     -12.802  21.671  52.815  1.00  0.00     0.190 HD
HETATM   15  N12 UNL     1     -11.421  24.456  53.187  1.00  0.00    -0.261 N 
ATOM     16  H12 UNL     1     -10.650  25.091  53.397  1.00  0.00     0.191 HD
BRANCH  13  17
HETATM   17  C6  UNL     1     -10.146  22.302  53.546  1.00  0.00     0.013 A 
HETATM   18  C5  UNL     1      -9.761  21.238  52.761  1.00  0.00     0.015 A 
HETATM   19  C4  UNL     1      -8.651  20.461  53.069  1.00  0.00     0.004 A 
HETATM   20  C3  UNL     1      -7.894  20.737  54.184  1.00  0.00     0.037 A 
HETATM   21  C2  UNL     1      -8.268  21.800  54.978  1.00  0.00     0.069 A 
HETATM   22  C17 UNL     1      -9.386  22.575  54.659  1.00  0.00     0.052 A 
BRANCH  21  23
HETATM   23  O1  UNL     1      -7.532  22.112  56.110  1.00  0.00    -0.356 OA
HETATM   24  C1  UNL     1      -7.424  21.189  57.158  1.00  0.00     0.210 C 
ENDBRANCH  21  23
ENDBRANCH  13  17
ENDBRANCH   1   9
BRANCH   2  25
HETATM   25  C10 UNL     1     -13.872  26.287  55.099  1.00  0.00     0.167 C 
HETATM   26  C11 UNL     1     -15.273  26.530  55.688  1.00  0.00     0.046 C 
BRANCH  25  27
HETATM   27  O2  UNL     1     -12.968  27.030  55.909  1.00  0.00    -0.390 OA
ATOM     28  H2  UNL     1     -12.651  26.469  56.608  1.00  0.00     0.210 HD
ENDBRANCH  25  27
ENDBRANCH   2  25
BRANCH   8  29
HETATM   29  N8  UNL     1     -12.617  26.081  50.490  1.00  0.00    -0.283 N 
ATOM     30  H8  UNL     1     -13.147  25.322  50.060  1.00  0.00     0.188 HD
BRANCH  29  31
HETATM   31  N9  UNL     1     -11.351  26.315  50.006  1.00  0.00    -0.304 N 
HETATM   32  C14 UNL     1     -10.646  25.342  49.548  1.00  0.00     0.057 C 
HETATM   33  C15 UNL     1     -11.230  23.977  49.555  1.00  0.00     0.069 C 
ATOM     34  H9  UNL     1     -10.971  27.261  50.010  1.00  0.00     0.186 HD
BRANCH  32  35
HETATM   35  C16 UNL     1      -9.269  25.540  49.011  1.00  0.00     0.424 C 
BRANCH  35  36
HETATM   36  N10 UNL     1      -9.098  26.942  48.692  1.00  0.00    -0.045 N 
ATOM     37 3H10 UNL     1      -9.928  27.350  48.261  1.00  0.00     0.277 HD
ATOM     38 2H10 UNL     1      -9.070  27.532  49.523  1.00  0.00     0.277 HD
ATOM     39 1H10 UNL     1      -8.265  27.042  48.111  1.00  0.00     0.277 HD
ENDBRANCH  35  36
BRANCH  35  40
HETATM   40  N11 UNL     1      -9.135  24.777  47.800  1.00  0.00    -0.045 N 
ATOM     41 3H11 UNL     1      -9.510  23.832  47.889  1.00  0.00     0.277 HD
ATOM     42 2H11 UNL     1      -9.757  25.105  47.061  1.00  0.00     0.277 HD
ATOM     43 1H11 UNL     1      -8.155  24.783  47.518  1.00  0.00     0.277 HD
ENDBRANCH  35  40
ENDBRANCH  32  35
ENDBRANCH  29  31
ENDBRANCH   8  29
BRANCH   5  44
HETATM   44  N5  UNL     1     -14.885  29.765  52.098  1.00  0.00    -0.138 N 
ATOM     45  H5  UNL     1     -14.450  30.607  52.477  1.00  0.00     0.205 HD
BRANCH  44  46
HETATM   46  N6  UNL     1     -16.078  29.838  51.382  1.00  0.00    -0.331 N 
ATOM     47  H62 UNL     1     -16.093  30.278  50.462  1.00  0.00     0.177 HD
ATOM     48  H61 UNL     1     -16.919  29.445  51.803  1.00  0.00     0.177 HD
ENDBRANCH  44  46
ENDBRANCH   5  44
TORSDOF 12
ENDMDL
