MODEL 1
REMARK VINA RESULT: -7.743728706      0.000      0.000
REMARK  11 active torsions:
REMARK  status: ('A' for Active; 'I' for Inactive)
REMARK       I    between atoms: N1_2  and  C2_4 
REMARK    1  A    between atoms: C2_4  and  C3_6 
REMARK       I    between atoms: C3_6  and  N2_8 
REMARK    2  A    between atoms: N2_8  and  C4_10 
REMARK    3  A    between atoms: C4_10  and  N3_11 
REMARK    4  A    between atoms: N3_11  and  N4_13 
REMARK    5  A    between atoms: N4_13  and  C5_15 
REMARK    6  A    between atoms: C8_18  and  N5_19 
REMARK    7  A    between atoms: C10_23  and  N6_24 
REMARK    8  A    between atoms: C11_27  and  O7_28 
REMARK    9  A    between atoms: C11_27  and  N7_30 
REMARK   10  A    between atoms: N7_30  and  C12_32 
REMARK   11  A    between atoms: C13_38  and  N10_39 
ROOT
HETATM    1  C4  UNL     1      -7.845  23.325  46.110  1.00  0.00     0.175 C 
HETATM    2  C11 UNL     1      -8.034  21.959  45.870  1.00  0.00     0.188 C 
ENDROOT
BRANCH   1   3
HETATM    3  N2  UNL     1      -8.290  24.237  47.035  1.00  0.00    -0.300 N 
HETATM    4  C3  UNL     1      -8.818  24.103  48.315  1.00  0.00     0.315 C 
HETATM    5  O2  UNL     1      -9.027  23.079  48.962  1.00  0.00    -0.262 OA
ATOM      6  H2  UNL     1      -8.220  25.205  46.721  1.00  0.00     0.171 HD
BRANCH   4   7
HETATM    7  C2  UNL     1      -9.188  25.381  49.019  1.00  0.00     0.309 C 
HETATM    8  N1  UNL     1      -9.962  25.307  50.192  1.00  0.00    -0.357 N 
HETATM    9  C1  UNL     1     -10.323  26.518  50.881  1.00  0.00     0.149 C 
ATOM     10  H1  UNL     1     -10.264  24.402  50.552  1.00  0.00     0.162 HD
HETATM   11  O1  UNL     1      -8.816  26.474  48.571  1.00  0.00    -0.262 OA
ENDBRANCH   4   7
ENDBRANCH   1   3
BRANCH   1  12
HETATM   12  N3  UNL     1      -6.996  23.888  45.200  1.00  0.00    -0.281 N 
ATOM     13  H3  UNL     1      -6.012  23.622  45.236  1.00  0.00     0.188 HD
BRANCH  12  14
HETATM   14  N4  UNL     1      -7.376  24.778  44.252  1.00  0.00    -0.297 N 
ATOM     15  H4  UNL     1      -8.269  25.260  44.355  1.00  0.00     0.187 HD
BRANCH  14  16
HETATM   16  C5  UNL     1      -6.556  25.063  43.102  1.00  0.00     0.081 A 
HETATM   17  C6  UNL     1      -5.213  25.377  43.307  1.00  0.00     0.036 A 
HETATM   18  C7  UNL     1      -4.397  25.629  42.230  1.00  0.00     0.038 A 
HETATM   19  C8  UNL     1      -4.916  25.569  40.945  1.00  0.00     0.105 A 
HETATM   20  C9  UNL     1      -6.243  25.259  40.772  1.00  0.00     0.074 A 
HETATM   21  C10 UNL     1      -7.104  24.996  41.841  1.00  0.00     0.133 A 
BRANCH  19  22
HETATM   22  N5  UNL     1      -4.062  25.834  39.811  1.00  0.00    -0.116 N 
HETATM   23  O3  UNL     1      -4.454  26.516  38.844  1.00  0.00    -0.532 OA
HETATM   24  O4  UNL     1      -2.789  25.321  39.789  1.00  0.00    -0.532 OA
ENDBRANCH  19  22
BRANCH  21  25
HETATM   25  N6  UNL     1      -8.467  24.683  41.593  1.00  0.00    -0.113 N 
HETATM   26  O5  UNL     1      -8.759  23.771  40.825  1.00  0.00    -0.532 OA
HETATM   27  O6  UNL     1      -9.444  25.386  42.237  1.00  0.00    -0.532 OA
ENDBRANCH  21  25
ENDBRANCH  14  16
ENDBRANCH  12  14
ENDBRANCH   1  12
BRANCH   2  28
HETATM   28  O7  UNL     1      -7.358  21.528  44.786  1.00  0.00    -0.343 OA
ATOM     29  H7  UNL     1      -7.549  22.042  44.010  1.00  0.00     0.219 HD
ENDBRANCH   2  28
BRANCH   2  30
HETATM   30  N7  UNL     1      -8.764  20.984  46.512  1.00  0.00    -0.316 N 
ATOM     31  H7  UNL     1      -9.773  21.078  46.637  1.00  0.00     0.169 HD
BRANCH  30  32
HETATM   32  C12 UNL     1      -8.046  19.806  47.009  1.00  0.00     0.175 A 
HETATM   33  N8  UNL     1      -7.470  18.836  46.300  1.00  0.00    -0.222 N 
HETATM   34  O8  UNL     1      -6.945  17.950  47.097  1.00  0.00    -0.153 OA
ATOM     35  H8  UNL     1      -7.443  18.795  45.281  1.00  0.00     0.198 HD
HETATM   36  N9  UNL     1      -7.151  18.293  48.325  1.00  0.00    -0.222 N 
HETATM   37  C13 UNL     1      -7.845  19.463  48.326  1.00  0.00     0.167 A 
ATOM     38  H9  UNL     1      -6.846  17.776  49.150  1.00  0.00     0.198 HD
BRANCH  37  39
HETATM   39  N10 UNL     1      -8.251  20.153  49.343  1.00  0.00    -0.381 N 
ATOM     40 2H10 UNL     1      -7.706  20.485  50.139  1.00  0.00     0.157 HD
ATOM     41 1H10 UNL     1      -9.208  20.472  49.490  1.00  0.00     0.157 HD
ENDBRANCH  37  39
ENDBRANCH  30  32
ENDBRANCH   2  30
TORSDOF 11
ENDMDL
MODEL 2
REMARK VINA RESULT: -7.483848492      2.857      8.585
REMARK  11 active torsions:
REMARK  status: ('A' for Active; 'I' for Inactive)
REMARK       I    between atoms: N1_2  and  C2_4 
REMARK    1  A    between atoms: C2_4  and  C3_6 
REMARK       I    between atoms: C3_6  and  N2_8 
REMARK    2  A    between atoms: N2_8  and  C4_10 
REMARK    3  A    between atoms: C4_10  and  N3_11 
REMARK    4  A    between atoms: N3_11  and  N4_13 
REMARK    5  A    between atoms: N4_13  and  C5_15 
REMARK    6  A    between atoms: C8_18  and  N5_19 
REMARK    7  A    between atoms: C10_23  and  N6_24 
REMARK    8  A    between atoms: C11_27  and  O7_28 
REMARK    9  A    between atoms: C11_27  and  N7_30 
REMARK   10  A    between atoms: N7_30  and  C12_32 
REMARK   11  A    between atoms: C13_38  and  N10_39 
ROOT
HETATM    1  C4  UNL     1      -7.584  23.533  45.291  1.00  0.00     0.175 C 
HETATM    2  C11 UNL     1      -6.294  23.839  44.841  1.00  0.00     0.188 C 
ENDROOT
BRANCH   1   3
HETATM    3  N2  UNL     1      -8.774  23.171  44.710  1.00  0.00    -0.300 N 
HETATM    4  C3  UNL     1      -9.319  23.406  43.452  1.00  0.00     0.315 C 
HETATM    5  O2  UNL     1      -8.844  24.029  42.506  1.00  0.00    -0.262 OA
ATOM      6  H2  UNL     1      -9.377  22.621  45.321  1.00  0.00     0.171 HD
BRANCH   4   7
HETATM    7  C2  UNL     1     -10.682  22.817  43.199  1.00  0.00     0.309 C 
HETATM    8  N1  UNL     1     -11.800  23.413  43.811  1.00  0.00    -0.357 N 
HETATM    9  C1  UNL     1     -13.111  22.867  43.580  1.00  0.00     0.149 C 
ATOM     10  H1  UNL     1     -11.682  24.227  44.416  1.00  0.00     0.162 HD
HETATM   11  O1  UNL     1     -10.812  21.829  42.465  1.00  0.00    -0.262 OA
ENDBRANCH   4   7
ENDBRANCH   1   3
BRANCH   1  12
HETATM   12  N3  UNL     1      -7.677  23.604  46.652  1.00  0.00    -0.281 N 
ATOM     13  H3  UNL     1      -7.116  22.954  47.204  1.00  0.00     0.188 HD
BRANCH  12  14
HETATM   14  N4  UNL     1      -8.465  24.481  47.318  1.00  0.00    -0.297 N 
ATOM     15  H4  UNL     1      -8.657  25.391  46.898  1.00  0.00     0.187 HD
BRANCH  14  16
HETATM   16  C5  UNL     1      -9.041  24.168  48.601  1.00  0.00     0.081 A 
HETATM   17  C6  UNL     1      -9.050  22.836  49.015  1.00  0.00     0.036 A 
HETATM   18  C7  UNL     1      -9.570  22.506  50.244  1.00  0.00     0.038 A 
HETATM   19  C8  UNL     1     -10.080  23.501  51.065  1.00  0.00     0.105 A 
HETATM   20  C9  UNL     1     -10.059  24.804  50.631  1.00  0.00     0.074 A 
HETATM   21  C10 UNL     1      -9.541  25.179  49.388  1.00  0.00     0.133 A 
BRANCH  19  22
HETATM   22  N5  UNL     1     -10.626  23.158  52.357  1.00  0.00    -0.116 N 
HETATM   23  O3  UNL     1     -11.390  22.185  52.505  1.00  0.00    -0.532 OA
HETATM   24  O4  UNL     1     -10.302  23.921  53.452  1.00  0.00    -0.532 OA
ENDBRANCH  19  22
BRANCH  21  25
HETATM   25  N6  UNL     1      -9.552  26.546  48.999  1.00  0.00    -0.113 N 
HETATM   26  O5  UNL     1      -8.566  27.039  48.460  1.00  0.00    -0.532 OA
HETATM   27  O6  UNL     1     -10.676  27.291  49.205  1.00  0.00    -0.532 OA
ENDBRANCH  21  25
ENDBRANCH  14  16
ENDBRANCH  12  14
ENDBRANCH   1  12
BRANCH   2  28
HETATM   28  O7  UNL     1      -5.457  24.156  45.850  1.00  0.00    -0.343 OA
ATOM     29  H7  UNL     1      -5.444  25.089  46.032  1.00  0.00     0.219 HD
ENDBRANCH   2  28
BRANCH   2  30
HETATM   30  N7  UNL     1      -5.720  23.881  43.590  1.00  0.00    -0.316 N 
ATOM     31  H7  UNL     1      -5.523  23.024  43.072  1.00  0.00     0.169 HD
BRANCH  30  32
HETATM   32  C12 UNL     1      -5.401  25.197  43.027  1.00  0.00     0.175 A 
HETATM   33  N8  UNL     1      -4.677  26.171  43.577  1.00  0.00    -0.222 N 
HETATM   34  O8  UNL     1      -4.630  27.198  42.778  1.00  0.00    -0.153 OA
ATOM     35  H8  UNL     1      -4.225  26.119  44.490  1.00  0.00     0.198 HD
HETATM   36  N9  UNL     1      -5.302  26.947  41.705  1.00  0.00    -0.222 N 
HETATM   37  C13 UNL     1      -5.811  25.690  41.810  1.00  0.00     0.167 A 
ATOM     38  H9  UNL     1      -5.428  27.580  40.915  1.00  0.00     0.198 HD
BRANCH  37  39
HETATM   39  N10 UNL     1      -6.539  25.046  40.955  1.00  0.00    -0.381 N 
ATOM     40 2H10 UNL     1      -7.475  25.278  40.622  1.00  0.00     0.157 HD
ATOM     41 1H10 UNL     1      -6.263  24.187  40.479  1.00  0.00     0.157 HD
ENDBRANCH  37  39
ENDBRANCH  30  32
ENDBRANCH   2  30
TORSDOF 11
ENDMDL
MODEL 3
REMARK VINA RESULT: -7.467594679      1.461      5.067
REMARK  11 active torsions:
REMARK  status: ('A' for Active; 'I' for Inactive)
REMARK       I    between atoms: N1_2  and  C2_4 
REMARK    1  A    between atoms: C2_4  and  C3_6 
REMARK       I    between atoms: C3_6  and  N2_8 
REMARK    2  A    between atoms: N2_8  and  C4_10 
REMARK    3  A    between atoms: C4_10  and  N3_11 
REMARK    4  A    between atoms: N3_11  and  N4_13 
REMARK    5  A    between atoms: N4_13  and  C5_15 
REMARK    6  A    between atoms: C8_18  and  N5_19 
REMARK    7  A    between atoms: C10_23  and  N6_24 
REMARK    8  A    between atoms: C11_27  and  O7_28 
REMARK    9  A    between atoms: C11_27  and  N7_30 
REMARK   10  A    between atoms: N7_30  and  C12_32 
REMARK   11  A    between atoms: C13_38  and  N10_39 
ROOT
HETATM    1  C4  UNL     1      -7.977  22.865  47.000  1.00  0.00     0.175 C 
HETATM    2  C11 UNL     1      -8.611  23.823  47.801  1.00  0.00     0.188 C 
ENDROOT
BRANCH   1   3
HETATM    3  N2  UNL     1      -7.862  21.497  46.998  1.00  0.00    -0.300 N 
HETATM    4  C3  UNL     1      -7.728  20.563  45.975  1.00  0.00     0.315 C 
HETATM    5  O2  UNL     1      -7.680  20.746  44.761  1.00  0.00    -0.262 OA
ATOM      6  H2  UNL     1      -7.878  21.084  47.930  1.00  0.00     0.171 HD
BRANCH   4   7
HETATM    7  C2  UNL     1      -7.625  19.122  46.401  1.00  0.00     0.309 C 
HETATM    8  N1  UNL     1      -7.125  18.181  45.482  1.00  0.00    -0.357 N 
HETATM    9  C1  UNL     1      -7.017  16.800  45.871  1.00  0.00     0.149 C 
ATOM     10  H1  UNL     1      -6.842  18.475  44.547  1.00  0.00     0.162 HD
HETATM   11  O1  UNL     1      -7.975  18.778  47.537  1.00  0.00    -0.262 OA
ENDBRANCH   4   7
ENDBRANCH   1   3
BRANCH   1  12
HETATM   12  N3  UNL     1      -7.315  23.438  45.951  1.00  0.00    -0.281 N 
ATOM     13  H3  UNL     1      -6.309  23.583  46.044  1.00  0.00     0.188 HD
BRANCH  12  14
HETATM   14  N4  UNL     1      -7.906  23.826  44.796  1.00  0.00    -0.297 N 
ATOM     15  H4  UNL     1      -8.914  23.705  44.691  1.00  0.00     0.187 HD
BRANCH  14  16
HETATM   16  C5  UNL     1      -7.155  24.404  43.712  1.00  0.00     0.081 A 
HETATM   17  C6  UNL     1      -5.802  24.678  43.915  1.00  0.00     0.036 A 
HETATM   18  C7  UNL     1      -5.051  25.207  42.892  1.00  0.00     0.038 A 
HETATM   19  C8  UNL     1      -5.643  25.464  41.665  1.00  0.00     0.105 A 
HETATM   20  C9  UNL     1      -6.977  25.185  41.493  1.00  0.00     0.074 A 
HETATM   21  C10 UNL     1      -7.775  24.648  42.508  1.00  0.00     0.133 A 
BRANCH  19  22
HETATM   22  N5  UNL     1      -4.856  26.018  40.588  1.00  0.00    -0.116 N 
HETATM   23  O3  UNL     1      -4.943  25.582  39.425  1.00  0.00    -0.532 OA
HETATM   24  O4  UNL     1      -3.987  27.049  40.847  1.00  0.00    -0.532 OA
ENDBRANCH  19  22
BRANCH  21  25
HETATM   25  N6  UNL     1      -9.149  24.386  42.265  1.00  0.00    -0.113 N 
HETATM   26  O5  UNL     1      -9.561  23.229  42.250  1.00  0.00    -0.532 OA
HETATM   27  O6  UNL     1     -10.007  25.430  42.077  1.00  0.00    -0.532 OA
ENDBRANCH  21  25
ENDBRANCH  14  16
ENDBRANCH  12  14
ENDBRANCH   1  12
BRANCH   2  28
HETATM   28  O7  UNL     1      -8.398  25.081  47.367  1.00  0.00    -0.343 OA
ATOM     29  H7  UNL     1      -9.182  25.615  47.401  1.00  0.00     0.219 HD
ENDBRANCH   2  28
BRANCH   2  30
HETATM   30  N7  UNL     1      -9.396  23.734  48.929  1.00  0.00    -0.316 N 
ATOM     31  H7  UNL     1      -9.751  22.834  49.254  1.00  0.00     0.169 HD
BRANCH  30  32
HETATM   32  C12 UNL     1      -9.705  24.974  49.648  1.00  0.00     0.175 A 
HETATM   33  N8  UNL     1      -9.600  26.226  49.206  1.00  0.00    -0.222 N 
HETATM   34  O8  UNL     1      -9.950  27.062  50.142  1.00  0.00    -0.153 OA
ATOM     35  H8  UNL     1      -9.290  26.492  48.271  1.00  0.00     0.198 HD
HETATM   36  N9  UNL     1     -10.288  26.410  51.204  1.00  0.00    -0.222 N 
HETATM   37  C13 UNL     1     -10.152  25.081  50.944  1.00  0.00     0.167 A 
ATOM     38  H9  UNL     1     -10.603  26.819  52.083  1.00  0.00     0.198 HD
BRANCH  37  39
HETATM   39  N10 UNL     1     -10.389  24.082  51.733  1.00  0.00    -0.381 N 
ATOM     40 2H10 UNL     1      -9.852  23.222  51.841  1.00  0.00     0.157 HD
ATOM     41 1H10 UNL     1     -11.175  24.021  52.380  1.00  0.00     0.157 HD
ENDBRANCH  37  39
ENDBRANCH  30  32
ENDBRANCH   2  30
TORSDOF 11
ENDMDL
MODEL 4
REMARK VINA RESULT: -7.443106025      1.573      2.032
REMARK  11 active torsions:
REMARK  status: ('A' for Active; 'I' for Inactive)
REMARK       I    between atoms: N1_2  and  C2_4 
REMARK    1  A    between atoms: C2_4  and  C3_6 
REMARK       I    between atoms: C3_6  and  N2_8 
REMARK    2  A    between atoms: N2_8  and  C4_10 
REMARK    3  A    between atoms: C4_10  and  N3_11 
REMARK    4  A    between atoms: N3_11  and  N4_13 
REMARK    5  A    between atoms: N4_13  and  C5_15 
REMARK    6  A    between atoms: C8_18  and  N5_19 
REMARK    7  A    between atoms: C10_23  and  N6_24 
REMARK    8  A    between atoms: C11_27  and  O7_28 
REMARK    9  A    between atoms: C11_27  and  N7_30 
REMARK   10  A    between atoms: N7_30  and  C12_32 
REMARK   11  A    between atoms: C13_38  and  N10_39 
ROOT
HETATM    1  C4  UNL     1      -7.831  22.286  46.559  1.00  0.00     0.175 C 
HETATM    2  C11 UNL     1      -7.638  21.069  45.894  1.00  0.00     0.188 C 
ENDROOT
BRANCH   1   3
HETATM    3  N2  UNL     1      -8.397  22.686  47.745  1.00  0.00    -0.300 N 
HETATM    4  C3  UNL     1      -8.787  23.928  48.232  1.00  0.00     0.315 C 
HETATM    5  O2  UNL     1      -8.715  25.029  47.691  1.00  0.00    -0.262 OA
ATOM      6  H2  UNL     1      -8.563  21.920  48.397  1.00  0.00     0.171 HD
BRANCH   4   7
HETATM    7  C2  UNL     1      -9.386  23.943  49.614  1.00  0.00     0.309 C 
HETATM    8  N1  UNL     1      -9.889  25.155  50.120  1.00  0.00    -0.357 N 
HETATM    9  C1  UNL     1     -10.467  25.189  51.437  1.00  0.00     0.149 C 
ATOM     10  H1  UNL     1      -9.845  26.005  49.557  1.00  0.00     0.162 HD
HETATM   11  O1  UNL     1      -9.431  22.906  50.288  1.00  0.00    -0.262 OA
ENDBRANCH   4   7
ENDBRANCH   1   3
BRANCH   1  12
HETATM   12  N3  UNL     1      -7.319  23.338  45.854  1.00  0.00    -0.281 N 
ATOM     13  H3  UNL     1      -6.434  23.737  46.167  1.00  0.00     0.188 HD
BRANCH  12  14
HETATM   14  N4  UNL     1      -7.909  23.885  44.764  1.00  0.00    -0.297 N 
ATOM     15  H4  UNL     1      -8.927  23.902  44.709  1.00  0.00     0.187 HD
BRANCH  14  16
HETATM   16  C5  UNL     1      -7.141  24.443  43.681  1.00  0.00     0.081 A 
HETATM   17  C6  UNL     1      -5.788  24.707  43.895  1.00  0.00     0.036 A 
HETATM   18  C7  UNL     1      -5.021  25.217  42.875  1.00  0.00     0.038 A 
HETATM   19  C8  UNL     1      -5.598  25.465  41.638  1.00  0.00     0.105 A 
HETATM   20  C9  UNL     1      -6.933  25.197  41.456  1.00  0.00     0.074 A 
HETATM   21  C10 UNL     1      -7.746  24.679  42.468  1.00  0.00     0.133 A 
BRANCH  19  22
HETATM   22  N5  UNL     1      -4.795  25.999  40.563  1.00  0.00    -0.116 N 
HETATM   23  O3  UNL     1      -4.820  25.503  39.421  1.00  0.00    -0.532 OA
HETATM   24  O4  UNL     1      -3.980  27.079  40.801  1.00  0.00    -0.532 OA
ENDBRANCH  19  22
BRANCH  21  25
HETATM   25  N6  UNL     1      -9.121  24.427  42.214  1.00  0.00    -0.113 N 
HETATM   26  O5  UNL     1      -9.538  23.273  42.182  1.00  0.00    -0.532 OA
HETATM   27  O6  UNL     1      -9.972  25.477  42.034  1.00  0.00    -0.532 OA
ENDBRANCH  21  25
ENDBRANCH  14  16
ENDBRANCH  12  14
ENDBRANCH   1  12
BRANCH   2  28
HETATM   28  O7  UNL     1      -7.018  21.224  44.706  1.00  0.00    -0.343 OA
ATOM     29  H7  UNL     1      -6.258  21.790  44.764  1.00  0.00     0.219 HD
ENDBRANCH   2  28
BRANCH   2  30
HETATM   30  N7  UNL     1      -7.953  19.766  46.208  1.00  0.00    -0.316 N 
ATOM     31  H7  UNL     1      -8.425  19.534  47.082  1.00  0.00     0.169 HD
BRANCH  30  32
HETATM   32  C12 UNL     1      -7.589  18.722  45.244  1.00  0.00     0.175 A 
HETATM   33  N8  UNL     1      -7.963  18.615  43.970  1.00  0.00    -0.222 N 
HETATM   34  O8  UNL     1      -7.449  17.542  43.441  1.00  0.00    -0.153 OA
ATOM     35  H8  UNL     1      -8.563  19.278  43.480  1.00  0.00     0.198 HD
HETATM   36  N9  UNL     1      -6.739  16.920  44.322  1.00  0.00    -0.222 N 
HETATM   37  C13 UNL     1      -6.793  17.626  45.484  1.00  0.00     0.167 A 
ATOM     38  H9  UNL     1      -6.227  16.050  44.173  1.00  0.00     0.198 HD
BRANCH  37  39
HETATM   39  N10 UNL     1      -6.220  17.356  46.613  1.00  0.00    -0.381 N 
ATOM     40 2H10 UNL     1      -6.004  16.441  47.009  1.00  0.00     0.157 HD
ATOM     41 1H10 UNL     1      -5.892  18.051  47.284  1.00  0.00     0.157 HD
ENDBRANCH  37  39
ENDBRANCH  30  32
ENDBRANCH   2  30
TORSDOF 11
ENDMDL
MODEL 5
REMARK VINA RESULT: -7.418687512      2.269      6.262
REMARK  11 active torsions:
REMARK  status: ('A' for Active; 'I' for Inactive)
REMARK       I    between atoms: N1_2  and  C2_4 
REMARK    1  A    between atoms: C2_4  and  C3_6 
REMARK       I    between atoms: C3_6  and  N2_8 
REMARK    2  A    between atoms: N2_8  and  C4_10 
REMARK    3  A    between atoms: C4_10  and  N3_11 
REMARK    4  A    between atoms: N3_11  and  N4_13 
REMARK    5  A    between atoms: N4_13  and  C5_15 
REMARK    6  A    between atoms: C8_18  and  N5_19 
REMARK    7  A    between atoms: C10_23  and  N6_24 
REMARK    8  A    between atoms: C11_27  and  O7_28 
REMARK    9  A    between atoms: C11_27  and  N7_30 
REMARK   10  A    between atoms: N7_30  and  C12_32 
REMARK   11  A    between atoms: C13_38  and  N10_39 
ROOT
HETATM    1  C4  UNL     1      -7.393  23.849  46.163  1.00  0.00     0.175 C 
HETATM    2  C11 UNL     1      -7.046  24.004  44.815  1.00  0.00     0.188 C 
ENDROOT
BRANCH   1   3
HETATM    3  N2  UNL     1      -7.955  24.637  47.137  1.00  0.00    -0.300 N 
HETATM    4  C3  UNL     1      -8.952  24.406  48.078  1.00  0.00     0.315 C 
HETATM    5  O2  UNL     1      -9.610  23.387  48.275  1.00  0.00    -0.262 OA
ATOM      6  H2  UNL     1      -7.563  25.577  47.178  1.00  0.00     0.171 HD
BRANCH   4   7
HETATM    7  C2  UNL     1      -9.283  25.556  48.992  1.00  0.00     0.309 C 
HETATM    8  N1  UNL     1     -10.073  25.310  50.130  1.00  0.00    -0.357 N 
HETATM    9  C1  UNL     1     -10.398  26.396  51.016  1.00  0.00     0.149 C 
ATOM     10  H1  UNL     1     -10.413  24.368  50.326  1.00  0.00     0.162 HD
HETATM   11  O1  UNL     1      -8.866  26.695  48.742  1.00  0.00    -0.262 OA
ENDBRANCH   4   7
ENDBRANCH   1   3
BRANCH   1  12
HETATM   12  N3  UNL     1      -7.110  22.592  46.618  1.00  0.00    -0.281 N 
ATOM     13  H3  UNL     1      -6.145  22.384  46.877  1.00  0.00     0.188 HD
BRANCH  12  14
HETATM   14  N4  UNL     1      -8.026  21.604  46.750  1.00  0.00    -0.297 N 
ATOM     15  H4  UNL     1      -8.595  21.566  47.596  1.00  0.00     0.187 HD
BRANCH  14  16
HETATM   16  C5  UNL     1      -8.222  20.605  45.731  1.00  0.00     0.081 A 
HETATM   17  C6  UNL     1      -7.465  19.435  45.796  1.00  0.00     0.036 A 
HETATM   18  C7  UNL     1      -7.645  18.451  44.854  1.00  0.00     0.038 A 
HETATM   19  C8  UNL     1      -8.580  18.627  43.845  1.00  0.00     0.105 A 
HETATM   20  C9  UNL     1      -9.312  19.790  43.804  1.00  0.00     0.074 A 
HETATM   21  C10 UNL     1      -9.157  20.814  44.743  1.00  0.00     0.133 A 
BRANCH  19  22
HETATM   22  N5  UNL     1      -8.773  17.595  42.853  1.00  0.00    -0.116 N 
HETATM   23  O3  UNL     1      -9.404  16.552  43.112  1.00  0.00    -0.532 OA
HETATM   24  O4  UNL     1      -8.247  17.759  41.595  1.00  0.00    -0.532 OA
ENDBRANCH  19  22
BRANCH  21  25
HETATM   25  N6  UNL     1      -9.944  21.992  44.642  1.00  0.00    -0.113 N 
HETATM   26  O5  UNL     1     -10.840  22.204  45.454  1.00  0.00    -0.532 OA
HETATM   27  O6  UNL     1      -9.675  22.895  43.655  1.00  0.00    -0.532 OA
ENDBRANCH  21  25
ENDBRANCH  14  16
ENDBRANCH  12  14
ENDBRANCH   1  12
BRANCH   2  28
HETATM   28  O7  UNL     1      -6.491  22.891  44.294  1.00  0.00    -0.343 OA
ATOM     29  H7  UNL     1      -6.641  22.815  43.359  1.00  0.00     0.219 HD
ENDBRANCH   2  28
BRANCH   2  30
HETATM   30  N7  UNL     1      -7.155  25.055  43.932  1.00  0.00    -0.316 N 
ATOM     31  H7  UNL     1      -7.861  25.780  44.061  1.00  0.00     0.169 HD
BRANCH  30  32
HETATM   32  C12 UNL     1      -6.224  25.098  42.800  1.00  0.00     0.175 A 
HETATM   33  N8  UNL     1      -4.896  25.197  42.834  1.00  0.00    -0.222 N 
HETATM   34  O8  UNL     1      -4.418  25.223  41.623  1.00  0.00    -0.153 OA
ATOM     35  H8  UNL     1      -4.335  25.245  43.685  1.00  0.00     0.198 HD
HETATM   36  N9  UNL     1      -5.385  25.145  40.771  1.00  0.00    -0.222 N 
HETATM   37  C13 UNL     1      -6.553  25.062  41.465  1.00  0.00     0.167 A 
ATOM     38  H9  UNL     1      -5.291  25.144  39.756  1.00  0.00     0.198 HD
BRANCH  37  39
HETATM   39  N10 UNL     1      -7.756  24.965  40.999  1.00  0.00    -0.381 N 
ATOM     40 2H10 UNL     1      -8.361  25.710  40.649  1.00  0.00     0.157 HD
ATOM     41 1H10 UNL     1      -8.283  24.096  40.913  1.00  0.00     0.157 HD
ENDBRANCH  37  39
ENDBRANCH  30  32
ENDBRANCH   2  30
TORSDOF 11
ENDMDL
