MODEL 1
REMARK VINA RESULT: -6.619610380      0.000      0.000
REMARK  6 active torsions:
REMARK  status: ('A' for Active; 'I' for Inactive)
REMARK    1  A    between atoms: C2_2  and  O1_3 
REMARK    2  A    between atoms: O1_3  and  C3_4 
REMARK    3  A    between atoms: C3_4  and  C5_9 
REMARK    4  A    between atoms: N3_13  and  S1_14 
REMARK    5  A    between atoms: S1_14  and  C9_17 
REMARK    6  A    between atoms: C12_23  and  C13_24 
ROOT
HETATM    1  C3  UNL     1      28.554  17.650  96.816  1.00  0.00     0.151 C 
HETATM    2  N1  UNL     1      27.370  17.739  96.420  1.00  0.00    -0.276 N 
ATOM      3  H1  UNL     1      27.124  18.697  96.168  1.00  0.00     0.180 HD
HETATM    4  C4  UNL     1      26.333  16.890  96.240  1.00  0.00     0.183 C 
HETATM    5  N2  UNL     1      25.436  16.192  96.083  1.00  0.00    -0.172 NA
ENDROOT
BRANCH   1   6
HETATM    6  O1  UNL     1      29.111  16.467  97.209  1.00  0.00    -0.337 OA
BRANCH   6   7
HETATM    7  C2  UNL     1      29.140  15.973  98.520  1.00  0.00     0.172 C 
HETATM    8  C1  UNL     1      30.230  14.887  98.601  1.00  0.00     0.034 C 
ENDBRANCH   6   7
ENDBRANCH   1   6
BRANCH   1   9
HETATM    9  C5  UNL     1      29.400  18.934  96.858  1.00  0.00     0.171 C 
HETATM   10  C6  UNL     1      29.141  19.570  95.476  1.00  0.00     0.036 C 
HETATM   11  C7  UNL     1      29.998  18.658  94.624  1.00  0.00     0.023 C 
HETATM   12  C8  UNL     1      31.210  18.438  95.503  1.00  0.00     0.136 C 
HETATM   13  N3  UNL     1      30.740  18.515  96.833  1.00  0.00    -0.294 N 
BRANCH  13  14
HETATM   14  S1  UNL     1      31.788  18.901  98.067  1.00  0.00     0.266 S 
HETATM   15  O2  UNL     1      30.937  19.030  99.349  1.00  0.00    -0.200 OA
HETATM   16  O3  UNL     1      32.616  17.639  98.370  1.00  0.00    -0.200 OA
BRANCH  14  17
HETATM   17  C9  UNL     1      32.808  20.271  97.885  1.00  0.00     0.139 A 
HETATM   18  C10 UNL     1      32.422  21.583  97.760  1.00  0.00     0.055 A 
HETATM   19  C11 UNL     1      31.055  22.164  97.722  1.00  0.00     0.072 C 
HETATM   20  N4  UNL     1      33.564  22.338  97.678  1.00  0.00    -0.264 N 
HETATM   21  O4  UNL     1      34.561  21.538  97.749  1.00  0.00    -0.236 OA
ATOM     22  H4  UNL     1      33.610  23.352  97.578  1.00  0.00     0.194 HD
HETATM   23  C12 UNL     1      34.171  20.290  97.873  1.00  0.00     0.125 A 
BRANCH  23  24
HETATM   24  C13 UNL     1      35.097  19.177  97.970  1.00  0.00     0.060 C 
HETATM   25  C14 UNL     1      35.701  18.867  99.101  1.00  0.00     0.010 C 
HETATM   26  C15 UNL     1      35.437  19.665 100.309  1.00  0.00     0.062 C 
HETATM   27 CL1  UNL     1      36.803  17.532  99.172  1.00  0.00    -0.089 Cl
ENDBRANCH  23  24
ENDBRANCH  14  17
ENDBRANCH  13  14
ENDBRANCH   1   9
TORSDOF 6
ENDMDL
MODEL 2
REMARK VINA RESULT: -6.528379916      1.586      2.802
REMARK  6 active torsions:
REMARK  status: ('A' for Active; 'I' for Inactive)
REMARK    1  A    between atoms: C2_2  and  O1_3 
REMARK    2  A    between atoms: O1_3  and  C3_4 
REMARK    3  A    between atoms: C3_4  and  C5_9 
REMARK    4  A    between atoms: N3_13  and  S1_14 
REMARK    5  A    between atoms: S1_14  and  C9_17 
REMARK    6  A    between atoms: C12_23  and  C13_24 
ROOT
HETATM    1  C3  UNL     1      28.342  17.114  96.663  1.00  0.00     0.151 C 
HETATM    2  N1  UNL     1      27.438  16.276  96.446  1.00  0.00    -0.276 N 
ATOM      3  H1  UNL     1      27.810  15.330  96.358  1.00  0.00     0.180 HD
HETATM    4  C4  UNL     1      26.095  16.305  96.298  1.00  0.00     0.183 C 
HETATM    5  N2  UNL     1      24.955  16.301  96.163  1.00  0.00    -0.172 NA
ENDROOT
BRANCH   1   6
HETATM    6  O1  UNL     1      28.089  18.447  96.816  1.00  0.00    -0.337 OA
BRANCH   6   7
HETATM    7  C2  UNL     1      27.974  19.381  95.778  1.00  0.00     0.172 C 
HETATM    8  C1  UNL     1      26.497  19.809  95.677  1.00  0.00     0.034 C 
ENDBRANCH   6   7
ENDBRANCH   1   6
BRANCH   1   9
HETATM    9  C5  UNL     1      29.792  16.606  96.756  1.00  0.00     0.171 C 
HETATM   10  C6  UNL     1      29.687  15.429  97.749  1.00  0.00     0.036 C 
HETATM   11  C7  UNL     1      29.547  16.210  99.038  1.00  0.00     0.023 C 
HETATM   12  C8  UNL     1      30.503  17.363  98.824  1.00  0.00     0.136 C 
HETATM   13  N3  UNL     1      30.509  17.605  97.432  1.00  0.00    -0.294 N 
BRANCH  13  14
HETATM   14  S1  UNL     1      31.811  18.363  96.723  1.00  0.00     0.266 S 
HETATM   15  O2  UNL     1      32.967  17.338  96.708  1.00  0.00    -0.200 OA
HETATM   16  O3  UNL     1      31.496  18.495  95.222  1.00  0.00    -0.200 OA
BRANCH  14  17
HETATM   17  C9  UNL     1      32.346  19.861  97.368  1.00  0.00     0.139 A 
HETATM   18  C10 UNL     1      32.099  21.116  96.869  1.00  0.00     0.055 A 
HETATM   19  C11 UNL     1      31.346  21.515  95.651  1.00  0.00     0.072 C 
HETATM   20  N4  UNL     1      32.684  22.017  97.721  1.00  0.00    -0.264 N 
HETATM   21  O4  UNL     1      33.240  21.352  98.663  1.00  0.00    -0.236 OA
ATOM     22  H4  UNL     1      32.677  23.032  97.622  1.00  0.00     0.194 HD
HETATM   23  C12 UNL     1      33.071  20.059  98.505  1.00  0.00     0.125 A 
BRANCH  23  24
HETATM   24  C13 UNL     1      33.603  19.073  99.428  1.00  0.00     0.060 C 
HETATM   25  C14 UNL     1      34.838  18.622  99.334  1.00  0.00     0.010 C 
HETATM   26  C15 UNL     1      35.717  19.125  98.266  1.00  0.00     0.062 C 
HETATM   27 CL1  UNL     1      35.432  17.442 100.454  1.00  0.00    -0.089 Cl
ENDBRANCH  23  24
ENDBRANCH  14  17
ENDBRANCH  13  14
ENDBRANCH   1   9
TORSDOF 6
ENDMDL
MODEL 3
REMARK VINA RESULT: -6.431399696      2.174      3.002
REMARK  6 active torsions:
REMARK  status: ('A' for Active; 'I' for Inactive)
REMARK    1  A    between atoms: C2_2  and  O1_3 
REMARK    2  A    between atoms: O1_3  and  C3_4 
REMARK    3  A    between atoms: C3_4  and  C5_9 
REMARK    4  A    between atoms: N3_13  and  S1_14 
REMARK    5  A    between atoms: S1_14  and  C9_17 
REMARK    6  A    between atoms: C12_23  and  C13_24 
ROOT
HETATM    1  C3  UNL     1      28.393  17.873  96.659  1.00  0.00     0.151 C 
HETATM    2  N1  UNL     1      27.194  17.833  96.302  1.00  0.00    -0.276 N 
ATOM      3  H1  UNL     1      26.851  18.750  96.016  1.00  0.00     0.180 HD
HETATM    4  C4  UNL     1      26.237  16.884  96.198  1.00  0.00     0.183 C 
HETATM    5  N2  UNL     1      25.405  16.099  96.104  1.00  0.00    -0.172 NA
ENDROOT
BRANCH   1   6
HETATM    6  O1  UNL     1      29.071  16.768  97.086  1.00  0.00    -0.337 OA
BRANCH   6   7
HETATM    7  C2  UNL     1      28.918  16.145  98.331  1.00  0.00     0.172 C 
HETATM    8  C1  UNL     1      30.128  15.219  98.559  1.00  0.00     0.034 C 
ENDBRANCH   6   7
ENDBRANCH   1   6
BRANCH   1   9
HETATM    9  C5  UNL     1      29.115  19.231  96.613  1.00  0.00     0.171 C 
HETATM   10  C6  UNL     1      29.120  19.574  95.108  1.00  0.00     0.036 C 
HETATM   11  C7  UNL     1      30.206  18.626  94.646  1.00  0.00     0.023 C 
HETATM   12  C8  UNL     1      31.208  18.706  95.776  1.00  0.00     0.136 C 
HETATM   13  N3  UNL     1      30.454  18.968  96.942  1.00  0.00    -0.294 N 
BRANCH  13  14
HETATM   14  S1  UNL     1      31.177  19.686  98.259  1.00  0.00     0.266 S 
HETATM   15  O2  UNL     1      30.249  20.839  98.700  1.00  0.00    -0.200 OA
HETATM   16  O3  UNL     1      31.040  18.708  99.440  1.00  0.00    -0.200 OA
BRANCH  14  17
HETATM   17  C9  UNL     1      32.795  20.241  98.112  1.00  0.00     0.139 A 
HETATM   18  C10 UNL     1      33.936  19.591  98.513  1.00  0.00     0.055 A 
HETATM   19  C11 UNL     1      34.083  18.277  99.191  1.00  0.00     0.072 C 
HETATM   20  N4  UNL     1      35.000  20.382  98.166  1.00  0.00    -0.264 N 
HETATM   21  O4  UNL     1      34.533  21.430  97.597  1.00  0.00    -0.236 OA
ATOM     22  H4  UNL     1      35.985  20.174  98.330  1.00  0.00     0.194 HD
HETATM   23  C12 UNL     1      33.221  21.401  97.537  1.00  0.00     0.125 A 
BRANCH  23  24
HETATM   24  C13 UNL     1      32.432  22.467  96.946  1.00  0.00     0.060 C 
HETATM   25  C14 UNL     1      32.126  23.562  97.612  1.00  0.00     0.010 C 
HETATM   26  C15 UNL     1      32.592  23.724  98.999  1.00  0.00     0.062 C 
HETATM   27 CL1  UNL     1      31.179  24.808  96.869  1.00  0.00    -0.089 Cl
ENDBRANCH  23  24
ENDBRANCH  14  17
ENDBRANCH  13  14
ENDBRANCH   1   9
TORSDOF 6
ENDMDL
MODEL 4
REMARK VINA RESULT: -6.412282752      2.613      3.810
REMARK  6 active torsions:
REMARK  status: ('A' for Active; 'I' for Inactive)
REMARK    1  A    between atoms: C2_2  and  O1_3 
REMARK    2  A    between atoms: O1_3  and  C3_4 
REMARK    3  A    between atoms: C3_4  and  C5_9 
REMARK    4  A    between atoms: N3_13  and  S1_14 
REMARK    5  A    between atoms: S1_14  and  C9_17 
REMARK    6  A    between atoms: C12_23  and  C13_24 
ROOT
HETATM    1  C3  UNL     1      28.477  17.151  96.817  1.00  0.00     0.151 C 
HETATM    2  N1  UNL     1      27.604  16.289  96.571  1.00  0.00    -0.276 N 
ATOM      3  H1  UNL     1      27.991  15.346  96.563  1.00  0.00     0.180 HD
HETATM    4  C4  UNL     1      26.276  16.290  96.315  1.00  0.00     0.183 C 
HETATM    5  N2  UNL     1      25.151  16.262  96.089  1.00  0.00    -0.172 NA
ENDROOT
BRANCH   1   6
HETATM    6  O1  UNL     1      28.197  18.486  96.881  1.00  0.00    -0.337 OA
BRANCH   6   7
HETATM    7  C2  UNL     1      27.987  19.330  95.782  1.00  0.00     0.172 C 
HETATM    8  C1  UNL     1      26.493  19.702  95.740  1.00  0.00     0.034 C 
ENDBRANCH   6   7
ENDBRANCH   1   6
BRANCH   1   9
HETATM    9  C5  UNL     1      29.920  16.671  97.052  1.00  0.00     0.171 C 
HETATM   10  C6  UNL     1      29.728  15.354  97.834  1.00  0.00     0.036 C 
HETATM   11  C7  UNL     1      29.364  15.925  99.187  1.00  0.00     0.023 C 
HETATM   12  C8  UNL     1      30.286  17.120  99.293  1.00  0.00     0.136 C 
HETATM   13  N3  UNL     1      30.483  17.572  97.969  1.00  0.00    -0.294 N 
BRANCH  13  14
HETATM   14  S1  UNL     1      31.837  18.462  97.585  1.00  0.00     0.266 S 
HETATM   15  O2  UNL     1      32.714  18.508  98.856  1.00  0.00    -0.200 OA
HETATM   16  O3  UNL     1      32.697  17.595  96.647  1.00  0.00    -0.200 OA
BRANCH  14  17
HETATM   17  C9  UNL     1      31.633  20.040  96.940  1.00  0.00     0.139 A 
HETATM   18  C10 UNL     1      31.395  20.378  95.630  1.00  0.00     0.055 A 
HETATM   19  C11 UNL     1      31.279  19.500  94.436  1.00  0.00     0.072 C 
HETATM   20  N4  UNL     1      31.262  21.741  95.578  1.00  0.00    -0.264 N 
HETATM   21  O4  UNL     1      31.408  22.189  96.769  1.00  0.00    -0.236 OA
ATOM     22  H4  UNL     1      31.080  22.297  94.743  1.00  0.00     0.194 HD
HETATM   23  C12 UNL     1      31.633  21.218  97.625  1.00  0.00     0.125 A 
BRANCH  23  24
HETATM   24  C13 UNL     1      31.840  21.446  99.043  1.00  0.00     0.060 C 
HETATM   25  C14 UNL     1      30.859  21.818  99.841  1.00  0.00     0.010 C 
HETATM   26  C15 UNL     1      29.507  22.013  99.292  1.00  0.00     0.062 C 
HETATM   27 CL1  UNL     1      31.150  22.083 101.529  1.00  0.00    -0.089 Cl
ENDBRANCH  23  24
ENDBRANCH  14  17
ENDBRANCH  13  14
ENDBRANCH   1   9
TORSDOF 6
ENDMDL
MODEL 5
REMARK VINA RESULT: -6.401049966      2.048      2.929
REMARK  6 active torsions:
REMARK  status: ('A' for Active; 'I' for Inactive)
REMARK    1  A    between atoms: C2_2  and  O1_3 
REMARK    2  A    between atoms: O1_3  and  C3_4 
REMARK    3  A    between atoms: C3_4  and  C5_9 
REMARK    4  A    between atoms: N3_13  and  S1_14 
REMARK    5  A    between atoms: S1_14  and  C9_17 
REMARK    6  A    between atoms: C12_23  and  C13_24 
ROOT
HETATM    1  C3  UNL     1      28.743  17.629  96.684  1.00  0.00     0.151 C 
HETATM    2  N1  UNL     1      27.512  17.713  96.472  1.00  0.00    -0.276 N 
ATOM      3  H1  UNL     1      27.189  18.680  96.481  1.00  0.00     0.180 HD
HETATM    4  C4  UNL     1      26.501  16.846  96.236  1.00  0.00     0.183 C 
HETATM    5  N2  UNL     1      25.624  16.133  96.038  1.00  0.00    -0.172 NA
ENDROOT
BRANCH   1   6
HETATM    6  O1  UNL     1      29.404  16.436  96.721  1.00  0.00    -0.337 OA
BRANCH   6   7
HETATM    7  C2  UNL     1      29.176  15.402  97.639  1.00  0.00     0.172 C 
HETATM    8  C1  UNL     1      29.427  15.953  99.056  1.00  0.00     0.034 C 
ENDBRANCH   6   7
ENDBRANCH   1   6
BRANCH   1   9
HETATM    9  C5  UNL     1      29.526  18.934  96.911  1.00  0.00     0.171 C 
HETATM   10  C6  UNL     1      29.280  19.722  95.608  1.00  0.00     0.036 C 
HETATM   11  C7  UNL     1      30.205  18.960  94.684  1.00  0.00     0.023 C 
HETATM   12  C8  UNL     1      31.398  18.686  95.573  1.00  0.00     0.136 C 
HETATM   13  N3  UNL     1      30.884  18.579  96.885  1.00  0.00    -0.294 N 
BRANCH  13  14
HETATM   14  S1  UNL     1      31.875  18.856  98.194  1.00  0.00     0.266 S 
HETATM   15  O2  UNL     1      30.951  19.140  99.398  1.00  0.00    -0.200 OA
HETATM   16  O3  UNL     1      32.492  17.503  98.589  1.00  0.00    -0.200 OA
BRANCH  14  17
HETATM   17  C9  UNL     1      33.087  20.066  98.070  1.00  0.00     0.139 A 
HETATM   18  C10 UNL     1      34.448  19.882  98.063  1.00  0.00     0.055 A 
HETATM   19  C11 UNL     1      35.229  18.623  98.184  1.00  0.00     0.072 C 
HETATM   20  N4  UNL     1      35.026  21.115  97.908  1.00  0.00    -0.264 N 
HETATM   21  O4  UNL     1      34.082  21.976  97.828  1.00  0.00    -0.236 OA
ATOM     22  H4  UNL     1      36.026  21.310  97.866  1.00  0.00     0.194 HD
HETATM   23  C12 UNL     1      32.902  21.408  97.918  1.00  0.00     0.125 A 
BRANCH  23  24
HETATM   24  C13 UNL     1      31.658  22.154  97.861  1.00  0.00     0.060 C 
HETATM   25  C14 UNL     1      31.113  22.687  98.937  1.00  0.00     0.010 C 
HETATM   26  C15 UNL     1      31.775  22.530 100.242  1.00  0.00     0.062 C 
HETATM   27 CL1  UNL     1      29.625  23.567  98.825  1.00  0.00    -0.089 Cl
ENDBRANCH  23  24
ENDBRANCH  14  17
ENDBRANCH  13  14
ENDBRANCH   1   9
TORSDOF 6
ENDMDL
