MODEL 1
REMARK VINA RESULT: -6.381122593      0.000      0.000
REMARK  6 active torsions:
REMARK  status: ('A' for Active; 'I' for Inactive)
REMARK    1  A    between atoms: O1_2  and  N1_3 
REMARK    2  A    between atoms: N1_3  and  C2_5 
REMARK    3  A    between atoms: C5_12  and  N4_13 
REMARK    4  A    between atoms: N4_13  and  C6_15 
REMARK    5  A    between atoms: C6_15  and  C7_16 
REMARK    6  A    between atoms: C7_16  and  N5_17 
ROOT
HETATM    1  C2  UNL     1      38.047  -2.978  68.650  1.00  0.00     0.155 A 
HETATM    2  N2  UNL     1      38.502  -3.780  69.631  1.00  0.00    -0.335 N 
ATOM      3  H2  UNL     1      38.059  -3.739  70.548  1.00  0.00     0.168 HD
HETATM    4  C3  UNL     1      39.525  -4.636  69.437  1.00  0.00     0.182 A 
HETATM    5  N3  UNL     1      40.147  -4.732  68.245  1.00  0.00    -0.347 N 
ATOM      6  H3  UNL     1      40.919  -5.387  68.120  1.00  0.00     0.167 HD
HETATM    7  C4  UNL     1      39.745  -3.966  67.233  1.00  0.00     0.108 A 
HETATM    8  C5  UNL     1      40.383  -4.067  66.015  1.00  0.00     0.133 A 
HETATM    9  N8  UNL     1      39.940  -3.272  65.023  1.00  0.00    -0.317 N 
ATOM     10  H8  UNL     1      40.397  -3.329  64.113  1.00  0.00     0.170 HD
HETATM   11  C11 UNL     1      38.928  -2.410  65.177  1.00  0.00     0.181 A 
HETATM   12 CL1  UNL     1      38.360  -1.374  63.863  1.00  0.00    -0.045 Cl
HETATM   13  N9  UNL     1      38.320  -2.327  66.371  1.00  0.00    -0.328 N 
ATOM     14  H9  UNL     1      37.549  -1.669  66.481  1.00  0.00     0.168 HD
HETATM   15  C12 UNL     1      38.684  -3.076  67.428  1.00  0.00     0.111 A 
ENDROOT
BRANCH   8  16
HETATM   16  N4  UNL     1      41.359  -4.898  65.867  1.00  0.00    -0.373 N 
ATOM     17  H4  UNL     1      42.203  -4.793  66.429  1.00  0.00     0.161 HD
BRANCH  16  18
HETATM   18  C6  UNL     1      41.268  -5.967  64.920  1.00  0.00     0.141 C 
BRANCH  18  19
HETATM   19  C7  UNL     1      40.798  -7.204  65.672  1.00  0.00     0.142 C 
BRANCH  19  20
HETATM   20  N5  UNL     1      39.427  -7.475  65.380  1.00  0.00    -0.361 N 
HETATM   21  C8  UNL     1      38.572  -7.802  66.283  1.00  0.00     0.171 C 
HETATM   22  N6  UNL     1      38.878  -7.933  67.661  1.00  0.00    -0.361 N 
HETATM   23  N7  UNL     1      37.196  -8.094  66.122  1.00  0.00    -0.361 N 
HETATM   24  C9  UNL     1      37.636  -8.007  68.410  1.00  0.00     0.142 C 
ATOM     25  H6  UNL     1      39.816  -7.969  68.061  1.00  0.00     0.162 HD
HETATM   26  C10 UNL     1      36.561  -7.831  67.383  1.00  0.00     0.142 C 
ATOM     27  H7  UNL     1      36.742  -8.428  65.272  1.00  0.00     0.162 HD
ATOM     28  H5  UNL     1      39.112  -7.406  64.412  1.00  0.00     0.162 HD
ENDBRANCH  19  20
ENDBRANCH  18  19
ENDBRANCH  16  18
ENDBRANCH   8  16
BRANCH   1  29
HETATM   29  N1  UNL     1      37.076  -2.149  68.792  1.00  0.00    -0.249 N 
ATOM     30  H1  UNL     1      36.149  -2.522  68.994  1.00  0.00     0.196 HD
BRANCH  29  31
HETATM   31  O1  UNL     1      37.219  -0.805  68.690  1.00  0.00    -0.284 OA
HETATM   32  C1  UNL     1      37.768  -0.081  69.765  1.00  0.00     0.237 C 
ENDBRANCH  29  31
ENDBRANCH   1  29
TORSDOF 6
ENDMDL
MODEL 2
REMARK VINA RESULT: -6.232544943      1.543      1.969
REMARK  6 active torsions:
REMARK  status: ('A' for Active; 'I' for Inactive)
REMARK    1  A    between atoms: O1_2  and  N1_3 
REMARK    2  A    between atoms: N1_3  and  C2_5 
REMARK    3  A    between atoms: C5_12  and  N4_13 
REMARK    4  A    between atoms: N4_13  and  C6_15 
REMARK    5  A    between atoms: C6_15  and  C7_16 
REMARK    6  A    between atoms: C7_16  and  N5_17 
ROOT
HETATM    1  C2  UNL     1      37.991  -2.999  68.711  1.00  0.00     0.155 A 
HETATM    2  N2  UNL     1      38.477  -3.805  69.674  1.00  0.00    -0.335 N 
ATOM      3  H2  UNL     1      38.033  -3.802  70.592  1.00  0.00     0.168 HD
HETATM    4  C3  UNL     1      39.534  -4.614  69.462  1.00  0.00     0.182 A 
HETATM    5  N3  UNL     1      40.160  -4.658  68.269  1.00  0.00    -0.347 N 
ATOM      6  H3  UNL     1      40.958  -5.277  68.130  1.00  0.00     0.167 HD
HETATM    7  C4  UNL     1      39.727  -3.886  67.275  1.00  0.00     0.108 A 
HETATM    8  C5  UNL     1      40.370  -3.933  66.055  1.00  0.00     0.133 A 
HETATM    9  N8  UNL     1      39.896  -3.134  65.081  1.00  0.00    -0.317 N 
ATOM     10  H8  UNL     1      40.355  -3.152  64.170  1.00  0.00     0.170 HD
HETATM   11  C11 UNL     1      38.849  -2.317  65.253  1.00  0.00     0.181 A 
HETATM   12 CL1  UNL     1      38.241  -1.276  63.962  1.00  0.00    -0.045 Cl
HETATM   13  N9  UNL     1      38.238  -2.286  66.448  1.00  0.00    -0.328 N 
ATOM     14  H9  UNL     1      37.441  -1.662  66.572  1.00  0.00     0.168 HD
HETATM   15  C12 UNL     1      38.632  -3.044  67.489  1.00  0.00     0.111 A 
ENDROOT
BRANCH   8  16
HETATM   16  N4  UNL     1      41.379  -4.721  65.889  1.00  0.00    -0.373 N 
ATOM     17  H4  UNL     1      42.189  -4.640  66.504  1.00  0.00     0.161 HD
BRANCH  16  18
HETATM   18  C6  UNL     1      41.371  -5.706  64.852  1.00  0.00     0.141 C 
BRANCH  18  19
HETATM   19  C7  UNL     1      41.023  -7.041  65.493  1.00  0.00     0.142 C 
BRANCH  19  20
HETATM   20  N5  UNL     1      40.991  -8.075  64.509  1.00  0.00    -0.361 N 
HETATM   21  C8  UNL     1      39.903  -8.645  64.129  1.00  0.00     0.171 C 
HETATM   22  N6  UNL     1      38.617  -8.323  64.631  1.00  0.00    -0.361 N 
HETATM   23  N7  UNL     1      39.741  -9.674  63.170  1.00  0.00    -0.361 N 
HETATM   24  C9  UNL     1      37.615  -8.930  63.773  1.00  0.00     0.142 C 
ATOM     25  H6  UNL     1      38.427  -7.758  65.459  1.00  0.00     0.162 HD
HETATM   26  C10 UNL     1      38.397  -9.576  62.672  1.00  0.00     0.142 C 
ATOM     27  H7  UNL     1      40.445 -10.356  62.887  1.00  0.00     0.162 HD
ATOM     28  H5  UNL     1      41.871  -8.375  64.089  1.00  0.00     0.162 HD
ENDBRANCH  19  20
ENDBRANCH  18  19
ENDBRANCH  16  18
ENDBRANCH   8  16
BRANCH   1  29
HETATM   29  N1  UNL     1      36.987  -2.214  68.871  1.00  0.00    -0.249 N 
ATOM     30  H1  UNL     1      36.074  -2.628  69.054  1.00  0.00     0.196 HD
BRANCH  29  31
HETATM   31  O1  UNL     1      37.078  -0.863  68.809  1.00  0.00    -0.284 OA
HETATM   32  C1  UNL     1      37.802  -0.169  69.797  1.00  0.00     0.237 C 
ENDBRANCH  29  31
ENDBRANCH   1  29
TORSDOF 6
ENDMDL
MODEL 3
REMARK VINA RESULT: -6.220209428      6.471      9.241
REMARK  6 active torsions:
REMARK  status: ('A' for Active; 'I' for Inactive)
REMARK    1  A    between atoms: O1_2  and  N1_3 
REMARK    2  A    between atoms: N1_3  and  C2_5 
REMARK    3  A    between atoms: C5_12  and  N4_13 
REMARK    4  A    between atoms: N4_13  and  C6_15 
REMARK    5  A    between atoms: C6_15  and  C7_16 
REMARK    6  A    between atoms: C7_16  and  N5_17 
ROOT
HETATM    1  C2  UNL     1      36.188  -8.890  66.499  1.00  0.00     0.155 A 
HETATM    2  N2  UNL     1      36.734  -8.939  67.729  1.00  0.00    -0.335 N 
ATOM      3  H2  UNL     1      37.743  -9.062  67.817  1.00  0.00     0.168 HD
HETATM    4  C3  UNL     1      35.989  -8.831  68.847  1.00  0.00     0.182 A 
HETATM    5  N3  UNL     1      34.653  -8.668  68.789  1.00  0.00    -0.347 N 
ATOM      6  H3  UNL     1      34.107  -8.589  69.648  1.00  0.00     0.167 HD
HETATM    7  C4  UNL     1      34.051  -8.612  67.603  1.00  0.00     0.108 A 
HETATM    8  C5  UNL     1      32.683  -8.445  67.548  1.00  0.00     0.133 A 
HETATM    9  N8  UNL     1      32.120  -8.394  66.326  1.00  0.00    -0.317 N 
ATOM     10  H8  UNL     1      31.109  -8.271  66.261  1.00  0.00     0.170 HD
HETATM   11  C11 UNL     1      32.826  -8.497  65.194  1.00  0.00     0.181 A 
HETATM   12 CL1  UNL     1      32.070  -8.427  63.599  1.00  0.00    -0.045 Cl
HETATM   13  N9  UNL     1      34.157  -8.658  65.269  1.00  0.00    -0.328 N 
ATOM     14  H9  UNL     1      34.689  -8.736  64.403  1.00  0.00     0.168 HD
HETATM   15  C12 UNL     1      34.818  -8.723  66.440  1.00  0.00     0.111 A 
ENDROOT
BRANCH   8  16
HETATM   16  N4  UNL     1      32.002  -8.345  68.640  1.00  0.00    -0.373 N 
ATOM     17  H4  UNL     1      31.818  -9.179  69.199  1.00  0.00     0.161 HD
BRANCH  16  18
HETATM   18  C6  UNL     1      31.503  -7.077  69.075  1.00  0.00     0.141 C 
BRANCH  18  19
HETATM   19  C7  UNL     1      29.995  -7.085  68.872  1.00  0.00     0.142 C 
BRANCH  19  20
HETATM   20  N5  UNL     1      29.336  -7.580  70.038  1.00  0.00    -0.361 N 
HETATM   21  C8  UNL     1      28.558  -8.603  70.021  1.00  0.00     0.171 C 
HETATM   22  N6  UNL     1      28.259  -9.357  68.858  1.00  0.00    -0.361 N 
HETATM   23  N7  UNL     1      27.851  -9.185  71.101  1.00  0.00    -0.361 N 
HETATM   24  C9  UNL     1      27.611 -10.594  69.258  1.00  0.00     0.142 C 
ATOM     25  H6  UNL     1      28.465  -9.078  67.899  1.00  0.00     0.162 HD
HETATM   26  C10 UNL     1      27.614 -10.560  70.755  1.00  0.00     0.142 C 
ATOM     27  H7  UNL     1      27.564  -8.718  71.961  1.00  0.00     0.162 HD
ATOM     28  H5  UNL     1      29.491  -7.100  70.925  1.00  0.00     0.162 HD
ENDBRANCH  19  20
ENDBRANCH  18  19
ENDBRANCH  16  18
ENDBRANCH   8  16
BRANCH   1  29
HETATM   29  N1  UNL     1      36.861  -8.989  65.410  1.00  0.00    -0.249 N 
ATOM     30  H1  UNL     1      37.652  -8.361  65.273  1.00  0.00     0.196 HD
BRANCH  29  31
HETATM   31  O1  UNL     1      36.575  -9.883  64.433  1.00  0.00    -0.284 OA
HETATM   32  C1  UNL     1      36.819  -9.544  63.088  1.00  0.00     0.237 C 
ENDBRANCH  29  31
ENDBRANCH   1  29
TORSDOF 6
ENDMDL
MODEL 4
REMARK VINA RESULT: -6.139604908      6.964      9.893
REMARK  6 active torsions:
REMARK  status: ('A' for Active; 'I' for Inactive)
REMARK    1  A    between atoms: O1_2  and  N1_3 
REMARK    2  A    between atoms: N1_3  and  C2_5 
REMARK    3  A    between atoms: C5_12  and  N4_13 
REMARK    4  A    between atoms: N4_13  and  C6_15 
REMARK    5  A    between atoms: C6_15  and  C7_16 
REMARK    6  A    between atoms: C7_16  and  N5_17 
ROOT
HETATM    1  C2  UNL     1      34.397  -8.379  64.216  1.00  0.00     0.155 A 
HETATM    2  N2  UNL     1      33.341  -8.240  63.392  1.00  0.00    -0.335 N 
ATOM      3  H2  UNL     1      33.504  -8.153  62.389  1.00  0.00     0.168 HD
HETATM    4  C3  UNL     1      32.074  -8.211  63.852  1.00  0.00     0.182 A 
HETATM    5  N3  UNL     1      31.800  -8.321  65.167  1.00  0.00    -0.347 N 
ATOM      6  H3  UNL     1      30.835  -8.297  65.495  1.00  0.00     0.167 HD
HETATM    7  C4  UNL     1      32.801  -8.462  66.035  1.00  0.00     0.108 A 
HETATM    8  C5  UNL     1      32.517  -8.575  67.380  1.00  0.00     0.133 A 
HETATM    9  N8  UNL     1      33.561  -8.715  68.218  1.00  0.00    -0.317 N 
ATOM     10  H8  UNL     1      33.376  -8.800  69.217  1.00  0.00     0.170 HD
HETATM   11  C11 UNL     1      34.832  -8.748  67.798  1.00  0.00     0.181 A 
HETATM   12 CL1  UNL     1      36.191  -8.933  68.913  1.00  0.00    -0.045 Cl
HETATM   13  N9  UNL     1      35.087  -8.637  66.485  1.00  0.00    -0.328 N 
ATOM     14  H9  UNL     1      36.057  -8.663  66.172  1.00  0.00     0.168 HD
HETATM   15  C12 UNL     1      34.116  -8.492  65.563  1.00  0.00     0.111 A 
ENDROOT
BRANCH   8  16
HETATM   16  N4  UNL     1      31.291  -8.543  67.784  1.00  0.00    -0.373 N 
ATOM     17  H4  UNL     1      30.656  -9.300  67.531  1.00  0.00     0.161 HD
BRANCH  16  18
HETATM   18  C6  UNL     1      30.816  -7.457  68.584  1.00  0.00     0.141 C 
BRANCH  18  19
HETATM   19  C7  UNL     1      29.295  -7.518  68.581  1.00  0.00     0.142 C 
BRANCH  19  20
HETATM   20  N5  UNL     1      28.850  -8.874  68.540  1.00  0.00    -0.361 N 
HETATM   21  C8  UNL     1      28.127  -9.401  69.463  1.00  0.00     0.171 C 
HETATM   22  N6  UNL     1      27.687  -8.711  70.622  1.00  0.00    -0.361 N 
HETATM   23  N7  UNL     1      27.626 -10.723  69.538  1.00  0.00    -0.361 N 
HETATM   24  C9  UNL     1      26.659  -9.503  71.273  1.00  0.00     0.142 C 
ATOM     25  H6  UNL     1      28.035  -7.809  70.944  1.00  0.00     0.162 HD
HETATM   26  C10 UNL     1      26.459 -10.684  70.375  1.00  0.00     0.142 C 
ATOM     27  H7  UNL     1      28.020 -11.548  69.084  1.00  0.00     0.162 HD
ATOM     28  H5  UNL     1      29.117  -9.451  67.742  1.00  0.00     0.162 HD
ENDBRANCH  19  20
ENDBRANCH  18  19
ENDBRANCH  16  18
ENDBRANCH   8  16
BRANCH   1  29
HETATM   29  N1  UNL     1      35.618  -8.411  63.819  1.00  0.00    -0.249 N 
ATOM     30  H1  UNL     1      36.027  -7.554  63.447  1.00  0.00     0.196 HD
BRANCH  29  31
HETATM   31  O1  UNL     1      36.392  -9.522  63.868  1.00  0.00    -0.284 OA
HETATM   32  C1  UNL     1      37.647  -9.524  63.230  1.00  0.00     0.237 C 
ENDBRANCH  29  31
ENDBRANCH   1  29
TORSDOF 6
ENDMDL
MODEL 5
REMARK VINA RESULT: -6.138412953      3.233      4.958
REMARK  6 active torsions:
REMARK  status: ('A' for Active; 'I' for Inactive)
REMARK    1  A    between atoms: O1_2  and  N1_3 
REMARK    2  A    between atoms: N1_3  and  C2_5 
REMARK    3  A    between atoms: C5_12  and  N4_13 
REMARK    4  A    between atoms: N4_13  and  C6_15 
REMARK    5  A    between atoms: C6_15  and  C7_16 
REMARK    6  A    between atoms: C7_16  and  N5_17 
ROOT
HETATM    1  C2  UNL     1      40.268  -4.337  67.292  1.00  0.00     0.155 A 
HETATM    2  N2  UNL     1      39.796  -3.749  68.407  1.00  0.00    -0.335 N 
ATOM      3  H2  UNL     1      40.039  -2.776  68.593  1.00  0.00     0.168 HD
HETATM    4  C3  UNL     1      39.014  -4.406  69.286  1.00  0.00     0.182 A 
HETATM    5  N3  UNL     1      38.663  -5.693  69.090  1.00  0.00    -0.347 N 
ATOM      6  H3  UNL     1      38.070  -6.172  69.768  1.00  0.00     0.167 HD
HETATM    7  C4  UNL     1      39.096  -6.332  68.006  1.00  0.00     0.108 A 
HETATM    8  C5  UNL     1      38.735  -7.649  67.809  1.00  0.00     0.133 A 
HETATM    9  N8  UNL     1      39.198  -8.253  66.698  1.00  0.00    -0.317 N 
ATOM     10  H8  UNL     1      38.944  -9.226  66.532  1.00  0.00     0.170 HD
HETATM   11  C11 UNL     1      39.976  -7.632  65.803  1.00  0.00     0.181 A 
HETATM   12 CL1  UNL     1      40.575  -8.441  64.351  1.00  0.00    -0.045 Cl
HETATM   13  N9  UNL     1      40.317  -6.351  66.013  1.00  0.00    -0.328 N 
ATOM     14  H9  UNL     1      40.910  -5.885  65.327  1.00  0.00     0.168 HD
HETATM   15  C12 UNL     1      39.908  -5.655  67.091  1.00  0.00     0.111 A 
ENDROOT
BRANCH   8  16
HETATM   16  N4  UNL     1      37.984  -8.246  68.673  1.00  0.00    -0.373 N 
ATOM     17  H4  UNL     1      38.131  -8.084  69.669  1.00  0.00     0.161 HD
BRANCH  16  18
HETATM   18  C6  UNL     1      36.946  -9.134  68.245  1.00  0.00     0.141 C 
BRANCH  18  19
HETATM   19  C7  UNL     1      35.769  -8.279  67.798  1.00  0.00     0.142 C 
BRANCH  19  20
HETATM   20  N5  UNL     1      34.570  -8.700  68.447  1.00  0.00    -0.361 N 
HETATM   21  C8  UNL     1      33.465  -8.047  68.367  1.00  0.00     0.171 C 
HETATM   22  N6  UNL     1      33.302  -6.844  67.636  1.00  0.00    -0.361 N 
HETATM   23  N7  UNL     1      32.218  -8.359  68.961  1.00  0.00    -0.361 N 
HETATM   24  C9  UNL     1      31.882  -6.560  67.516  1.00  0.00     0.142 C 
ATOM     25  H6  UNL     1      34.056  -6.272  67.257  1.00  0.00     0.162 HD
HETATM   26  C10 UNL     1      31.204  -7.727  68.163  1.00  0.00     0.142 C 
ATOM     27  H7  UNL     1      32.068  -8.924  69.797  1.00  0.00     0.162 HD
ATOM     28  H5  UNL     1      34.590  -9.558  68.998  1.00  0.00     0.162 HD
ENDBRANCH  19  20
ENDBRANCH  18  19
ENDBRANCH  16  18
ENDBRANCH   8  16
BRANCH   1  29
HETATM   29  N1  UNL     1      41.016  -3.748  66.430  1.00  0.00    -0.249 N 
ATOM     30  H1  UNL     1      41.971  -3.514  66.699  1.00  0.00     0.196 HD
BRANCH  29  31
HETATM   31  O1  UNL     1      40.603  -3.419  65.182  1.00  0.00    -0.284 OA
HETATM   32  C1  UNL     1      39.358  -2.786  65.006  1.00  0.00     0.237 C 
ENDBRANCH  29  31
ENDBRANCH   1  29
TORSDOF 6
ENDMDL
