MODEL 1
REMARK VINA RESULT: -7.682297816      0.000      0.000
REMARK  6 active torsions:
REMARK  status: ('A' for Active; 'I' for Inactive)
REMARK    1  A    between atoms: C4_4  and  C5_5 
REMARK    2  A    between atoms: C5_5  and  N1_6 
REMARK    3  A    between atoms: N1_6  and  C6_9 
REMARK    4  A    between atoms: C6_9  and  C7_10 
REMARK    5  A    between atoms: C7_10  and  C8_11 
REMARK    6  A    between atoms: C8_11  and  C9_12 
ROOT
HETATM    1  C6  UNL     1       2.344  17.969 -41.211  1.00  0.00     0.233 C 
ENDROOT
BRANCH   1   2
HETATM    2  N1  UNL     1       3.741  17.771 -40.864  1.00  0.00    -0.071 N 
ATOM      3  H12 UNL     1       4.260  18.647 -40.788  1.00  0.00     0.277 HD
ATOM      4  H11 UNL     1       4.284  17.359 -41.624  1.00  0.00     0.277 HD
BRANCH   2   5
HETATM    5  C5  UNL     1       3.784  16.990 -39.659  1.00  0.00     0.270 C 
BRANCH   5   6
HETATM    6  C4  UNL     1       3.898  15.541 -39.909  1.00  0.00    -0.033 A 
HETATM    7  C3  UNL     1       2.946  14.721 -39.339  1.00  0.00     0.009 A 
HETATM    8  C2  UNL     1       2.949  13.353 -39.500  1.00  0.00     0.001 A 
HETATM    9  C1  UNL     1       3.953  12.801 -40.266  1.00  0.00     0.000 A 
HETATM   10  C11 UNL     1       4.926  13.593 -40.855  1.00  0.00     0.001 A 
HETATM   11  C10 UNL     1       4.888  14.966 -40.669  1.00  0.00     0.009 A 
ENDBRANCH   5   6
ENDBRANCH   2   5
ENDBRANCH   1   2
BRANCH   1  12
HETATM   12  C7  UNL     1       2.106  17.902 -42.698  1.00  0.00     0.035 C 
BRANCH  12  13
HETATM   13  C8  UNL     1       2.615  16.578 -43.187  1.00  0.00     0.081 C 
BRANCH  13  14
HETATM   14  C9  UNL     1       3.384  16.695 -44.454  1.00  0.00     0.113 A 
HETATM   15  N2  UNL     1       4.610  16.196 -44.678  1.00  0.00    -0.272 N 
HETATM   16  N3  UNL     1       4.953  16.497 -45.899  1.00  0.00    -0.227 N 
ATOM     17  H2  UNL     1       5.175  15.673 -44.009  1.00  0.00     0.190 HD
HETATM   18  N4  UNL     1       3.987  17.175 -46.473  1.00  0.00    -0.227 N 
ATOM     19  H3  UNL     1       5.836  16.244 -46.341  1.00  0.00     0.210 HD
HETATM   20  N5  UNL     1       3.013  17.302 -45.585  1.00  0.00    -0.272 N 
ATOM     21  H4  UNL     1       3.987  17.538 -47.426  1.00  0.00     0.210 HD
ATOM     22  H5  UNL     1       2.127  17.782 -45.739  1.00  0.00     0.190 HD
ENDBRANCH  13  14
ENDBRANCH  12  13
ENDBRANCH   1  12
TORSDOF 6
ENDMDL
MODEL 2
REMARK VINA RESULT: -7.663585804      0.089      1.197
REMARK  6 active torsions:
REMARK  status: ('A' for Active; 'I' for Inactive)
REMARK    1  A    between atoms: C4_4  and  C5_5 
REMARK    2  A    between atoms: C5_5  and  N1_6 
REMARK    3  A    between atoms: N1_6  and  C6_9 
REMARK    4  A    between atoms: C6_9  and  C7_10 
REMARK    5  A    between atoms: C7_10  and  C8_11 
REMARK    6  A    between atoms: C8_11  and  C9_12 
ROOT
HETATM    1  C6  UNL     1       2.332  17.955 -41.208  1.00  0.00     0.233 C 
ENDROOT
BRANCH   1   2
HETATM    2  N1  UNL     1       3.732  17.825 -40.842  1.00  0.00    -0.071 N 
ATOM      3  H12 UNL     1       4.213  18.723 -40.787  1.00  0.00     0.277 HD
ATOM      4  H11 UNL     1       4.300  17.415 -41.584  1.00  0.00     0.277 HD
BRANCH   2   5
HETATM    5  C5  UNL     1       3.793  17.082 -39.614  1.00  0.00     0.270 C 
BRANCH   5   6
HETATM    6  C4  UNL     1       3.811  15.622 -39.818  1.00  0.00    -0.033 A 
HETATM    7  C3  UNL     1       4.824  15.100 -40.596  1.00  0.00     0.009 A 
HETATM    8  C2  UNL     1       4.944  13.754 -40.859  1.00  0.00     0.001 A 
HETATM    9  C1  UNL     1       4.003  12.908 -40.311  1.00  0.00     0.000 A 
HETATM   10  C11 UNL     1       2.971  13.395 -39.524  1.00  0.00     0.001 A 
HETATM   11  C10 UNL     1       2.885  14.757 -39.284  1.00  0.00     0.009 A 
ENDBRANCH   5   6
ENDBRANCH   2   5
ENDBRANCH   1   2
BRANCH   1  12
HETATM   12  C7  UNL     1       2.121  17.891 -42.700  1.00  0.00     0.035 C 
BRANCH  12  13
HETATM   13  C8  UNL     1       2.646  16.572 -43.184  1.00  0.00     0.081 C 
BRANCH  13  14
HETATM   14  C9  UNL     1       3.399  16.691 -44.461  1.00  0.00     0.113 A 
HETATM   15  N2  UNL     1       4.602  16.155 -44.716  1.00  0.00    -0.272 N 
HETATM   16  N3  UNL     1       4.936  16.473 -45.936  1.00  0.00    -0.227 N 
ATOM     17  H2  UNL     1       5.160  15.598 -44.069  1.00  0.00     0.190 HD
HETATM   18  N4  UNL     1       3.986  17.196 -46.478  1.00  0.00    -0.227 N 
ATOM     19  H3  UNL     1       5.803  16.200 -46.399  1.00  0.00     0.210 HD
HETATM   20  N5  UNL     1       3.031  17.336 -45.571  1.00  0.00    -0.272 N 
ATOM     21  H4  UNL     1       3.982  17.581 -47.422  1.00  0.00     0.210 HD
ATOM     22  H5  UNL     1       2.160  17.850 -45.699  1.00  0.00     0.190 HD
ENDBRANCH  13  14
ENDBRANCH  12  13
ENDBRANCH   1  12
TORSDOF 6
ENDMDL
MODEL 3
REMARK VINA RESULT: -6.824864138      3.097      5.484
REMARK  6 active torsions:
REMARK  status: ('A' for Active; 'I' for Inactive)
REMARK    1  A    between atoms: C4_4  and  C5_5 
REMARK    2  A    between atoms: C5_5  and  N1_6 
REMARK    3  A    between atoms: N1_6  and  C6_9 
REMARK    4  A    between atoms: C6_9  and  C7_10 
REMARK    5  A    between atoms: C7_10  and  C8_11 
REMARK    6  A    between atoms: C8_11  and  C9_12 
ROOT
HETATM    1  C6  UNL     1       1.926  17.606 -41.218  1.00  0.00     0.233 C 
ENDROOT
BRANCH   1   2
HETATM    2  N1  UNL     1       3.378  17.546 -41.220  1.00  0.00    -0.071 N 
ATOM      3  H12 UNL     1       3.813  18.456 -41.378  1.00  0.00     0.277 HD
ATOM      4  H11 UNL     1       3.755  17.073 -42.042  1.00  0.00     0.277 HD
BRANCH   2   5
HETATM    5  C5  UNL     1       3.789  16.936 -39.986  1.00  0.00     0.270 C 
BRANCH   5   6
HETATM    6  C4  UNL     1       3.889  15.468 -40.067  1.00  0.00    -0.033 A 
HETATM    7  C3  UNL     1       2.931  14.727 -39.405  1.00  0.00     0.009 A 
HETATM    8  C2  UNL     1       2.920  13.351 -39.408  1.00  0.00     0.001 A 
HETATM    9  C1  UNL     1       3.916  12.703 -40.108  1.00  0.00     0.000 A 
HETATM   10  C11 UNL     1       4.895  13.413 -40.787  1.00  0.00     0.001 A 
HETATM   11  C10 UNL     1       4.870  14.799 -40.759  1.00  0.00     0.009 A 
ENDBRANCH   5   6
ENDBRANCH   2   5
ENDBRANCH   1   2
BRANCH   1  12
HETATM   12  C7  UNL     1       1.382  18.297 -39.993  1.00  0.00     0.035 C 
BRANCH  12  13
HETATM   13  C8  UNL     1       0.236  17.480 -39.475  1.00  0.00     0.081 C 
BRANCH  13  14
HETATM   14  C9  UNL     1       0.251  17.350 -37.994  1.00  0.00     0.113 A 
HETATM   15  N2  UNL     1       1.197  17.831 -37.172  1.00  0.00    -0.272 N 
HETATM   16  N3  UNL     1       0.866  17.522 -35.949  1.00  0.00    -0.227 N 
ATOM     17  H2  UNL     1       2.030  18.348 -37.455  1.00  0.00     0.190 HD
HETATM   18  N4  UNL     1      -0.264  16.856 -35.954  1.00  0.00    -0.227 N 
ATOM     19  H3  UNL     1       1.404  17.762 -35.116  1.00  0.00     0.210 HD
HETATM   20  N5  UNL     1      -0.651  16.746 -37.215  1.00  0.00    -0.272 N 
ATOM     21  H4  UNL     1      -0.754  16.491 -35.138  1.00  0.00     0.210 HD
ATOM     22  H5  UNL     1      -1.497  16.277 -37.539  1.00  0.00     0.190 HD
ENDBRANCH  13  14
ENDBRANCH  12  13
ENDBRANCH   1  12
TORSDOF 6
ENDMDL
MODEL 4
REMARK VINA RESULT: -6.805364721      3.933      6.204
REMARK  6 active torsions:
REMARK  status: ('A' for Active; 'I' for Inactive)
REMARK    1  A    between atoms: C4_4  and  C5_5 
REMARK    2  A    between atoms: C5_5  and  N1_6 
REMARK    3  A    between atoms: N1_6  and  C6_9 
REMARK    4  A    between atoms: C6_9  and  C7_10 
REMARK    5  A    between atoms: C7_10  and  C8_11 
REMARK    6  A    between atoms: C8_11  and  C9_12 
ROOT
HETATM    1  C6  UNL     1       2.861  18.738 -39.092  1.00  0.00     0.233 C 
ENDROOT
BRANCH   1   2
HETATM    2  N1  UNL     1       3.719  17.597 -38.821  1.00  0.00    -0.071 N 
ATOM      3  H12 UNL     1       3.313  16.945 -38.149  1.00  0.00     0.277 HD
ATOM      4  H11 UNL     1       4.550  17.843 -38.284  1.00  0.00     0.277 HD
BRANCH   2   5
HETATM    5  C5  UNL     1       4.030  16.979 -40.081  1.00  0.00     0.270 C 
BRANCH   5   6
HETATM    6  C4  UNL     1       3.920  15.509 -40.050  1.00  0.00    -0.033 A 
HETATM    7  C3  UNL     1       4.883  14.785 -40.722  1.00  0.00     0.009 A 
HETATM    8  C2  UNL     1       4.885  13.409 -40.766  1.00  0.00     0.001 A 
HETATM    9  C1  UNL     1       3.874  12.745 -40.104  1.00  0.00     0.000 A 
HETATM   10  C11 UNL     1       2.889  13.438 -39.418  1.00  0.00     0.001 A 
HETATM   11  C10 UNL     1       2.922  14.824 -39.398  1.00  0.00     0.009 A 
ENDBRANCH   5   6
ENDBRANCH   2   5
ENDBRANCH   1   2
BRANCH   1  12
HETATM   12  C7  UNL     1       1.552  18.661 -38.348  1.00  0.00     0.035 C 
BRANCH  12  13
HETATM   13  C8  UNL     1       1.751  17.778 -37.152  1.00  0.00     0.081 C 
BRANCH  13  14
HETATM   14  C9  UNL     1       0.495  17.111 -36.718  1.00  0.00     0.113 A 
HETATM   15  N2  UNL     1      -0.062  17.202 -35.501  1.00  0.00    -0.272 N 
HETATM   16  N3  UNL     1      -1.151  16.484 -35.500  1.00  0.00    -0.227 N 
ATOM     17  H2  UNL     1       0.302  17.739 -34.714  1.00  0.00     0.190 HD
HETATM   18  N4  UNL     1      -1.315  15.932 -36.678  1.00  0.00    -0.227 N 
ATOM     19  H3  UNL     1      -1.779  16.369 -34.705  1.00  0.00     0.210 HD
HETATM   20  N5  UNL     1      -0.300  16.315 -37.438  1.00  0.00    -0.272 N 
ATOM     21  H4  UNL     1      -2.081  15.320 -36.958  1.00  0.00     0.210 HD
ATOM     22  H5  UNL     1      -0.151  16.047 -38.410  1.00  0.00     0.190 HD
ENDBRANCH  13  14
ENDBRANCH  12  13
ENDBRANCH   1  12
TORSDOF 6
ENDMDL
MODEL 5
REMARK VINA RESULT: -6.792020037      4.850      7.010
REMARK  6 active torsions:
REMARK  status: ('A' for Active; 'I' for Inactive)
REMARK    1  A    between atoms: C4_4  and  C5_5 
REMARK    2  A    between atoms: C5_5  and  N1_6 
REMARK    3  A    between atoms: N1_6  and  C6_9 
REMARK    4  A    between atoms: C6_9  and  C7_10 
REMARK    5  A    between atoms: C7_10  and  C8_11 
REMARK    6  A    between atoms: C8_11  and  C9_12 
ROOT
HETATM    1  C6  UNL     1       1.940  17.122 -37.355  1.00  0.00     0.233 C 
ENDROOT
BRANCH   1   2
HETATM    2  N1  UNL     1       1.940  15.842 -38.043  1.00  0.00    -0.071 N 
ATOM      3  H12 UNL     1       1.002  15.472 -38.192  1.00  0.00     0.277 HD
ATOM      4  H11 UNL     1       2.295  15.081 -37.464  1.00  0.00     0.277 HD
BRANCH   2   5
HETATM    5  C5  UNL     1       2.678  16.006 -39.265  1.00  0.00     0.270 C 
BRANCH   5   6
HETATM    6  C4  UNL     1       3.325  14.763 -39.725  1.00  0.00    -0.033 A 
HETATM    7  C3  UNL     1       2.736  13.569 -39.365  1.00  0.00     0.009 A 
HETATM    8  C2  UNL     1       3.249  12.345 -39.734  1.00  0.00     0.001 A 
HETATM    9  C1  UNL     1       4.398  12.335 -40.494  1.00  0.00     0.000 A 
HETATM   10  C11 UNL     1       5.019  13.515 -40.875  1.00  0.00     0.001 A 
HETATM   11  C10 UNL     1       4.471  14.726 -40.483  1.00  0.00     0.009 A 
ENDBRANCH   5   6
ENDBRANCH   2   5
ENDBRANCH   1   2
BRANCH   1  12
HETATM   12  C7  UNL     1       0.701  17.325 -36.520  1.00  0.00     0.035 C 
BRANCH  12  13
HETATM   13  C8  UNL     1      -0.476  16.850 -37.319  1.00  0.00     0.081 C 
BRANCH  13  14
HETATM   14  C9  UNL     1      -1.401  16.000 -36.523  1.00  0.00     0.113 A 
HETATM   15  N2  UNL     1      -1.919  14.825 -36.913  1.00  0.00    -0.272 N 
HETATM   16  N3  UNL     1      -2.680  14.380 -35.952  1.00  0.00    -0.227 N 
ATOM     17  H2  UNL     1      -1.748  14.361 -37.805  1.00  0.00     0.190 HD
HETATM   18  N4  UNL     1      -2.670  15.230 -34.953  1.00  0.00    -0.227 N 
ATOM     19  H3  UNL     1      -3.203  13.505 -35.973  1.00  0.00     0.210 HD
HETATM   20  N5  UNL     1      -1.881  16.235 -35.300  1.00  0.00    -0.272 N 
ATOM     21  H4  UNL     1      -3.176  15.135 -34.073  1.00  0.00     0.210 HD
ATOM     22  H5  UNL     1      -1.673  17.053 -34.727  1.00  0.00     0.190 HD
ENDBRANCH  13  14
ENDBRANCH  12  13
ENDBRANCH   1  12
TORSDOF 6
ENDMDL
