MODEL 1
REMARK VINA RESULT: -6.401793708      0.000      0.000
REMARK  6 active torsions:
REMARK  status: ('A' for Active; 'I' for Inactive)
REMARK    1  A    between atoms: C2_2  and  C3_3 
REMARK    2  A    between atoms: C3_3  and  N1_4 
REMARK    3  A    between atoms: N1_4  and  C4_7 
REMARK    4  A    between atoms: C4_7  and  C5_8 
REMARK    5  A    between atoms: C5_8  and  C6_9 
REMARK    6  A    between atoms: C6_9  and  N2_10 
ROOT
HETATM    1  N2  UNL     1       3.359  15.135 -39.717  1.00  0.00    -0.326 N 
HETATM    2  C7  UNL     1       4.370  15.797 -40.330  1.00  0.00     0.186 A 
HETATM    3  N3  UNL     1       5.176  14.885 -40.893  1.00  0.00    -0.335 N 
ATOM      4  H3  UNL     1       6.021  15.099 -41.423  1.00  0.00     0.168 HD
HETATM    5  C8  UNL     1       4.702  13.632 -40.654  1.00  0.00     0.152 A 
HETATM    6  N4  UNL     1       4.879  12.310 -40.834  1.00  0.00    -0.335 N 
ATOM      7  H4  UNL     1       5.645  11.873 -41.346  1.00  0.00     0.168 HD
HETATM    8  C9  UNL     1       3.868  11.668 -40.220  1.00  0.00     0.183 A 
HETATM    9  N5  UNL     1       3.058  12.577 -39.655  1.00  0.00    -0.335 N 
ATOM     10  H5  UNL     1       2.212  12.373 -39.123  1.00  0.00     0.168 HD
HETATM   11  C10 UNL     1       3.555  13.809 -39.910  1.00  0.00     0.154 A 
ENDROOT
BRANCH   1  12
HETATM   12  C6  UNL     1       2.271  15.707 -38.992  1.00  0.00     0.133 C 
BRANCH  12  13
HETATM   13  C5  UNL     1       2.633  16.968 -38.250  1.00  0.00     0.048 C 
BRANCH  13  14
HETATM   14  C4  UNL     1       1.723  17.046 -37.043  1.00  0.00     0.234 C 
BRANCH  14  15
HETATM   15  N1  UNL     1       0.459  16.379 -37.284  1.00  0.00    -0.072 N 
ATOM     16  H12 UNL     1       0.579  15.368 -37.340  1.00  0.00     0.277 HD
ATOM     17  H11 UNL     1       0.123  16.555 -38.230  1.00  0.00     0.277 HD
BRANCH  15  18
HETATM   18  C3  UNL     1      -0.530  16.732 -36.305  1.00  0.00     0.259 C 
BRANCH  18  19
HETATM   19  C2  UNL     1      -1.810  16.031 -36.583  1.00  0.00    -0.010 C 
HETATM   20  C1  UNL     1      -2.415  15.255 -35.706  1.00  0.00     0.008 C 
ENDBRANCH  18  19
ENDBRANCH  15  18
ENDBRANCH  14  15
ENDBRANCH  13  14
ENDBRANCH  12  13
ENDBRANCH   1  12
TORSDOF 6
ENDMDL
MODEL 2
REMARK VINA RESULT: -6.092617036      2.520      4.107
REMARK  6 active torsions:
REMARK  status: ('A' for Active; 'I' for Inactive)
REMARK    1  A    between atoms: C2_2  and  C3_3 
REMARK    2  A    between atoms: C3_3  and  N1_4 
REMARK    3  A    between atoms: N1_4  and  C4_7 
REMARK    4  A    between atoms: C4_7  and  C5_8 
REMARK    5  A    between atoms: C5_8  and  C6_9 
REMARK    6  A    between atoms: C6_9  and  N2_10 
ROOT
HETATM    1  N2  UNL     1       3.478  15.204 -39.792  1.00  0.00    -0.326 N 
HETATM    2  C7  UNL     1       4.520  15.751 -40.465  1.00  0.00     0.186 A 
HETATM    3  N3  UNL     1       5.245  14.749 -40.984  1.00  0.00    -0.335 N 
ATOM      4  H3  UNL     1       6.091  14.867 -41.543  1.00  0.00     0.168 HD
HETATM    5  C8  UNL     1       4.687  13.552 -40.660  1.00  0.00     0.152 A 
HETATM    6  N4  UNL     1       4.762  12.212 -40.761  1.00  0.00    -0.335 N 
ATOM      7  H4  UNL     1       5.482  11.689 -41.259  1.00  0.00     0.168 HD
HETATM    8  C9  UNL     1       3.721  11.684 -40.090  1.00  0.00     0.183 A 
HETATM    9  N5  UNL     1       2.993  12.684 -39.567  1.00  0.00    -0.335 N 
ATOM     10  H5  UNL     1       2.147  12.575 -39.008  1.00  0.00     0.168 HD
HETATM   11  C10 UNL     1       3.572  13.858 -39.907  1.00  0.00     0.154 A 
ENDROOT
BRANCH   1  12
HETATM   12  C6  UNL     1       2.452  15.897 -39.084  1.00  0.00     0.133 C 
BRANCH  12  13
HETATM   13  C5  UNL     1       2.966  17.016 -38.214  1.00  0.00     0.048 C 
BRANCH  13  14
HETATM   14  C4  UNL     1       2.213  18.267 -38.614  1.00  0.00     0.234 C 
BRANCH  14  15
HETATM   15  N1  UNL     1       2.957  19.050 -39.580  1.00  0.00    -0.072 N 
ATOM     16  H12 UNL     1       2.482  19.928 -39.788  1.00  0.00     0.277 HD
ATOM     17  H11 UNL     1       2.923  18.624 -40.506  1.00  0.00     0.277 HD
BRANCH  15  18
HETATM   18  C3  UNL     1       4.311  19.277 -39.160  1.00  0.00     0.259 C 
BRANCH  18  19
HETATM   19  C2  UNL     1       5.000  20.199 -40.098  1.00  0.00    -0.010 C 
HETATM   20  C1  UNL     1       5.437  21.392 -39.749  1.00  0.00     0.008 C 
ENDBRANCH  18  19
ENDBRANCH  15  18
ENDBRANCH  14  15
ENDBRANCH  13  14
ENDBRANCH  12  13
ENDBRANCH   1  12
TORSDOF 6
ENDMDL
MODEL 3
REMARK VINA RESULT: -5.927396418      2.951      4.809
REMARK  6 active torsions:
REMARK  status: ('A' for Active; 'I' for Inactive)
REMARK    1  A    between atoms: C2_2  and  C3_3 
REMARK    2  A    between atoms: C3_3  and  N1_4 
REMARK    3  A    between atoms: N1_4  and  C4_7 
REMARK    4  A    between atoms: C4_7  and  C5_8 
REMARK    5  A    between atoms: C5_8  and  C6_9 
REMARK    6  A    between atoms: C6_9  and  N2_10 
ROOT
HETATM    1  N2  UNL     1       3.741  15.057 -40.082  1.00  0.00    -0.326 N 
HETATM    2  C7  UNL     1       4.931  15.339 -40.666  1.00  0.00     0.186 A 
HETATM    3  N3  UNL     1       5.533  14.175 -40.953  1.00  0.00    -0.335 N 
ATOM      4  H3  UNL     1       6.446  14.084 -41.399  1.00  0.00     0.168 HD
HETATM    5  C8  UNL     1       4.748  13.135 -40.563  1.00  0.00     0.152 A 
HETATM    6  N4  UNL     1       4.610  11.799 -40.486  1.00  0.00    -0.335 N 
ATOM      7  H4  UNL     1       5.285  11.107 -40.811  1.00  0.00     0.168 HD
HETATM    8  C9  UNL     1       3.424  11.536 -39.905  1.00  0.00     0.183 A 
HETATM    9  N5  UNL     1       2.818  12.698 -39.616  1.00  0.00    -0.335 N 
ATOM     10  H5  UNL     1       1.906  12.800 -39.170  1.00  0.00     0.168 HD
HETATM   11  C10 UNL     1       3.621  13.710 -40.015  1.00  0.00     0.154 A 
ENDROOT
BRANCH   1  12
HETATM   12  C6  UNL     1       2.770  15.992 -39.614  1.00  0.00     0.133 C 
BRANCH  12  13
HETATM   13  C5  UNL     1       3.051  17.415 -40.023  1.00  0.00     0.048 C 
BRANCH  13  14
HETATM   14  C4  UNL     1       2.151  17.720 -41.202  1.00  0.00     0.234 C 
BRANCH  14  15
HETATM   15  N1  UNL     1       2.909  17.868 -42.428  1.00  0.00    -0.072 N 
ATOM     16  H12 UNL     1       3.906  17.962 -42.237  1.00  0.00     0.277 HD
ATOM     17  H11 UNL     1       2.740  18.776 -42.860  1.00  0.00     0.277 HD
BRANCH  15  18
HETATM   18  C3  UNL     1       2.654  16.796 -43.349  1.00  0.00     0.259 C 
BRANCH  18  19
HETATM   19  C2  UNL     1       3.284  17.080 -44.664  1.00  0.00    -0.010 C 
HETATM   20  C1  UNL     1       4.247  16.342 -45.179  1.00  0.00     0.008 C 
ENDBRANCH  18  19
ENDBRANCH  15  18
ENDBRANCH  14  15
ENDBRANCH  13  14
ENDBRANCH  12  13
ENDBRANCH   1  12
TORSDOF 6
ENDMDL
MODEL 4
REMARK VINA RESULT: -5.888839060      2.056      2.778
REMARK  6 active torsions:
REMARK  status: ('A' for Active; 'I' for Inactive)
REMARK    1  A    between atoms: C2_2  and  C3_3 
REMARK    2  A    between atoms: C3_3  and  N1_4 
REMARK    3  A    between atoms: N1_4  and  C4_7 
REMARK    4  A    between atoms: C4_7  and  C5_8 
REMARK    5  A    between atoms: C5_8  and  C6_9 
REMARK    6  A    between atoms: C6_9  and  N2_10 
ROOT
HETATM    1  N2  UNL     1       3.287  15.343 -39.653  1.00  0.00    -0.326 N 
HETATM    2  C7  UNL     1       4.180  16.148 -40.278  1.00  0.00     0.186 A 
HETATM    3  N3  UNL     1       5.043  15.364 -40.943  1.00  0.00    -0.335 N 
ATOM      4  H3  UNL     1       5.825  15.701 -41.504  1.00  0.00     0.168 HD
HETATM    5  C8  UNL     1       4.721  14.056 -40.759  1.00  0.00     0.152 A 
HETATM    6  N4  UNL     1       5.027  12.774 -41.034  1.00  0.00    -0.335 N 
ATOM      7  H4  UNL     1       5.801  12.454 -41.615  1.00  0.00     0.168 HD
HETATM    8  C9  UNL     1       4.131  11.989 -40.407  1.00  0.00     0.183 A 
HETATM    9  N5  UNL     1       3.265  12.768 -39.740  1.00  0.00    -0.335 N 
ATOM     10  H5  UNL     1       2.481  12.441 -39.176  1.00  0.00     0.168 HD
HETATM   11  C10 UNL     1       3.610  14.061 -39.942  1.00  0.00     0.154 A 
ENDROOT
BRANCH   1  12
HETATM   12  C6  UNL     1       2.192  15.748 -38.832  1.00  0.00     0.133 C 
BRANCH  12  13
HETATM   13  C5  UNL     1       2.514  16.900 -37.915  1.00  0.00     0.048 C 
BRANCH  13  14
HETATM   14  C4  UNL     1       1.373  17.888 -38.030  1.00  0.00     0.234 C 
BRANCH  14  15
HETATM   15  N1  UNL     1       1.504  18.717 -39.211  1.00  0.00    -0.072 N 
ATOM     16  H12 UNL     1       2.239  18.370 -39.827  1.00  0.00     0.277 HD
ATOM     17  H11 UNL     1       1.902  19.628 -38.981  1.00  0.00     0.277 HD
BRANCH  15  18
HETATM   18  C3  UNL     1       0.258  18.855 -39.912  1.00  0.00     0.259 C 
BRANCH  18  19
HETATM   19  C2  UNL     1       0.177  17.876 -41.026  1.00  0.00    -0.010 C 
HETATM   20  C1  UNL     1       1.146  17.693 -41.900  1.00  0.00     0.008 C 
ENDBRANCH  18  19
ENDBRANCH  15  18
ENDBRANCH  14  15
ENDBRANCH  13  14
ENDBRANCH  12  13
ENDBRANCH   1  12
TORSDOF 6
ENDMDL
MODEL 5
REMARK VINA RESULT: -5.857026093      3.033      6.084
REMARK  6 active torsions:
REMARK  status: ('A' for Active; 'I' for Inactive)
REMARK    1  A    between atoms: C2_2  and  C3_3 
REMARK    2  A    between atoms: C3_3  and  N1_4 
REMARK    3  A    between atoms: N1_4  and  C4_7 
REMARK    4  A    between atoms: C4_7  and  C5_8 
REMARK    5  A    between atoms: C5_8  and  C6_9 
REMARK    6  A    between atoms: C6_9  and  N2_10 
ROOT
HETATM    1  N2  UNL     1       2.282  17.756 -40.691  1.00  0.00    -0.326 N 
HETATM    2  C7  UNL     1       1.869  17.228 -39.513  1.00  0.00     0.186 A 
HETATM    3  N3  UNL     1       2.608  17.775 -38.536  1.00  0.00    -0.335 N 
ATOM      4  H3  UNL     1       2.515  17.561 -37.543  1.00  0.00     0.168 HD
HETATM    5  C8  UNL     1       3.499  18.656 -39.064  1.00  0.00     0.152 A 
HETATM    6  N4  UNL     1       4.493  19.531 -38.820  1.00  0.00    -0.335 N 
ATOM      7  H4  UNL     1       4.877  19.762 -37.905  1.00  0.00     0.168 HD
HETATM    8  C9  UNL     1       4.891  20.047 -39.998  1.00  0.00     0.183 A 
HETATM    9  N5  UNL     1       4.154  19.502 -40.980  1.00  0.00    -0.335 N 
ATOM     10  H5  UNL     1       4.240  19.709 -41.975  1.00  0.00     0.168 HD
HETATM   11  C10 UNL     1       3.279  18.632 -40.425  1.00  0.00     0.154 A 
ENDROOT
BRANCH   1  12
HETATM   12  C6  UNL     1       1.774  17.461 -41.991  1.00  0.00     0.133 C 
BRANCH  12  13
HETATM   13  C5  UNL     1       2.818  16.944 -42.948  1.00  0.00     0.048 C 
BRANCH  13  14
HETATM   14  C4  UNL     1       3.223  15.570 -42.457  1.00  0.00     0.234 C 
BRANCH  14  15
HETATM   15  N1  UNL     1       4.624  15.526 -42.093  1.00  0.00    -0.072 N 
ATOM     16  H12 UNL     1       5.096  16.399 -42.328  1.00  0.00     0.277 HD
ATOM     17  H11 UNL     1       5.144  14.893 -42.700  1.00  0.00     0.277 HD
BRANCH  15  18
HETATM   18  C3  UNL     1       4.810  15.191 -40.709  1.00  0.00     0.259 C 
BRANCH  18  19
HETATM   19  C2  UNL     1       3.956  14.034 -40.334  1.00  0.00    -0.010 C 
HETATM   20  C1  UNL     1       4.342  12.780 -40.462  1.00  0.00     0.008 C 
ENDBRANCH  18  19
ENDBRANCH  15  18
ENDBRANCH  14  15
ENDBRANCH  13  14
ENDBRANCH  12  13
ENDBRANCH   1  12
TORSDOF 6
ENDMDL
