MODEL 1
REMARK VINA RESULT: -6.329271858      0.000      0.000
REMARK  7 active torsions:
REMARK  status: ('A' for Active; 'I' for Inactive)
REMARK    1  A    between atoms: N1_1  and  C1_5 
REMARK    2  A    between atoms: C1_5  and  C2_6 
REMARK    3  A    between atoms: C2_6  and  C3_7 
REMARK    4  A    between atoms: C3_7  and  C4_8 
REMARK    5  A    between atoms: C4_8  and  C5_9 
REMARK    6  A    between atoms: C5_9  and  C6_10 
REMARK    7  A    between atoms: C6_10  and  N2_11 
ROOT
HETATM    1  N2  UNL     1       2.622  16.955 -42.872  1.00  0.00    -0.326 N 
HETATM    2  C7  UNL     1       1.482  17.555 -43.257  1.00  0.00     0.186 A 
HETATM    3  N3  UNL     1       1.466  17.666 -44.612  1.00  0.00    -0.335 N 
ATOM      4  H3  UNL     1       0.717  18.083 -45.164  1.00  0.00     0.168 HD
HETATM    5  C8  UNL     1       2.605  17.135 -45.107  1.00  0.00     0.152 A 
HETATM    6  N4  UNL     1       3.359  16.840 -46.189  1.00  0.00    -0.335 N 
ATOM      7  H4  UNL     1       3.098  17.044 -47.154  1.00  0.00     0.168 HD
HETATM    8  C9  UNL     1       4.498  16.242 -45.813  1.00  0.00     0.183 A 
HETATM    9  N5  UNL     1       4.461  16.158 -44.480  1.00  0.00    -0.335 N 
ATOM     10  H5  UNL     1       5.194  15.747 -43.901  1.00  0.00     0.168 HD
HETATM   11  C10 UNL     1       3.309  16.698 -44.007  1.00  0.00     0.154 A 
ENDROOT
BRANCH   1  12
HETATM   12  C6  UNL     1       3.066  16.629 -41.516  1.00  0.00     0.131 C 
BRANCH  12  13
HETATM   13  C5  UNL     1       3.397  15.166 -41.507  1.00  0.00     0.020 C 
BRANCH  13  14
HETATM   14  C4  UNL     1       4.713  14.856 -40.855  1.00  0.00     0.002 C 
BRANCH  14  15
HETATM   15  C3  UNL     1       4.722  13.409 -40.479  1.00  0.00     0.002 C 
BRANCH  15  16
HETATM   16  C2  UNL     1       3.371  12.872 -40.100  1.00  0.00     0.027 C 
BRANCH  16  17
HETATM   17  C1  UNL     1       3.228  11.400 -40.391  1.00  0.00     0.229 C 
BRANCH  17  18
HETATM   18  N1  UNL     1       4.497  10.760 -40.104  1.00  0.00    -0.079 N 
ATOM     19  H13 UNL     1       5.241  11.059 -40.734  1.00  0.00     0.274 HD
ATOM     20  H12 UNL     1       4.917  11.088 -39.234  1.00  0.00     0.274 HD
ATOM     21  H11 UNL     1       4.352   9.750 -40.115  1.00  0.00     0.274 HD
ENDBRANCH  17  18
ENDBRANCH  16  17
ENDBRANCH  15  16
ENDBRANCH  14  15
ENDBRANCH  13  14
ENDBRANCH  12  13
ENDBRANCH   1  12
TORSDOF 7
ENDMDL
MODEL 2
REMARK VINA RESULT: -6.154546191      4.278      5.914
REMARK  7 active torsions:
REMARK  status: ('A' for Active; 'I' for Inactive)
REMARK    1  A    between atoms: N1_1  and  C1_5 
REMARK    2  A    between atoms: C1_5  and  C2_6 
REMARK    3  A    between atoms: C2_6  and  C3_7 
REMARK    4  A    between atoms: C3_7  and  C4_8 
REMARK    5  A    between atoms: C4_8  and  C5_9 
REMARK    6  A    between atoms: C5_9  and  C6_10 
REMARK    7  A    between atoms: C6_10  and  N2_11 
ROOT
HETATM    1  N2  UNL     1       3.286  15.475 -39.560  1.00  0.00    -0.326 N 
HETATM    2  C7  UNL     1       4.112  16.265 -40.270  1.00  0.00     0.186 A 
HETATM    3  N3  UNL     1       4.919  15.492 -41.044  1.00  0.00    -0.335 N 
ATOM      4  H3  UNL     1       5.638  15.837 -41.679  1.00  0.00     0.168 HD
HETATM    5  C8  UNL     1       4.615  14.194 -40.833  1.00  0.00     0.152 A 
HETATM    6  N4  UNL     1       4.858  12.896 -41.120  1.00  0.00    -0.335 N 
ATOM      7  H4  UNL     1       5.564  12.568 -41.779  1.00  0.00     0.168 HD
HETATM    8  C9  UNL     1       4.039  12.102 -40.416  1.00  0.00     0.183 A 
HETATM    9  N5  UNL     1       3.271  12.908 -39.678  1.00  0.00    -0.335 N 
ATOM     10  H5  UNL     1       2.544  12.593 -39.034  1.00  0.00     0.168 HD
HETATM   11  C10 UNL     1       3.596  14.206 -39.907  1.00  0.00     0.154 A 
ENDROOT
BRANCH   1  12
HETATM   12  C6  UNL     1       2.253  15.867 -38.602  1.00  0.00     0.131 C 
BRANCH  12  13
HETATM   13  C5  UNL     1       1.294  16.759 -39.336  1.00  0.00     0.020 C 
BRANCH  13  14
HETATM   14  C4  UNL     1       0.459  17.613 -38.427  1.00  0.00     0.002 C 
BRANCH  14  15
HETATM   15  C3  UNL     1       0.055  16.789 -37.247  1.00  0.00     0.002 C 
BRANCH  15  16
HETATM   16  C2  UNL     1      -1.415  16.480 -37.197  1.00  0.00     0.027 C 
BRANCH  16  17
HETATM   17  C1  UNL     1      -1.848  15.931 -35.862  1.00  0.00     0.229 C 
BRANCH  17  18
HETATM   18  N1  UNL     1      -2.320  14.575 -36.065  1.00  0.00    -0.079 N 
ATOM     19  H13 UNL     1      -2.349  14.034 -35.201  1.00  0.00     0.274 HD
ATOM     20  H12 UNL     1      -3.315  14.532 -36.285  1.00  0.00     0.274 HD
ATOM     21  H11 UNL     1      -1.739  14.142 -36.783  1.00  0.00     0.274 HD
ENDBRANCH  17  18
ENDBRANCH  16  17
ENDBRANCH  15  16
ENDBRANCH  14  15
ENDBRANCH  13  14
ENDBRANCH  12  13
ENDBRANCH   1  12
TORSDOF 7
ENDMDL
MODEL 3
REMARK VINA RESULT: -6.149444129      1.054      1.165
REMARK  7 active torsions:
REMARK  status: ('A' for Active; 'I' for Inactive)
REMARK    1  A    between atoms: N1_1  and  C1_5 
REMARK    2  A    between atoms: C1_5  and  C2_6 
REMARK    3  A    between atoms: C2_6  and  C3_7 
REMARK    4  A    between atoms: C3_7  and  C4_8 
REMARK    5  A    between atoms: C4_8  and  C5_9 
REMARK    6  A    between atoms: C5_9  and  C6_10 
REMARK    7  A    between atoms: C6_10  and  N2_11 
ROOT
HETATM    1  N2  UNL     1       2.961  16.629 -42.823  1.00  0.00    -0.326 N 
HETATM    2  C7  UNL     1       1.844  17.367 -42.955  1.00  0.00     0.186 A 
HETATM    3  N3  UNL     1       1.680  17.707 -44.260  1.00  0.00    -0.335 N 
ATOM      4  H3  UNL     1       0.914  18.265 -44.636  1.00  0.00     0.168 HD
HETATM    5  C8  UNL     1       2.698  17.186 -44.979  1.00  0.00     0.152 A 
HETATM    6  N4  UNL     1       3.289  17.026 -46.183  1.00  0.00    -0.335 N 
ATOM      7  H4  UNL     1       2.937  17.409 -47.061  1.00  0.00     0.168 HD
HETATM    8  C9  UNL     1       4.404  16.291 -46.060  1.00  0.00     0.183 A 
HETATM    9  N5  UNL     1       4.516  15.985 -44.764  1.00  0.00    -0.335 N 
ATOM     10  H5  UNL     1       5.270  15.430 -44.359  1.00  0.00     0.168 HD
HETATM   11  C10 UNL     1       3.483  16.519 -44.065  1.00  0.00     0.154 A 
ENDROOT
BRANCH   1  12
HETATM   12  C6  UNL     1       3.529  16.047 -41.607  1.00  0.00     0.131 C 
BRANCH  12  13
HETATM   13  C5  UNL     1       2.571  16.351 -40.491  1.00  0.00     0.020 C 
BRANCH  13  14
HETATM   14  C4  UNL     1       2.605  15.337 -39.384  1.00  0.00     0.002 C 
BRANCH  14  15
HETATM   15  C3  UNL     1       3.638  14.309 -39.720  1.00  0.00     0.002 C 
BRANCH  15  16
HETATM   16  C2  UNL     1       3.114  12.901 -39.721  1.00  0.00     0.027 C 
BRANCH  16  17
HETATM   17  C1  UNL     1       4.032  11.940 -40.433  1.00  0.00     0.229 C 
BRANCH  17  18
HETATM   18  N1  UNL     1       5.047  12.715 -41.120  1.00  0.00    -0.079 N 
ATOM     19  H13 UNL     1       4.655  13.355 -41.810  1.00  0.00     0.274 HD
ATOM     20  H12 UNL     1       5.485  13.413 -40.519  1.00  0.00     0.274 HD
ATOM     21  H11 UNL     1       5.721  12.064 -41.524  1.00  0.00     0.274 HD
ENDBRANCH  17  18
ENDBRANCH  16  17
ENDBRANCH  15  16
ENDBRANCH  14  15
ENDBRANCH  13  14
ENDBRANCH  12  13
ENDBRANCH   1  12
TORSDOF 7
ENDMDL
MODEL 4
REMARK VINA RESULT: -5.973095454      1.902      5.547
REMARK  7 active torsions:
REMARK  status: ('A' for Active; 'I' for Inactive)
REMARK    1  A    between atoms: N1_1  and  C1_5 
REMARK    2  A    between atoms: C1_5  and  C2_6 
REMARK    3  A    between atoms: C2_6  and  C3_7 
REMARK    4  A    between atoms: C3_7  and  C4_8 
REMARK    5  A    between atoms: C4_8  and  C5_9 
REMARK    6  A    between atoms: C5_9  and  C6_10 
REMARK    7  A    between atoms: C6_10  and  N2_11 
ROOT
HETATM    1  N2  UNL     1       3.552  15.153 -39.942  1.00  0.00    -0.326 N 
HETATM    2  C7  UNL     1       4.670  15.580 -40.556  1.00  0.00     0.186 A 
HETATM    3  N3  UNL     1       5.394  14.507 -40.971  1.00  0.00    -0.335 N 
ATOM      4  H3  UNL     1       6.285  14.548 -41.464  1.00  0.00     0.168 HD
HETATM    5  C8  UNL     1       4.741  13.377 -40.622  1.00  0.00     0.152 A 
HETATM    6  N4  UNL     1       4.704  12.027 -40.618  1.00  0.00    -0.335 N 
ATOM      7  H4  UNL     1       5.420  11.423 -41.023  1.00  0.00     0.168 HD
HETATM    8  C9  UNL     1       3.593  11.593 -40.007  1.00  0.00     0.183 A 
HETATM    9  N5  UNL     1       2.921  12.682 -39.622  1.00  0.00    -0.335 N 
ATOM     10  H5  UNL     1       2.028  12.673 -39.128  1.00  0.00     0.168 HD
HETATM   11  C10 UNL     1       3.597  13.803 -39.984  1.00  0.00     0.154 A 
ENDROOT
BRANCH   1  12
HETATM   12  C6  UNL     1       2.483  15.950 -39.340  1.00  0.00     0.131 C 
BRANCH  12  13
HETATM   13  C5  UNL     1       2.577  17.324 -39.938  1.00  0.00     0.020 C 
BRANCH  13  14
HETATM   14  C4  UNL     1       1.536  17.590 -40.986  1.00  0.00     0.002 C 
BRANCH  14  15
HETATM   15  C3  UNL     1       2.233  17.864 -42.281  1.00  0.00     0.002 C 
BRANCH  15  16
HETATM   16  C2  UNL     1       2.367  16.656 -43.164  1.00  0.00     0.027 C 
BRANCH  16  17
HETATM   17  C1  UNL     1       3.278  16.896 -44.342  1.00  0.00     0.229 C 
BRANCH  17  18
HETATM   18  N1  UNL     1       4.409  15.996 -44.225  1.00  0.00    -0.079 N 
ATOM     19  H13 UNL     1       4.613  15.742 -43.259  1.00  0.00     0.274 HD
ATOM     20  H12 UNL     1       4.206  15.059 -44.572  1.00  0.00     0.274 HD
ATOM     21  H11 UNL     1       5.205  16.426 -44.696  1.00  0.00     0.274 HD
ENDBRANCH  17  18
ENDBRANCH  16  17
ENDBRANCH  15  16
ENDBRANCH  14  15
ENDBRANCH  13  14
ENDBRANCH  12  13
ENDBRANCH   1  12
TORSDOF 7
ENDMDL
MODEL 5
REMARK VINA RESULT: -5.939423773      1.151      1.598
REMARK  7 active torsions:
REMARK  status: ('A' for Active; 'I' for Inactive)
REMARK    1  A    between atoms: N1_1  and  C1_5 
REMARK    2  A    between atoms: C1_5  and  C2_6 
REMARK    3  A    between atoms: C2_6  and  C3_7 
REMARK    4  A    between atoms: C3_7  and  C4_8 
REMARK    5  A    between atoms: C4_8  and  C5_9 
REMARK    6  A    between atoms: C5_9  and  C6_10 
REMARK    7  A    between atoms: C6_10  and  N2_11 
ROOT
HETATM    1  N2  UNL     1       2.383  17.300 -41.316  1.00  0.00    -0.326 N 
HETATM    2  C7  UNL     1       1.102  17.651 -41.102  1.00  0.00     0.186 A 
HETATM    3  N3  UNL     1       0.482  17.840 -42.296  1.00  0.00    -0.335 N 
ATOM      4  H3  UNL     1      -0.493  18.111 -42.421  1.00  0.00     0.168 HD
HETATM    5  C8  UNL     1       1.367  17.611 -43.290  1.00  0.00     0.152 A 
HETATM    6  N4  UNL     1       1.616  17.561 -44.617  1.00  0.00    -0.335 N 
ATOM      7  H4  UNL     1       0.931  17.761 -45.346  1.00  0.00     0.168 HD
HETATM    8  C9  UNL     1       2.891  17.213 -44.838  1.00  0.00     0.183 A 
HETATM    9  N5  UNL     1       3.451  17.040 -43.638  1.00  0.00    -0.335 N 
ATOM     10  H5  UNL     1       4.423  16.769 -43.481  1.00  0.00     0.168 HD
HETATM   11  C10 UNL     1       2.543  17.275 -42.657  1.00  0.00     0.154 A 
ENDROOT
BRANCH   1  12
HETATM   12  C6  UNL     1       3.421  16.998 -40.329  1.00  0.00     0.131 C 
BRANCH  12  13
HETATM   13  C5  UNL     1       3.463  15.505 -40.184  1.00  0.00     0.020 C 
BRANCH  13  14
HETATM   14  C4  UNL     1       4.772  14.902 -40.603  1.00  0.00     0.002 C 
BRANCH  14  15
HETATM   15  C3  UNL     1       4.583  13.426 -40.753  1.00  0.00     0.002 C 
BRANCH  15  16
HETATM   16  C2  UNL     1       3.347  12.902 -40.077  1.00  0.00     0.027 C 
BRANCH  16  17
HETATM   17  C1  UNL     1       3.157  11.420 -40.282  1.00  0.00     0.229 C 
BRANCH  17  18
HETATM   18  N1  UNL     1       4.438  10.771 -40.078  1.00  0.00    -0.079 N 
ATOM     19  H13 UNL     1       5.188  11.200 -40.620  1.00  0.00     0.274 HD
ATOM     20  H12 UNL     1       4.825  10.943 -39.150  1.00  0.00     0.274 HD
ATOM     21  H11 UNL     1       4.324   9.777 -40.280  1.00  0.00     0.274 HD
ENDBRANCH  17  18
ENDBRANCH  16  17
ENDBRANCH  15  16
ENDBRANCH  14  15
ENDBRANCH  13  14
ENDBRANCH  12  13
ENDBRANCH   1  12
TORSDOF 7
ENDMDL
