MODEL 1
REMARK VINA RESULT: -6.608085238      0.000      0.000
REMARK  6 active torsions:
REMARK  status: ('A' for Active; 'I' for Inactive)
REMARK    1  A    between atoms: C2_2  and  C3_3 
REMARK    2  A    between atoms: C3_3  and  N1_4 
REMARK    3  A    between atoms: N1_4  and  C4_6 
REMARK    4  A    between atoms: C4_6  and  C5_7 
REMARK    5  A    between atoms: C4_6  and  C7_17 
REMARK    6  A    between atoms: C5_7  and  C6_8 
ROOT
HETATM    1  C4  UNL     1       3.733  16.044 -40.761  1.00  0.00     0.091 C 
ENDROOT
BRANCH   1   2
HETATM    2  N1  UNL     1       4.070  14.807 -40.139  1.00  0.00    -0.413 N 
ATOM      3  H1  UNL     1       3.669  14.619 -39.220  1.00  0.00     0.153 HD
BRANCH   2   4
HETATM    4  C3  UNL     1       4.889  13.850 -40.676  1.00  0.00     0.141 C 
BRANCH   4   5
HETATM    5  C2  UNL     1       4.190  12.496 -40.497  1.00  0.00    -0.018 C 
HETATM    6  C1  UNL     1       3.118  12.401 -39.750  1.00  0.00     0.008 C 
ENDBRANCH   4   5
ENDBRANCH   2   4
ENDBRANCH   1   2
BRANCH   1   7
HETATM    7  C5  UNL     1       2.986  15.815 -42.033  1.00  0.00     0.104 C 
BRANCH   7   8
HETATM    8  C6  UNL     1       3.532  16.288 -43.267  1.00  0.00     0.114 A 
HETATM    9  N2  UNL     1       3.206  17.451 -43.916  1.00  0.00    -0.272 N 
HETATM   10  N3  UNL     1       3.934  17.585 -45.008  1.00  0.00    -0.227 N 
ATOM     11  H2  UNL     1       2.502  18.117 -43.599  1.00  0.00     0.190 HD
HETATM   12  N4  UNL     1       4.726  16.528 -45.075  1.00  0.00    -0.227 N 
ATOM     13  H3  UNL     1       3.894  18.357 -45.673  1.00  0.00     0.210 HD
HETATM   14  N5  UNL     1       4.490  15.748 -44.037  1.00  0.00    -0.272 N 
ATOM     15  H4  UNL     1       5.409  16.345 -45.811  1.00  0.00     0.210 HD
ATOM     16  H5  UNL     1       4.964  14.865 -43.849  1.00  0.00     0.190 HD
ENDBRANCH   7   8
ENDBRANCH   1   7
BRANCH   1  17
HETATM   17  C7  UNL     1       3.121  16.949 -39.749  1.00  0.00    -0.031 C 
HETATM   18  C8  UNL     1       2.424  15.971 -38.755  1.00  0.00     0.016 C 
HETATM   19  C9  UNL     1       2.129  17.941 -40.193  1.00  0.00     0.016 C 
HETATM   20  C10 UNL     1       4.151  17.624 -38.827  1.00  0.00     0.016 C 
ENDBRANCH   1  17
TORSDOF 6
ENDMDL
MODEL 2
REMARK VINA RESULT: -6.575014294      0.156      1.085
REMARK  6 active torsions:
REMARK  status: ('A' for Active; 'I' for Inactive)
REMARK    1  A    between atoms: C2_2  and  C3_3 
REMARK    2  A    between atoms: C3_3  and  N1_4 
REMARK    3  A    between atoms: N1_4  and  C4_6 
REMARK    4  A    between atoms: C4_6  and  C5_7 
REMARK    5  A    between atoms: C4_6  and  C7_17 
REMARK    6  A    between atoms: C5_7  and  C6_8 
ROOT
HETATM    1  C4  UNL     1       3.765  15.991 -40.716  1.00  0.00     0.091 C 
ENDROOT
BRANCH   1   2
HETATM    2  N1  UNL     1       4.132  14.735 -40.151  1.00  0.00    -0.413 N 
ATOM      3  H1  UNL     1       3.831  14.545 -39.194  1.00  0.00     0.153 HD
BRANCH   2   4
HETATM    4  C3  UNL     1       4.855  13.763 -40.788  1.00  0.00     0.141 C 
BRANCH   4   5
HETATM    5  C2  UNL     1       4.225  12.412 -40.427  1.00  0.00    -0.018 C 
HETATM    6  C1  UNL     1       3.128  12.366 -39.712  1.00  0.00     0.008 C 
ENDBRANCH   4   5
ENDBRANCH   2   4
ENDBRANCH   1   2
BRANCH   1   7
HETATM    7  C5  UNL     1       3.013  15.803 -41.991  1.00  0.00     0.104 C 
BRANCH   7   8
HETATM    8  C6  UNL     1       3.591  16.243 -43.223  1.00  0.00     0.114 A 
HETATM    9  N2  UNL     1       3.303  17.402 -43.896  1.00  0.00    -0.272 N 
HETATM   10  N3  UNL     1       4.052  17.502 -44.977  1.00  0.00    -0.227 N 
ATOM     11  H2  UNL     1       2.609  18.089 -43.602  1.00  0.00     0.190 HD
HETATM   12  N4  UNL     1       4.820  16.426 -45.014  1.00  0.00    -0.227 N 
ATOM     13  H3  UNL     1       4.041  18.263 -45.655  1.00  0.00     0.210 HD
HETATM   14  N5  UNL     1       4.548  15.669 -43.968  1.00  0.00    -0.272 N 
ATOM     15  H4  UNL     1       5.511  16.215 -45.735  1.00  0.00     0.210 HD
ATOM     16  H5  UNL     1       4.999  14.778 -43.758  1.00  0.00     0.190 HD
ENDBRANCH   7   8
ENDBRANCH   1   7
BRANCH   1  17
HETATM   17  C7  UNL     1       3.144  16.838 -39.661  1.00  0.00    -0.031 C 
HETATM   18  C8  UNL     1       4.357  17.577 -39.019  1.00  0.00     0.016 C 
HETATM   19  C9  UNL     1       2.378  16.185 -38.587  1.00  0.00     0.016 C 
HETATM   20  C10 UNL     1       2.339  18.024 -40.222  1.00  0.00     0.016 C 
ENDBRANCH   1  17
TORSDOF 6
ENDMDL
MODEL 3
REMARK VINA RESULT: -6.516068100      0.200      1.083
REMARK  6 active torsions:
REMARK  status: ('A' for Active; 'I' for Inactive)
REMARK    1  A    between atoms: C2_2  and  C3_3 
REMARK    2  A    between atoms: C3_3  and  N1_4 
REMARK    3  A    between atoms: N1_4  and  C4_6 
REMARK    4  A    between atoms: C4_6  and  C5_7 
REMARK    5  A    between atoms: C4_6  and  C7_17 
REMARK    6  A    between atoms: C5_7  and  C6_8 
ROOT
HETATM    1  C4  UNL     1       3.800  15.914 -40.640  1.00  0.00     0.091 C 
ENDROOT
BRANCH   1   2
HETATM    2  N1  UNL     1       4.125  14.627 -40.119  1.00  0.00    -0.413 N 
ATOM      3  H1  UNL     1       3.788  14.401 -39.183  1.00  0.00     0.153 HD
BRANCH   2   4
HETATM    4  C3  UNL     1       4.852  13.670 -40.774  1.00  0.00     0.141 C 
BRANCH   4   5
HETATM    5  C2  UNL     1       4.216  12.311 -40.453  1.00  0.00    -0.018 C 
HETATM    6  C1  UNL     1       3.107  12.250 -39.760  1.00  0.00     0.008 C 
ENDBRANCH   4   5
ENDBRANCH   2   4
ENDBRANCH   1   2
BRANCH   1   7
HETATM    7  C5  UNL     1       2.998  15.794 -41.893  1.00  0.00     0.104 C 
BRANCH   7   8
HETATM    8  C6  UNL     1       3.566  16.214 -43.137  1.00  0.00     0.114 A 
HETATM    9  N2  UNL     1       3.247  17.344 -43.844  1.00  0.00    -0.272 N 
HETATM   10  N3  UNL     1       3.996  17.433 -44.926  1.00  0.00    -0.227 N 
ATOM     11  H2  UNL     1       2.534  18.021 -43.571  1.00  0.00     0.190 HD
HETATM   12  N4  UNL     1       4.793  16.378 -44.931  1.00  0.00    -0.227 N 
ATOM     13  H3  UNL     1       3.965  18.173 -45.627  1.00  0.00     0.210 HD
HETATM   14  N5  UNL     1       4.540  15.644 -43.864  1.00  0.00    -0.272 N 
ATOM     15  H4  UNL     1       5.490  16.165 -45.645  1.00  0.00     0.210 HD
ATOM     16  H5  UNL     1       5.015  14.773 -43.627  1.00  0.00     0.190 HD
ENDBRANCH   7   8
ENDBRANCH   1   7
BRANCH   1  17
HETATM   17  C7  UNL     1       3.254  16.760 -39.544  1.00  0.00    -0.031 C 
HETATM   18  C8  UNL     1       2.181  17.639 -40.256  1.00  0.00     0.016 C 
HETATM   19  C9  UNL     1       4.170  17.651 -38.813  1.00  0.00     0.016 C 
HETATM   20  C10 UNL     1       2.382  15.982 -38.543  1.00  0.00     0.016 C 
ENDBRANCH   1  17
TORSDOF 6
ENDMDL
MODEL 4
REMARK VINA RESULT: -6.272489851      1.500      3.575
REMARK  6 active torsions:
REMARK  status: ('A' for Active; 'I' for Inactive)
REMARK    1  A    between atoms: C2_2  and  C3_3 
REMARK    2  A    between atoms: C3_3  and  N1_4 
REMARK    3  A    between atoms: N1_4  and  C4_6 
REMARK    4  A    between atoms: C4_6  and  C5_7 
REMARK    5  A    between atoms: C4_6  and  C7_17 
REMARK    6  A    between atoms: C5_7  and  C6_8 
ROOT
HETATM    1  C4  UNL     1       2.848  16.541 -41.142  1.00  0.00     0.091 C 
ENDROOT
BRANCH   1   2
HETATM    2  N1  UNL     1       3.618  17.738 -41.075  1.00  0.00    -0.413 N 
ATOM      3  H1  UNL     1       4.473  17.777 -41.631  1.00  0.00     0.153 HD
BRANCH   2   4
HETATM    4  C3  UNL     1       3.303  18.840 -40.327  1.00  0.00     0.141 C 
BRANCH   4   5
HETATM    5  C2  UNL     1       4.596  19.324 -39.658  1.00  0.00    -0.018 C 
HETATM    6  C1  UNL     1       5.207  20.394 -40.102  1.00  0.00     0.008 C 
ENDBRANCH   4   5
ENDBRANCH   2   4
ENDBRANCH   1   2
BRANCH   1   7
HETATM    7  C5  UNL     1       2.389  16.279 -42.538  1.00  0.00     0.104 C 
BRANCH   7   8
HETATM    8  C6  UNL     1       3.287  16.499 -43.629  1.00  0.00     0.114 A 
HETATM    9  N2  UNL     1       3.216  17.502 -44.560  1.00  0.00    -0.272 N 
HETATM   10  N3  UNL     1       4.232  17.421 -45.398  1.00  0.00    -0.227 N 
ATOM     11  H2  UNL     1       2.483  18.210 -44.599  1.00  0.00     0.190 HD
HETATM   12  N4  UNL     1       4.959  16.383 -45.023  1.00  0.00    -0.227 N 
ATOM     13  H3  UNL     1       4.420  18.042 -46.185  1.00  0.00     0.210 HD
HETATM   14  N5  UNL     1       4.399  15.826 -43.966  1.00  0.00    -0.272 N 
ATOM     15  H4  UNL     1       5.814  16.063 -45.478  1.00  0.00     0.210 HD
ATOM     16  H5  UNL     1       4.757  15.005 -43.478  1.00  0.00     0.190 HD
ENDBRANCH   7   8
ENDBRANCH   1   7
BRANCH   1  17
HETATM   17  C7  UNL     1       3.575  15.452 -40.434  1.00  0.00    -0.031 C 
HETATM   18  C8  UNL     1       2.872  15.380 -39.045  1.00  0.00     0.016 C 
HETATM   19  C9  UNL     1       5.023  15.595 -40.212  1.00  0.00     0.016 C 
HETATM   20  C10 UNL     1       3.274  14.050 -40.991  1.00  0.00     0.016 C 
ENDBRANCH   1  17
TORSDOF 6
ENDMDL
MODEL 5
REMARK VINA RESULT: -6.244912366      1.796      4.363
REMARK  6 active torsions:
REMARK  status: ('A' for Active; 'I' for Inactive)
REMARK    1  A    between atoms: C2_2  and  C3_3 
REMARK    2  A    between atoms: C3_3  and  N1_4 
REMARK    3  A    between atoms: N1_4  and  C4_6 
REMARK    4  A    between atoms: C4_6  and  C5_7 
REMARK    5  A    between atoms: C4_6  and  C7_17 
REMARK    6  A    between atoms: C5_7  and  C6_8 
ROOT
HETATM    1  C4  UNL     1       3.486  16.389 -40.629  1.00  0.00     0.091 C 
ENDROOT
BRANCH   1   2
HETATM    2  N1  UNL     1       3.350  16.964 -41.926  1.00  0.00    -0.413 N 
ATOM      3  H1  UNL     1       3.565  17.957 -42.025  1.00  0.00     0.153 HD
BRANCH   2   4
HETATM    4  C3  UNL     1       2.952  16.292 -43.051  1.00  0.00     0.141 C 
BRANCH   4   5
HETATM    5  C2  UNL     1       2.832  17.321 -44.182  1.00  0.00    -0.018 C 
HETATM    6  C1  UNL     1       3.391  17.093 -45.344  1.00  0.00     0.008 C 
ENDBRANCH   4   5
ENDBRANCH   2   4
ENDBRANCH   1   2
BRANCH   1   7
HETATM    7  C5  UNL     1       4.645  15.450 -40.582  1.00  0.00     0.104 C 
BRANCH   7   8
HETATM    8  C6  UNL     1       4.410  14.046 -40.445  1.00  0.00     0.114 A 
HETATM    9  N2  UNL     1       3.345  13.450 -39.822  1.00  0.00    -0.272 N 
HETATM   10  N3  UNL     1       3.434  12.137 -39.919  1.00  0.00    -0.227 N 
ATOM     11  H2  UNL     1       2.591  13.949 -39.350  1.00  0.00     0.190 HD
HETATM   12  N4  UNL     1       4.540  11.875 -40.596  1.00  0.00    -0.227 N 
ATOM     13  H3  UNL     1       2.776  11.454 -39.544  1.00  0.00     0.210 HD
HETATM   14  N5  UNL     1       5.129  13.013 -40.912  1.00  0.00    -0.272 N 
ATOM     15  H4  UNL     1       4.882  10.944 -40.834  1.00  0.00     0.210 HD
ATOM     16  H5  UNL     1       6.001  13.094 -41.435  1.00  0.00     0.190 HD
ENDBRANCH   7   8
ENDBRANCH   1   7
BRANCH   1  17
HETATM   17  C7  UNL     1       3.425  17.470 -39.607  1.00  0.00    -0.031 C 
HETATM   18  C8  UNL     1       2.714  16.794 -38.396  1.00  0.00     0.016 C 
HETATM   19  C9  UNL     1       2.706  18.712 -39.931  1.00  0.00     0.016 C 
HETATM   20  C10 UNL     1       4.794  17.811 -38.993  1.00  0.00     0.016 C 
ENDBRANCH   1  17
TORSDOF 6
ENDMDL
