MODEL 1
REMARK VINA RESULT: -7.759164904      0.000      0.000
REMARK  8 active torsions:
REMARK  status: ('A' for Active; 'I' for Inactive)
REMARK       I    between atoms: C1_4  and  N3_6 
REMARK    1  A    between atoms: N3_6  and  C2_8 
REMARK    2  A    between atoms: C2_8  and  C3_9 
REMARK    3  A    between atoms: N4_10  and  C4_12 
REMARK    4  A    between atoms: C4_12  and  C5_13 
REMARK    5  A    between atoms: C4_12  and  C6_15 
REMARK    6  A    between atoms: C6_15  and  C7_16 
REMARK    7  A    between atoms: C10_19  and  C11_20 
REMARK    8  A    between atoms: C11_20  and  C12_21 
ROOT
HETATM    1  C6  UNL     1      89.920  43.673  64.409  1.00  0.00     0.070 C 
ENDROOT
BRANCH   1   2
HETATM    2  C4  UNL     1      91.239  44.333  64.082  1.00  0.00     0.146 C 
BRANCH   2   3
HETATM    3  N4  UNL     1      92.328  43.964  64.839  1.00  0.00    -0.390 N 
HETATM    4  C3  UNL     1      93.174  44.689  65.621  1.00  0.00     0.076 C 
ATOM      5  H4  UNL     1      92.538  42.967  64.809  1.00  0.00     0.159 HD
BRANCH   4   6
HETATM    6  C2  UNL     1      94.183  45.628  64.980  1.00  0.00     0.166 C 
BRANCH   6   7
HETATM    7  N3  UNL     1      95.060  46.190  66.021  1.00  0.00    -0.360 N 
HETATM    8  C1  UNL     1      94.704  47.398  66.657  1.00  0.00     0.182 C 
HETATM    9  N1  UNL     1      94.763  48.533  66.007  1.00  0.00    -0.374 N 
HETATM   10  N2  UNL     1      94.282  47.362  68.011  1.00  0.00    -0.064 NA
ATOM     11  H12 UNL     1      94.506  49.406  66.466  1.00  0.00     0.158 HD
ATOM     12  H11 UNL     1      95.067  48.559  65.034  1.00  0.00     0.158 HD
ATOM     13  H3  UNL     1      95.921  45.707  66.282  1.00  0.00     0.162 HD
ENDBRANCH   6   7
ENDBRANCH   4   6
ENDBRANCH   2   3
BRANCH   2  14
HETATM   14  C5  UNL     1      91.490  44.306  62.603  1.00  0.00     0.256 C 
HETATM   15  O1  UNL     1      91.999  43.314  62.131  1.00  0.00    -0.305 OA
ENDBRANCH   2  14
ENDBRANCH   1   2
BRANCH   1  16
HETATM   16  C7  UNL     1      89.581  43.775  65.870  1.00  0.00    -0.056 A 
HETATM   17  C8  UNL     1      89.339  44.993  66.450  1.00  0.00     0.007 A 
HETATM   18  C9  UNL     1      89.043  45.115  67.814  1.00  0.00     0.007 A 
HETATM   19  C10 UNL     1      88.993  43.982  68.591  1.00  0.00    -0.056 A 
HETATM   20  C16 UNL     1      89.235  42.757  68.009  1.00  0.00     0.007 A 
HETATM   21  C17 UNL     1      89.529  42.653  66.651  1.00  0.00     0.007 A 
BRANCH  19  22
HETATM   22  C11 UNL     1      88.680  44.056  70.036  1.00  0.00     0.071 C 
BRANCH  22  23
HETATM   23  C12 UNL     1      88.093  45.431  70.294  1.00  0.00     0.190 C 
HETATM   24  C13 UNL     1      86.871  45.416  71.154  1.00  0.00     0.035 C 
HETATM   25  C14 UNL     1      87.343  45.557  72.584  1.00  0.00     0.029 C 
HETATM   26  C15 UNL     1      88.831  45.720  72.440  1.00  0.00     0.233 C 
HETATM   27  N5  UNL     1      89.024  46.220  71.083  1.00  0.00    -0.071 N 
ATOM     28  H52 UNL     1      89.989  46.188  70.755  1.00  0.00     0.277 HD
ATOM     29  H51 UNL     1      88.912  47.229  70.984  1.00  0.00     0.277 HD
ENDBRANCH  22  23
ENDBRANCH  19  22
ENDBRANCH   1  16
TORSDOF 8
ENDMDL
MODEL 2
REMARK VINA RESULT: -7.729774450      0.254      1.016
REMARK  8 active torsions:
REMARK  status: ('A' for Active; 'I' for Inactive)
REMARK       I    between atoms: C1_4  and  N3_6 
REMARK    1  A    between atoms: N3_6  and  C2_8 
REMARK    2  A    between atoms: C2_8  and  C3_9 
REMARK    3  A    between atoms: N4_10  and  C4_12 
REMARK    4  A    between atoms: C4_12  and  C5_13 
REMARK    5  A    between atoms: C4_12  and  C6_15 
REMARK    6  A    between atoms: C6_15  and  C7_16 
REMARK    7  A    between atoms: C10_19  and  C11_20 
REMARK    8  A    between atoms: C11_20  and  C12_21 
ROOT
HETATM    1  C6  UNL     1      89.893  43.745  64.627  1.00  0.00     0.070 C 
ENDROOT
BRANCH   1   2
HETATM    2  C4  UNL     1      91.198  44.362  64.183  1.00  0.00     0.146 C 
BRANCH   2   3
HETATM    3  N4  UNL     1      92.337  43.960  64.844  1.00  0.00    -0.390 N 
HETATM    4  C3  UNL     1      93.226  44.645  65.615  1.00  0.00     0.076 C 
ATOM      5  H4  UNL     1      92.555  42.970  64.738  1.00  0.00     0.159 HD
BRANCH   4   6
HETATM    6  C2  UNL     1      94.182  45.636  64.972  1.00  0.00     0.166 C 
BRANCH   6   7
HETATM    7  N3  UNL     1      95.068  46.202  66.005  1.00  0.00    -0.360 N 
HETATM    8  C1  UNL     1      94.711  47.407  66.646  1.00  0.00     0.182 C 
HETATM    9  N1  UNL     1      94.755  48.543  65.999  1.00  0.00    -0.374 N 
HETATM   10  N2  UNL     1      94.306  47.365  68.005  1.00  0.00    -0.064 NA
ATOM     11  H12 UNL     1      94.497  49.414  66.462  1.00  0.00     0.158 HD
ATOM     12  H11 UNL     1      95.046  48.574  65.021  1.00  0.00     0.158 HD
ATOM     13  H3  UNL     1      95.935  45.725  66.254  1.00  0.00     0.162 HD
ENDBRANCH   6   7
ENDBRANCH   4   6
ENDBRANCH   2   3
BRANCH   2  14
HETATM   14  C5  UNL     1      91.319  44.322  62.688  1.00  0.00     0.256 C 
HETATM   15  O1  UNL     1      91.791  43.329  62.181  1.00  0.00    -0.305 OA
ENDBRANCH   2  14
ENDBRANCH   1   2
BRANCH   1  16
HETATM   16  C7  UNL     1      89.685  43.864  66.112  1.00  0.00    -0.056 A 
HETATM   17  C8  UNL     1      89.557  42.745  66.894  1.00  0.00     0.007 A 
HETATM   18  C9  UNL     1      89.340  42.832  68.275  1.00  0.00     0.007 A 
HETATM   19  C10 UNL     1      89.253  44.072  68.862  1.00  0.00    -0.056 A 
HETATM   20  C16 UNL     1      89.381  45.197  68.078  1.00  0.00     0.007 A 
HETATM   21  C17 UNL     1      89.596  45.094  66.705  1.00  0.00     0.007 A 
BRANCH  19  22
HETATM   22  C11 UNL     1      89.028  44.217  70.318  1.00  0.00     0.071 C 
BRANCH  22  23
HETATM   23  C12 UNL     1      88.286  45.524  70.525  1.00  0.00     0.190 C 
HETATM   24  C13 UNL     1      87.012  45.382  71.292  1.00  0.00     0.035 C 
HETATM   25  C14 UNL     1      87.360  45.568  72.753  1.00  0.00     0.029 C 
HETATM   26  C15 UNL     1      88.830  45.883  72.717  1.00  0.00     0.233 C 
HETATM   27  N5  UNL     1      89.071  46.403  71.375  1.00  0.00    -0.071 N 
ATOM     28  H52 UNL     1      90.056  46.471  71.119  1.00  0.00     0.277 HD
ATOM     29  H51 UNL     1      88.864  47.396  71.264  1.00  0.00     0.277 HD
ENDBRANCH  22  23
ENDBRANCH  19  22
ENDBRANCH   1  16
TORSDOF 8
ENDMDL
MODEL 3
REMARK VINA RESULT: -7.605777801      2.446      4.142
REMARK  8 active torsions:
REMARK  status: ('A' for Active; 'I' for Inactive)
REMARK       I    between atoms: C1_4  and  N3_6 
REMARK    1  A    between atoms: N3_6  and  C2_8 
REMARK    2  A    between atoms: C2_8  and  C3_9 
REMARK    3  A    between atoms: N4_10  and  C4_12 
REMARK    4  A    between atoms: C4_12  and  C5_13 
REMARK    5  A    between atoms: C4_12  and  C6_15 
REMARK    6  A    between atoms: C6_15  and  C7_16 
REMARK    7  A    between atoms: C10_19  and  C11_20 
REMARK    8  A    between atoms: C11_20  and  C12_21 
ROOT
HETATM    1  C6  UNL     1      93.300  47.257  66.645  1.00  0.00     0.070 C 
ENDROOT
BRANCH   1   2
HETATM    2  C4  UNL     1      94.657  46.594  66.628  1.00  0.00     0.146 C 
BRANCH   2   3
HETATM    3  N4  UNL     1      94.961  45.818  65.532  1.00  0.00    -0.390 N 
HETATM    4  C3  UNL     1      94.212  45.424  64.466  1.00  0.00     0.076 C 
ATOM      5  H4  UNL     1      95.922  45.476  65.516  1.00  0.00     0.159 HD
BRANCH   4   6
HETATM    6  C2  UNL     1      93.113  44.391  64.650  1.00  0.00     0.166 C 
BRANCH   6   7
HETATM    7  N3  UNL     1      92.831  43.740  63.359  1.00  0.00    -0.360 N 
HETATM    8  C1  UNL     1      92.788  44.515  62.181  1.00  0.00     0.182 C 
HETATM    9  N1  UNL     1      91.800  45.346  61.968  1.00  0.00    -0.374 N 
HETATM   10  N2  UNL     1      93.834  44.377  61.232  1.00  0.00    -0.064 NA
ATOM     11  H12 UNL     1      91.769  45.907  61.117  1.00  0.00     0.158 HD
ATOM     12  H11 UNL     1      91.048  45.445  62.650  1.00  0.00     0.158 HD
ATOM     13  H3  UNL     1      92.667  42.733  63.317  1.00  0.00     0.162 HD
ENDBRANCH   6   7
ENDBRANCH   4   6
ENDBRANCH   2   3
BRANCH   2  14
HETATM   14  C5  UNL     1      95.729  47.579  66.990  1.00  0.00     0.256 C 
HETATM   15  O1  UNL     1      96.091  48.364  66.143  1.00  0.00    -0.305 OA
ENDBRANCH   2  14
ENDBRANCH   1   2
BRANCH   1  16
HETATM   16  C7  UNL     1      92.347  46.575  67.587  1.00  0.00    -0.056 A 
HETATM   17  C8  UNL     1      91.063  46.290  67.199  1.00  0.00     0.007 A 
HETATM   18  C9  UNL     1      90.150  45.676  68.067  1.00  0.00     0.007 A 
HETATM   19  C10 UNL     1      90.553  45.351  69.340  1.00  0.00    -0.056 A 
HETATM   20  C16 UNL     1      91.842  45.636  69.730  1.00  0.00     0.007 A 
HETATM   21  C17 UNL     1      92.738  46.248  68.855  1.00  0.00     0.007 A 
BRANCH  19  22
HETATM   22  C11 UNL     1      89.628  44.698  70.294  1.00  0.00     0.071 C 
BRANCH  22  23
HETATM   23  C12 UNL     1      88.418  45.602  70.430  1.00  0.00     0.190 C 
HETATM   24  C13 UNL     1      87.283  44.986  71.180  1.00  0.00     0.035 C 
HETATM   25  C14 UNL     1      87.477  45.343  72.638  1.00  0.00     0.029 C 
HETATM   26  C15 UNL     1      88.698  46.220  72.615  1.00  0.00     0.233 C 
HETATM   27  N5  UNL     1      88.756  46.749  71.256  1.00  0.00    -0.071 N 
ATOM     28  H52 UNL     1      89.639  47.198  71.016  1.00  0.00     0.277 HD
ATOM     29  H51 UNL     1      88.172  47.571  71.098  1.00  0.00     0.277 HD
ENDBRANCH  22  23
ENDBRANCH  19  22
ENDBRANCH   1  16
TORSDOF 8
ENDMDL
MODEL 4
REMARK VINA RESULT: -7.559434347      2.515      4.280
REMARK  8 active torsions:
REMARK  status: ('A' for Active; 'I' for Inactive)
REMARK       I    between atoms: C1_4  and  N3_6 
REMARK    1  A    between atoms: N3_6  and  C2_8 
REMARK    2  A    between atoms: C2_8  and  C3_9 
REMARK    3  A    between atoms: N4_10  and  C4_12 
REMARK    4  A    between atoms: C4_12  and  C5_13 
REMARK    5  A    between atoms: C4_12  and  C6_15 
REMARK    6  A    between atoms: C6_15  and  C7_16 
REMARK    7  A    between atoms: C10_19  and  C11_20 
REMARK    8  A    between atoms: C11_20  and  C12_21 
ROOT
HETATM    1  C6  UNL     1      94.005  45.444  64.337  1.00  0.00     0.070 C 
ENDROOT
BRANCH   1   2
HETATM    2  C4  UNL     1      92.984  45.035  63.302  1.00  0.00     0.146 C 
BRANCH   2   3
HETATM    3  N4  UNL     1      92.215  46.037  62.753  1.00  0.00    -0.390 N 
HETATM    4  C3  UNL     1      90.912  46.384  62.942  1.00  0.00     0.076 C 
ATOM      5  H4  UNL     1      92.710  46.625  62.083  1.00  0.00     0.159 HD
BRANCH   4   6
HETATM    6  C2  UNL     1      89.804  45.500  62.397  1.00  0.00     0.166 C 
BRANCH   6   7
HETATM    7  N3  UNL     1      88.924  45.080  63.502  1.00  0.00    -0.360 N 
HETATM    8  C1  UNL     1      89.459  44.343  64.579  1.00  0.00     0.182 C 
HETATM    9  N1  UNL     1      89.830  43.098  64.414  1.00  0.00    -0.374 N 
HETATM   10  N2  UNL     1      89.588  44.972  65.844  1.00  0.00    -0.064 NA
ATOM     11  H12 UNL     1      90.217  42.565  65.192  1.00  0.00     0.158 HD
ATOM     12  H11 UNL     1      89.737  42.645  63.504  1.00  0.00     0.158 HD
ATOM     13  H3  UNL     1      87.932  45.322  63.489  1.00  0.00     0.162 HD
ENDBRANCH   6   7
ENDBRANCH   4   6
ENDBRANCH   2   3
BRANCH   2  14
HETATM   14  C5  UNL     1      93.600  44.118  62.287  1.00  0.00     0.256 C 
HETATM   15  O1  UNL     1      93.203  42.975  62.238  1.00  0.00    -0.305 OA
ENDBRANCH   2  14
ENDBRANCH   1   2
BRANCH   1  16
HETATM   16  C7  UNL     1      93.407  45.554  65.712  1.00  0.00    -0.056 A 
HETATM   17  C8  UNL     1      93.174  44.433  66.467  1.00  0.00     0.007 A 
HETATM   18  C9  UNL     1      92.598  44.509  67.741  1.00  0.00     0.007 A 
HETATM   19  C10 UNL     1      92.257  45.740  68.249  1.00  0.00    -0.056 A 
HETATM   20  C16 UNL     1      92.491  46.867  67.492  1.00  0.00     0.007 A 
HETATM   21  C17 UNL     1      93.065  46.774  66.226  1.00  0.00     0.007 A 
BRANCH  19  22
HETATM   22  C11 UNL     1      91.649  45.875  69.591  1.00  0.00     0.071 C 
BRANCH  22  23
HETATM   23  C12 UNL     1      90.746  44.672  69.793  1.00  0.00     0.190 C 
HETATM   24  C13 UNL     1      90.303  44.478  71.206  1.00  0.00     0.035 C 
HETATM   25  C14 UNL     1      89.006  45.241  71.366  1.00  0.00     0.029 C 
HETATM   26  C15 UNL     1      88.749  45.773  69.983  1.00  0.00     0.233 C 
HETATM   27  N5  UNL     1      89.489  44.882  69.094  1.00  0.00    -0.071 N 
ATOM     28  H52 UNL     1      89.588  45.226  68.139  1.00  0.00     0.277 HD
ATOM     29  H51 UNL     1      88.994  44.025  68.848  1.00  0.00     0.277 HD
ENDBRANCH  22  23
ENDBRANCH  19  22
ENDBRANCH   1  16
TORSDOF 8
ENDMDL
MODEL 5
REMARK VINA RESULT: -7.551295507      1.355      1.392
REMARK  8 active torsions:
REMARK  status: ('A' for Active; 'I' for Inactive)
REMARK       I    between atoms: C1_4  and  N3_6 
REMARK    1  A    between atoms: N3_6  and  C2_8 
REMARK    2  A    between atoms: C2_8  and  C3_9 
REMARK    3  A    between atoms: N4_10  and  C4_12 
REMARK    4  A    between atoms: C4_12  and  C5_13 
REMARK    5  A    between atoms: C4_12  and  C6_15 
REMARK    6  A    between atoms: C6_15  and  C7_16 
REMARK    7  A    between atoms: C10_19  and  C11_20 
REMARK    8  A    between atoms: C11_20  and  C12_21 
ROOT
HETATM    1  C6  UNL     1      90.414  44.115  64.915  1.00  0.00     0.070 C 
ENDROOT
BRANCH   1   2
HETATM    2  C4  UNL     1      90.999  45.387  64.350  1.00  0.00     0.146 C 
BRANCH   2   3
HETATM    3  N4  UNL     1      92.315  45.344  63.946  1.00  0.00    -0.390 N 
HETATM    4  C3  UNL     1      93.430  44.840  64.542  1.00  0.00     0.076 C 
ATOM      5  H4  UNL     1      92.485  45.768  63.034  1.00  0.00     0.159 HD
BRANCH   4   6
HETATM    6  C2  UNL     1      94.026  45.540  65.752  1.00  0.00     0.166 C 
BRANCH   6   7
HETATM    7  N3  UNL     1      95.007  46.544  65.303  1.00  0.00    -0.360 N 
HETATM    8  C1  UNL     1      95.160  47.743  66.030  1.00  0.00     0.182 C 
HETATM    9  N1  UNL     1      94.225  48.659  66.006  1.00  0.00    -0.374 N 
HETATM   10  N2  UNL     1      96.344  47.939  66.786  1.00  0.00    -0.064 NA
ATOM     11  H12 UNL     1      94.335  49.525  66.532  1.00  0.00     0.158 HD
ATOM     12  H11 UNL     1      93.373  48.518  65.463  1.00  0.00     0.158 HD
ATOM     13  H3  UNL     1      95.572  46.372  64.471  1.00  0.00     0.162 HD
ENDBRANCH   6   7
ENDBRANCH   4   6
ENDBRANCH   2   3
BRANCH   2  14
HETATM   14  C5  UNL     1      90.072  45.989  63.336  1.00  0.00     0.256 C 
HETATM   15  O1  UNL     1      90.540  46.745  62.515  1.00  0.00    -0.305 OA
ENDBRANCH   2  14
ENDBRANCH   1   2
BRANCH   1  16
HETATM   16  C7  UNL     1      90.159  44.214  66.394  1.00  0.00    -0.056 A 
HETATM   17  C8  UNL     1      90.536  45.330  67.096  1.00  0.00     0.007 A 
HETATM   18  C9  UNL     1      90.328  45.436  68.477  1.00  0.00     0.007 A 
HETATM   19  C10 UNL     1      89.732  44.394  69.147  1.00  0.00    -0.056 A 
HETATM   20  C16 UNL     1      89.353  43.273  68.442  1.00  0.00     0.007 A 
HETATM   21  C17 UNL     1      89.566  43.183  67.068  1.00  0.00     0.007 A 
BRANCH  19  22
HETATM   22  C11 UNL     1      89.487  44.458  70.605  1.00  0.00     0.071 C 
BRANCH  22  23
HETATM   23  C12 UNL     1      88.677  45.714  70.865  1.00  0.00     0.190 C 
HETATM   24  C13 UNL     1      87.380  45.465  71.563  1.00  0.00     0.035 C 
HETATM   25  C14 UNL     1      87.656  45.564  73.047  1.00  0.00     0.029 C 
HETATM   26  C15 UNL     1      89.110  45.945  73.099  1.00  0.00     0.233 C 
HETATM   27  N5  UNL     1      89.383  46.566  71.807  1.00  0.00    -0.071 N 
ATOM     28  H52 UNL     1      90.374  46.694  71.601  1.00  0.00     0.277 HD
ATOM     29  H51 UNL     1      89.135  47.554  71.753  1.00  0.00     0.277 HD
ENDBRANCH  22  23
ENDBRANCH  19  22
ENDBRANCH   1  16
TORSDOF 8
ENDMDL
