MODEL 1
REMARK VINA RESULT: -7.396859670      0.000      0.000
REMARK  9 active torsions:
REMARK  status: ('A' for Active; 'I' for Inactive)
REMARK    1  A    between atoms: C2_2  and  C3_3 
REMARK    2  A    between atoms: C3_3  and  O1_4 
REMARK    3  A    between atoms: O1_4  and  C4_5 
REMARK    4  A    between atoms: C4_5  and  C5_6 
REMARK    5  A    between atoms: C5_6  and  N1_7 
REMARK    6  A    between atoms: C5_6  and  C7_10 
REMARK    7  A    between atoms: N1_7  and  O2_8 
REMARK    8  A    between atoms: C7_10  and  O4_12 
REMARK    9  A    between atoms: O4_12  and  C8_13 
ROOT
HETATM    1  C8  UNL     1     -33.103  43.385  65.910  1.00  0.00     0.141 C 
HETATM    2  C9  UNL     1     -32.381  42.628  64.732  1.00  0.00     0.043 C 
HETATM    3  C10 UNL     1     -31.707  43.734  63.923  1.00  0.00    -0.034 C 
HETATM    4  C11 UNL     1     -31.812  43.217  62.461  1.00  0.00     0.016 C 
HETATM    5  C12 UNL     1     -30.256  43.709  64.182  1.00  0.00    -0.010 C 
HETATM    6  C13 UNL     1     -29.746  44.012  65.536  1.00  0.00     0.011 C 
HETATM    7  C14 UNL     1     -29.426  44.411  63.110  1.00  0.00     0.008 C 
HETATM    8  C15 UNL     1     -29.265  45.872  63.254  1.00  0.00     0.041 C 
HETATM    9  C16 UNL     1     -30.208  46.580  62.346  1.00  0.00     0.082 A 
HETATM   10  C17 UNL     1     -31.557  46.874  62.883  1.00  0.00     0.041 C 
HETATM   11  C18 UNL     1     -31.881  46.278  64.214  1.00  0.00     0.009 C 
HETATM   12  C19 UNL     1     -32.502  44.916  64.121  1.00  0.00     0.004 C 
HETATM   13  C20 UNL     1     -33.497  44.627  65.236  1.00  0.00    -0.017 C 
HETATM   14  C21 UNL     1     -34.877  44.329  64.609  1.00  0.00     0.018 C 
HETATM   15  C22 UNL     1     -33.705  45.727  66.197  1.00  0.00     0.018 C 
HETATM   16  C23 UNL     1     -29.720  47.538  61.297  1.00  0.00     0.207 A 
HETATM   17  O5  UNL     1     -30.104  46.229  61.014  1.00  0.00    -0.375 OA
ENDROOT
BRANCH   1  18
HETATM   18  O4  UNL     1     -34.227  42.652  66.303  1.00  0.00    -0.314 OA
BRANCH  18  19
HETATM   19  C7  UNL     1     -34.422  41.574  67.029  1.00  0.00     0.283 C 
HETATM   20  O3  UNL     1     -34.107  41.603  68.268  1.00  0.00    -0.263 OA
BRANCH  19  21
HETATM   21  C5  UNL     1     -34.984  40.236  66.530  1.00  0.00     0.229 C 
BRANCH  21  22
HETATM   22  C4  UNL     1     -34.232  39.159  67.225  1.00  0.00     0.201 C 
BRANCH  22  23
HETATM   23  O1  UNL     1     -34.737  38.024  67.631  1.00  0.00    -0.389 OA
BRANCH  23  24
HETATM   24  C3  UNL     1     -35.720  37.334  67.100  1.00  0.00     0.167 C 
BRANCH  24  25
HETATM   25  C2  UNL     1     -35.847  35.897  67.455  1.00  0.00     0.022 C 
HETATM   26  C1  UNL     1     -34.563  35.476  68.218  1.00  0.00     0.007 C 
ENDBRANCH  24  25
ENDBRANCH  23  24
ENDBRANCH  22  23
ENDBRANCH  21  22
BRANCH  21  27
HETATM   27  N1  UNL     1     -34.578  40.167  65.093  1.00  0.00    -0.084 NA
BRANCH  27  28
HETATM   28  O2  UNL     1     -35.337  39.377  64.364  1.00  0.00    -0.291 OA
HETATM   29  C6  UNL     1     -35.021  39.654  63.007  1.00  0.00     0.231 C 
ENDBRANCH  27  28
ENDBRANCH  21  27
ENDBRANCH  19  21
ENDBRANCH  18  19
ENDBRANCH   1  18
TORSDOF 9
ENDMDL
MODEL 2
REMARK VINA RESULT: -7.373225848      1.878      3.561
REMARK  9 active torsions:
REMARK  status: ('A' for Active; 'I' for Inactive)
REMARK    1  A    between atoms: C2_2  and  C3_3 
REMARK    2  A    between atoms: C3_3  and  O1_4 
REMARK    3  A    between atoms: O1_4  and  C4_5 
REMARK    4  A    between atoms: C4_5  and  C5_6 
REMARK    5  A    between atoms: C5_6  and  N1_7 
REMARK    6  A    between atoms: C5_6  and  C7_10 
REMARK    7  A    between atoms: N1_7  and  O2_8 
REMARK    8  A    between atoms: C7_10  and  O4_12 
REMARK    9  A    between atoms: O4_12  and  C8_13 
ROOT
HETATM    1  C8  UNL     1     -32.291  45.118  64.069  1.00  0.00     0.141 C 
HETATM    2  C9  UNL     1     -31.503  46.372  64.604  1.00  0.00     0.043 C 
HETATM    3  C10 UNL     1     -30.139  46.285  63.923  1.00  0.00    -0.034 C 
HETATM    4  C11 UNL     1     -29.168  46.839  65.003  1.00  0.00     0.016 C 
HETATM    5  C12 UNL     1     -30.063  47.301  62.856  1.00  0.00    -0.010 C 
HETATM    6  C13 UNL     1     -30.961  47.204  61.685  1.00  0.00     0.011 C 
HETATM    7  C14 UNL     1     -28.638  47.646  62.433  1.00  0.00     0.008 C 
HETATM    8  C15 UNL     1     -28.022  46.766  61.419  1.00  0.00     0.041 C 
HETATM    9  C16 UNL     1     -27.108  45.794  62.077  1.00  0.00     0.082 A 
HETATM   10  C17 UNL     1     -27.708  44.518  62.533  1.00  0.00     0.041 C 
HETATM   11  C18 UNL     1     -29.196  44.418  62.436  1.00  0.00     0.009 C 
HETATM   12  C19 UNL     1     -29.905  44.889  63.671  1.00  0.00     0.004 C 
HETATM   13  C20 UNL     1     -31.204  44.143  63.945  1.00  0.00    -0.017 C 
HETATM   14  C21 UNL     1     -31.106  43.465  65.330  1.00  0.00     0.018 C 
HETATM   15  C22 UNL     1     -31.533  43.075  62.982  1.00  0.00     0.018 C 
HETATM   16  C23 UNL     1     -25.651  45.717  61.720  1.00  0.00     0.207 A 
HETATM   17  O5  UNL     1     -26.123  46.362  62.862  1.00  0.00    -0.375 OA
ENDROOT
BRANCH   1  18
HETATM   18  O4  UNL     1     -33.217  44.713  65.035  1.00  0.00    -0.314 OA
BRANCH  18  19
HETATM   19  C7  UNL     1     -34.487  44.374  65.017  1.00  0.00     0.283 C 
HETATM   20  O3  UNL     1     -35.370  45.299  65.033  1.00  0.00    -0.263 OA
BRANCH  19  21
HETATM   21  C5  UNL     1     -35.041  42.943  65.001  1.00  0.00     0.229 C 
BRANCH  21  22
HETATM   22  C4  UNL     1     -34.444  42.229  66.160  1.00  0.00     0.201 C 
BRANCH  22  23
HETATM   23  O1  UNL     1     -35.000  41.239  66.807  1.00  0.00    -0.389 OA
BRANCH  23  24
HETATM   24  C3  UNL     1     -34.764  39.952  66.687  1.00  0.00     0.167 C 
BRANCH  24  25
HETATM   25  C2  UNL     1     -35.910  39.044  66.428  1.00  0.00     0.022 C 
HETATM   26  C1  UNL     1     -35.599  37.679  67.097  1.00  0.00     0.007 C 
ENDBRANCH  24  25
ENDBRANCH  23  24
ENDBRANCH  22  23
ENDBRANCH  21  22
BRANCH  21  27
HETATM   27  N1  UNL     1     -34.448  42.321  63.779  1.00  0.00    -0.084 NA
BRANCH  27  28
HETATM   28  O2  UNL     1     -35.332  41.738  62.997  1.00  0.00    -0.291 OA
HETATM   29  C6  UNL     1     -34.991  40.359  62.960  1.00  0.00     0.231 C 
ENDBRANCH  27  28
ENDBRANCH  21  27
ENDBRANCH  19  21
ENDBRANCH  18  19
ENDBRANCH   1  18
TORSDOF 9
ENDMDL
MODEL 3
REMARK VINA RESULT: -7.359057422      2.381      3.649
REMARK  9 active torsions:
REMARK  status: ('A' for Active; 'I' for Inactive)
REMARK    1  A    between atoms: C2_2  and  C3_3 
REMARK    2  A    between atoms: C3_3  and  O1_4 
REMARK    3  A    between atoms: O1_4  and  C4_5 
REMARK    4  A    between atoms: C4_5  and  C5_6 
REMARK    5  A    between atoms: C5_6  and  N1_7 
REMARK    6  A    between atoms: C5_6  and  C7_10 
REMARK    7  A    between atoms: N1_7  and  O2_8 
REMARK    8  A    between atoms: C7_10  and  O4_12 
REMARK    9  A    between atoms: O4_12  and  C8_13 
ROOT
HETATM    1  C8  UNL     1     -31.131  45.041  63.913  1.00  0.00     0.141 C 
HETATM    2  C9  UNL     1     -30.224  43.767  63.722  1.00  0.00     0.043 C 
HETATM    3  C10 UNL     1     -28.907  44.314  63.177  1.00  0.00    -0.034 C 
HETATM    4  C11 UNL     1     -28.434  43.196  62.206  1.00  0.00     0.016 C 
HETATM    5  C12 UNL     1     -27.889  44.280  64.243  1.00  0.00    -0.010 C 
HETATM    6  C13 UNL     1     -28.058  45.122  65.447  1.00  0.00     0.011 C 
HETATM    7  C14 UNL     1     -26.453  44.335  63.728  1.00  0.00     0.008 C 
HETATM    8  C15 UNL     1     -25.901  45.679  63.463  1.00  0.00     0.041 C 
HETATM    9  C16 UNL     1     -25.956  45.974  62.005  1.00  0.00     0.082 A 
HETATM   10  C17 UNL     1     -27.199  46.600  61.498  1.00  0.00     0.041 C 
HETATM   11  C18 UNL     1     -28.325  46.713  62.473  1.00  0.00     0.009 C 
HETATM   12  C19 UNL     1     -29.237  45.521  62.469  1.00  0.00     0.004 C 
HETATM   13  C20 UNL     1     -30.685  45.865  62.786  1.00  0.00    -0.017 C 
HETATM   14  C21 UNL     1     -31.571  45.439  61.595  1.00  0.00     0.018 C 
HETATM   15  C22 UNL     1     -30.957  47.298  63.015  1.00  0.00     0.018 C 
HETATM   16  C23 UNL     1     -24.717  46.296  61.220  1.00  0.00     0.207 A 
HETATM   17  O5  UNL     1     -25.326  45.044  61.200  1.00  0.00    -0.375 OA
ENDROOT
BRANCH   1  18
HETATM   18  O4  UNL     1     -32.472  44.674  63.765  1.00  0.00    -0.314 OA
BRANCH  18  19
HETATM   19  C7  UNL     1     -33.351  44.053  64.518  1.00  0.00     0.283 C 
HETATM   20  O3  UNL     1     -33.941  44.711  65.443  1.00  0.00    -0.263 OA
BRANCH  19  21
HETATM   21  C5  UNL     1     -33.743  42.573  64.420  1.00  0.00     0.229 C 
BRANCH  21  22
HETATM   22  C4  UNL     1     -32.923  41.835  65.416  1.00  0.00     0.201 C 
BRANCH  22  23
HETATM   23  O1  UNL     1     -33.233  40.682  65.947  1.00  0.00    -0.389 OA
BRANCH  23  24
HETATM   24  C3  UNL     1     -34.417  40.246  66.315  1.00  0.00     0.167 C 
BRANCH  24  25
HETATM   25  C2  UNL     1     -35.019  39.116  65.563  1.00  0.00     0.022 C 
HETATM   26  C1  UNL     1     -36.039  38.410  66.494  1.00  0.00     0.007 C 
ENDBRANCH  24  25
ENDBRANCH  23  24
ENDBRANCH  22  23
ENDBRANCH  21  22
BRANCH  21  27
HETATM   27  N1  UNL     1     -33.254  42.139  63.076  1.00  0.00    -0.084 NA
BRANCH  27  28
HETATM   28  O2  UNL     1     -33.853  41.062  62.614  1.00  0.00    -0.291 OA
HETATM   29  C6  UNL     1     -35.240  41.364  62.559  1.00  0.00     0.231 C 
ENDBRANCH  27  28
ENDBRANCH  21  27
ENDBRANCH  19  21
ENDBRANCH  18  19
ENDBRANCH   1  18
TORSDOF 9
ENDMDL
MODEL 4
REMARK VINA RESULT: -7.347320192      1.525      2.208
REMARK  9 active torsions:
REMARK  status: ('A' for Active; 'I' for Inactive)
REMARK    1  A    between atoms: C2_2  and  C3_3 
REMARK    2  A    between atoms: C3_3  and  O1_4 
REMARK    3  A    between atoms: O1_4  and  C4_5 
REMARK    4  A    between atoms: C4_5  and  C5_6 
REMARK    5  A    between atoms: C5_6  and  N1_7 
REMARK    6  A    between atoms: C5_6  and  C7_10 
REMARK    7  A    between atoms: N1_7  and  O2_8 
REMARK    8  A    between atoms: C7_10  and  O4_12 
REMARK    9  A    between atoms: O4_12  and  C8_13 
ROOT
HETATM    1  C8  UNL     1     -32.974  43.537  66.039  1.00  0.00     0.141 C 
HETATM    2  C9  UNL     1     -32.369  42.668  64.873  1.00  0.00     0.043 C 
HETATM    3  C10 UNL     1     -31.794  43.689  63.894  1.00  0.00    -0.034 C 
HETATM    4  C11 UNL     1     -32.043  43.030  62.508  1.00  0.00     0.016 C 
HETATM    5  C12 UNL     1     -30.324  43.691  64.001  1.00  0.00    -0.010 C 
HETATM    6  C13 UNL     1     -29.680  44.125  65.259  1.00  0.00     0.011 C 
HETATM    7  C14 UNL     1     -29.616  44.284  62.786  1.00  0.00     0.008 C 
HETATM    8  C15 UNL     1     -29.457  45.752  62.768  1.00  0.00     0.041 C 
HETATM    9  C16 UNL     1     -30.496  46.366  61.897  1.00  0.00     0.082 A 
HETATM   10  C17 UNL     1     -31.786  46.711  62.540  1.00  0.00     0.041 C 
HETATM   11  C18 UNL     1     -31.964  46.249  63.950  1.00  0.00     0.009 C 
HETATM   12  C19 UNL     1     -32.577  44.884  64.055  1.00  0.00     0.004 C 
HETATM   13  C20 UNL     1     -33.448  44.706  65.291  1.00  0.00    -0.017 C 
HETATM   14  C21 UNL     1     -34.882  44.347  64.842  1.00  0.00     0.018 C 
HETATM   15  C22 UNL     1     -33.568  45.896  66.155  1.00  0.00     0.018 C 
HETATM   16  C23 UNL     1     -30.129  47.216  60.714  1.00  0.00     0.207 A 
HETATM   17  O5  UNL     1     -30.526  45.885  60.603  1.00  0.00    -0.375 OA
ENDROOT
BRANCH   1  18
HETATM   18  O4  UNL     1     -34.043  42.846  66.617  1.00  0.00    -0.314 OA
BRANCH  18  19
HETATM   19  C7  UNL     1     -34.412  42.573  67.848  1.00  0.00     0.283 C 
HETATM   20  O3  UNL     1     -34.040  43.356  68.789  1.00  0.00    -0.263 OA
BRANCH  19  21
HETATM   21  C5  UNL     1     -35.250  41.368  68.296  1.00  0.00     0.229 C 
BRANCH  21  22
HETATM   22  C4  UNL     1     -35.168  40.351  67.214  1.00  0.00     0.201 C 
BRANCH  22  23
HETATM   23  O1  UNL     1     -36.142  39.565  66.840  1.00  0.00    -0.389 OA
BRANCH  23  24
HETATM   24  C3  UNL     1     -36.108  38.268  66.634  1.00  0.00     0.167 C 
BRANCH  24  25
HETATM   25  C2  UNL     1     -35.039  37.475  67.292  1.00  0.00     0.022 C 
HETATM   26  C1  UNL     1     -35.577  36.037  67.515  1.00  0.00     0.007 C 
ENDBRANCH  24  25
ENDBRANCH  23  24
ENDBRANCH  22  23
ENDBRANCH  21  22
BRANCH  21  27
HETATM   27  N1  UNL     1     -36.659  41.864  68.294  1.00  0.00    -0.084 NA
BRANCH  27  28
HETATM   28  O2  UNL     1     -37.088  42.253  69.476  1.00  0.00    -0.291 OA
HETATM   29  C6  UNL     1     -38.276  42.998  69.250  1.00  0.00     0.231 C 
ENDBRANCH  27  28
ENDBRANCH  21  27
ENDBRANCH  19  21
ENDBRANCH  18  19
ENDBRANCH   1  18
TORSDOF 9
ENDMDL
MODEL 5
REMARK VINA RESULT: -7.303210815      1.771      3.015
REMARK  9 active torsions:
REMARK  status: ('A' for Active; 'I' for Inactive)
REMARK    1  A    between atoms: C2_2  and  C3_3 
REMARK    2  A    between atoms: C3_3  and  O1_4 
REMARK    3  A    between atoms: O1_4  and  C4_5 
REMARK    4  A    between atoms: C4_5  and  C5_6 
REMARK    5  A    between atoms: C5_6  and  N1_7 
REMARK    6  A    between atoms: C5_6  and  C7_10 
REMARK    7  A    between atoms: N1_7  and  O2_8 
REMARK    8  A    between atoms: C7_10  and  O4_12 
REMARK    9  A    between atoms: O4_12  and  C8_13 
ROOT
HETATM    1  C8  UNL     1     -30.818  43.796  65.034  1.00  0.00     0.141 C 
HETATM    2  C9  UNL     1     -29.370  43.258  64.727  1.00  0.00     0.043 C 
HETATM    3  C10 UNL     1     -28.784  44.273  63.749  1.00  0.00    -0.034 C 
HETATM    4  C11 UNL     1     -27.900  43.398  62.817  1.00  0.00     0.016 C 
HETATM    5  C12 UNL     1     -27.797  45.112  64.452  1.00  0.00    -0.010 C 
HETATM    6  C13 UNL     1     -28.238  46.006  65.543  1.00  0.00     0.011 C 
HETATM    7  C14 UNL     1     -26.813  45.818  63.523  1.00  0.00     0.008 C 
HETATM    8  C15 UNL     1     -27.258  47.104  62.948  1.00  0.00     0.041 C 
HETATM    9  C16 UNL     1     -27.731  46.900  61.552  1.00  0.00     0.082 A 
HETATM   10  C17 UNL     1     -29.161  46.552  61.376  1.00  0.00     0.041 C 
HETATM   11  C18 UNL     1     -29.931  46.277  62.627  1.00  0.00     0.009 C 
HETATM   12  C19 UNL     1     -29.901  44.834  63.038  1.00  0.00     0.004 C 
HETATM   13  C20 UNL     1     -31.174  44.378  63.737  1.00  0.00    -0.017 C 
HETATM   14  C21 UNL     1     -31.799  43.219  62.928  1.00  0.00     0.018 C 
HETATM   15  C22 UNL     1     -32.224  45.406  63.869  1.00  0.00     0.018 C 
HETATM   16  C23 UNL     1     -27.110  47.631  60.396  1.00  0.00     0.207 A 
HETATM   17  O5  UNL     1     -26.813  46.306  60.709  1.00  0.00    -0.375 OA
ENDROOT
BRANCH   1  18
HETATM   18  O4  UNL     1     -31.651  42.716  65.343  1.00  0.00    -0.314 OA
BRANCH  18  19
HETATM   19  C7  UNL     1     -32.476  42.434  66.326  1.00  0.00     0.283 C 
HETATM   20  O3  UNL     1     -32.050  42.522  67.529  1.00  0.00    -0.263 OA
BRANCH  19  21
HETATM   21  C5  UNL     1     -33.933  41.974  66.182  1.00  0.00     0.229 C 
BRANCH  21  22
HETATM   22  C4  UNL     1     -33.925  40.752  65.335  1.00  0.00     0.201 C 
BRANCH  22  23
HETATM   23  O1  UNL     1     -34.493  39.616  65.641  1.00  0.00    -0.389 OA
BRANCH  23  24
HETATM   24  C3  UNL     1     -35.308  39.355  66.638  1.00  0.00     0.167 C 
BRANCH  24  25
HETATM   25  C2  UNL     1     -36.171  38.150  66.549  1.00  0.00     0.022 C 
HETATM   26  C1  UNL     1     -35.451  36.988  67.283  1.00  0.00     0.007 C 
ENDBRANCH  24  25
ENDBRANCH  23  24
ENDBRANCH  22  23
ENDBRANCH  21  22
BRANCH  21  27
HETATM   27  N1  UNL     1     -34.588  43.041  65.366  1.00  0.00    -0.084 NA
BRANCH  27  28
HETATM   28  O2  UNL     1     -34.679  44.200  65.983  1.00  0.00    -0.291 OA
HETATM   29  C6  UNL     1     -35.722  44.919  65.339  1.00  0.00     0.231 C 
ENDBRANCH  27  28
ENDBRANCH  21  27
ENDBRANCH  19  21
ENDBRANCH  18  19
ENDBRANCH   1  18
TORSDOF 9
ENDMDL
