MODEL 1
REMARK VINA RESULT: -7.380159451      0.000      0.000
REMARK  10 active torsions:
REMARK  status: ('A' for Active; 'I' for Inactive)
REMARK    1  A    between atoms: C2_2  and  C3_3 
REMARK    2  A    between atoms: C2_2  and  C5_7 
REMARK    3  A    between atoms: C3_3  and  C4_4 
REMARK    4  A    between atoms: C6_9  and  O4_10 
REMARK    5  A    between atoms: C8_13  and  O5_14 
REMARK    6  A    between atoms: C8_13  and  C9_16 
REMARK    7  A    between atoms: C9_16  and  C11_18 
REMARK    8  A    between atoms: C11_18  and  C12_19 
REMARK    9  A    between atoms: C12_19  and  C13_20 
REMARK   10  A    between atoms: C19_27  and  O7_29 
ROOT
HETATM    1  C5  UNL     1     -10.599   5.900 -23.162  1.00  0.00     0.163 C 
HETATM    2  O3  UNL     1     -10.732   4.769 -22.313  1.00  0.00    -0.344 OA
HETATM    3  C6  UNL     1     -10.328   3.717 -23.097  1.00  0.00     0.170 C 
HETATM    4  C7  UNL     1      -9.110   2.985 -22.582  1.00  0.00     0.107 C 
HETATM    5  C8  UNL     1      -7.914   3.492 -23.331  1.00  0.00     0.071 C 
HETATM    6  C25 UNL     1      -8.438   4.629 -24.237  1.00  0.00     0.042 A 
HETATM    7  C26 UNL     1      -9.765   4.416 -24.293  1.00  0.00     0.067 A 
HETATM    8  C27 UNL     1      -9.264   5.685 -23.739  1.00  0.00     0.002 A 
HETATM    9  C28 UNL     1      -8.705   6.920 -24.188  1.00  0.00     0.019 C 
ENDROOT
BRANCH   5  10
HETATM   10  O5  UNL     1      -6.986   3.958 -22.432  1.00  0.00    -0.389 OA
ATOM     11  H5  UNL     1      -6.194   4.197 -22.899  1.00  0.00     0.210 HD
ENDBRANCH   5  10
BRANCH   5  12
HETATM   12  C9  UNL     1      -7.238   2.459 -24.200  1.00  0.00     0.016 C 
HETATM   13  C10 UNL     1      -7.381   1.086 -23.574  1.00  0.00     0.013 C 
BRANCH  12  14
HETATM   14  C11 UNL     1      -5.783   2.793 -24.433  1.00  0.00     0.007 C 
BRANCH  14  15
HETATM   15  C12 UNL     1      -5.442   3.230 -25.805  1.00  0.00     0.006 C 
BRANCH  15  16
HETATM   16  C13 UNL     1      -4.183   4.023 -25.968  1.00  0.00    -0.003 C 
HETATM   17  C14 UNL     1      -2.943   3.178 -26.045  1.00  0.00    -0.013 C 
HETATM   18  C15 UNL     1      -1.782   3.767 -25.259  1.00  0.00     0.010 C 
HETATM   19  C16 UNL     1      -2.533   2.760 -27.411  1.00  0.00     0.017 C 
HETATM   20  C17 UNL     1      -3.540   3.002 -28.474  1.00  0.00     0.067 C 
HETATM   21  C18 UNL     1      -2.877   3.352 -29.765  1.00  0.00     0.165 C 
HETATM   22  C21 UNL     1      -4.153   4.368 -28.470  1.00  0.00     0.047 C 
HETATM   23  O6  UNL     1      -2.397   2.746 -30.706  1.00  0.00    -0.294 OA
HETATM   24  C19 UNL     1      -3.073   4.798 -29.376  1.00  0.00     0.120 C 
HETATM   25  C20 UNL     1      -3.546   5.553 -30.605  1.00  0.00     0.055 C 
HETATM   26  C22 UNL     1      -4.292   4.996 -27.126  1.00  0.00    -0.036 C 
HETATM   27  C23 UNL     1      -3.405   6.207 -26.922  1.00  0.00     0.015 C 
HETATM   28  C24 UNL     1      -5.716   5.584 -27.065  1.00  0.00     0.015 C 
BRANCH  24  29
HETATM   29  O7  UNL     1      -1.906   5.308 -28.911  1.00  0.00    -0.382 OA
ATOM     30  H7  UNL     1      -1.206   5.112 -29.521  1.00  0.00     0.211 HD
ENDBRANCH  24  29
ENDBRANCH  15  16
ENDBRANCH  14  15
ENDBRANCH  12  14
ENDBRANCH   5  12
BRANCH   3  31
HETATM   31  O4  UNL     1     -11.369   2.856 -23.428  1.00  0.00    -0.365 OA
ATOM     32  H4  UNL     1     -11.538   2.204 -22.758  1.00  0.00     0.213 HD
ENDBRANCH   3  31
BRANCH   1  33
HETATM   33  C2  UNL     1     -10.624   7.059 -22.185  1.00  0.00    -0.050 C 
HETATM   34  C1  UNL     1      -9.853   6.937 -21.144  1.00  0.00     0.017 C 
BRANCH  33  35
HETATM   35  C3  UNL     1     -11.489   8.204 -22.462  1.00  0.00     0.149 C 
BRANCH  35  36
HETATM   36  C4  UNL     1     -11.157   9.523 -22.003  1.00  0.00     0.176 C 
HETATM   37  O1  UNL     1     -11.531  10.130 -20.981  1.00  0.00    -0.648 OA
HETATM   38  O2  UNL     1     -10.266  10.263 -22.834  1.00  0.00    -0.648 OA
ENDBRANCH  35  36
ENDBRANCH  33  35
ENDBRANCH   1  33
TORSDOF 10
ENDMDL
MODEL 2
REMARK VINA RESULT: -7.231975518      4.108      9.491
REMARK  10 active torsions:
REMARK  status: ('A' for Active; 'I' for Inactive)
REMARK    1  A    between atoms: C2_2  and  C3_3 
REMARK    2  A    between atoms: C2_2  and  C5_7 
REMARK    3  A    between atoms: C3_3  and  C4_4 
REMARK    4  A    between atoms: C6_9  and  O4_10 
REMARK    5  A    between atoms: C8_13  and  O5_14 
REMARK    6  A    between atoms: C8_13  and  C9_16 
REMARK    7  A    between atoms: C9_16  and  C11_18 
REMARK    8  A    between atoms: C11_18  and  C12_19 
REMARK    9  A    between atoms: C12_19  and  C13_20 
REMARK   10  A    between atoms: C19_27  and  O7_29 
ROOT
HETATM    1  C5  UNL     1      -7.845   4.423 -22.994  1.00  0.00     0.163 C 
HETATM    2  O3  UNL     1      -8.999   4.709 -22.217  1.00  0.00    -0.344 OA
HETATM    3  C6  UNL     1      -8.986   6.076 -22.094  1.00  0.00     0.170 C 
HETATM    4  C7  UNL     1     -10.181   6.771 -22.706  1.00  0.00     0.107 C 
HETATM    5  C8  UNL     1      -9.779   7.280 -24.058  1.00  0.00     0.071 C 
HETATM    6  C25 UNL     1      -8.335   6.776 -24.283  1.00  0.00     0.042 A 
HETATM    7  C26 UNL     1      -7.902   6.465 -23.048  1.00  0.00     0.067 A 
HETATM    8  C27 UNL     1      -7.960   5.411 -24.075  1.00  0.00     0.002 A 
HETATM    9  C28 UNL     1      -7.240   4.981 -25.230  1.00  0.00     0.019 C 
ENDROOT
BRANCH   5  10
HETATM   10  O5  UNL     1     -10.638   6.773 -25.002  1.00  0.00    -0.389 OA
ATOM     11  H5  UNL     1     -10.179   6.699 -25.831  1.00  0.00     0.210 HD
ENDBRANCH   5  10
BRANCH   5  12
HETATM   12  C9  UNL     1      -9.787   8.785 -24.185  1.00  0.00     0.016 C 
HETATM   13  C10 UNL     1     -10.523   9.397 -23.009  1.00  0.00     0.013 C 
BRANCH  12  14
HETATM   14  C11 UNL     1     -10.400   9.229 -25.492  1.00  0.00     0.007 C 
BRANCH  14  15
HETATM   15  C12 UNL     1     -11.351  10.359 -25.398  1.00  0.00     0.006 C 
BRANCH  15  16
HETATM   16  C13 UNL     1     -12.586  10.274 -26.239  1.00  0.00    -0.003 C 
HETATM   17  C14 UNL     1     -12.865   8.893 -26.762  1.00  0.00    -0.013 C 
HETATM   18  C15 UNL     1     -13.341   8.898 -28.207  1.00  0.00     0.010 C 
HETATM   19  C16 UNL     1     -13.723   8.039 -25.899  1.00  0.00     0.017 C 
HETATM   20  C17 UNL     1     -13.959   8.561 -24.531  1.00  0.00     0.067 C 
HETATM   21  C18 UNL     1     -15.329   8.206 -24.054  1.00  0.00     0.165 C 
HETATM   22  C21 UNL     1     -14.360  10.003 -24.460  1.00  0.00     0.047 C 
HETATM   23  O6  UNL     1     -15.857   7.251 -23.511  1.00  0.00    -0.294 OA
HETATM   24  C19 UNL     1     -15.763   9.564 -24.551  1.00  0.00     0.120 C 
HETATM   25  C20 UNL     1     -16.681  10.173 -23.505  1.00  0.00     0.055 C 
HETATM   26  C22 UNL     1     -13.781  10.873 -25.523  1.00  0.00    -0.036 C 
HETATM   27  C23 UNL     1     -14.807  11.407 -26.502  1.00  0.00     0.015 C 
HETATM   28  C24 UNL     1     -13.270  12.143 -24.815  1.00  0.00     0.015 C 
BRANCH  24  29
HETATM   29  O7  UNL     1     -16.399   9.434 -25.740  1.00  0.00    -0.382 OA
ATOM     30  H7  UNL     1     -16.634  10.292 -26.073  1.00  0.00     0.211 HD
ENDBRANCH  24  29
ENDBRANCH  15  16
ENDBRANCH  14  15
ENDBRANCH  12  14
ENDBRANCH   5  12
BRANCH   3  31
HETATM   31  O4  UNL     1      -8.727   6.502 -20.796  1.00  0.00    -0.365 OA
ATOM     32  H4  UNL     1      -8.338   7.368 -20.761  1.00  0.00     0.213 HD
ENDBRANCH   3  31
BRANCH   1  33
HETATM   33  C2  UNL     1      -8.104   3.009 -23.475  1.00  0.00    -0.050 C 
HETATM   34  C1  UNL     1      -7.062   2.233 -23.536  1.00  0.00     0.017 C 
BRANCH  33  35
HETATM   35  C3  UNL     1      -9.466   2.619 -23.833  1.00  0.00     0.149 C 
BRANCH  35  36
HETATM   36  C4  UNL     1     -10.194   1.646 -23.067  1.00  0.00     0.176 C 
HETATM   37  O1  UNL     1      -9.820   0.942 -22.110  1.00  0.00    -0.648 OA
HETATM   38  O2  UNL     1     -11.552   1.446 -23.450  1.00  0.00    -0.648 OA
ENDBRANCH  35  36
ENDBRANCH  33  35
ENDBRANCH   1  33
TORSDOF 10
ENDMDL
MODEL 3
REMARK VINA RESULT: -7.161201469      3.816      8.802
REMARK  10 active torsions:
REMARK  status: ('A' for Active; 'I' for Inactive)
REMARK    1  A    between atoms: C2_2  and  C3_3 
REMARK    2  A    between atoms: C2_2  and  C5_7 
REMARK    3  A    between atoms: C3_3  and  C4_4 
REMARK    4  A    between atoms: C6_9  and  O4_10 
REMARK    5  A    between atoms: C8_13  and  O5_14 
REMARK    6  A    between atoms: C8_13  and  C9_16 
REMARK    7  A    between atoms: C9_16  and  C11_18 
REMARK    8  A    between atoms: C11_18  and  C12_19 
REMARK    9  A    between atoms: C12_19  and  C13_20 
REMARK   10  A    between atoms: C19_27  and  O7_29 
ROOT
HETATM    1  C5  UNL     1      -9.275   3.645 -22.603  1.00  0.00     0.163 C 
HETATM    2  O3  UNL     1     -10.375   3.749 -23.496  1.00  0.00    -0.344 OA
HETATM    3  C6  UNL     1     -11.034   4.879 -23.080  1.00  0.00     0.170 C 
HETATM    4  C7  UNL     1     -11.095   5.983 -24.111  1.00  0.00     0.107 C 
HETATM    5  C8  UNL     1     -10.013   6.972 -23.795  1.00  0.00     0.071 C 
HETATM    6  C25 UNL     1      -9.231   6.372 -22.604  1.00  0.00     0.042 A 
HETATM    7  C26 UNL     1     -10.072   5.455 -22.091  1.00  0.00     0.067 A 
HETATM    8  C27 UNL     1      -8.761   5.021 -22.602  1.00  0.00     0.002 A 
HETATM    9  C28 UNL     1      -7.385   5.044 -22.219  1.00  0.00     0.019 C 
ENDROOT
BRANCH   5  10
HETATM   10  O5  UNL     1      -9.207   7.122 -24.897  1.00  0.00    -0.389 OA
ATOM     11  H5  UNL     1      -8.728   6.315 -25.043  1.00  0.00     0.210 HD
ENDBRANCH   5  10
BRANCH   5  12
HETATM   12  C9  UNL     1     -10.515   8.340 -23.398  1.00  0.00     0.016 C 
HETATM   13  C10 UNL     1     -12.000   8.277 -23.097  1.00  0.00     0.013 C 
BRANCH  12  14
HETATM   14  C11 UNL     1     -10.227   9.370 -24.466  1.00  0.00     0.007 C 
BRANCH  14  15
HETATM   15  C12 UNL     1     -11.377  10.209 -24.868  1.00  0.00     0.006 C 
BRANCH  15  16
HETATM   16  C13 UNL     1     -11.741  10.206 -26.320  1.00  0.00    -0.003 C 
HETATM   17  C14 UNL     1     -11.408   8.919 -27.022  1.00  0.00    -0.013 C 
HETATM   18  C15 UNL     1     -10.826   9.142 -28.409  1.00  0.00     0.010 C 
HETATM   19  C16 UNL     1     -12.485   7.894 -27.030  1.00  0.00     0.017 C 
HETATM   20  C17 UNL     1     -13.627   8.171 -26.124  1.00  0.00     0.067 C 
HETATM   21  C18 UNL     1     -14.906   7.677 -26.713  1.00  0.00     0.165 C 
HETATM   22  C21 UNL     1     -14.180   9.560 -26.203  1.00  0.00     0.047 C 
HETATM   23  O6  UNL     1     -15.514   6.621 -26.749  1.00  0.00    -0.294 OA
HETATM   24  C19 UNL     1     -15.105   9.076 -27.243  1.00  0.00     0.120 C 
HETATM   25  C20 UNL     1     -16.557   9.459 -27.020  1.00  0.00     0.055 C 
HETATM   26  C22 UNL     1     -13.185  10.621 -26.527  1.00  0.00    -0.036 C 
HETATM   27  C23 UNL     1     -13.392  11.261 -27.884  1.00  0.00     0.015 C 
HETATM   28  C24 UNL     1     -13.447  11.779 -25.543  1.00  0.00     0.015 C 
BRANCH  24  29
HETATM   29  O7  UNL     1     -14.788   9.116 -28.560  1.00  0.00    -0.382 OA
ATOM     30  H7  UNL     1     -15.521   8.799 -29.075  1.00  0.00     0.211 HD
ENDBRANCH  24  29
ENDBRANCH  15  16
ENDBRANCH  14  15
ENDBRANCH  12  14
ENDBRANCH   5  12
BRANCH   3  31
HETATM   31  O4  UNL     1     -12.275   4.606 -22.514  1.00  0.00    -0.365 OA
ATOM     32  H4  UNL     1     -12.698   5.379 -22.158  1.00  0.00     0.213 HD
ENDBRANCH   3  31
BRANCH   1  33
HETATM   33  C2  UNL     1      -8.348   2.684 -23.322  1.00  0.00    -0.050 C 
HETATM   34  C1  UNL     1      -8.152   1.541 -22.732  1.00  0.00     0.017 C 
BRANCH  33  35
HETATM   35  C3  UNL     1      -7.749   3.089 -24.591  1.00  0.00     0.149 C 
BRANCH  35  36
HETATM   36  C4  UNL     1      -6.380   2.792 -24.904  1.00  0.00     0.176 C 
HETATM   37  O1  UNL     1      -5.375   3.527 -24.864  1.00  0.00    -0.648 OA
HETATM   38  O2  UNL     1      -6.116   1.456 -25.325  1.00  0.00    -0.648 OA
ENDBRANCH  35  36
ENDBRANCH  33  35
ENDBRANCH   1  33
TORSDOF 10
ENDMDL
MODEL 4
REMARK VINA RESULT: -7.137158761      3.898      8.517
REMARK  10 active torsions:
REMARK  status: ('A' for Active; 'I' for Inactive)
REMARK    1  A    between atoms: C2_2  and  C3_3 
REMARK    2  A    between atoms: C2_2  and  C5_7 
REMARK    3  A    between atoms: C3_3  and  C4_4 
REMARK    4  A    between atoms: C6_9  and  O4_10 
REMARK    5  A    between atoms: C8_13  and  O5_14 
REMARK    6  A    between atoms: C8_13  and  C9_16 
REMARK    7  A    between atoms: C9_16  and  C11_18 
REMARK    8  A    between atoms: C11_18  and  C12_19 
REMARK    9  A    between atoms: C12_19  and  C13_20 
REMARK   10  A    between atoms: C19_27  and  O7_29 
ROOT
HETATM    1  C5  UNL     1      -9.299   4.104 -24.165  1.00  0.00     0.163 C 
HETATM    2  O3  UNL     1      -8.160   4.951 -24.091  1.00  0.00    -0.344 OA
HETATM    3  C6  UNL     1      -8.664   6.205 -24.330  1.00  0.00     0.170 C 
HETATM    4  C7  UNL     1      -8.492   7.177 -23.185  1.00  0.00     0.107 C 
HETATM    5  C8  UNL     1      -9.783   7.230 -22.425  1.00  0.00     0.071 C 
HETATM    6  C25 UNL     1     -10.703   6.179 -23.086  1.00  0.00     0.042 A 
HETATM    7  C26 UNL     1     -10.139   5.963 -24.288  1.00  0.00     0.067 A 
HETATM    8  C27 UNL     1     -10.271   4.840 -23.345  1.00  0.00     0.002 A 
HETATM    9  C28 UNL     1     -11.275   3.958 -22.842  1.00  0.00     0.019 C 
ENDROOT
BRANCH   5  10
HETATM   10  O5  UNL     1      -9.542   6.924 -21.108  1.00  0.00    -0.389 OA
ATOM     11  H5  UNL     1     -10.021   7.530 -20.555  1.00  0.00     0.210 HD
ENDBRANCH   5  10
BRANCH   5  12
HETATM   12  C9  UNL     1     -10.478   8.571 -22.469  1.00  0.00     0.016 C 
HETATM   13  C10 UNL     1     -11.981   8.372 -22.461  1.00  0.00     0.013 C 
BRANCH  12  14
HETATM   14  C11 UNL     1     -10.050   9.380 -23.670  1.00  0.00     0.007 C 
BRANCH  14  15
HETATM   15  C12 UNL     1     -11.089  10.261 -24.248  1.00  0.00     0.006 C 
BRANCH  15  16
HETATM   16  C13 UNL     1     -11.189  10.298 -25.741  1.00  0.00    -0.003 C 
HETATM   17  C14 UNL     1     -10.617   9.081 -26.414  1.00  0.00    -0.013 C 
HETATM   18  C15 UNL     1      -9.824   9.423 -27.665  1.00  0.00     0.010 C 
HETATM   19  C16 UNL     1     -11.573   7.967 -26.649  1.00  0.00     0.017 C 
HETATM   20  C17 UNL     1     -12.877   8.097 -25.953  1.00  0.00     0.067 C 
HETATM   21  C18 UNL     1     -13.980   7.521 -26.778  1.00  0.00     0.165 C 
HETATM   22  C21 UNL     1     -13.538   9.434 -26.085  1.00  0.00     0.047 C 
HETATM   23  O6  UNL     1     -14.468   6.419 -26.958  1.00  0.00    -0.294 OA
HETATM   24  C19 UNL     1     -14.216   8.922 -27.289  1.00  0.00     0.120 C 
HETATM   25  C20 UNL     1     -15.714   9.164 -27.318  1.00  0.00     0.055 C 
HETATM   26  C22 UNL     1     -12.608  10.593 -26.190  1.00  0.00    -0.036 C 
HETATM   27  C23 UNL     1     -12.633  11.279 -27.540  1.00  0.00     0.015 C 
HETATM   28  C24 UNL     1     -13.149  11.674 -25.232  1.00  0.00     0.015 C 
BRANCH  24  29
HETATM   29  O7  UNL     1     -13.677   9.054 -28.526  1.00  0.00    -0.382 OA
ATOM     30  H7  UNL     1     -13.562   9.975 -28.728  1.00  0.00     0.211 HD
ENDBRANCH  24  29
ENDBRANCH  15  16
ENDBRANCH  14  15
ENDBRANCH  12  14
ENDBRANCH   5  12
BRANCH   3  31
HETATM   31  O4  UNL     1      -8.249   6.734 -25.547  1.00  0.00    -0.365 OA
ATOM     32  H4  UNL     1      -8.821   7.421 -25.868  1.00  0.00     0.213 HD
ENDBRANCH   3  31
BRANCH   1  33
HETATM   33  C2  UNL     1      -8.818   2.835 -23.489  1.00  0.00    -0.050 C 
HETATM   34  C1  UNL     1      -9.751   2.013 -23.105  1.00  0.00     0.017 C 
BRANCH  33  35
HETATM   35  C3  UNL     1      -7.384   2.622 -23.313  1.00  0.00     0.149 C 
BRANCH  35  36
HETATM   36  C4  UNL     1      -6.607   1.905 -24.284  1.00  0.00     0.176 C 
HETATM   37  O1  UNL     1      -6.072   0.783 -24.206  1.00  0.00    -0.648 OA
HETATM   38  O2  UNL     1      -6.409   2.566 -25.531  1.00  0.00    -0.648 OA
ENDBRANCH  35  36
ENDBRANCH  33  35
ENDBRANCH   1  33
TORSDOF 10
ENDMDL
MODEL 5
REMARK VINA RESULT: -7.097656803      2.283      4.812
REMARK  10 active torsions:
REMARK  status: ('A' for Active; 'I' for Inactive)
REMARK    1  A    between atoms: C2_2  and  C3_3 
REMARK    2  A    between atoms: C2_2  and  C5_7 
REMARK    3  A    between atoms: C3_3  and  C4_4 
REMARK    4  A    between atoms: C6_9  and  O4_10 
REMARK    5  A    between atoms: C8_13  and  O5_14 
REMARK    6  A    between atoms: C8_13  and  C9_16 
REMARK    7  A    between atoms: C9_16  and  C11_18 
REMARK    8  A    between atoms: C11_18  and  C12_19 
REMARK    9  A    between atoms: C12_19  and  C13_20 
REMARK   10  A    between atoms: C19_27  and  O7_29 
ROOT
HETATM    1  C5  UNL     1      -9.203   4.426 -22.656  1.00  0.00     0.163 C 
HETATM    2  O3  UNL     1      -9.811   5.554 -22.042  1.00  0.00    -0.344 OA
HETATM    3  C6  UNL     1      -8.881   6.553 -22.188  1.00  0.00     0.170 C 
HETATM    4  C7  UNL     1      -9.350   7.728 -23.015  1.00  0.00     0.107 C 
HETATM    5  C8  UNL     1      -8.812   7.561 -24.404  1.00  0.00     0.071 C 
HETATM    6  C25 UNL     1      -8.094   6.192 -24.413  1.00  0.00     0.042 A 
HETATM    7  C26 UNL     1      -7.889   5.923 -23.111  1.00  0.00     0.067 A 
HETATM    8  C27 UNL     1      -8.710   5.002 -23.915  1.00  0.00     0.002 A 
HETATM    9  C28 UNL     1      -8.548   3.985 -24.904  1.00  0.00     0.019 C 
ENDROOT
BRANCH   5  10
HETATM   10  O5  UNL     1      -9.856   7.582 -25.295  1.00  0.00    -0.389 OA
ATOM     11  H5  UNL     1     -10.464   8.268 -25.045  1.00  0.00     0.210 HD
ENDBRANCH   5  10
BRANCH   5  12
HETATM   12  C9  UNL     1      -7.824   8.623 -24.823  1.00  0.00     0.016 C 
HETATM   13  C10 UNL     1      -8.548   9.933 -25.065  1.00  0.00     0.013 C 
BRANCH  12  14
HETATM   14  C11 UNL     1      -7.044   8.207 -26.047  1.00  0.00     0.007 C 
BRANCH  14  15
HETATM   15  C12 UNL     1      -5.578   8.388 -25.962  1.00  0.00     0.006 C 
BRANCH  15  16
HETATM   16  C13 UNL     1      -4.738   7.152 -26.049  1.00  0.00    -0.003 C 
HETATM   17  C14 UNL     1      -5.392   6.031 -26.809  1.00  0.00    -0.013 C 
HETATM   18  C15 UNL     1      -5.175   4.676 -26.155  1.00  0.00     0.010 C 
HETATM   19  C16 UNL     1      -5.113   5.996 -28.268  1.00  0.00     0.017 C 
HETATM   20  C17 UNL     1      -4.458   7.209 -28.816  1.00  0.00     0.067 C 
HETATM   21  C18 UNL     1      -3.520   6.855 -29.922  1.00  0.00     0.165 C 
HETATM   22  C21 UNL     1      -3.278   7.702 -28.036  1.00  0.00     0.047 C 
HETATM   23  O6  UNL     1      -3.601   6.661 -31.122  1.00  0.00    -0.294 OA
HETATM   24  C19 UNL     1      -2.427   6.845 -28.880  1.00  0.00     0.120 C 
HETATM   25  C20 UNL     1      -1.215   7.546 -29.467  1.00  0.00     0.055 C 
HETATM   26  C22 UNL     1      -3.348   7.467 -26.566  1.00  0.00    -0.036 C 
HETATM   27  C23 UNL     1      -2.325   6.471 -26.057  1.00  0.00     0.015 C 
HETATM   28  C24 UNL     1      -2.924   8.788 -25.892  1.00  0.00     0.015 C 
BRANCH  24  29
HETATM   29  O7  UNL     1      -2.133   5.567 -28.538  1.00  0.00    -0.382 OA
ATOM     30  H7  UNL     1      -1.593   5.172 -29.212  1.00  0.00     0.211 HD
ENDBRANCH  24  29
ENDBRANCH  15  16
ENDBRANCH  14  15
ENDBRANCH  12  14
ENDBRANCH   5  12
BRANCH   3  31
HETATM   31  O4  UNL     1      -8.309   6.941 -20.981  1.00  0.00    -0.365 OA
ATOM     32  H4  UNL     1      -8.272   7.885 -20.876  1.00  0.00     0.213 HD
ENDBRANCH   3  31
BRANCH   1  33
HETATM   33  C2  UNL     1     -10.374   3.488 -22.871  1.00  0.00    -0.050 C 
HETATM   34  C1  UNL     1     -11.554   4.034 -22.812  1.00  0.00     0.017 C 
BRANCH  33  35
HETATM   35  C3  UNL     1     -10.115   2.072 -23.119  1.00  0.00     0.149 C 
BRANCH  35  36
HETATM   36  C4  UNL     1      -9.109   1.354 -22.389  1.00  0.00     0.176 C 
HETATM   37  O1  UNL     1      -7.871   1.496 -22.386  1.00  0.00    -0.648 OA
HETATM   38  O2  UNL     1      -9.584   0.317 -21.534  1.00  0.00    -0.648 OA
ENDBRANCH  35  36
ENDBRANCH  33  35
ENDBRANCH   1  33
TORSDOF 10
ENDMDL
