MODEL 1
REMARK VINA RESULT: -8.045046117      0.000      0.000
REMARK  8 active torsions:
REMARK  status: ('A' for Active; 'I' for Inactive)
REMARK    1  A    between atoms: C5_5  and  N1_6 
REMARK    2  A    between atoms: C9_12  and  C10_13 
REMARK       I    between atoms: C10_13  and  N3_15 
REMARK    3  A    between atoms: N3_15  and  C11_17 
REMARK    4  A    between atoms: C11_17  and  C12_18 
REMARK    5  A    between atoms: C12_18  and  C13_19 
REMARK    6  A    between atoms: C13_19  and  N4_20 
REMARK    7  A    between atoms: C18_27  and  N5_28 
REMARK    8  A    between atoms: C22_36  and  N7_37 
ROOT
HETATM    1  N1  UNL     1      19.306 -13.197  -2.743  1.00  0.00    -0.323 N 
HETATM    2  C6  UNL     1      19.453 -13.616  -4.001  1.00  0.00     0.185 A 
HETATM    3  N2  UNL     1      20.030 -12.657  -4.750  1.00  0.00    -0.349 N 
ATOM      4  H2  UNL     1      20.252 -12.730  -5.742  1.00  0.00     0.166 HD
HETATM    5  C7  UNL     1      20.269 -11.577  -3.965  1.00  0.00     0.079 A 
HETATM    6  C8  UNL     1      20.827 -10.333  -4.169  1.00  0.00     0.054 A 
HETATM    7  C9  UNL     1      20.919  -9.465  -3.109  1.00  0.00     0.077 A 
HETATM    8  C18 UNL     1      20.442  -9.870  -1.854  1.00  0.00     0.116 A 
HETATM    9  N6  UNL     1      19.902 -11.085  -1.688  1.00  0.00    -0.326 N 
ATOM     10  H6  UNL     1      19.560 -11.360  -0.767  1.00  0.00     0.169 HD
HETATM   11  C19 UNL     1      19.804 -11.952  -2.714  1.00  0.00     0.137 A 
ENDROOT
BRANCH   7  12
HETATM   12  C10 UNL     1      21.496  -8.122  -3.223  1.00  0.00     0.255 C 
HETATM   13  O1  UNL     1      22.707  -7.935  -2.935  1.00  0.00    -0.268 OA
HETATM   14  N3  UNL     1      20.730  -7.015  -3.640  1.00  0.00    -0.356 N 
ATOM     15  H3  UNL     1      19.748  -7.147  -3.882  1.00  0.00     0.162 HD
BRANCH  14  16
HETATM   16  C11 UNL     1      21.316  -5.695  -3.731  1.00  0.00     0.128 C 
BRANCH  16  17
HETATM   17  C12 UNL     1      20.402  -4.565  -3.512  1.00  0.00     0.064 C 
BRANCH  17  18
HETATM   18  C13 UNL     1      19.684  -4.044  -4.714  1.00  0.00     0.065 C 
BRANCH  18  19
HETATM   19  N4  UNL     1      18.337  -4.393  -4.875  1.00  0.00    -0.368 N 
HETATM   20  C14 UNL     1      17.543  -3.404  -5.511  1.00  0.00     0.133 C 
HETATM   21  C15 UNL     1      16.313  -3.209  -4.638  1.00  0.00     0.105 C 
HETATM   22  C16 UNL     1      16.415  -4.183  -3.512  1.00  0.00     0.277 C 
HETATM   23  F1  UNL     1      16.650  -3.556  -2.300  1.00  0.00    -0.200 F 
HETATM   24  F2  UNL     1      15.307  -5.012  -3.449  1.00  0.00    -0.200 F 
HETATM   25  C17 UNL     1      17.610  -5.042  -3.874  1.00  0.00     0.141 C 
ENDBRANCH  18  19
ENDBRANCH  17  18
ENDBRANCH  16  17
ENDBRANCH  14  16
ENDBRANCH   7  12
BRANCH   8  26
HETATM   26  N5  UNL     1      20.561  -9.012  -0.898  1.00  0.00    -0.385 N 
ATOM     27  H52 UNL     1      21.152  -8.183  -0.961  1.00  0.00     0.157 HD
ATOM     28  H51 UNL     1      20.022  -9.202  -0.054  1.00  0.00     0.157 HD
ENDBRANCH   8  26
BRANCH   1  29
HETATM   29  C5  UNL     1      18.741 -13.889  -1.650  1.00  0.00     0.093 C 
HETATM   30  C4  UNL     1      18.704 -15.330  -1.603  1.00  0.00     0.036 C 
HETATM   31  C2  UNL     1      17.408 -16.062  -1.770  1.00  0.00    -0.015 C 
HETATM   32  C1  UNL     1      17.723 -17.501  -1.293  1.00  0.00     0.017 C 
HETATM   33  C3  UNL     1      16.934 -16.160  -3.197  1.00  0.00     0.017 C 
HETATM   34  C22 UNL     1      16.368 -15.517  -0.821  1.00  0.00     0.230 C 
HETATM   35  C21 UNL     1      16.630 -14.143  -0.323  1.00  0.00     0.038 C 
HETATM   36  C20 UNL     1      17.322 -13.368  -1.432  1.00  0.00     0.028 C 
BRANCH  34  37
HETATM   37  N7  UNL     1      15.991 -16.480   0.153  1.00  0.00     0.093 N 
HETATM   38  C23 UNL     1      16.030 -16.148   1.516  1.00  0.00     0.273 C 
HETATM   39  C24 UNL     1      14.682 -15.592   1.912  1.00  0.00     0.032 C 
HETATM   40  C25 UNL     1      13.746 -16.200   0.914  1.00  0.00     0.032 C 
HETATM   41  C26 UNL     1      14.628 -16.978  -0.039  1.00  0.00     0.273 C 
ENDBRANCH  34  37
ENDBRANCH   1  29
TORSDOF 8
ENDMDL
MODEL 2
REMARK VINA RESULT: -7.794277632      1.329      1.551
REMARK  8 active torsions:
REMARK  status: ('A' for Active; 'I' for Inactive)
REMARK    1  A    between atoms: C5_5  and  N1_6 
REMARK    2  A    between atoms: C9_12  and  C10_13 
REMARK       I    between atoms: C10_13  and  N3_15 
REMARK    3  A    between atoms: N3_15  and  C11_17 
REMARK    4  A    between atoms: C11_17  and  C12_18 
REMARK    5  A    between atoms: C12_18  and  C13_19 
REMARK    6  A    between atoms: C13_19  and  N4_20 
REMARK    7  A    between atoms: C18_27  and  N5_28 
REMARK    8  A    between atoms: C22_36  and  N7_37 
ROOT
HETATM    1  N1  UNL     1      19.287 -13.105  -2.757  1.00  0.00    -0.323 N 
HETATM    2  C6  UNL     1      19.256 -13.459  -4.043  1.00  0.00     0.185 A 
HETATM    3  N2  UNL     1      19.904 -12.548  -4.794  1.00  0.00    -0.349 N 
ATOM      4  H2  UNL     1      20.024 -12.588  -5.806  1.00  0.00     0.166 HD
HETATM    5  C7  UNL     1      20.372 -11.568  -3.981  1.00  0.00     0.079 A 
HETATM    6  C8  UNL     1      21.094 -10.409  -4.175  1.00  0.00     0.054 A 
HETATM    7  C9  UNL     1      21.409  -9.634  -3.086  1.00  0.00     0.077 A 
HETATM    8  C18 UNL     1      20.989 -10.045  -1.813  1.00  0.00     0.116 A 
HETATM    9  N6  UNL     1      20.287 -11.177  -1.658  1.00  0.00    -0.326 N 
ATOM     10  H6  UNL     1      19.990 -11.458  -0.723  1.00  0.00     0.169 HD
HETATM   11  C19 UNL     1      19.968 -11.951  -2.713  1.00  0.00     0.137 A 
ENDROOT
BRANCH   7  12
HETATM   12  C10 UNL     1      22.172  -8.386  -3.186  1.00  0.00     0.255 C 
HETATM   13  O1  UNL     1      23.356  -8.340  -2.762  1.00  0.00    -0.268 OA
HETATM   14  N3  UNL     1      21.615  -7.216  -3.741  1.00  0.00    -0.356 N 
ATOM     15  H3  UNL     1      20.658  -7.234  -4.094  1.00  0.00     0.162 HD
BRANCH  14  16
HETATM   16  C11 UNL     1      22.380  -5.990  -3.817  1.00  0.00     0.128 C 
BRANCH  16  17
HETATM   17  C12 UNL     1      21.753  -4.879  -4.548  1.00  0.00     0.064 C 
BRANCH  17  18
HETATM   18  C13 UNL     1      20.607  -4.199  -3.874  1.00  0.00     0.065 C 
BRANCH  18  19
HETATM   19  N4  UNL     1      19.321  -4.418  -4.385  1.00  0.00    -0.368 N 
HETATM   20  C14 UNL     1      18.349  -4.762  -3.411  1.00  0.00     0.133 C 
HETATM   21  C15 UNL     1      17.640  -6.004  -3.926  1.00  0.00     0.105 C 
HETATM   22  C16 UNL     1      18.211  -6.309  -5.271  1.00  0.00     0.277 C 
HETATM   23  F1  UNL     1      18.973  -7.464  -5.265  1.00  0.00    -0.200 F 
HETATM   24  F2  UNL     1      17.228  -6.354  -6.247  1.00  0.00    -0.200 F 
HETATM   25  C17 UNL     1      19.102  -5.120  -5.572  1.00  0.00     0.141 C 
ENDBRANCH  18  19
ENDBRANCH  17  18
ENDBRANCH  16  17
ENDBRANCH  14  16
ENDBRANCH   7  12
BRANCH   8  26
HETATM   26  N5  UNL     1      21.321  -9.278  -0.831  1.00  0.00    -0.385 N 
ATOM     27  H52 UNL     1      20.783  -8.456  -0.556  1.00  0.00     0.157 HD
ATOM     28  H51 UNL     1      22.167  -9.539  -0.325  1.00  0.00     0.157 HD
ENDBRANCH   8  26
BRANCH   1  29
HETATM   29  C5  UNL     1      18.721 -13.776  -1.651  1.00  0.00     0.093 C 
HETATM   30  C4  UNL     1      18.688 -15.217  -1.575  1.00  0.00     0.036 C 
HETATM   31  C2  UNL     1      17.395 -15.956  -1.729  1.00  0.00    -0.015 C 
HETATM   32  C1  UNL     1      17.713 -17.383  -1.223  1.00  0.00     0.017 C 
HETATM   33  C3  UNL     1      16.924 -16.084  -3.154  1.00  0.00     0.017 C 
HETATM   34  C22 UNL     1      16.351 -15.394  -0.793  1.00  0.00     0.230 C 
HETATM   35  C21 UNL     1      16.609 -14.009  -0.322  1.00  0.00     0.038 C 
HETATM   36  C20 UNL     1      17.301 -13.255  -1.446  1.00  0.00     0.028 C 
BRANCH  34  37
HETATM   37  N7  UNL     1      15.975 -16.338   0.200  1.00  0.00     0.093 N 
HETATM   38  C23 UNL     1      15.980 -15.969   1.554  1.00  0.00     0.273 C 
HETATM   39  C24 UNL     1      14.613 -15.431   1.908  1.00  0.00     0.032 C 
HETATM   40  C25 UNL     1      13.710 -16.086   0.909  1.00  0.00     0.032 C 
HETATM   41  C26 UNL     1      14.628 -16.871  -0.005  1.00  0.00     0.273 C 
ENDBRANCH  34  37
ENDBRANCH   1  29
TORSDOF 8
ENDMDL
MODEL 3
REMARK VINA RESULT: -7.738578879      4.312     10.378
REMARK  8 active torsions:
REMARK  status: ('A' for Active; 'I' for Inactive)
REMARK    1  A    between atoms: C5_5  and  N1_6 
REMARK    2  A    between atoms: C9_12  and  C10_13 
REMARK       I    between atoms: C10_13  and  N3_15 
REMARK    3  A    between atoms: N3_15  and  C11_17 
REMARK    4  A    between atoms: C11_17  and  C12_18 
REMARK    5  A    between atoms: C12_18  and  C13_19 
REMARK    6  A    between atoms: C13_19  and  N4_20 
REMARK    7  A    between atoms: C18_27  and  N5_28 
REMARK    8  A    between atoms: C22_36  and  N7_37 
ROOT
HETATM    1  N1  UNL     1      19.512 -10.724  -1.767  1.00  0.00    -0.323 N 
HETATM    2  C6  UNL     1      18.973 -10.176  -0.677  1.00  0.00     0.185 A 
HETATM    3  N2  UNL     1      18.105 -11.032  -0.104  1.00  0.00    -0.349 N 
ATOM      4  H2  UNL     1      17.564 -10.853   0.741  1.00  0.00     0.166 HD
HETATM    5  C7  UNL     1      18.072 -12.173  -0.837  1.00  0.00     0.079 A 
HETATM    6  C8  UNL     1      17.393 -13.369  -0.740  1.00  0.00     0.054 A 
HETATM    7  C9  UNL     1      17.616 -14.337  -1.687  1.00  0.00     0.077 A 
HETATM    8  C18 UNL     1      18.529 -14.081  -2.721  1.00  0.00     0.116 A 
HETATM    9  N6  UNL     1      19.172 -12.907  -2.788  1.00  0.00    -0.326 N 
ATOM     10  H6  UNL     1      19.830 -12.740  -3.550  1.00  0.00     0.169 HD
HETATM   11  C19 UNL     1      18.967 -11.944  -1.870  1.00  0.00     0.137 A 
ENDROOT
BRANCH   7  12
HETATM   12  C10 UNL     1      16.946 -15.641  -1.672  1.00  0.00     0.255 C 
HETATM   13  O1  UNL     1      16.081 -15.911  -2.546  1.00  0.00    -0.268 OA
HETATM   14  N3  UNL     1      17.233 -16.615  -0.694  1.00  0.00    -0.356 N 
ATOM     15  H3  UNL     1      17.934 -16.417   0.020  1.00  0.00     0.162 HD
BRANCH  14  16
HETATM   16  C11 UNL     1      16.550 -17.890  -0.688  1.00  0.00     0.128 C 
BRANCH  16  17
HETATM   17  C12 UNL     1      15.878 -18.260   0.566  1.00  0.00     0.064 C 
BRANCH  17  18
HETATM   18  C13 UNL     1      14.400 -18.050   0.619  1.00  0.00     0.065 C 
BRANCH  18  19
HETATM   19  N4  UNL     1      13.924 -16.896   1.253  1.00  0.00    -0.368 N 
HETATM   20  C14 UNL     1      13.577 -15.839   0.372  1.00  0.00     0.133 C 
HETATM   21  C15 UNL     1      14.267 -14.591   0.901  1.00  0.00     0.105 C 
HETATM   22  C16 UNL     1      14.966 -14.976   2.162  1.00  0.00     0.277 C 
HETATM   23  F1  UNL     1      16.343 -14.963   2.019  1.00  0.00    -0.200 F 
HETATM   24  F2  UNL     1      14.558 -14.199   3.233  1.00  0.00    -0.200 F 
HETATM   25  C17 UNL     1      14.501 -16.396   2.423  1.00  0.00     0.141 C 
ENDBRANCH  18  19
ENDBRANCH  17  18
ENDBRANCH  16  17
ENDBRANCH  14  16
ENDBRANCH   7  12
BRANCH   8  26
HETATM   26  N5  UNL     1      18.699 -15.032  -3.575  1.00  0.00    -0.385 N 
ATOM     27  H52 UNL     1      18.316 -15.012  -4.520  1.00  0.00     0.157 HD
ATOM     28  H51 UNL     1      19.254 -15.827  -3.256  1.00  0.00     0.157 HD
ENDBRANCH   8  26
BRANCH   1  29
HETATM   29  C5  UNL     1      20.455 -10.161  -2.655  1.00  0.00     0.093 C 
HETATM   30  C4  UNL     1      21.848 -10.534  -2.617  1.00  0.00     0.036 C 
HETATM   31  C2  UNL     1      22.878  -9.574  -2.105  1.00  0.00    -0.015 C 
HETATM   32  C1  UNL     1      24.224 -10.182  -2.570  1.00  0.00     0.017 C 
HETATM   33  C3  UNL     1      22.931  -9.470  -0.604  1.00  0.00     0.017 C 
HETATM   34  C22 UNL     1      22.749  -8.241  -2.802  1.00  0.00     0.230 C 
HETATM   35  C21 UNL     1      21.424  -7.979  -3.419  1.00  0.00     0.038 C 
HETATM   36  C20 UNL     1      20.366  -8.640  -2.551  1.00  0.00     0.028 C 
BRANCH  34  37
HETATM   37  N7  UNL     1      23.886  -7.958  -3.606  1.00  0.00     0.093 N 
HETATM   38  C23 UNL     1      23.717  -7.553  -4.940  1.00  0.00     0.273 C 
HETATM   39  C24 UNL     1      23.631  -6.045  -4.974  1.00  0.00     0.032 C 
HETATM   40  C25 UNL     1      24.368  -5.624  -3.741  1.00  0.00     0.032 C 
HETATM   41  C26 UNL     1      24.738  -6.912  -3.037  1.00  0.00     0.273 C 
ENDBRANCH  34  37
ENDBRANCH   1  29
TORSDOF 8
ENDMDL
MODEL 4
REMARK VINA RESULT: -7.617072190      4.078     10.285
REMARK  8 active torsions:
REMARK  status: ('A' for Active; 'I' for Inactive)
REMARK    1  A    between atoms: C5_5  and  N1_6 
REMARK    2  A    between atoms: C9_12  and  C10_13 
REMARK       I    between atoms: C10_13  and  N3_15 
REMARK    3  A    between atoms: N3_15  and  C11_17 
REMARK    4  A    between atoms: C11_17  and  C12_18 
REMARK    5  A    between atoms: C12_18  and  C13_19 
REMARK    6  A    between atoms: C13_19  and  N4_20 
REMARK    7  A    between atoms: C18_27  and  N5_28 
REMARK    8  A    between atoms: C22_36  and  N7_37 
ROOT
HETATM    1  N1  UNL     1      19.798 -10.538  -2.047  1.00  0.00    -0.323 N 
HETATM    2  C6  UNL     1      19.212  -9.979  -0.987  1.00  0.00     0.185 A 
HETATM    3  N2  UNL     1      18.307 -10.823  -0.454  1.00  0.00    -0.349 N 
ATOM      4  H2  UNL     1      17.727 -10.634   0.362  1.00  0.00     0.166 HD
HETATM    5  C7  UNL     1      18.296 -11.966  -1.184  1.00  0.00     0.079 A 
HETATM    6  C8  UNL     1      17.598 -13.153  -1.117  1.00  0.00     0.054 A 
HETATM    7  C9  UNL     1      17.857 -14.128  -2.048  1.00  0.00     0.077 A 
HETATM    8  C18 UNL     1      18.822 -13.887  -3.037  1.00  0.00     0.116 A 
HETATM    9  N6  UNL     1      19.482 -12.721  -3.076  1.00  0.00    -0.326 N 
ATOM     10  H6  UNL     1      20.179 -12.565  -3.805  1.00  0.00     0.169 HD
HETATM   11  C19 UNL     1      19.244 -11.752  -2.172  1.00  0.00     0.137 A 
ENDROOT
BRANCH   7  12
HETATM   12  C10 UNL     1      17.170 -15.424  -2.062  1.00  0.00     0.255 C 
HETATM   13  O1  UNL     1      16.166 -15.592  -2.801  1.00  0.00    -0.268 OA
HETATM   14  N3  UNL     1      17.597 -16.500  -1.259  1.00  0.00    -0.356 N 
ATOM     15  H3  UNL     1      18.412 -16.385  -0.656  1.00  0.00     0.162 HD
BRANCH  14  16
HETATM   16  C11 UNL     1      16.897 -17.767  -1.276  1.00  0.00     0.128 C 
BRANCH  16  17
HETATM   17  C12 UNL     1      16.100 -18.083  -0.083  1.00  0.00     0.064 C 
BRANCH  17  18
HETATM   18  C13 UNL     1      15.093 -17.063   0.338  1.00  0.00     0.065 C 
BRANCH  18  19
HETATM   19  N4  UNL     1      15.391 -16.268   1.452  1.00  0.00    -0.368 N 
HETATM   20  C14 UNL     1      14.495 -16.420   2.542  1.00  0.00     0.133 C 
HETATM   21  C15 UNL     1      14.073 -15.018   2.953  1.00  0.00     0.105 C 
HETATM   22  C16 UNL     1      14.824 -14.061   2.089  1.00  0.00     0.277 C 
HETATM   23  F1  UNL     1      13.997 -13.411   1.190  1.00  0.00    -0.200 F 
HETATM   24  F2  UNL     1      15.564 -13.164   2.841  1.00  0.00    -0.200 F 
HETATM   25  C17 UNL     1      15.801 -14.938   1.330  1.00  0.00     0.141 C 
ENDBRANCH  18  19
ENDBRANCH  17  18
ENDBRANCH  16  17
ENDBRANCH  14  16
ENDBRANCH   7  12
BRANCH   8  26
HETATM   26  N5  UNL     1      19.023 -14.844  -3.878  1.00  0.00    -0.385 N 
ATOM     27  H52 UNL     1      19.313 -15.781  -3.600  1.00  0.00     0.157 HD
ATOM     28  H51 UNL     1      18.872 -14.616  -4.861  1.00  0.00     0.157 HD
ENDBRANCH   8  26
BRANCH   1  29
HETATM   29  C5  UNL     1      20.791  -9.990  -2.889  1.00  0.00     0.093 C 
HETATM   30  C4  UNL     1      22.178 -10.367  -2.770  1.00  0.00     0.036 C 
HETATM   31  C2  UNL     1      23.182  -9.404  -2.215  1.00  0.00    -0.015 C 
HETATM   32  C1  UNL     1      24.549 -10.022  -2.597  1.00  0.00     0.017 C 
HETATM   33  C3  UNL     1      23.154  -9.280  -0.714  1.00  0.00     0.017 C 
HETATM   34  C22 UNL     1      23.097  -8.080  -2.935  1.00  0.00     0.230 C 
HETATM   35  C21 UNL     1      21.809  -7.822  -3.627  1.00  0.00     0.038 C 
HETATM   36  C20 UNL     1      20.702  -8.468  -2.809  1.00  0.00     0.028 C 
BRANCH  34  37
HETATM   37  N7  UNL     1      24.278  -7.811  -3.679  1.00  0.00     0.093 N 
HETATM   38  C23 UNL     1      24.181  -7.347  -5.000  1.00  0.00     0.273 C 
HETATM   39  C24 UNL     1      24.155  -5.836  -4.976  1.00  0.00     0.032 C 
HETATM   40  C25 UNL     1      24.855  -5.495  -3.697  1.00  0.00     0.032 C 
HETATM   41  C26 UNL     1      25.144  -6.825  -3.033  1.00  0.00     0.273 C 
ENDBRANCH  34  37
ENDBRANCH   1  29
TORSDOF 8
ENDMDL
MODEL 5
REMARK VINA RESULT: -7.599787923      3.596     11.148
REMARK  8 active torsions:
REMARK  status: ('A' for Active; 'I' for Inactive)
REMARK    1  A    between atoms: C5_5  and  N1_6 
REMARK    2  A    between atoms: C9_12  and  C10_13 
REMARK       I    between atoms: C10_13  and  N3_15 
REMARK    3  A    between atoms: N3_15  and  C11_17 
REMARK    4  A    between atoms: C11_17  and  C12_18 
REMARK    5  A    between atoms: C12_18  and  C13_19 
REMARK    6  A    between atoms: C13_19  and  N4_20 
REMARK    7  A    between atoms: C18_27  and  N5_28 
REMARK    8  A    between atoms: C22_36  and  N7_37 
ROOT
HETATM    1  N1  UNL     1      18.326  -5.000  -6.457  1.00  0.00    -0.323 N 
HETATM    2  C6  UNL     1      18.289  -5.761  -7.552  1.00  0.00     0.185 A 
HETATM    3  N2  UNL     1      18.780  -6.986  -7.285  1.00  0.00    -0.349 N 
ATOM      4  H2  UNL     1      18.860  -7.753  -7.953  1.00  0.00     0.166 HD
HETATM    5  C7  UNL     1      19.151  -7.033  -5.982  1.00  0.00     0.079 A 
HETATM    6  C8  UNL     1      19.699  -7.997  -5.162  1.00  0.00     0.054 A 
HETATM    7  C9  UNL     1      19.945  -7.688  -3.847  1.00  0.00     0.077 A 
HETATM    8  C18 UNL     1      19.630  -6.404  -3.378  1.00  0.00     0.116 A 
HETATM    9  N6  UNL     1      19.099  -5.489  -4.201  1.00  0.00    -0.326 N 
ATOM     10  H6  UNL     1      18.879  -4.560  -3.840  1.00  0.00     0.169 HD
HETATM   11  C19 UNL     1      18.850  -5.771  -5.494  1.00  0.00     0.137 A 
ENDROOT
BRANCH   7  12
HETATM   12  C10 UNL     1      20.524  -8.642  -2.896  1.00  0.00     0.255 C 
HETATM   13  O1  UNL     1      21.657  -8.418  -2.396  1.00  0.00    -0.268 OA
HETATM   14  N3  UNL     1      19.851  -9.822  -2.523  1.00  0.00    -0.356 N 
ATOM     15  H3  UNL     1      18.929 -10.020  -2.914  1.00  0.00     0.162 HD
BRANCH  14  16
HETATM   16  C11 UNL     1      20.445 -10.758  -1.594  1.00  0.00     0.128 C 
BRANCH  16  17
HETATM   17  C12 UNL     1      19.636 -11.937  -1.254  1.00  0.00     0.064 C 
BRANCH  17  18
HETATM   18  C13 UNL     1      18.285 -11.675  -0.673  1.00  0.00     0.065 C 
BRANCH  18  19
HETATM   19  N4  UNL     1      17.237 -12.528  -1.040  1.00  0.00    -0.368 N 
HETATM   20  C14 UNL     1      16.616 -13.202   0.043  1.00  0.00     0.133 C 
HETATM   21  C15 UNL     1      16.566 -14.674  -0.335  1.00  0.00     0.105 C 
HETATM   22  C16 UNL     1      17.125 -14.793  -1.714  1.00  0.00     0.277 C 
HETATM   23  F1  UNL     1      18.349 -15.437  -1.726  1.00  0.00    -0.200 F 
HETATM   24  F2  UNL     1      16.226 -15.391  -2.582  1.00  0.00    -0.200 F 
HETATM   25  C17 UNL     1      17.308 -13.356  -2.163  1.00  0.00     0.141 C 
ENDBRANCH  18  19
ENDBRANCH  17  18
ENDBRANCH  16  17
ENDBRANCH  14  16
ENDBRANCH   7  12
BRANCH   8  26
HETATM   26  N5  UNL     1      19.878  -6.178  -2.134  1.00  0.00    -0.385 N 
ATOM     27  H52 UNL     1      20.561  -6.710  -1.593  1.00  0.00     0.157 HD
ATOM     28  H51 UNL     1      19.349  -5.421  -1.701  1.00  0.00     0.157 HD
ENDBRANCH   8  26
BRANCH   1  29
HETATM   29  C5  UNL     1      17.916  -3.656  -6.311  1.00  0.00     0.093 C 
HETATM   30  C4  UNL     1      17.057  -3.240  -5.228  1.00  0.00     0.036 C 
HETATM   31  C2  UNL     1      15.633  -2.859  -5.492  1.00  0.00    -0.015 C 
HETATM   32  C1  UNL     1      15.188  -2.139  -4.196  1.00  0.00     0.017 C 
HETATM   33  C3  UNL     1      14.708  -4.031  -5.690  1.00  0.00     0.017 C 
HETATM   34  C22 UNL     1      15.557  -1.833  -6.597  1.00  0.00     0.230 C 
HETATM   35  C21 UNL     1      16.739  -1.787  -7.495  1.00  0.00     0.038 C 
HETATM   36  C20 UNL     1      17.283  -3.201  -7.623  1.00  0.00     0.028 C 
BRANCH  34  37
HETATM   37  N7  UNL     1      15.078  -0.583  -6.120  1.00  0.00     0.093 N 
HETATM   38  C23 UNL     1      15.766   0.598  -6.440  1.00  0.00     0.273 C 
HETATM   39  C24 UNL     1      15.191   1.153  -7.722  1.00  0.00     0.032 C 
HETATM   40  C25 UNL     1      13.799   0.604  -7.749  1.00  0.00     0.032 C 
HETATM   41  C26 UNL     1      13.705  -0.303  -6.539  1.00  0.00     0.273 C 
ENDBRANCH  34  37
ENDBRANCH   1  29
TORSDOF 8
ENDMDL
