MODEL 1
REMARK VINA RESULT: -6.128138598      0.000      0.000
REMARK  11 active torsions:
REMARK  status: ('A' for Active; 'I' for Inactive)
REMARK    1  A    between atoms: N1_2  and  C2_4 
REMARK    2  A    between atoms: C2_4  and  N2_6 
REMARK    3  A    between atoms: N2_6  and  C3_8 
REMARK    4  A    between atoms: C3_8  and  C4_9 
REMARK    5  A    between atoms: C3_8  and  C5_14 
REMARK    6  A    between atoms: C4_9  and  O1_10 
REMARK    7  A    between atoms: C4_9  and  O2_12 
REMARK    8  A    between atoms: C6_20  and  C7_21 
REMARK    9  A    between atoms: C7_21  and  O4_26 
REMARK   10  A    between atoms: N6_22  and  O3_24 
REMARK   11  A    between atoms: O4_26  and  C9_27 
ROOT
HETATM    1  C9  UNL     1      17.822  19.157  -1.410  1.00  0.00     0.371 C 
HETATM    2  O5  UNL     1      18.474  20.144  -1.837  1.00  0.00    -0.247 OA
HETATM    3  C10 UNL     1      16.651  19.418  -0.627  1.00  0.00     0.170 C 
HETATM    4  N7  UNL     1      15.699  19.614   0.021  1.00  0.00    -0.186 NA
ENDROOT
BRANCH   1   5
HETATM    5  O4  UNL     1      18.271  17.882  -1.723  1.00  0.00    -0.250 OA
BRANCH   5   6
HETATM    6  C7  UNL     1      19.138  17.211  -0.860  1.00  0.00     0.171 C 
HETATM    7  N6  UNL     1      20.261  17.758  -0.622  1.00  0.00    -0.247 N 
ATOM      8  H6  UNL     1      20.454  18.649  -1.079  1.00  0.00     0.196 HD
BRANCH   6   9
HETATM    9  C6  UNL     1      18.657  15.917  -0.304  1.00  0.00     0.204 C 
HETATM   10  C5  UNL     1      19.320  14.809  -1.070  1.00  0.00     0.157 C 
HETATM   11  N3  UNL     1      18.296  14.331  -1.937  1.00  0.00    -0.316 N 
HETATM   12  N4  UNL     1      17.185  14.873  -1.715  1.00  0.00    -0.250 N 
ATOM     13  H3  UNL     1      18.448  13.626  -2.658  1.00  0.00     0.181 HD
HETATM   14  N5  UNL     1      17.275  15.796  -0.671  1.00  0.00    -0.110 NA
ATOM     15  H4  UNL     1      16.329  14.667  -2.230  1.00  0.00     0.203 HD
BRANCH  10  16
HETATM   16  C3  UNL     1      19.947  13.748  -0.188  1.00  0.00     0.165 C 
BRANCH  16  17
HETATM   17  N2  UNL     1      21.207  13.308  -0.703  1.00  0.00    -0.356 N 
ATOM     18  H2  UNL     1      21.725  13.977  -1.273  1.00  0.00     0.162 HD
BRANCH  17  19
HETATM   19  C2  UNL     1      21.805  12.060  -0.508  1.00  0.00     0.167 C 
HETATM   20  S1  UNL     1      21.686  10.869  -1.646  1.00  0.00    -0.041 SA
BRANCH  19  21
HETATM   21  N1  UNL     1      22.532  11.745   0.647  1.00  0.00    -0.372 N 
HETATM   22  C1  UNL     1      23.184  10.462   0.868  1.00  0.00     0.148 C 
ATOM     23  H1  UNL     1      22.610  12.455   1.374  1.00  0.00     0.161 HD
ENDBRANCH  19  21
ENDBRANCH  17  19
ENDBRANCH  16  17
BRANCH  16  24
HETATM   24  C4  UNL     1      20.002  14.095   1.255  1.00  0.00     0.278 C 
BRANCH  24  25
HETATM   25  O1  UNL     1      21.240  14.672   1.590  1.00  0.00    -0.369 OA
ATOM     26  H1  UNL     1      21.953  14.062   1.443  1.00  0.00     0.212 HD
ENDBRANCH  24  25
BRANCH  24  27
HETATM   27  O2  UNL     1      19.743  13.003   2.087  1.00  0.00    -0.369 OA
ATOM     28  H2  UNL     1      19.106  12.401   1.720  1.00  0.00     0.212 HD
ENDBRANCH  24  27
ENDBRANCH  16  24
ENDBRANCH  10  16
ENDBRANCH   6   9
BRANCH   7  29
HETATM   29  O3  UNL     1      21.235  17.247   0.197  1.00  0.00    -0.283 OA
HETATM   30  C8  UNL     1      22.551  17.755   0.250  1.00  0.00     0.237 C 
ENDBRANCH   7  29
ENDBRANCH   5   6
ENDBRANCH   1   5
TORSDOF 11
ENDMDL
MODEL 2
REMARK VINA RESULT: -5.996150276      1.970      3.101
REMARK  11 active torsions:
REMARK  status: ('A' for Active; 'I' for Inactive)
REMARK    1  A    between atoms: N1_2  and  C2_4 
REMARK    2  A    between atoms: C2_4  and  N2_6 
REMARK    3  A    between atoms: N2_6  and  C3_8 
REMARK    4  A    between atoms: C3_8  and  C4_9 
REMARK    5  A    between atoms: C3_8  and  C5_14 
REMARK    6  A    between atoms: C4_9  and  O1_10 
REMARK    7  A    between atoms: C4_9  and  O2_12 
REMARK    8  A    between atoms: C6_20  and  C7_21 
REMARK    9  A    between atoms: C7_21  and  O4_26 
REMARK   10  A    between atoms: N6_22  and  O3_24 
REMARK   11  A    between atoms: O4_26  and  C9_27 
ROOT
HETATM    1  C9  UNL     1      15.606  17.150  -0.561  1.00  0.00     0.371 C 
HETATM    2  O5  UNL     1      14.450  16.708  -0.783  1.00  0.00    -0.247 OA
HETATM    3  C10 UNL     1      15.737  18.529  -0.197  1.00  0.00     0.170 C 
HETATM    4  N7  UNL     1      15.861  19.654   0.093  1.00  0.00    -0.186 NA
ENDROOT
BRANCH   1   5
HETATM    5  O4  UNL     1      16.680  16.280  -0.680  1.00  0.00    -0.250 OA
BRANCH   5   6
HETATM    6  C7  UNL     1      17.112  15.865  -1.941  1.00  0.00     0.171 C 
HETATM    7  N6  UNL     1      16.344  16.101  -2.926  1.00  0.00    -0.247 N 
ATOM      8  H6  UNL     1      15.464  16.577  -2.730  1.00  0.00     0.196 HD
BRANCH   6   9
HETATM    9  C6  UNL     1      18.434  15.184  -2.002  1.00  0.00     0.204 C 
HETATM   10  C5  UNL     1      19.111  15.365  -0.675  1.00  0.00     0.157 C 
HETATM   11  N3  UNL     1      20.092  16.368  -0.924  1.00  0.00    -0.316 N 
HETATM   12  N4  UNL     1      20.163  16.681  -2.138  1.00  0.00    -0.250 N 
ATOM     13  H3  UNL     1      20.672  16.786  -0.196  1.00  0.00     0.181 HD
HETATM   14  N5  UNL     1      19.252  15.948  -2.901  1.00  0.00    -0.110 NA
ATOM     15  H4  UNL     1      20.802  17.380  -2.517  1.00  0.00     0.203 HD
BRANCH  10  16
HETATM   16  C3  UNL     1      19.658  14.080  -0.088  1.00  0.00     0.165 C 
BRANCH  16  17
HETATM   17  N2  UNL     1      20.789  13.602  -0.823  1.00  0.00    -0.356 N 
ATOM     18  H2  UNL     1      21.164  14.225  -1.538  1.00  0.00     0.162 HD
BRANCH  17  19
HETATM   19  C2  UNL     1      21.434  12.372  -0.666  1.00  0.00     0.167 C 
HETATM   20  S1  UNL     1      21.247  11.162  -1.773  1.00  0.00    -0.041 SA
BRANCH  19  21
HETATM   21  N1  UNL     1      22.267  12.093   0.425  1.00  0.00    -0.372 N 
HETATM   22  C1  UNL     1      22.906  10.804   0.646  1.00  0.00     0.148 C 
ATOM     23  H1  UNL     1      22.437  12.835   1.103  1.00  0.00     0.161 HD
ENDBRANCH  19  21
ENDBRANCH  17  19
ENDBRANCH  16  17
BRANCH  16  24
HETATM   24  C4  UNL     1      19.897  14.121   1.377  1.00  0.00     0.278 C 
BRANCH  24  25
HETATM   25  O1  UNL     1      21.165  14.652   1.669  1.00  0.00    -0.369 OA
ATOM     26  H1  UNL     1      21.855  14.111   1.303  1.00  0.00     0.212 HD
ENDBRANCH  24  25
BRANCH  24  27
HETATM   27  O2  UNL     1      19.749  12.872   1.987  1.00  0.00    -0.369 OA
ATOM     28  H2  UNL     1      20.389  12.718   2.672  1.00  0.00     0.212 HD
ENDBRANCH  24  27
ENDBRANCH  16  24
ENDBRANCH  10  16
ENDBRANCH   6   9
BRANCH   7  29
HETATM   29  O3  UNL     1      16.603  15.769  -4.231  1.00  0.00    -0.283 OA
HETATM   30  C8  UNL     1      16.724  16.720  -5.267  1.00  0.00     0.237 C 
ENDBRANCH   7  29
ENDBRANCH   5   6
ENDBRANCH   1   5
TORSDOF 11
ENDMDL
MODEL 3
REMARK VINA RESULT: -5.971918982      3.122      6.249
REMARK  11 active torsions:
REMARK  status: ('A' for Active; 'I' for Inactive)
REMARK    1  A    between atoms: N1_2  and  C2_4 
REMARK    2  A    between atoms: C2_4  and  N2_6 
REMARK    3  A    between atoms: N2_6  and  C3_8 
REMARK    4  A    between atoms: C3_8  and  C4_9 
REMARK    5  A    between atoms: C3_8  and  C5_14 
REMARK    6  A    between atoms: C4_9  and  O1_10 
REMARK    7  A    between atoms: C4_9  and  O2_12 
REMARK    8  A    between atoms: C6_20  and  C7_21 
REMARK    9  A    between atoms: C7_21  and  O4_26 
REMARK   10  A    between atoms: N6_22  and  O3_24 
REMARK   11  A    between atoms: O4_26  and  C9_27 
ROOT
HETATM    1  C9  UNL     1      21.087  14.769   0.670  1.00  0.00     0.371 C 
HETATM    2  O5  UNL     1      22.037  15.273   1.322  1.00  0.00    -0.247 OA
HETATM    3  C10 UNL     1      20.331  13.723   1.291  1.00  0.00     0.170 C 
HETATM    4  N7  UNL     1      19.710  12.863   1.781  1.00  0.00    -0.186 NA
ENDROOT
BRANCH   1   5
HETATM    5  O4  UNL     1      20.828  15.254  -0.604  1.00  0.00    -0.250 OA
BRANCH   5   6
HETATM    6  C7  UNL     1      20.245  16.511  -0.772  1.00  0.00     0.171 C 
HETATM    7  N6  UNL     1      20.920  17.521  -0.398  1.00  0.00    -0.247 N 
ATOM      8  H6  UNL     1      21.843  17.346   0.001  1.00  0.00     0.196 HD
BRANCH   6   9
HETATM    9  C6  UNL     1      18.884  16.539  -1.373  1.00  0.00     0.204 C 
HETATM   10  C5  UNL     1      17.883  16.521  -0.255  1.00  0.00     0.157 C 
HETATM   11  N3  UNL     1      17.392  15.183  -0.256  1.00  0.00    -0.316 N 
HETATM   12  N4  UNL     1      17.836  14.508  -1.217  1.00  0.00    -0.250 N 
ATOM     13  H3  UNL     1      16.752  14.814   0.447  1.00  0.00     0.181 HD
HETATM   14  N5  UNL     1      18.689  15.271  -2.017  1.00  0.00    -0.110 NA
ATOM     15  H4  UNL     1      17.604  13.530  -1.392  1.00  0.00     0.203 HD
BRANCH  10  16
HETATM   16  C3  UNL     1      16.811  17.585  -0.378  1.00  0.00     0.165 C 
BRANCH  16  17
HETATM   17  N2  UNL     1      17.198  18.625  -1.282  1.00  0.00    -0.356 N 
ATOM     18  H2  UNL     1      17.252  18.373  -2.269  1.00  0.00     0.162 HD
BRANCH  17  19
HETATM   19  C2  UNL     1      17.511  19.947  -0.958  1.00  0.00     0.167 C 
HETATM   20  S1  UNL     1      17.590  21.117  -2.121  1.00  0.00    -0.041 SA
BRANCH  19  21
HETATM   21  N1  UNL     1      17.772  20.359   0.355  1.00  0.00    -0.372 N 
HETATM   22  C1  UNL     1      18.467  21.593   0.694  1.00  0.00     0.148 C 
ATOM     23  H1  UNL     1      17.458  19.760   1.119  1.00  0.00     0.161 HD
ENDBRANCH  19  21
ENDBRANCH  17  19
ENDBRANCH  16  17
BRANCH  16  24
HETATM   24  C4  UNL     1      15.448  17.063  -0.649  1.00  0.00     0.278 C 
BRANCH  24  25
HETATM   25  O1  UNL     1      15.408  16.355  -1.863  1.00  0.00    -0.369 OA
ATOM     26  H1  UNL     1      14.952  15.528  -1.762  1.00  0.00     0.212 HD
ENDBRANCH  24  25
BRANCH  24  27
HETATM   27  O2  UNL     1      14.472  18.063  -0.647  1.00  0.00    -0.369 OA
ATOM     28  H2  UNL     1      14.500  18.605   0.133  1.00  0.00     0.212 HD
ENDBRANCH  24  27
ENDBRANCH  16  24
ENDBRANCH  10  16
ENDBRANCH   6   9
BRANCH   7  29
HETATM   29  O3  UNL     1      20.510  18.826  -0.486  1.00  0.00    -0.283 OA
HETATM   30  C8  UNL     1      21.242  19.827  -1.162  1.00  0.00     0.237 C 
ENDBRANCH   7  29
ENDBRANCH   5   6
ENDBRANCH   1   5
TORSDOF 11
ENDMDL
MODEL 4
REMARK VINA RESULT: -5.951256292      3.206      6.066
REMARK  11 active torsions:
REMARK  status: ('A' for Active; 'I' for Inactive)
REMARK    1  A    between atoms: N1_2  and  C2_4 
REMARK    2  A    between atoms: C2_4  and  N2_6 
REMARK    3  A    between atoms: N2_6  and  C3_8 
REMARK    4  A    between atoms: C3_8  and  C4_9 
REMARK    5  A    between atoms: C3_8  and  C5_14 
REMARK    6  A    between atoms: C4_9  and  O1_10 
REMARK    7  A    between atoms: C4_9  and  O2_12 
REMARK    8  A    between atoms: C6_20  and  C7_21 
REMARK    9  A    between atoms: C7_21  and  O4_26 
REMARK   10  A    between atoms: N6_22  and  O3_24 
REMARK   11  A    between atoms: O4_26  and  C9_27 
ROOT
HETATM    1  C9  UNL     1      21.129  14.740   0.778  1.00  0.00     0.371 C 
HETATM    2  O5  UNL     1      22.060  15.209   1.482  1.00  0.00    -0.247 OA
HETATM    3  C10 UNL     1      20.306  13.718   1.352  1.00  0.00     0.170 C 
HETATM    4  N7  UNL     1      19.631  12.879   1.804  1.00  0.00    -0.186 NA
ENDROOT
BRANCH   1   5
HETATM    5  O4  UNL     1      20.955  15.238  -0.505  1.00  0.00    -0.250 OA
BRANCH   5   6
HETATM    6  C7  UNL     1      20.701  16.596  -0.704  1.00  0.00     0.171 C 
HETATM    7  N6  UNL     1      21.588  17.418  -0.313  1.00  0.00    -0.247 N 
ATOM      8  H6  UNL     1      22.426  17.031   0.120  1.00  0.00     0.196 HD
BRANCH   6   9
HETATM    9  C6  UNL     1      19.408  16.944  -1.355  1.00  0.00     0.204 C 
HETATM   10  C5  UNL     1      18.421  17.279  -0.275  1.00  0.00     0.157 C 
HETATM   11  N3  UNL     1      17.587  16.126  -0.203  1.00  0.00    -0.316 N 
HETATM   12  N4  UNL     1      17.847  15.286  -1.099  1.00  0.00    -0.250 N 
ATOM     13  H3  UNL     1      16.859  15.997   0.500  1.00  0.00     0.181 HD
HETATM   14  N5  UNL     1      18.888  15.730  -1.917  1.00  0.00    -0.110 NA
ATOM     15  H4  UNL     1      17.362  14.397  -1.215  1.00  0.00     0.203 HD
BRANCH  10  16
HETATM   16  C3  UNL     1      17.680  18.580  -0.508  1.00  0.00     0.165 C 
BRANCH  16  17
HETATM   17  N2  UNL     1      17.664  18.939  -1.893  1.00  0.00    -0.356 N 
ATOM     18  H2  UNL     1      18.476  19.449  -2.241  1.00  0.00     0.162 HD
BRANCH  17  19
HETATM   19  C2  UNL     1      16.655  18.667  -2.820  1.00  0.00     0.167 C 
HETATM   20  S1  UNL     1      15.674  19.866  -3.392  1.00  0.00    -0.041 SA
BRANCH  19  21
HETATM   21  N1  UNL     1      16.414  17.379  -3.316  1.00  0.00    -0.372 N 
HETATM   22  C1  UNL     1      16.851  16.921  -4.627  1.00  0.00     0.148 C 
ATOM     23  H1  UNL     1      15.904  16.724  -2.724  1.00  0.00     0.161 HD
ENDBRANCH  19  21
ENDBRANCH  17  19
ENDBRANCH  16  17
BRANCH  16  24
HETATM   24  C4  UNL     1      16.337  18.648   0.121  1.00  0.00     0.278 C 
BRANCH  24  25
HETATM   25  O1  UNL     1      15.896  19.979   0.230  1.00  0.00    -0.369 OA
ATOM     26  H1  UNL     1      15.554  20.156   1.099  1.00  0.00     0.212 HD
ENDBRANCH  24  25
BRANCH  24  27
HETATM   27  O2  UNL     1      16.289  18.025   1.371  1.00  0.00    -0.369 OA
ATOM     28  H2  UNL     1      15.950  18.591   2.054  1.00  0.00     0.212 HD
ENDBRANCH  24  27
ENDBRANCH  16  24
ENDBRANCH  10  16
ENDBRANCH   6   9
BRANCH   7  29
HETATM   29  O3  UNL     1      21.510  18.782  -0.425  1.00  0.00    -0.283 OA
HETATM   30  C8  UNL     1      21.401  19.649   0.684  1.00  0.00     0.237 C 
ENDBRANCH   7  29
ENDBRANCH   5   6
ENDBRANCH   1   5
TORSDOF 11
ENDMDL
MODEL 5
REMARK VINA RESULT: -5.907138546      3.408      7.142
REMARK  11 active torsions:
REMARK  status: ('A' for Active; 'I' for Inactive)
REMARK    1  A    between atoms: N1_2  and  C2_4 
REMARK    2  A    between atoms: C2_4  and  N2_6 
REMARK    3  A    between atoms: N2_6  and  C3_8 
REMARK    4  A    between atoms: C3_8  and  C4_9 
REMARK    5  A    between atoms: C3_8  and  C5_14 
REMARK    6  A    between atoms: C4_9  and  O1_10 
REMARK    7  A    between atoms: C4_9  and  O2_12 
REMARK    8  A    between atoms: C6_20  and  C7_21 
REMARK    9  A    between atoms: C7_21  and  O4_26 
REMARK   10  A    between atoms: N6_22  and  O3_24 
REMARK   11  A    between atoms: O4_26  and  C9_27 
ROOT
HETATM    1  C9  UNL     1      18.929  14.869   0.024  1.00  0.00     0.371 C 
HETATM    2  O5  UNL     1      19.758  15.377  -0.774  1.00  0.00    -0.247 OA
HETATM    3  C10 UNL     1      19.415  13.915   0.975  1.00  0.00     0.170 C 
HETATM    4  N7  UNL     1      19.794  13.129   1.751  1.00  0.00    -0.186 NA
ENDROOT
BRANCH   1   5
HETATM    5  O4  UNL     1      17.601  15.262  -0.063  1.00  0.00    -0.250 OA
BRANCH   5   6
HETATM    6  C7  UNL     1      17.112  15.830  -1.241  1.00  0.00     0.171 C 
HETATM    7  N6  UNL     1      17.247  15.157  -2.311  1.00  0.00    -0.247 N 
ATOM      8  H6  UNL     1      17.704  14.249  -2.238  1.00  0.00     0.196 HD
BRANCH   6   9
HETATM    9  C6  UNL     1      16.481  17.173  -1.122  1.00  0.00     0.204 C 
HETATM   10  C5  UNL     1      17.408  18.052  -0.334  1.00  0.00     0.157 C 
HETATM   11  N3  UNL     1      16.802  18.122   0.954  1.00  0.00    -0.316 N 
HETATM   12  N4  UNL     1      15.681  17.559   0.990  1.00  0.00    -0.250 N 
ATOM     13  H3  UNL     1      17.233  18.579   1.758  1.00  0.00     0.181 HD
HETATM   14  N5  UNL     1      15.347  17.022  -0.255  1.00  0.00    -0.110 NA
ATOM     15  H4  UNL     1      15.090  17.500   1.820  1.00  0.00     0.203 HD
BRANCH  10  16
HETATM   16  C3  UNL     1      17.671  19.396  -0.980  1.00  0.00     0.165 C 
BRANCH  16  17
HETATM   17  N2  UNL     1      16.651  19.739  -1.924  1.00  0.00    -0.356 N 
ATOM     18  H2  UNL     1      15.717  19.377  -1.735  1.00  0.00     0.162 HD
BRANCH  17  19
HETATM   19  C2  UNL     1      16.799  20.516  -3.076  1.00  0.00     0.167 C 
HETATM   20  S1  UNL     1      18.158  20.410  -4.009  1.00  0.00    -0.041 SA
BRANCH  19  21
HETATM   21  N1  UNL     1      15.819  21.419  -3.506  1.00  0.00    -0.372 N 
HETATM   22  C1  UNL     1      14.463  21.033  -3.867  1.00  0.00     0.148 C 
ATOM     23  H1  UNL     1      16.070  22.406  -3.570  1.00  0.00     0.161 HD
ENDBRANCH  19  21
ENDBRANCH  17  19
ENDBRANCH  16  17
BRANCH  16  24
HETATM   24  C4  UNL     1      17.968  20.495  -0.027  1.00  0.00     0.278 C 
BRANCH  24  25
HETATM   25  O1  UNL     1      18.939  20.104   0.912  1.00  0.00    -0.369 OA
ATOM     26  H1  UNL     1      19.283  20.854   1.381  1.00  0.00     0.212 HD
ENDBRANCH  24  25
BRANCH  24  27
HETATM   27  O2  UNL     1      16.828  20.966   0.633  1.00  0.00    -0.369 OA
ATOM     28  H2  UNL     1      16.805  20.722   1.550  1.00  0.00     0.212 HD
ENDBRANCH  24  27
ENDBRANCH  16  24
ENDBRANCH  10  16
ENDBRANCH   6   9
BRANCH   7  29
HETATM   29  O3  UNL     1      16.828  15.554  -3.555  1.00  0.00    -0.283 OA
HETATM   30  C8  UNL     1      17.462  16.571  -4.301  1.00  0.00     0.237 C 
ENDBRANCH   7  29
ENDBRANCH   5   6
ENDBRANCH   1   5
TORSDOF 11
ENDMDL
