MODEL 1
REMARK VINA RESULT: -6.730081733      0.000      0.000
REMARK  10 active torsions:
REMARK  status: ('A' for Active; 'I' for Inactive)
REMARK    1  A    between atoms: N1_1  and  N2_4 
REMARK    2  A    between atoms: N2_4  and  N3_5 
REMARK    3  A    between atoms: N3_5  and  N4_7 
REMARK    4  A    between atoms: C1_9  and  O1_10 
REMARK    5  A    between atoms: C1_9  and  C2_12 
REMARK    6  A    between atoms: C3_15  and  N6_16 
REMARK    7  A    between atoms: N7_18  and  C4_20 
REMARK    8  A    between atoms: C5_23  and  N9_24 
REMARK    9  A    between atoms: N9_24  and  N10_26 
REMARK   10  A    between atoms: C8_39  and  N15_40 
ROOT
HETATM    1  C2  UNL     1      21.657  11.256  -1.038  1.00  0.00     0.131 A 
HETATM    2  N5  UNL     1      20.758  12.219  -1.431  1.00  0.00    -0.332 N 
ATOM      3  H5  UNL     1      20.152  12.056  -2.235  1.00  0.00     0.168 HD
HETATM    4  C3  UNL     1      20.678  13.372  -0.757  1.00  0.00     0.163 A 
HETATM    5  C7  UNL     1      21.500  13.596   0.336  1.00  0.00     0.163 A 
HETATM    6  N13 UNL     1      21.397  14.822   1.032  1.00  0.00    -0.079 NA
HETATM    7  N14 UNL     1      22.377  12.683   0.738  1.00  0.00    -0.326 N 
ATOM      8  H14 UNL     1      22.976  12.860   1.545  1.00  0.00     0.168 HD
HETATM    9  C8  UNL     1      22.466  11.479   0.039  1.00  0.00     0.132 A 
ENDROOT
BRANCH   4  10
HETATM   10  N6  UNL     1      19.771  14.410  -1.110  1.00  0.00    -0.268 N 
HETATM   11  N7  UNL     1      18.642  14.400  -0.527  1.00  0.00    -0.129 N 
ATOM     12  H7  UNL     1      18.457  13.659   0.149  1.00  0.00     0.205 HD
ATOM     13  H6  UNL     1      20.014  15.125  -1.795  1.00  0.00     0.189 HD
BRANCH  11  14
HETATM   14  C4  UNL     1      17.626  15.358  -0.762  1.00  0.00     0.713 A 
HETATM   15  N8  UNL     1      17.426  16.346   0.128  1.00  0.00    -0.167 N 
HETATM   16  C5  UNL     1      16.480  17.284  -0.038  1.00  0.00     0.205 A 
ATOM     17  H8  UNL     1      18.015  16.384   0.960  1.00  0.00     0.186 HD
HETATM   18  C6  UNL     1      15.690  17.224  -1.165  1.00  0.00     0.306 A 
HETATM   19  O2  UNL     1      14.775  18.053  -1.418  1.00  0.00    -0.263 OA
HETATM   20  N11 UNL     1      15.903  16.225  -2.050  1.00  0.00    -0.249 N 
HETATM   21  N12 UNL     1      16.844  15.322  -1.849  1.00  0.00    -0.128 N 
ATOM     22  H11 UNL     1      15.324  16.167  -2.888  1.00  0.00     0.191 HD
ATOM     23  H12 UNL     1      16.980  14.581  -2.537  1.00  0.00     0.205 HD
BRANCH  16  24
HETATM   24  N9  UNL     1      16.282  18.232   0.808  1.00  0.00    -0.287 N 
ATOM     25  H9  UNL     1      15.992  17.976   1.751  1.00  0.00     0.188 HD
BRANCH  24  26
HETATM   26  N10 UNL     1      16.435  19.570   0.525  1.00  0.00    -0.343 N 
ATOM     27 2H10 UNL     1      17.173  19.818  -0.135  1.00  0.00     0.176 HD
ATOM     28 1H10 UNL     1      15.866  20.313   0.929  1.00  0.00     0.176 HD
ENDBRANCH  24  26
ENDBRANCH  16  24
ENDBRANCH  11  14
ENDBRANCH   4  10
BRANCH   1  29
HETATM   29  C1  UNL     1      21.710  10.019  -1.800  1.00  0.00     0.188 C 
HETATM   30  N4  UNL     1      20.567   9.667  -2.365  1.00  0.00    -0.252 N 
ATOM     31  H4  UNL     1      19.724  10.232  -2.264  1.00  0.00     0.191 HD
BRANCH  30  32
HETATM   32  N3  UNL     1      20.572   8.490  -3.103  1.00  0.00    -0.154 N 
ATOM     33  H3  UNL     1      20.722   8.554  -4.110  1.00  0.00     0.225 HD
BRANCH  32  34
HETATM   34  N2  UNL     1      20.408   7.382  -2.612  1.00  0.00    -0.228 NA
BRANCH  34  35
HETATM   35  N1  UNL     1      20.205   6.321  -2.035  1.00  0.00    -0.259 N 
ATOM     36  H12 UNL     1      19.870   6.982  -1.335  1.00  0.00     0.193 HD
ATOM     37  H11 UNL     1      20.069   5.397  -1.625  1.00  0.00     0.193 HD
ENDBRANCH  34  35
ENDBRANCH  32  34
ENDBRANCH  30  32
BRANCH  29  38
HETATM   38  O1  UNL     1      22.807   9.211  -1.978  1.00  0.00    -0.343 OA
ATOM     39  H1  UNL     1      23.232   9.203  -2.828  1.00  0.00     0.219 HD
ENDBRANCH  29  38
ENDBRANCH   1  29
BRANCH   9  40
HETATM   40  N15 UNL     1      23.318  10.655   0.471  1.00  0.00    -0.383 N 
ATOM     41 2H15 UNL     1      23.240   9.705   0.108  1.00  0.00     0.157 HD
ATOM     42 1H15 UNL     1      24.052  10.886   1.140  1.00  0.00     0.157 HD
ENDBRANCH   9  40
TORSDOF 10
ENDMDL
MODEL 2
REMARK VINA RESULT: -6.412703830      2.414      8.445
REMARK  10 active torsions:
REMARK  status: ('A' for Active; 'I' for Inactive)
REMARK    1  A    between atoms: N1_1  and  N2_4 
REMARK    2  A    between atoms: N2_4  and  N3_5 
REMARK    3  A    between atoms: N3_5  and  N4_7 
REMARK    4  A    between atoms: C1_9  and  O1_10 
REMARK    5  A    between atoms: C1_9  and  C2_12 
REMARK    6  A    between atoms: C3_15  and  N6_16 
REMARK    7  A    between atoms: N7_18  and  C4_20 
REMARK    8  A    between atoms: C5_23  and  N9_24 
REMARK    9  A    between atoms: N9_24  and  N10_26 
REMARK   10  A    between atoms: C8_39  and  N15_40 
ROOT
HETATM    1  C2  UNL     1      18.743  14.938  -1.489  1.00  0.00     0.131 A 
HETATM    2  N5  UNL     1      19.871  14.151  -1.518  1.00  0.00    -0.332 N 
ATOM      3  H5  UNL     1      20.375  14.013  -2.393  1.00  0.00     0.168 HD
HETATM    4  C3  UNL     1      20.306  13.567  -0.396  1.00  0.00     0.163 A 
HETATM    5  C7  UNL     1      19.621  13.754   0.795  1.00  0.00     0.163 A 
HETATM    6  N13 UNL     1      20.101  13.126   1.967  1.00  0.00    -0.079 NA
HETATM    7  N14 UNL     1      18.530  14.509   0.853  1.00  0.00    -0.326 N 
ATOM      8  H14 UNL     1      18.036  14.639   1.736  1.00  0.00     0.168 HD
HETATM    9  C8  UNL     1      18.071  15.120  -0.314  1.00  0.00     0.132 A 
ENDROOT
BRANCH   4  10
HETATM   10  N6  UNL     1      21.464  12.742  -0.356  1.00  0.00    -0.268 N 
HETATM   11  N7  UNL     1      21.272  11.504  -0.142  1.00  0.00    -0.129 N 
ATOM     12  H7  UNL     1      20.312  11.182  -0.014  1.00  0.00     0.205 HD
ATOM     13  H6  UNL     1      22.400  13.124  -0.491  1.00  0.00     0.189 HD
BRANCH  11  14
HETATM   14  C4  UNL     1      22.313  10.546  -0.071  1.00  0.00     0.713 A 
HETATM   15  N8  UNL     1      23.469  10.866   0.538  1.00  0.00    -0.167 N 
HETATM   16  C5  UNL     1      24.492  10.003   0.637  1.00  0.00     0.205 A 
ATOM     17  H8  UNL     1      23.571  11.798   0.939  1.00  0.00     0.186 HD
HETATM   18  C6  UNL     1      24.343   8.747   0.093  1.00  0.00     0.306 A 
HETATM   19  O2  UNL     1      25.240   7.862   0.131  1.00  0.00    -0.263 OA
HETATM   20  N11 UNL     1      23.177   8.441  -0.517  1.00  0.00    -0.249 N 
HETATM   21  N12 UNL     1      22.194   9.319  -0.593  1.00  0.00    -0.128 N 
ATOM     22  H11 UNL     1      23.054   7.515  -0.926  1.00  0.00     0.191 HD
ATOM     23  H12 UNL     1      21.326   9.057  -1.059  1.00  0.00     0.205 HD
BRANCH  16  24
HETATM   24  N9  UNL     1      25.600  10.300   1.219  1.00  0.00    -0.287 N 
ATOM     25  H9  UNL     1      25.648  10.200   2.233  1.00  0.00     0.188 HD
BRANCH  24  26
HETATM   26  N10 UNL     1      26.726  10.745   0.565  1.00  0.00    -0.343 N 
ATOM     27 2H10 UNL     1      26.935  11.741   0.635  1.00  0.00     0.176 HD
ATOM     28 1H10 UNL     1      27.351  10.148   0.024  1.00  0.00     0.176 HD
ENDBRANCH  24  26
ENDBRANCH  16  24
ENDBRANCH  11  14
ENDBRANCH   4  10
BRANCH   1  29
HETATM   29  C1  UNL     1      18.306  15.552  -2.732  1.00  0.00     0.188 C 
HETATM   30  N4  UNL     1      17.099  15.192  -3.134  1.00  0.00    -0.252 N 
ATOM     31  H4  UNL     1      16.532  14.533  -2.601  1.00  0.00     0.191 HD
BRANCH  30  32
HETATM   32  N3  UNL     1      16.642  15.756  -4.318  1.00  0.00    -0.154 N 
ATOM     33  H3  UNL     1      16.463  15.136  -5.109  1.00  0.00     0.225 HD
BRANCH  32  34
HETATM   34  N2  UNL     1      16.441  16.953  -4.466  1.00  0.00    -0.228 NA
BRANCH  34  35
HETATM   35  N1  UNL     1      16.333  18.169  -4.568  1.00  0.00    -0.259 N 
ATOM     36  H12 UNL     1      17.328  18.085  -4.362  1.00  0.00     0.193 HD
ATOM     37  H11 UNL     1      16.159  19.168  -4.669  1.00  0.00     0.193 HD
ENDBRANCH  34  35
ENDBRANCH  32  34
ENDBRANCH  30  32
BRANCH  29  38
HETATM   38  O1  UNL     1      19.015  16.446  -3.499  1.00  0.00    -0.343 OA
ATOM     39  H1  UNL     1      19.912  16.644  -3.254  1.00  0.00     0.219 HD
ENDBRANCH  29  38
ENDBRANCH   1  29
BRANCH   9  40
HETATM   40  N15 UNL     1      17.031  15.823  -0.193  1.00  0.00    -0.383 N 
ATOM     41 2H15 UNL     1      16.198  15.469  -0.664  1.00  0.00     0.157 HD
ATOM     42 1H15 UNL     1      16.985  16.695   0.334  1.00  0.00     0.157 HD
ENDBRANCH   9  40
TORSDOF 10
ENDMDL
MODEL 3
REMARK VINA RESULT: -6.378189351      2.659      8.582
REMARK  10 active torsions:
REMARK  status: ('A' for Active; 'I' for Inactive)
REMARK    1  A    between atoms: N1_1  and  N2_4 
REMARK    2  A    between atoms: N2_4  and  N3_5 
REMARK    3  A    between atoms: N3_5  and  N4_7 
REMARK    4  A    between atoms: C1_9  and  O1_10 
REMARK    5  A    between atoms: C1_9  and  C2_12 
REMARK    6  A    between atoms: C3_15  and  N6_16 
REMARK    7  A    between atoms: N7_18  and  C4_20 
REMARK    8  A    between atoms: C5_23  and  N9_24 
REMARK    9  A    between atoms: N9_24  and  N10_26 
REMARK   10  A    between atoms: C8_39  and  N15_40 
ROOT
HETATM    1  C2  UNL     1      18.749  14.997  -1.474  1.00  0.00     0.131 A 
HETATM    2  N5  UNL     1      19.937  14.305  -1.449  1.00  0.00    -0.332 N 
ATOM      3  H5  UNL     1      20.496  14.219  -2.298  1.00  0.00     0.168 HD
HETATM    4  C3  UNL     1      20.359  13.745  -0.311  1.00  0.00     0.163 A 
HETATM    5  C7  UNL     1      19.601  13.860   0.844  1.00  0.00     0.163 A 
HETATM    6  N13 UNL     1      20.069  13.259   2.035  1.00  0.00    -0.079 NA
HETATM    7  N14 UNL     1      18.451  14.524   0.850  1.00  0.00    -0.326 N 
ATOM      8  H14 UNL     1      17.903  14.602   1.706  1.00  0.00     0.168 HD
HETATM    9  C8  UNL     1      18.004  15.110  -0.335  1.00  0.00     0.132 A 
ENDROOT
BRANCH   4  10
HETATM   10  N6  UNL     1      21.577  13.015  -0.216  1.00  0.00    -0.268 N 
HETATM   11  N7  UNL     1      21.476  11.766  -0.011  1.00  0.00    -0.129 N 
ATOM     12  H7  UNL     1      20.541  11.366   0.072  1.00  0.00     0.205 HD
ATOM     13  H6  UNL     1      22.485  13.472  -0.308  1.00  0.00     0.189 HD
BRANCH  11  14
HETATM   14  C4  UNL     1      22.587  10.895   0.108  1.00  0.00     0.713 A 
HETATM   15  N8  UNL     1      22.394   9.621   0.495  1.00  0.00    -0.167 N 
HETATM   16  C5  UNL     1      23.405   8.748   0.627  1.00  0.00     0.205 A 
ATOM     17  H8  UNL     1      21.444   9.308   0.695  1.00  0.00     0.186 HD
HETATM   18  C6  UNL     1      24.684   9.182   0.353  1.00  0.00     0.306 A 
HETATM   19  O2  UNL     1      25.702   8.445   0.445  1.00  0.00    -0.263 OA
HETATM   20  N11 UNL     1      24.862  10.464  -0.033  1.00  0.00    -0.249 N 
HETATM   21  N12 UNL     1      23.840  11.291  -0.151  1.00  0.00    -0.128 N 
ATOM     22  H11 UNL     1      25.803  10.799  -0.237  1.00  0.00     0.191 HD
ATOM     23  H12 UNL     1      24.007  12.253  -0.445  1.00  0.00     0.205 HD
BRANCH  16  24
HETATM   24  N9  UNL     1      23.229   7.528   0.995  1.00  0.00    -0.287 N 
ATOM     25  H9  UNL     1      22.513   6.985   0.515  1.00  0.00     0.188 HD
BRANCH  24  26
HETATM   26  N10 UNL     1      23.943   6.909   1.995  1.00  0.00    -0.343 N 
ATOM     27 2H10 UNL     1      24.960   6.944   1.924  1.00  0.00     0.176 HD
ATOM     28 1H10 UNL     1      23.522   6.425   2.788  1.00  0.00     0.176 HD
ENDBRANCH  24  26
ENDBRANCH  16  24
ENDBRANCH  11  14
ENDBRANCH   4  10
BRANCH   1  29
HETATM   29  C1  UNL     1      18.329  15.590  -2.733  1.00  0.00     0.188 C 
HETATM   30  N4  UNL     1      17.144  15.191  -3.165  1.00  0.00    -0.252 N 
ATOM     31  H4  UNL     1      16.582  14.520  -2.643  1.00  0.00     0.191 HD
BRANCH  30  32
HETATM   32  N3  UNL     1      16.703  15.733  -4.366  1.00  0.00    -0.154 N 
ATOM     33  H3  UNL     1      16.570  15.104  -5.158  1.00  0.00     0.225 HD
BRANCH  32  34
HETATM   34  N2  UNL     1      16.466  16.921  -4.526  1.00  0.00    -0.228 NA
BRANCH  34  35
HETATM   35  N1  UNL     1      16.320  18.132  -4.642  1.00  0.00    -0.259 N 
ATOM     36  H12 UNL     1      17.333  18.073  -4.537  1.00  0.00     0.193 HD
ATOM     37  H11 UNL     1      16.113  19.125  -4.744  1.00  0.00     0.193 HD
ENDBRANCH  34  35
ENDBRANCH  32  34
ENDBRANCH  30  32
BRANCH  29  38
HETATM   38  O1  UNL     1      19.032  16.499  -3.487  1.00  0.00    -0.343 OA
ATOM     39  H1  UNL     1      18.663  16.784  -4.315  1.00  0.00     0.219 HD
ENDBRANCH  29  38
ENDBRANCH   1  29
BRANCH   9  40
HETATM   40  N15 UNL     1      16.905  15.725  -0.263  1.00  0.00    -0.383 N 
ATOM     41 2H15 UNL     1      16.367  15.574   0.591  1.00  0.00     0.157 HD
ATOM     42 1H15 UNL     1      16.543  16.341  -0.990  1.00  0.00     0.157 HD
ENDBRANCH   9  40
TORSDOF 10
ENDMDL
MODEL 4
REMARK VINA RESULT: -6.327945477      2.116      2.897
REMARK  10 active torsions:
REMARK  status: ('A' for Active; 'I' for Inactive)
REMARK    1  A    between atoms: N1_1  and  N2_4 
REMARK    2  A    between atoms: N2_4  and  N3_5 
REMARK    3  A    between atoms: N3_5  and  N4_7 
REMARK    4  A    between atoms: C1_9  and  O1_10 
REMARK    5  A    between atoms: C1_9  and  C2_12 
REMARK    6  A    between atoms: C3_15  and  N6_16 
REMARK    7  A    between atoms: N7_18  and  C4_20 
REMARK    8  A    between atoms: C5_23  and  N9_24 
REMARK    9  A    between atoms: N9_24  and  N10_26 
REMARK   10  A    between atoms: C8_39  and  N15_40 
ROOT
HETATM    1  C2  UNL     1      22.534  10.347  -0.040  1.00  0.00     0.131 A 
HETATM    2  N5  UNL     1      21.419  11.043  -0.445  1.00  0.00    -0.332 N 
ATOM      3  H5  UNL     1      20.492  10.633  -0.333  1.00  0.00     0.168 HD
HETATM    4  C3  UNL     1      21.551  12.260  -0.985  1.00  0.00     0.163 A 
HETATM    5  C7  UNL     1      22.810  12.819  -1.138  1.00  0.00     0.163 A 
HETATM    6  N13 UNL     1      22.923  14.106  -1.712  1.00  0.00    -0.079 NA
HETATM    7  N14 UNL     1      23.904  12.170  -0.756  1.00  0.00    -0.326 N 
ATOM      8  H14 UNL     1      24.825  12.594  -0.873  1.00  0.00     0.168 HD
HETATM    9  C8  UNL     1      23.773  10.901  -0.192  1.00  0.00     0.132 A 
ENDROOT
BRANCH   4  10
HETATM   10  N6  UNL     1      20.440  13.032  -1.425  1.00  0.00    -0.268 N 
HETATM   11  N7  UNL     1      19.857  13.740  -0.545  1.00  0.00    -0.129 N 
ATOM     12  H7  UNL     1      20.216  13.712   0.409  1.00  0.00     0.205 HD
ATOM     13  H6  UNL     1      20.128  13.019  -2.396  1.00  0.00     0.189 HD
BRANCH  11  14
HETATM   14  C4  UNL     1      18.738  14.566  -0.814  1.00  0.00     0.713 A 
HETATM   15  N8  UNL     1      18.166  14.534  -2.031  1.00  0.00    -0.167 N 
HETATM   16  C5  UNL     1      17.104  15.291  -2.348  1.00  0.00     0.205 A 
ATOM     17  H8  UNL     1      18.554  13.911  -2.739  1.00  0.00     0.186 HD
HETATM   18  C6  UNL     1      16.588  16.129  -1.383  1.00  0.00     0.306 A 
HETATM   19  O2  UNL     1      15.595  16.881  -1.575  1.00  0.00    -0.263 OA
HETATM   20  N11 UNL     1      17.174  16.151  -0.166  1.00  0.00    -0.249 N 
HETATM   21  N12 UNL     1      18.217  15.389   0.105  1.00  0.00    -0.128 N 
ATOM     22  H11 UNL     1      16.803  16.767   0.557  1.00  0.00     0.191 HD
ATOM     23  H12 UNL     1      18.636  15.428   1.034  1.00  0.00     0.205 HD
BRANCH  16  24
HETATM   24  N9  UNL     1      16.551  15.266  -3.508  1.00  0.00    -0.287 N 
ATOM     25  H9  UNL     1      15.912  14.499  -3.715  1.00  0.00     0.188 HD
BRANCH  24  26
HETATM   26  N10 UNL     1      16.764  16.206  -4.491  1.00  0.00    -0.343 N 
ATOM     27 2H10 UNL     1      17.137  17.107  -4.191  1.00  0.00     0.176 HD
ATOM     28 1H10 UNL     1      16.574  16.056  -5.481  1.00  0.00     0.176 HD
ENDBRANCH  24  26
ENDBRANCH  16  24
ENDBRANCH  11  14
ENDBRANCH   4  10
BRANCH   1  29
HETATM   29  C1  UNL     1      22.343   9.029   0.541  1.00  0.00     0.188 C 
HETATM   30  N4  UNL     1      21.494   8.253  -0.111  1.00  0.00    -0.252 N 
ATOM     31  H4  UNL     1      21.019   8.571  -0.956  1.00  0.00     0.191 HD
BRANCH  30  32
HETATM   32  N3  UNL     1      21.282   6.983   0.411  1.00  0.00    -0.154 N 
ATOM     33  H3  UNL     1      20.344   6.747   0.736  1.00  0.00     0.225 HD
BRANCH  32  34
HETATM   34  N2  UNL     1      22.156   6.133   0.502  1.00  0.00    -0.228 NA
BRANCH  34  35
HETATM   35  N1  UNL     1      23.073   5.339   0.671  1.00  0.00    -0.259 N 
ATOM     36  H12 UNL     1      22.719   5.422   1.623  1.00  0.00     0.193 HD
ATOM     37  H11 UNL     1      23.852   4.684   0.726  1.00  0.00     0.193 HD
ENDBRANCH  34  35
ENDBRANCH  32  34
ENDBRANCH  30  32
BRANCH  29  38
HETATM   38  O1  UNL     1      22.949   8.536   1.672  1.00  0.00    -0.343 OA
ATOM     39  H1  UNL     1      23.890   8.402   1.662  1.00  0.00     0.219 HD
ENDBRANCH  29  38
ENDBRANCH   1  29
BRANCH   9  40
HETATM   40  N15 UNL     1      24.849  10.338   0.150  1.00  0.00    -0.383 N 
ATOM     41 2H15 UNL     1      25.064  10.360   1.147  1.00  0.00     0.157 HD
ATOM     42 1H15 UNL     1      25.489   9.881  -0.500  1.00  0.00     0.157 HD
ENDBRANCH   9  40
TORSDOF 10
ENDMDL
MODEL 5
REMARK VINA RESULT: -6.256404792      0.871      1.851
REMARK  10 active torsions:
REMARK  status: ('A' for Active; 'I' for Inactive)
REMARK    1  A    between atoms: N1_1  and  N2_4 
REMARK    2  A    between atoms: N2_4  and  N3_5 
REMARK    3  A    between atoms: N3_5  and  N4_7 
REMARK    4  A    between atoms: C1_9  and  O1_10 
REMARK    5  A    between atoms: C1_9  and  C2_12 
REMARK    6  A    between atoms: C3_15  and  N6_16 
REMARK    7  A    between atoms: N7_18  and  C4_20 
REMARK    8  A    between atoms: C5_23  and  N9_24 
REMARK    9  A    between atoms: N9_24  and  N10_26 
REMARK   10  A    between atoms: C8_39  and  N15_40 
ROOT
HETATM    1  C2  UNL     1      21.638  10.848  -1.040  1.00  0.00     0.131 A 
HETATM    2  N5  UNL     1      20.810  11.876  -1.427  1.00  0.00    -0.332 N 
ATOM      3  H5  UNL     1      20.142  11.736  -2.184  1.00  0.00     0.168 HD
HETATM    4  C3  UNL     1      20.883  13.061  -0.810  1.00  0.00     0.163 A 
HETATM    5  C7  UNL     1      21.792  13.253   0.219  1.00  0.00     0.163 A 
HETATM    6  N13 UNL     1      21.849  14.514   0.856  1.00  0.00    -0.079 NA
HETATM    7  N14 UNL     1      22.602  12.279   0.615  1.00  0.00    -0.326 N 
ATOM      8  H14 UNL     1      23.266  12.433   1.375  1.00  0.00     0.168 HD
HETATM    9  C8  UNL     1      22.532  11.041  -0.025  1.00  0.00     0.132 A 
ENDROOT
BRANCH   4  10
HETATM   10  N6  UNL     1      20.057  14.165  -1.161  1.00  0.00    -0.268 N 
HETATM   11  N7  UNL     1      18.938  14.248  -0.565  1.00  0.00    -0.129 N 
ATOM     12  H7  UNL     1      18.703  13.530   0.120  1.00  0.00     0.205 HD
ATOM     13  H6  UNL     1      20.348  14.853  -1.855  1.00  0.00     0.189 HD
BRANCH  11  14
HETATM   14  C4  UNL     1      17.998  15.283  -0.797  1.00  0.00     0.713 A 
HETATM   15  N8  UNL     1      17.607  15.555  -2.054  1.00  0.00    -0.167 N 
HETATM   16  C5  UNL     1      16.721  16.522  -2.339  1.00  0.00     0.205 A 
ATOM     17  H8  UNL     1      17.999  15.007  -2.820  1.00  0.00     0.186 HD
HETATM   18  C6  UNL     1      16.198  17.257  -1.297  1.00  0.00     0.306 A 
HETATM   19  O2  UNL     1      15.360  18.186  -1.454  1.00  0.00    -0.263 OA
HETATM   20  N11 UNL     1      16.601  16.972  -0.040  1.00  0.00    -0.249 N 
HETATM   21  N12 UNL     1      17.475  16.012   0.197  1.00  0.00    -0.128 N 
ATOM     22  H11 UNL     1      16.223  17.509   0.740  1.00  0.00     0.191 HD
ATOM     23  H12 UNL     1      17.759  15.821   1.158  1.00  0.00     0.205 HD
BRANCH  16  24
HETATM   24  N9  UNL     1      16.341  16.789  -3.539  1.00  0.00    -0.287 N 
ATOM     25  H9  UNL     1      15.738  17.599  -3.677  1.00  0.00     0.188 HD
BRANCH  24  26
HETATM   26  N10 UNL     1      16.694  16.053  -4.647  1.00  0.00    -0.343 N 
ATOM     27 2H10 UNL     1      15.938  15.780  -5.276  1.00  0.00     0.176 HD
ATOM     28 1H10 UNL     1      17.647  15.771  -4.870  1.00  0.00     0.176 HD
ENDBRANCH  24  26
ENDBRANCH  16  24
ENDBRANCH  11  14
ENDBRANCH   4  10
BRANCH   1  29
HETATM   29  C1  UNL     1      21.525   9.579  -1.738  1.00  0.00     0.188 C 
HETATM   30  N4  UNL     1      20.381   9.398  -2.377  1.00  0.00    -0.252 N 
ATOM     31  H4  UNL     1      19.647  10.105  -2.370  1.00  0.00     0.191 HD
BRANCH  30  32
HETATM   32  N3  UNL     1      20.231   8.197  -3.059  1.00  0.00    -0.154 N 
ATOM     33  H3  UNL     1      20.141   8.228  -4.074  1.00  0.00     0.225 HD
BRANCH  32  34
HETATM   34  N2  UNL     1      20.199   7.106  -2.508  1.00  0.00    -0.228 NA
BRANCH  34  35
HETATM   35  N1  UNL     1      20.238   6.049  -1.890  1.00  0.00    -0.259 N 
ATOM     36  H12 UNL     1      19.958   5.717  -2.812  1.00  0.00     0.193 HD
ATOM     37  H11 UNL     1      20.295   5.216  -1.306  1.00  0.00     0.193 HD
ENDBRANCH  34  35
ENDBRANCH  32  34
ENDBRANCH  30  32
BRANCH  29  38
HETATM   38  O1  UNL     1      22.472   8.584  -1.791  1.00  0.00    -0.343 OA
ATOM     39  H1  UNL     1      23.332   8.793  -2.138  1.00  0.00     0.219 HD
ENDBRANCH  29  38
ENDBRANCH   1  29
BRANCH   9  40
HETATM   40  N15 UNL     1      23.328  10.159   0.397  1.00  0.00    -0.383 N 
ATOM     41 2H15 UNL     1      23.384  10.059   1.411  1.00  0.00     0.157 HD
ATOM     42 1H15 UNL     1      23.897   9.564  -0.205  1.00  0.00     0.157 HD
ENDBRANCH   9  40
TORSDOF 10
ENDMDL
