MODEL 1
REMARK VINA RESULT: -7.291174042      0.000      0.000
REMARK  3 active torsions:
REMARK  status: ('A' for Active; 'I' for Inactive)
REMARK    1  A    between atoms: C2_2  and  C3_3 
REMARK    2  A    between atoms: C3_3  and  C4_4 
REMARK    3  A    between atoms: C4_4  and  C5_5 
ROOT
HETATM    1  C5  UNL     1      -0.157  16.717  19.630  1.00  0.00    -0.004 C 
HETATM    2  C6  UNL     1      -0.799  16.353  20.912  1.00  0.00    -0.006 C 
HETATM    3  C7  UNL     1      -1.469  17.505  21.618  1.00  0.00     0.038 C 
HETATM    4  C8  UNL     1      -0.480  18.608  21.884  1.00  0.00     0.187 C 
HETATM    5  C9  UNL     1       0.014  19.058  20.501  1.00  0.00     0.038 C 
HETATM    6  C10 UNL     1       0.763  17.929  19.875  1.00  0.00    -0.006 C 
HETATM    7  C11 UNL     1       1.911  17.420  20.712  1.00  0.00     0.038 C 
HETATM    8  C12 UNL     1       1.295  17.020  22.054  1.00  0.00     0.187 C 
HETATM    9  C13 UNL     1       0.320  15.884  21.865  1.00  0.00     0.038 C 
HETATM   10  N1  UNL     1       0.681  18.187  22.613  1.00  0.00    -0.067 N 
ATOM     11  H11 UNL     1       0.462  18.048  23.599  1.00  0.00     0.278 HD
ATOM     12  H12 UNL     1       1.354  18.949  22.698  1.00  0.00     0.278 HD
ENDROOT
BRANCH   1  13
HETATM   13  C4  UNL     1      -1.001  16.938  18.440  1.00  0.00     0.037 C 
BRANCH  13  14
HETATM   14  C3  UNL     1      -0.983  15.965  17.339  1.00  0.00     0.056 C 
HETATM   15  S1  UNL     1       0.815  15.693  16.934  1.00  0.00    -0.148 SA
HETATM   16  C14 UNL     1       0.825  14.604  15.486  1.00  0.00     0.076 C 
HETATM   17  C15 UNL     1       0.228  15.311  14.295  1.00  0.00     0.020 C 
HETATM   18  C16 UNL     1      -0.252  16.705  14.630  1.00  0.00     0.076 C 
HETATM   19  S2  UNL     1      -1.653  16.637  15.806  1.00  0.00    -0.148 SA
BRANCH  14  20
HETATM   20  C2  UNL     1      -1.484  14.592  17.678  1.00  0.00     0.027 C 
HETATM   21  C1  UNL     1      -2.622  14.206  16.796  1.00  0.00     0.007 C 
ENDBRANCH  14  20
ENDBRANCH  13  14
ENDBRANCH   1  13
TORSDOF 3
ENDMDL
MODEL 2
REMARK VINA RESULT: -6.840329351      2.816      4.658
REMARK  3 active torsions:
REMARK  status: ('A' for Active; 'I' for Inactive)
REMARK    1  A    between atoms: C2_2  and  C3_3 
REMARK    2  A    between atoms: C3_3  and  C4_4 
REMARK    3  A    between atoms: C4_4  and  C5_5 
ROOT
HETATM    1  C5  UNL     1      -1.701  19.387  20.995  1.00  0.00    -0.004 C 
HETATM    2  C6  UNL     1      -3.035  20.026  21.036  1.00  0.00    -0.006 C 
HETATM    3  C7  UNL     1      -3.073  21.419  20.460  1.00  0.00     0.038 C 
HETATM    4  C8  UNL     1      -2.099  22.314  21.180  1.00  0.00     0.187 C 
HETATM    5  C9  UNL     1      -0.717  21.689  20.946  1.00  0.00     0.038 C 
HETATM    6  C10 UNL     1      -0.680  20.356  21.619  1.00  0.00    -0.006 C 
HETATM    7  C11 UNL     1      -0.999  20.409  23.092  1.00  0.00     0.038 C 
HETATM    8  C12 UNL     1      -2.381  21.058  23.191  1.00  0.00     0.187 C 
HETATM    9  C13 UNL     1      -3.416  20.188  22.523  1.00  0.00     0.038 C 
HETATM   10  N1  UNL     1      -2.290  22.360  22.600  1.00  0.00    -0.067 N 
ATOM     11  H11 UNL     1      -3.101  22.928  22.842  1.00  0.00     0.278 HD
ATOM     12  H12 UNL     1      -1.560  22.914  23.048  1.00  0.00     0.278 HD
ENDROOT
BRANCH   1  13
HETATM   13  C4  UNL     1      -1.198  18.856  19.713  1.00  0.00     0.037 C 
BRANCH  13  14
HETATM   14  C3  UNL     1      -0.447  17.594  19.688  1.00  0.00     0.056 C 
HETATM   15  S1  UNL     1      -0.714  16.815  21.359  1.00  0.00    -0.148 SA
HETATM   16  C14 UNL     1       0.328  15.332  21.373  1.00  0.00     0.076 C 
HETATM   17  C15 UNL     1       1.785  15.715  21.316  1.00  0.00     0.020 C 
HETATM   18  C16 UNL     1       1.988  17.210  21.221  1.00  0.00     0.076 C 
HETATM   19  S2  UNL     1       1.337  17.847  19.634  1.00  0.00    -0.148 SA
BRANCH  14  20
HETATM   20  C2  UNL     1      -0.950  16.558  18.727  1.00  0.00     0.027 C 
HETATM   21  C1  UNL     1      -1.271  17.169  17.405  1.00  0.00     0.007 C 
ENDBRANCH  14  20
ENDBRANCH  13  14
ENDBRANCH   1  13
TORSDOF 3
ENDMDL
MODEL 3
REMARK VINA RESULT: -6.812956841      2.546      4.107
REMARK  3 active torsions:
REMARK  status: ('A' for Active; 'I' for Inactive)
REMARK    1  A    between atoms: C2_2  and  C3_3 
REMARK    2  A    between atoms: C3_3  and  C4_4 
REMARK    3  A    between atoms: C4_4  and  C5_5 
ROOT
HETATM    1  C5  UNL     1      -1.099  19.534  20.408  1.00  0.00    -0.004 C 
HETATM    2  C6  UNL     1      -1.248  19.077  21.807  1.00  0.00    -0.006 C 
HETATM    3  C7  UNL     1      -2.679  18.920  22.257  1.00  0.00     0.038 C 
HETATM    4  C8  UNL     1      -3.426  20.218  22.103  1.00  0.00     0.187 C 
HETATM    5  C9  UNL     1      -3.382  20.541  20.603  1.00  0.00     0.038 C 
HETATM    6  C10 UNL     1      -1.964  20.793  20.214  1.00  0.00    -0.006 C 
HETATM    7  C11 UNL     1      -1.297  21.885  21.014  1.00  0.00     0.038 C 
HETATM    8  C12 UNL     1      -1.418  21.455  22.477  1.00  0.00     0.187 C 
HETATM    9  C13 UNL     1      -0.653  20.176  22.711  1.00  0.00     0.038 C 
HETATM   10  N1  UNL     1      -2.813  21.326  22.775  1.00  0.00    -0.067 N 
ATOM     11  H11 UNL     1      -2.967  21.274  23.782  1.00  0.00     0.278 HD
ATOM     12  H12 UNL     1      -3.311  22.194  22.577  1.00  0.00     0.278 HD
ENDROOT
BRANCH   1  13
HETATM   13  C4  UNL     1      -1.325  18.574  19.310  1.00  0.00     0.037 C 
BRANCH  13  14
HETATM   14  C3  UNL     1      -0.271  17.616  18.946  1.00  0.00     0.056 C 
HETATM   15  S1  UNL     1      -0.697  16.036  19.836  1.00  0.00    -0.148 SA
HETATM   16  C14 UNL     1       0.679  14.906  19.498  1.00  0.00     0.076 C 
HETATM   17  C15 UNL     1       1.947  15.418  20.134  1.00  0.00     0.020 C 
HETATM   18  C16 UNL     1       1.747  16.740  20.839  1.00  0.00     0.076 C 
HETATM   19  S2  UNL     1       1.336  18.056  19.635  1.00  0.00    -0.148 SA
BRANCH  14  20
HETATM   20  C2  UNL     1      -0.232  17.213  17.502  1.00  0.00     0.027 C 
HETATM   21  C1  UNL     1      -1.591  16.845  17.014  1.00  0.00     0.007 C 
ENDBRANCH  14  20
ENDBRANCH  13  14
ENDBRANCH   1  13
TORSDOF 3
ENDMDL
MODEL 4
REMARK VINA RESULT: -6.796545475      3.271      6.004
REMARK  3 active torsions:
REMARK  status: ('A' for Active; 'I' for Inactive)
REMARK    1  A    between atoms: C2_2  and  C3_3 
REMARK    2  A    between atoms: C3_3  and  C4_4 
REMARK    3  A    between atoms: C4_4  and  C5_5 
ROOT
HETATM    1  C5  UNL     1      -0.638  17.617  20.781  1.00  0.00    -0.004 C 
HETATM    2  C6  UNL     1      -0.724  16.152  20.600  1.00  0.00    -0.006 C 
HETATM    3  C7  UNL     1       0.280  15.368  21.408  1.00  0.00     0.038 C 
HETATM    4  C8  UNL     1       1.682  15.803  21.071  1.00  0.00     0.187 C 
HETATM    5  C9  UNL     1       1.752  17.290  21.449  1.00  0.00     0.038 C 
HETATM    6  C10 UNL     1       0.824  18.049  20.560  1.00  0.00    -0.006 C 
HETATM    7  C11 UNL     1       1.098  17.859  19.089  1.00  0.00     0.038 C 
HETATM    8  C12 UNL     1       1.013  16.351  18.846  1.00  0.00     0.187 C 
HETATM    9  C13 UNL     1      -0.384  15.854  19.125  1.00  0.00     0.038 C 
HETATM   10  N1  UNL     1       1.998  15.723  19.675  1.00  0.00    -0.067 N 
ATOM     11  H11 UNL     1       2.152  14.757  19.390  1.00  0.00     0.278 HD
ATOM     12  H12 UNL     1       2.926  16.101  19.489  1.00  0.00     0.278 HD
ENDROOT
BRANCH   1  13
HETATM   13  C4  UNL     1      -1.178  18.222  22.014  1.00  0.00     0.037 C 
BRANCH  13  14
HETATM   14  C3  UNL     1      -1.574  19.637  22.023  1.00  0.00     0.056 C 
HETATM   15  S1  UNL     1      -2.870  19.791  23.352  1.00  0.00    -0.148 SA
HETATM   16  C14 UNL     1      -3.455  21.503  23.262  1.00  0.00     0.076 C 
HETATM   17  C15 UNL     1      -4.164  21.746  21.953  1.00  0.00     0.020 C 
HETATM   18  C16 UNL     1      -4.163  20.526  21.059  1.00  0.00     0.076 C 
HETATM   19  S2  UNL     1      -2.460  20.121  20.528  1.00  0.00    -0.148 SA
BRANCH  14  20
HETATM   20  C2  UNL     1      -0.510  20.606  22.447  1.00  0.00     0.027 C 
HETATM   21  C1  UNL     1      -0.252  21.615  21.380  1.00  0.00     0.007 C 
ENDBRANCH  14  20
ENDBRANCH  13  14
ENDBRANCH   1  13
TORSDOF 3
ENDMDL
MODEL 5
REMARK VINA RESULT: -6.758868134      3.091      5.721
REMARK  3 active torsions:
REMARK  status: ('A' for Active; 'I' for Inactive)
REMARK    1  A    between atoms: C2_2  and  C3_3 
REMARK    2  A    between atoms: C3_3  and  C4_4 
REMARK    3  A    between atoms: C4_4  and  C5_5 
ROOT
HETATM    1  C5  UNL     1      -0.428  17.586  20.756  1.00  0.00    -0.004 C 
HETATM    2  C6  UNL     1      -0.610  16.159  20.411  1.00  0.00    -0.006 C 
HETATM    3  C7  UNL     1       0.371  15.230  21.082  1.00  0.00     0.038 C 
HETATM    4  C8  UNL     1       1.785  15.621  20.743  1.00  0.00     0.187 C 
HETATM    5  C9  UNL     1       1.958  17.047  21.287  1.00  0.00     0.038 C 
HETATM    6  C10 UNL     1       1.049  17.957  20.529  1.00  0.00    -0.006 C 
HETATM    7  C11 UNL     1       1.263  17.926  19.036  1.00  0.00     0.038 C 
HETATM    8  C12 UNL     1       1.078  16.465  18.624  1.00  0.00     0.187 C 
HETATM    9  C13 UNL     1      -0.337  16.019  18.898  1.00  0.00     0.038 C 
HETATM   10  N1  UNL     1       2.049  15.689  19.335  1.00  0.00    -0.067 N 
ATOM     11  H11 UNL     1       2.135  14.755  18.935  1.00  0.00     0.278 HD
ATOM     12  H12 UNL     1       2.993  16.033  19.158  1.00  0.00     0.278 HD
ENDROOT
BRANCH   1  13
HETATM   13  C4  UNL     1      -0.890  18.071  22.071  1.00  0.00     0.037 C 
BRANCH  13  14
HETATM   14  C3  UNL     1      -1.654  19.322  22.163  1.00  0.00     0.056 C 
HETATM   15  S1  UNL     1      -2.231  19.689  20.430  1.00  0.00    -0.148 SA
HETATM   16  C14 UNL     1      -3.051  21.303  20.525  1.00  0.00     0.076 C 
HETATM   17  C15 UNL     1      -2.052  22.378  20.872  1.00  0.00     0.020 C 
HETATM   18  C16 UNL     1      -0.660  21.828  21.087  1.00  0.00     0.076 C 
HETATM   19  S2  UNL     1      -0.618  20.743  22.561  1.00  0.00    -0.148 SA
BRANCH  14  20
HETATM   20  C2  UNL     1      -2.926  19.249  22.955  1.00  0.00     0.027 C 
HETATM   21  C1  UNL     1      -2.778  19.938  24.268  1.00  0.00     0.007 C 
ENDBRANCH  14  20
ENDBRANCH  13  14
ENDBRANCH   1  13
TORSDOF 3
ENDMDL
