MODEL 1
REMARK VINA RESULT: -5.920248212      0.000      0.000
REMARK  14 active torsions:
REMARK  status: ('A' for Active; 'I' for Inactive)
REMARK    1  A    between atoms: C2_2  and  C3_3 
REMARK    2  A    between atoms: C4_4  and  C5_5 
REMARK    3  A    between atoms: C5_5  and  C6_6 
REMARK    4  A    between atoms: C7_7  and  O1_8 
REMARK    5  A    between atoms: C8_10  and  O2_11 
REMARK    6  A    between atoms: C9_13  and  O3_14 
REMARK    7  A    between atoms: C13_22  and  C14_23 
REMARK    8  A    between atoms: C15_26  and  S1_27 
REMARK    9  A    between atoms: S1_27  and  C16_28 
REMARK   10  A    between atoms: C16_28  and  C17_29 
REMARK   11  A    between atoms: C17_29  and  C18_30 
REMARK   12  A    between atoms: C18_30  and  C19_31 
REMARK   13  A    between atoms: C19_31  and  C20_32 
REMARK   14  A    between atoms: C20_32  and  C21_33 
ROOT
HETATM    1  C6  UNL     1      46.066  18.992  39.185  1.00  0.00     0.054 C 
HETATM    2  C7  UNL     1      44.929  19.658  39.811  1.00  0.00     0.156 C 
HETATM    3  C8  UNL     1      44.609  21.046  39.595  1.00  0.00     0.176 C 
HETATM    4  C9  UNL     1      45.586  22.042  39.152  1.00  0.00     0.153 C 
HETATM    5  C10 UNL     1      46.961  22.038  39.646  1.00  0.00     0.077 C 
HETATM    6  C11 UNL     1      47.544  20.802  40.214  1.00  0.00     0.020 C 
HETATM    7  C12 UNL     1      47.253  20.666  41.634  1.00  0.00     0.251 C 
HETATM    8  O4  UNL     1      46.613  21.614  42.139  1.00  0.00    -0.268 OA
HETATM    9  N1  UNL     1      47.576  19.635  42.542  1.00  0.00    -0.316 N 
ATOM     10  H1  UNL     1      47.403  19.826  43.530  1.00  0.00     0.169 HD
HETATM   11  C13 UNL     1      48.112  18.369  42.229  1.00  0.00     0.141 C 
HETATM   12  C15 UNL     1      48.467  17.915  41.038  1.00  0.00     0.138 C 
HETATM   13  O6  UNL     1      48.380  18.605  39.844  1.00  0.00    -0.331 OA
HETATM   14  C23 UNL     1      47.415  19.570  39.386  1.00  0.00     0.171 C 
ENDROOT
BRANCH  12  15
HETATM   15  S1  UNL     1      49.104  16.254  41.065  1.00  0.00    -0.103 SA
BRANCH  15  16
HETATM   16  C16 UNL     1      50.610  16.086  40.097  1.00  0.00     0.081 C 
BRANCH  16  17
HETATM   17  C17 UNL     1      50.331  15.832  38.629  1.00  0.00     0.010 C 
BRANCH  17  18
HETATM   18  C18 UNL     1      50.702  17.089  37.810  1.00  0.00     0.001 C 
BRANCH  18  19
HETATM   19  C19 UNL     1      49.934  17.058  36.527  1.00  0.00     0.000 C 
BRANCH  19  20
HETATM   20  C20 UNL     1      50.647  17.431  35.295  1.00  0.00    -0.000 C 
BRANCH  20  21
HETATM   21  C21 UNL     1      49.855  17.780  34.095  1.00  0.00    -0.005 C 
HETATM   22  C22 UNL     1      48.379  17.641  34.182  1.00  0.00     0.005 C 
ENDBRANCH  20  21
ENDBRANCH  19  20
ENDBRANCH  18  19
ENDBRANCH  17  18
ENDBRANCH  16  17
ENDBRANCH  15  16
ENDBRANCH  12  15
BRANCH  11  23
HETATM   23  C14 UNL     1      48.286  17.477  43.365  1.00  0.00     0.284 C 
HETATM   24  N2  UNL     1      49.406  17.601  44.210  1.00  0.00    -0.056 NA
HETATM   25  O5  UNL     1      47.433  16.603  43.581  1.00  0.00    -0.269 OA
ENDBRANCH  11  23
BRANCH   1  26
HETATM   26  C5  UNL     1      45.912  18.565  37.734  1.00  0.00     0.037 C 
BRANCH  26  27
HETATM   27  C4  UNL     1      46.462  17.253  37.394  1.00  0.00    -0.030 C 
HETATM   28  C3  UNL     1      45.877  16.371  36.600  1.00  0.00    -0.031 C 
BRANCH  28  29
HETATM   29  C2  UNL     1      46.537  15.069  36.329  1.00  0.00     0.022 C 
HETATM   30  C1  UNL     1      47.167  14.459  37.547  1.00  0.00     0.009 C 
ENDBRANCH  28  29
ENDBRANCH  26  27
ENDBRANCH   1  26
BRANCH   2  31
HETATM   31  O1  UNL     1      43.772  18.870  39.540  1.00  0.00    -0.392 OA
ATOM     32  H1  UNL     1      43.727  18.193  40.205  1.00  0.00     0.210 HD
ENDBRANCH   2  31
BRANCH   3  33
HETATM   33  O2  UNL     1      43.559  21.118  38.630  1.00  0.00    -0.390 OA
ATOM     34  H2  UNL     1      43.939  21.363  37.794  1.00  0.00     0.210 HD
ENDBRANCH   3  33
BRANCH   4  35
HETATM   35  O3  UNL     1      45.570  22.198  37.732  1.00  0.00    -0.393 OA
ATOM     36  H3  UNL     1      46.407  22.508  37.406  1.00  0.00     0.210 HD
ENDBRANCH   4  35
TORSDOF 14
ENDMDL
MODEL 2
REMARK VINA RESULT: -5.806028571      3.012      5.412
REMARK  14 active torsions:
REMARK  status: ('A' for Active; 'I' for Inactive)
REMARK    1  A    between atoms: C2_2  and  C3_3 
REMARK    2  A    between atoms: C4_4  and  C5_5 
REMARK    3  A    between atoms: C5_5  and  C6_6 
REMARK    4  A    between atoms: C7_7  and  O1_8 
REMARK    5  A    between atoms: C8_10  and  O2_11 
REMARK    6  A    between atoms: C9_13  and  O3_14 
REMARK    7  A    between atoms: C13_22  and  C14_23 
REMARK    8  A    between atoms: C15_26  and  S1_27 
REMARK    9  A    between atoms: S1_27  and  C16_28 
REMARK   10  A    between atoms: C16_28  and  C17_29 
REMARK   11  A    between atoms: C17_29  and  C18_30 
REMARK   12  A    between atoms: C18_30  and  C19_31 
REMARK   13  A    between atoms: C19_31  and  C20_32 
REMARK   14  A    between atoms: C20_32  and  C21_33 
ROOT
HETATM    1  C6  UNL     1      47.538  21.006  39.265  1.00  0.00     0.054 C 
HETATM    2  C7  UNL     1      46.249  21.659  39.066  1.00  0.00     0.156 C 
HETATM    3  C8  UNL     1      45.393  22.064  40.152  1.00  0.00     0.176 C 
HETATM    4  C9  UNL     1      45.450  21.476  41.491  1.00  0.00     0.153 C 
HETATM    5  C10 UNL     1      45.669  20.044  41.689  1.00  0.00     0.077 C 
HETATM    6  C11 UNL     1      46.300  19.233  40.623  1.00  0.00     0.020 C 
HETATM    7  C12 UNL     1      45.322  18.739  39.665  1.00  0.00     0.251 C 
HETATM    8  O4  UNL     1      44.133  19.036  39.917  1.00  0.00    -0.268 OA
HETATM    9  N1  UNL     1      45.492  17.976  38.490  1.00  0.00    -0.316 N 
ATOM     10  H1  UNL     1      44.644  17.612  38.056  1.00  0.00     0.169 HD
HETATM   11  C13 UNL     1      46.711  17.665  37.854  1.00  0.00     0.141 C 
HETATM   12  C15 UNL     1      47.934  17.977  38.254  1.00  0.00     0.138 C 
HETATM   13  O6  UNL     1      48.262  18.682  39.395  1.00  0.00    -0.331 OA
HETATM   14  C23 UNL     1      47.577  19.758  40.063  1.00  0.00     0.171 C 
ENDROOT
BRANCH  12  15
HETATM   15  S1  UNL     1      49.214  17.395  37.164  1.00  0.00    -0.103 SA
BRANCH  15  16
HETATM   16  C16 UNL     1      50.631  16.747  38.062  1.00  0.00     0.081 C 
BRANCH  16  17
HETATM   17  C17 UNL     1      51.759  17.753  38.169  1.00  0.00     0.010 C 
BRANCH  17  18
HETATM   18  C18 UNL     1      52.016  18.082  39.657  1.00  0.00     0.001 C 
BRANCH  18  19
HETATM   19  C19 UNL     1      51.600  19.496  39.906  1.00  0.00     0.000 C 
BRANCH  19  20
HETATM   20  C20 UNL     1      52.660  20.487  40.153  1.00  0.00    -0.000 C 
BRANCH  20  21
HETATM   21  C21 UNL     1      52.544  21.821  39.523  1.00  0.00    -0.005 C 
HETATM   22  C22 UNL     1      53.081  22.984  40.274  1.00  0.00     0.005 C 
ENDBRANCH  20  21
ENDBRANCH  19  20
ENDBRANCH  18  19
ENDBRANCH  17  18
ENDBRANCH  16  17
ENDBRANCH  15  16
ENDBRANCH  12  15
BRANCH  11  23
HETATM   23  C14 UNL     1      46.583  16.911  36.617  1.00  0.00     0.284 C 
HETATM   24  N2  UNL     1      46.292  17.566  35.404  1.00  0.00    -0.056 NA
HETATM   25  O5  UNL     1      46.735  15.681  36.642  1.00  0.00    -0.269 OA
ENDBRANCH  11  23
BRANCH   1  26
HETATM   26  C5  UNL     1      48.714  21.888  39.652  1.00  0.00     0.037 C 
BRANCH  26  27
HETATM   27  C4  UNL     1      49.207  21.729  41.020  1.00  0.00    -0.030 C 
HETATM   28  C3  UNL     1      49.648  22.716  41.784  1.00  0.00    -0.031 C 
BRANCH  28  29
HETATM   29  C2  UNL     1      50.124  22.429  43.159  1.00  0.00     0.022 C 
HETATM   30  C1  UNL     1      50.102  20.968  43.502  1.00  0.00     0.009 C 
ENDBRANCH  28  29
ENDBRANCH  26  27
ENDBRANCH   1  26
BRANCH   2  31
HETATM   31  O1  UNL     1      46.465  22.777  38.208  1.00  0.00    -0.392 OA
ATOM     32  H1  UNL     1      45.613  23.133  37.985  1.00  0.00     0.210 HD
ENDBRANCH   2  31
BRANCH   3  33
HETATM   33  O2  UNL     1      45.574  23.464  40.367  1.00  0.00    -0.390 OA
ATOM     34  H2  UNL     1      44.820  23.792  40.842  1.00  0.00     0.210 HD
ENDBRANCH   3  33
BRANCH   4  35
HETATM   35  O3  UNL     1      46.293  22.231  42.361  1.00  0.00    -0.393 OA
ATOM     36  H3  UNL     1      46.108  22.045  43.274  1.00  0.00     0.210 HD
ENDBRANCH   4  35
TORSDOF 14
ENDMDL
MODEL 3
REMARK VINA RESULT: -5.798325894      3.006      5.444
REMARK  14 active torsions:
REMARK  status: ('A' for Active; 'I' for Inactive)
REMARK    1  A    between atoms: C2_2  and  C3_3 
REMARK    2  A    between atoms: C4_4  and  C5_5 
REMARK    3  A    between atoms: C5_5  and  C6_6 
REMARK    4  A    between atoms: C7_7  and  O1_8 
REMARK    5  A    between atoms: C8_10  and  O2_11 
REMARK    6  A    between atoms: C9_13  and  O3_14 
REMARK    7  A    between atoms: C13_22  and  C14_23 
REMARK    8  A    between atoms: C15_26  and  S1_27 
REMARK    9  A    between atoms: S1_27  and  C16_28 
REMARK   10  A    between atoms: C16_28  and  C17_29 
REMARK   11  A    between atoms: C17_29  and  C18_30 
REMARK   12  A    between atoms: C18_30  and  C19_31 
REMARK   13  A    between atoms: C19_31  and  C20_32 
REMARK   14  A    between atoms: C20_32  and  C21_33 
ROOT
HETATM    1  C6  UNL     1      47.595  21.072  40.944  1.00  0.00     0.054 C 
HETATM    2  C7  UNL     1      47.691  21.659  39.612  1.00  0.00     0.156 C 
HETATM    3  C8  UNL     1      46.669  22.502  39.045  1.00  0.00     0.176 C 
HETATM    4  C9  UNL     1      45.273  22.487  39.482  1.00  0.00     0.153 C 
HETATM    5  C10 UNL     1      44.592  21.241  39.828  1.00  0.00     0.077 C 
HETATM    6  C11 UNL     1      45.377  20.044  40.206  1.00  0.00     0.020 C 
HETATM    7  C12 UNL     1      45.772  19.263  39.044  1.00  0.00     0.251 C 
HETATM    8  O4  UNL     1      45.356  19.695  37.946  1.00  0.00    -0.268 OA
HETATM    9  N1  UNL     1      46.552  18.091  38.947  1.00  0.00    -0.316 N 
ATOM     10  H1  UNL     1      46.571  17.628  38.038  1.00  0.00     0.169 HD
HETATM   11  C13 UNL     1      47.309  17.492  39.975  1.00  0.00     0.141 C 
HETATM   12  C15 UNL     1      47.398  17.873  41.239  1.00  0.00     0.138 C 
HETATM   13  O6  UNL     1      46.756  18.954  41.811  1.00  0.00    -0.331 OA
HETATM   14  C23 UNL     1      46.411  20.239  41.261  1.00  0.00     0.171 C 
ENDROOT
BRANCH  12  15
HETATM   15  S1  UNL     1      48.465  16.845  42.224  1.00  0.00    -0.103 SA
BRANCH  15  16
HETATM   16  C16 UNL     1      49.886  17.746  42.858  1.00  0.00     0.081 C 
BRANCH  16  17
HETATM   17  C17 UNL     1      50.595  18.543  41.781  1.00  0.00     0.010 C 
BRANCH  17  18
HETATM   18  C18 UNL     1      52.104  18.617  42.104  1.00  0.00     0.001 C 
BRANCH  18  19
HETATM   19  C19 UNL     1      52.676  19.811  41.410  1.00  0.00     0.000 C 
BRANCH  19  20
HETATM   20  C20 UNL     1      51.807  20.535  40.468  1.00  0.00    -0.000 C 
BRANCH  20  21
HETATM   21  C21 UNL     1      52.357  21.710  39.756  1.00  0.00    -0.005 C 
HETATM   22  C22 UNL     1      52.645  22.926  40.558  1.00  0.00     0.005 C 
ENDBRANCH  20  21
ENDBRANCH  19  20
ENDBRANCH  18  19
ENDBRANCH  17  18
ENDBRANCH  16  17
ENDBRANCH  15  16
ENDBRANCH  12  15
BRANCH  11  23
HETATM   23  C14 UNL     1      48.070  16.319  39.574  1.00  0.00     0.284 C 
HETATM   24  N2  UNL     1      47.483  15.039  39.598  1.00  0.00    -0.056 NA
HETATM   25  O5  UNL     1      49.247  16.461  39.209  1.00  0.00    -0.269 OA
ENDBRANCH  11  23
BRANCH   1  26
HETATM   26  C5  UNL     1      47.908  21.974  42.128  1.00  0.00     0.037 C 
BRANCH  26  27
HETATM   27  C4  UNL     1      49.136  21.663  42.859  1.00  0.00    -0.030 C 
HETATM   28  C3  UNL     1      50.046  22.553  43.221  1.00  0.00    -0.031 C 
BRANCH  28  29
HETATM   29  C2  UNL     1      51.254  22.114  43.962  1.00  0.00     0.022 C 
HETATM   30  C1  UNL     1      51.014  20.916  44.833  1.00  0.00     0.009 C 
ENDBRANCH  28  29
ENDBRANCH  26  27
ENDBRANCH   1  26
BRANCH   2  31
HETATM   31  O1  UNL     1      48.943  22.334  39.533  1.00  0.00    -0.392 OA
ATOM     32  H1  UNL     1      49.215  22.323  38.623  1.00  0.00     0.210 HD
ENDBRANCH   2  31
BRANCH   3  33
HETATM   33  O2  UNL     1      47.078  23.861  39.194  1.00  0.00    -0.390 OA
ATOM     34  H2  UNL     1      47.240  24.220  38.330  1.00  0.00     0.210 HD
ENDBRANCH   3  33
BRANCH   4  35
HETATM   35  O3  UNL     1      45.022  23.480  40.477  1.00  0.00    -0.393 OA
ATOM     36  H3  UNL     1      45.405  23.241  41.313  1.00  0.00     0.210 HD
ENDBRANCH   4  35
TORSDOF 14
ENDMDL
MODEL 4
REMARK VINA RESULT: -5.707078002      2.579      5.035
REMARK  14 active torsions:
REMARK  status: ('A' for Active; 'I' for Inactive)
REMARK    1  A    between atoms: C2_2  and  C3_3 
REMARK    2  A    between atoms: C4_4  and  C5_5 
REMARK    3  A    between atoms: C5_5  and  C6_6 
REMARK    4  A    between atoms: C7_7  and  O1_8 
REMARK    5  A    between atoms: C8_10  and  O2_11 
REMARK    6  A    between atoms: C9_13  and  O3_14 
REMARK    7  A    between atoms: C13_22  and  C14_23 
REMARK    8  A    between atoms: C15_26  and  S1_27 
REMARK    9  A    between atoms: S1_27  and  C16_28 
REMARK   10  A    between atoms: C16_28  and  C17_29 
REMARK   11  A    between atoms: C17_29  and  C18_30 
REMARK   12  A    between atoms: C18_30  and  C19_31 
REMARK   13  A    between atoms: C19_31  and  C20_32 
REMARK   14  A    between atoms: C20_32  and  C21_33 
ROOT
HETATM    1  C6  UNL     1      47.534  20.977  39.213  1.00  0.00     0.054 C 
HETATM    2  C7  UNL     1      46.290  21.715  39.020  1.00  0.00     0.156 C 
HETATM    3  C8  UNL     1      45.450  22.144  40.109  1.00  0.00     0.176 C 
HETATM    4  C9  UNL     1      45.456  21.519  41.432  1.00  0.00     0.153 C 
HETATM    5  C10 UNL     1      45.584  20.072  41.594  1.00  0.00     0.077 C 
HETATM    6  C11 UNL     1      46.174  19.251  40.513  1.00  0.00     0.020 C 
HETATM    7  C12 UNL     1      45.177  18.844  39.534  1.00  0.00     0.251 C 
HETATM    8  O4  UNL     1      44.006  19.208  39.783  1.00  0.00    -0.268 OA
HETATM    9  N1  UNL     1      45.312  18.102  38.341  1.00  0.00    -0.316 N 
ATOM     10  H1  UNL     1      44.447  17.803  37.889  1.00  0.00     0.169 HD
HETATM   11  C13 UNL     1      46.515  17.731  37.707  1.00  0.00     0.141 C 
HETATM   12  C15 UNL     1      47.750  17.956  38.126  1.00  0.00     0.138 C 
HETATM   13  O6  UNL     1      48.110  18.610  39.288  1.00  0.00    -0.331 OA
HETATM   14  C23 UNL     1      47.486  19.709  39.978  1.00  0.00     0.171 C 
ENDROOT
BRANCH  12  15
HETATM   15  S1  UNL     1      49.003  17.324  37.032  1.00  0.00    -0.103 SA
BRANCH  15  16
HETATM   16  C16 UNL     1      50.586  17.110  37.860  1.00  0.00     0.081 C 
BRANCH  16  17
HETATM   17  C17 UNL     1      51.761  17.284  36.919  1.00  0.00     0.010 C 
BRANCH  17  18
HETATM   18  C18 UNL     1      51.380  16.759  35.517  1.00  0.00     0.001 C 
BRANCH  18  19
HETATM   19  C19 UNL     1      51.869  17.738  34.498  1.00  0.00     0.000 C 
BRANCH  19  20
HETATM   20  C20 UNL     1      51.112  17.851  33.240  1.00  0.00    -0.000 C 
BRANCH  20  21
HETATM   21  C21 UNL     1      49.636  17.929  33.306  1.00  0.00    -0.005 C 
HETATM   22  C22 UNL     1      48.861  17.070  32.376  1.00  0.00     0.005 C 
ENDBRANCH  20  21
ENDBRANCH  19  20
ENDBRANCH  18  19
ENDBRANCH  17  18
ENDBRANCH  16  17
ENDBRANCH  15  16
ENDBRANCH  12  15
BRANCH  11  23
HETATM   23  C14 UNL     1      46.353  17.020  36.449  1.00  0.00     0.284 C 
HETATM   24  N2  UNL     1      46.313  15.612  36.420  1.00  0.00    -0.056 NA
HETATM   25  O5  UNL     1      46.251  17.670  35.398  1.00  0.00    -0.269 OA
ENDBRANCH  11  23
BRANCH   1  26
HETATM   26  C5  UNL     1      48.759  21.774  39.633  1.00  0.00     0.037 C 
BRANCH  26  27
HETATM   27  C4  UNL     1      49.257  21.513  40.983  1.00  0.00    -0.030 C 
HETATM   28  C3  UNL     1      49.690  22.440  41.822  1.00  0.00    -0.031 C 
BRANCH  28  29
HETATM   29  C2  UNL     1      50.171  22.050  43.170  1.00  0.00     0.022 C 
HETATM   30  C1  UNL     1      50.478  23.224  44.053  1.00  0.00     0.009 C 
ENDBRANCH  28  29
ENDBRANCH  26  27
ENDBRANCH   1  26
BRANCH   2  31
HETATM   31  O1  UNL     1      46.585  22.838  38.194  1.00  0.00    -0.392 OA
ATOM     32  H1  UNL     1      45.899  22.896  37.538  1.00  0.00     0.210 HD
ENDBRANCH   2  31
BRANCH   3  33
HETATM   33  O2  UNL     1      45.716  23.524  40.362  1.00  0.00    -0.390 OA
ATOM     34  H2  UNL     1      46.656  23.654  40.344  1.00  0.00     0.210 HD
ENDBRANCH   3  33
BRANCH   4  35
HETATM   35  O3  UNL     1      46.336  22.198  42.329  1.00  0.00    -0.393 OA
ATOM     36  H3  UNL     1      46.783  21.590  42.906  1.00  0.00     0.210 HD
ENDBRANCH   4  35
TORSDOF 14
ENDMDL
MODEL 5
REMARK VINA RESULT: -5.660024976      3.540      6.195
REMARK  14 active torsions:
REMARK  status: ('A' for Active; 'I' for Inactive)
REMARK    1  A    between atoms: C2_2  and  C3_3 
REMARK    2  A    between atoms: C4_4  and  C5_5 
REMARK    3  A    between atoms: C5_5  and  C6_6 
REMARK    4  A    between atoms: C7_7  and  O1_8 
REMARK    5  A    between atoms: C8_10  and  O2_11 
REMARK    6  A    between atoms: C9_13  and  O3_14 
REMARK    7  A    between atoms: C13_22  and  C14_23 
REMARK    8  A    between atoms: C15_26  and  S1_27 
REMARK    9  A    between atoms: S1_27  and  C16_28 
REMARK   10  A    between atoms: C16_28  and  C17_29 
REMARK   11  A    between atoms: C17_29  and  C18_30 
REMARK   12  A    between atoms: C18_30  and  C19_31 
REMARK   13  A    between atoms: C19_31  and  C20_32 
REMARK   14  A    between atoms: C20_32  and  C21_33 
ROOT
HETATM    1  C6  UNL     1      46.818  17.930  37.930  1.00  0.00     0.054 C 
HETATM    2  C7  UNL     1      48.079  17.559  38.561  1.00  0.00     0.156 C 
HETATM    3  C8  UNL     1      48.252  16.357  39.336  1.00  0.00     0.176 C 
HETATM    4  C9  UNL     1      47.147  15.642  39.976  1.00  0.00     0.153 C 
HETATM    5  C10 UNL     1      46.041  16.353  40.613  1.00  0.00     0.077 C 
HETATM    6  C11 UNL     1      45.743  17.754  40.239  1.00  0.00     0.020 C 
HETATM    7  C12 UNL     1      46.527  18.703  41.016  1.00  0.00     0.251 C 
HETATM    8  O4  UNL     1      47.273  18.194  41.882  1.00  0.00    -0.268 OA
HETATM    9  N1  UNL     1      46.588  20.111  40.955  1.00  0.00    -0.316 N 
ATOM     10  H1  UNL     1      47.096  20.580  41.706  1.00  0.00     0.169 HD
HETATM   11  C13 UNL     1      46.020  20.940  39.966  1.00  0.00     0.141 C 
HETATM   12  C15 UNL     1      45.278  20.572  38.933  1.00  0.00     0.138 C 
HETATM   13  O6  UNL     1      44.907  19.280  38.616  1.00  0.00    -0.331 OA
HETATM   14  C23 UNL     1      45.610  18.035  38.782  1.00  0.00     0.171 C 
ENDROOT
BRANCH  12  15
HETATM   15  S1  UNL     1      44.751  21.929  37.910  1.00  0.00    -0.103 SA
BRANCH  15  16
HETATM   16  C16 UNL     1      44.562  21.451  36.187  1.00  0.00     0.081 C 
BRANCH  16  17
HETATM   17  C17 UNL     1      44.321  22.639  35.278  1.00  0.00     0.010 C 
BRANCH  17  18
HETATM   18  C18 UNL     1      45.573  23.545  35.272  1.00  0.00     0.001 C 
BRANCH  18  19
HETATM   19  C19 UNL     1      46.174  23.506  33.904  1.00  0.00     0.000 C 
BRANCH  19  20
HETATM   20  C20 UNL     1      46.398  24.790  33.219  1.00  0.00    -0.000 C 
BRANCH  20  21
HETATM   21  C21 UNL     1      46.119  26.044  33.955  1.00  0.00    -0.005 C 
HETATM   22  C22 UNL     1      45.432  27.134  33.219  1.00  0.00     0.005 C 
ENDBRANCH  20  21
ENDBRANCH  19  20
ENDBRANCH  18  19
ENDBRANCH  17  18
ENDBRANCH  16  17
ENDBRANCH  15  16
ENDBRANCH  12  15
BRANCH  11  23
HETATM   23  C14 UNL     1      46.295  22.359  40.121  1.00  0.00     0.284 C 
HETATM   24  N2  UNL     1      47.533  22.899  39.721  1.00  0.00    -0.056 NA
HETATM   25  O5  UNL     1      45.422  23.092  40.610  1.00  0.00    -0.269 OA
ENDBRANCH  11  23
BRANCH   1  26
HETATM   26  C5  UNL     1      46.457  17.231  36.628  1.00  0.00     0.037 C 
BRANCH  26  27
HETATM   27  C4  UNL     1      47.097  17.757  35.423  1.00  0.00    -0.030 C 
HETATM   28  C3  UNL     1      48.042  17.135  34.737  1.00  0.00    -0.031 C 
BRANCH  28  29
HETATM   29  C2  UNL     1      48.616  17.772  33.526  1.00  0.00     0.022 C 
HETATM   30  C1  UNL     1      50.114  17.869  33.560  1.00  0.00     0.009 C 
ENDBRANCH  28  29
ENDBRANCH  26  27
ENDBRANCH   1  26
BRANCH   2  31
HETATM   31  O1  UNL     1      49.089  17.609  37.556  1.00  0.00    -0.392 OA
ATOM     32  H1  UNL     1      49.848  17.147  37.893  1.00  0.00     0.210 HD
ENDBRANCH   2  31
BRANCH   3  33
HETATM   33  O2  UNL     1      48.883  15.379  38.510  1.00  0.00    -0.390 OA
ATOM     34  H2  UNL     1      48.212  14.940  38.002  1.00  0.00     0.210 HD
ENDBRANCH   3  33
BRANCH   4  35
HETATM   35  O3  UNL     1      46.648  14.594  39.144  1.00  0.00    -0.393 OA
ATOM     36  H3  UNL     1      47.223  14.429  38.406  1.00  0.00     0.210 HD
ENDBRANCH   4  35
TORSDOF 14
ENDMDL
