MODEL 1
REMARK VINA RESULT: -6.907754555      0.000      0.000
REMARK  14 active torsions:
REMARK  status: ('A' for Active; 'I' for Inactive)
REMARK    1  A    between atoms: C3_3  and  C4_4 
REMARK    2  A    between atoms: C4_4  and  N1_5 
REMARK    3  A    between atoms: C8_9  and  O1_10 
REMARK    4  A    between atoms: N4_17  and  C11_18 
REMARK    5  A    between atoms: C11_18  and  C12_19 
REMARK    6  A    between atoms: C12_19  and  C13_20 
REMARK    7  A    between atoms: C13_20  and  N5_21 
REMARK    8  A    between atoms: N5_21  and  C14_22 
REMARK    9  A    between atoms: N5_21  and  C20_30 
REMARK   10  A    between atoms: C14_22  and  C15_23 
REMARK   11  A    between atoms: C15_23  and  N6_24 
REMARK   12  A    between atoms: N6_24  and  C16_26 
REMARK   13  A    between atoms: C20_30  and  C22_32 
REMARK   14  A    between atoms: C22_32  and  O2_33 
ROOT
HETATM    1  C1  UNL     1      51.133  17.441  37.569  1.00  0.00     0.050 C 
HETATM    2  C2  UNL     1      49.725  17.054  37.235  1.00  0.00    -0.039 A 
HETATM    3  C3  UNL     1      49.427  16.351  36.042  1.00  0.00     0.028 A 
HETATM    4  C8  UNL     1      48.108  16.055  35.816  1.00  0.00     0.093 A 
HETATM    5  C9  UNL     1      47.146  16.455  36.756  1.00  0.00     0.069 A 
HETATM    6  C10 UNL     1      45.771  16.306  36.787  1.00  0.00     0.146 A 
HETATM    7  N2  UNL     1      44.960  15.668  35.822  1.00  0.00    -0.080 NA
HETATM    8  N3  UNL     1      45.360  16.886  37.919  1.00  0.00    -0.284 N 
ATOM      9  H3  UNL     1      44.383  16.932  38.208  1.00  0.00     0.188 HD
HETATM   10  N4  UNL     1      46.351  17.393  38.618  1.00  0.00    -0.289 N 
HETATM   11  C23 UNL     1      47.467  17.139  37.915  1.00  0.00     0.073 A 
HETATM   12  C24 UNL     1      48.780  17.438  38.145  1.00  0.00    -0.026 A 
HETATM   13  C25 UNL     1      49.125  18.183  39.375  1.00  0.00     0.051 C 
ENDROOT
BRANCH  10  14
HETATM   14  C11 UNL     1      46.140  18.009  39.905  1.00  0.00     0.154 C 
BRANCH  14  15
HETATM   15  C12 UNL     1      45.141  19.124  39.800  1.00  0.00     0.066 C 
BRANCH  15  16
HETATM   16  C13 UNL     1      45.587  20.461  39.456  1.00  0.00     0.065 C 
BRANCH  16  17
HETATM   17  N5  UNL     1      45.404  21.595  40.221  1.00  0.00    -0.362 N 
BRANCH  17  18
HETATM   18  C14 UNL     1      45.698  21.665  41.595  1.00  0.00     0.107 C 
BRANCH  18  19
HETATM   19  C15 UNL     1      47.129  21.196  41.865  1.00  0.00     0.101 C 
BRANCH  19  20
HETATM   20  N6  UNL     1      48.039  22.153  42.269  1.00  0.00    -0.390 N 
ATOM     21  H6  UNL     1      47.662  23.051  42.570  1.00  0.00     0.159 HD
BRANCH  20  22
HETATM   22  C16 UNL     1      49.417  22.009  42.303  1.00  0.00     0.018 C 
HETATM   23  C17 UNL     1      50.157  21.975  41.009  1.00  0.00     0.037 C 
HETATM   24  C18 UNL     1      49.735  20.666  43.002  1.00  0.00     0.037 C 
HETATM   25  C19 UNL     1      50.134  23.040  43.175  1.00  0.00     0.037 C 
ENDBRANCH  20  22
ENDBRANCH  19  20
ENDBRANCH  18  19
ENDBRANCH  17  18
BRANCH  17  26
HETATM   26  C20 UNL     1      45.323  22.832  39.495  1.00  0.00     0.108 C 
HETATM   27  C21 UNL     1      46.722  23.110  38.935  1.00  0.00     0.035 C 
BRANCH  26  28
HETATM   28  C22 UNL     1      44.417  22.801  38.321  1.00  0.00     0.189 C 
BRANCH  28  29
HETATM   29  O2  UNL     1      43.205  23.465  38.622  1.00  0.00    -0.399 OA
ATOM     30  H2  UNL     1      42.846  23.864  37.838  1.00  0.00     0.209 HD
ENDBRANCH  28  29
ENDBRANCH  26  28
ENDBRANCH  17  26
ENDBRANCH  16  17
ENDBRANCH  15  16
ENDBRANCH  14  15
ENDBRANCH  10  14
BRANCH   4  31
HETATM   31  O1  UNL     1      47.678  15.379  34.701  1.00  0.00    -0.359 OA
ATOM     32  H1  UNL     1      47.055  14.664  34.742  1.00  0.00     0.217 HD
ENDBRANCH   4  31
BRANCH   3  33
HETATM   33  C4  UNL     1      50.548  16.019  35.211  1.00  0.00     0.215 C 
BRANCH  33  34
HETATM   34  N1  UNL     1      50.886  16.587  33.981  1.00  0.00    -0.058 N 
HETATM   35  C5  UNL     1      50.378  17.862  33.626  1.00  0.00     0.277 C 
HETATM   36  C6  UNL     1      52.407  16.838  34.053  1.00  0.00     0.277 C 
HETATM   37  C7  UNL     1      50.826  15.627  32.903  1.00  0.00     0.277 C 
ENDBRANCH  33  34
ENDBRANCH   3  33
TORSDOF 14
ENDMDL
MODEL 2
REMARK VINA RESULT: -6.529807702      1.517      2.169
REMARK  14 active torsions:
REMARK  status: ('A' for Active; 'I' for Inactive)
REMARK    1  A    between atoms: C3_3  and  C4_4 
REMARK    2  A    between atoms: C4_4  and  N1_5 
REMARK    3  A    between atoms: C8_9  and  O1_10 
REMARK    4  A    between atoms: N4_17  and  C11_18 
REMARK    5  A    between atoms: C11_18  and  C12_19 
REMARK    6  A    between atoms: C12_19  and  C13_20 
REMARK    7  A    between atoms: C13_20  and  N5_21 
REMARK    8  A    between atoms: N5_21  and  C14_22 
REMARK    9  A    between atoms: N5_21  and  C20_30 
REMARK   10  A    between atoms: C14_22  and  C15_23 
REMARK   11  A    between atoms: C15_23  and  N6_24 
REMARK   12  A    between atoms: N6_24  and  C16_26 
REMARK   13  A    between atoms: C20_30  and  C22_32 
REMARK   14  A    between atoms: C22_32  and  O2_33 
ROOT
HETATM    1  C1  UNL     1      52.413  16.792  35.522  1.00  0.00     0.050 C 
HETATM    2  C2  UNL     1      50.936  17.018  35.412  1.00  0.00    -0.039 A 
HETATM    3  C3  UNL     1      50.294  17.035  34.150  1.00  0.00     0.028 A 
HETATM    4  C8  UNL     1      48.942  17.265  34.151  1.00  0.00     0.093 A 
HETATM    5  C9  UNL     1      48.283  17.464  35.374  1.00  0.00     0.069 A 
HETATM    6  C10 UNL     1      46.957  17.720  35.673  1.00  0.00     0.146 A 
HETATM    7  N2  UNL     1      45.885  17.840  34.762  1.00  0.00    -0.080 NA
HETATM    8  N3  UNL     1      46.892  17.829  37.004  1.00  0.00    -0.284 N 
ATOM      9  H3  UNL     1      46.028  18.020  37.513  1.00  0.00     0.188 HD
HETATM   10  N4  UNL     1      48.059  17.663  37.585  1.00  0.00    -0.289 N 
HETATM   11  C23 UNL     1      48.936  17.438  36.593  1.00  0.00     0.073 A 
HETATM   12  C24 UNL     1      50.283  17.211  36.598  1.00  0.00    -0.026 A 
HETATM   13  C25 UNL     1      50.988  17.199  37.898  1.00  0.00     0.051 C 
ENDROOT
BRANCH  10  14
HETATM   14  C11 UNL     1      48.206  17.676  39.019  1.00  0.00     0.154 C 
BRANCH  14  15
HETATM   15  C12 UNL     1      47.126  18.502  39.654  1.00  0.00     0.066 C 
BRANCH  15  16
HETATM   16  C13 UNL     1      47.278  19.943  39.738  1.00  0.00     0.065 C 
BRANCH  16  17
HETATM   17  N5  UNL     1      46.250  20.864  39.728  1.00  0.00    -0.362 N 
BRANCH  17  18
HETATM   18  C14 UNL     1      46.384  22.188  40.184  1.00  0.00     0.107 C 
BRANCH  18  19
HETATM   19  C15 UNL     1      47.798  22.710  39.918  1.00  0.00     0.101 C 
BRANCH  19  20
HETATM   20  N6  UNL     1      48.558  23.059  41.018  1.00  0.00    -0.390 N 
ATOM     21  H6  UNL     1      48.262  23.883  41.540  1.00  0.00     0.159 HD
BRANCH  20  22
HETATM   22  C16 UNL     1      49.683  22.395  41.479  1.00  0.00     0.018 C 
HETATM   23  C17 UNL     1      50.475  21.585  40.508  1.00  0.00     0.037 C 
HETATM   24  C18 UNL     1      49.231  21.405  42.579  1.00  0.00     0.037 C 
HETATM   25  C19 UNL     1      50.688  23.293  42.202  1.00  0.00     0.037 C 
ENDBRANCH  20  22
ENDBRANCH  19  20
ENDBRANCH  18  19
ENDBRANCH  17  18
BRANCH  17  26
HETATM   26  C20 UNL     1      45.161  20.576  38.835  1.00  0.00     0.108 C 
HETATM   27  C21 UNL     1      44.007  20.055  39.698  1.00  0.00     0.035 C 
BRANCH  26  28
HETATM   28  C22 UNL     1      44.627  21.756  38.113  1.00  0.00     0.189 C 
BRANCH  28  29
HETATM   29  O2  UNL     1      43.301  21.509  37.688  1.00  0.00    -0.399 OA
ATOM     30  H2  UNL     1      43.136  21.942  36.858  1.00  0.00     0.209 HD
ENDBRANCH  28  29
ENDBRANCH  26  28
ENDBRANCH  17  26
ENDBRANCH  16  17
ENDBRANCH  15  16
ENDBRANCH  14  15
ENDBRANCH  10  14
BRANCH   4  31
HETATM   31  O1  UNL     1      48.196  17.309  33.000  1.00  0.00    -0.359 OA
ATOM     32  H1  UNL     1      47.721  18.084  32.724  1.00  0.00     0.217 HD
ENDBRANCH   4  31
BRANCH   3  33
HETATM   33  C4  UNL     1      51.136  16.800  33.013  1.00  0.00     0.215 C 
BRANCH  33  34
HETATM   34  N1  UNL     1      51.199  15.643  32.232  1.00  0.00    -0.058 N 
HETATM   35  C5  UNL     1      50.598  15.623  30.949  1.00  0.00     0.277 C 
HETATM   36  C6  UNL     1      52.696  15.454  31.907  1.00  0.00     0.277 C 
HETATM   37  C7  UNL     1      50.941  14.450  33.004  1.00  0.00     0.277 C 
ENDBRANCH  33  34
ENDBRANCH   3  33
TORSDOF 14
ENDMDL
MODEL 3
REMARK VINA RESULT: -6.448484678      1.564      2.345
REMARK  14 active torsions:
REMARK  status: ('A' for Active; 'I' for Inactive)
REMARK    1  A    between atoms: C3_3  and  C4_4 
REMARK    2  A    between atoms: C4_4  and  N1_5 
REMARK    3  A    between atoms: C8_9  and  O1_10 
REMARK    4  A    between atoms: N4_17  and  C11_18 
REMARK    5  A    between atoms: C11_18  and  C12_19 
REMARK    6  A    between atoms: C12_19  and  C13_20 
REMARK    7  A    between atoms: C13_20  and  N5_21 
REMARK    8  A    between atoms: N5_21  and  C14_22 
REMARK    9  A    between atoms: N5_21  and  C20_30 
REMARK   10  A    between atoms: C14_22  and  C15_23 
REMARK   11  A    between atoms: C15_23  and  N6_24 
REMARK   12  A    between atoms: N6_24  and  C16_26 
REMARK   13  A    between atoms: C20_30  and  C22_32 
REMARK   14  A    between atoms: C22_32  and  O2_33 
ROOT
HETATM    1  C1  UNL     1      52.421  17.453  35.713  1.00  0.00     0.050 C 
HETATM    2  C2  UNL     1      50.924  17.435  35.704  1.00  0.00    -0.039 A 
HETATM    3  C3  UNL     1      50.203  17.446  34.485  1.00  0.00     0.028 A 
HETATM    4  C8  UNL     1      48.835  17.445  34.578  1.00  0.00     0.093 A 
HETATM    5  C9  UNL     1      48.237  17.431  35.848  1.00  0.00     0.069 A 
HETATM    6  C10 UNL     1      46.911  17.436  36.240  1.00  0.00     0.146 A 
HETATM    7  N2  UNL     1      45.773  17.447  35.402  1.00  0.00    -0.080 NA
HETATM    8  N3  UNL     1      46.919  17.425  37.576  1.00  0.00    -0.284 N 
ATOM      9  H3  UNL     1      46.073  17.427  38.147  1.00  0.00     0.188 HD
HETATM   10  N4  UNL     1      48.134  17.412  38.077  1.00  0.00    -0.289 N 
HETATM   11  C23 UNL     1      48.967  17.417  37.023  1.00  0.00     0.073 A 
HETATM   12  C24 UNL     1      50.330  17.421  36.936  1.00  0.00    -0.026 A 
HETATM   13  C25 UNL     1      51.114  17.423  38.190  1.00  0.00     0.051 C 
ENDROOT
BRANCH  10  14
HETATM   14  C11 UNL     1      48.374  17.333  39.496  1.00  0.00     0.154 C 
BRANCH  14  15
HETATM   15  C12 UNL     1      47.700  18.469  40.210  1.00  0.00     0.066 C 
BRANCH  15  16
HETATM   16  C13 UNL     1      48.060  19.837  39.887  1.00  0.00     0.065 C 
BRANCH  16  17
HETATM   17  N5  UNL     1      47.239  20.938  40.017  1.00  0.00    -0.362 N 
BRANCH  17  18
HETATM   18  C14 UNL     1      47.573  22.221  39.545  1.00  0.00     0.107 C 
BRANCH  18  19
HETATM   19  C15 UNL     1      48.793  22.769  40.289  1.00  0.00     0.101 C 
BRANCH  19  20
HETATM   20  N6  UNL     1      48.773  22.699  41.668  1.00  0.00    -0.390 N 
ATOM     21  H6  UNL     1      47.929  23.031  42.134  1.00  0.00     0.159 HD
BRANCH  20  22
HETATM   22  C16 UNL     1      49.791  22.222  42.478  1.00  0.00     0.018 C 
HETATM   23  C17 UNL     1      50.248  23.071  43.616  1.00  0.00     0.037 C 
HETATM   24  C18 UNL     1      51.039  22.004  41.590  1.00  0.00     0.037 C 
HETATM   25  C19 UNL     1      49.526  20.834  43.064  1.00  0.00     0.037 C 
ENDBRANCH  20  22
ENDBRANCH  19  20
ENDBRANCH  18  19
ENDBRANCH  17  18
BRANCH  17  26
HETATM   26  C20 UNL     1      45.849  20.658  40.250  1.00  0.00     0.108 C 
HETATM   27  C21 UNL     1      45.399  21.572  41.394  1.00  0.00     0.035 C 
BRANCH  26  28
HETATM   28  C22 UNL     1      44.957  20.971  39.107  1.00  0.00     0.189 C 
BRANCH  28  29
HETATM   29  O2  UNL     1      45.072  19.974  38.110  1.00  0.00    -0.399 OA
ATOM     30  H2  UNL     1      45.071  20.371  37.247  1.00  0.00     0.209 HD
ENDBRANCH  28  29
ENDBRANCH  26  28
ENDBRANCH  17  26
ENDBRANCH  16  17
ENDBRANCH  15  16
ENDBRANCH  14  15
ENDBRANCH  10  14
BRANCH   4  31
HETATM   31  O1  UNL     1      48.015  17.456  33.479  1.00  0.00    -0.359 OA
ATOM     32  H1  UNL     1      47.102  17.198  33.515  1.00  0.00     0.217 HD
ENDBRANCH   4  31
BRANCH   3  33
HETATM   33  C4  UNL     1      50.993  17.448  33.288  1.00  0.00     0.215 C 
BRANCH  33  34
HETATM   34  N1  UNL     1      51.421  16.338  32.555  1.00  0.00    -0.058 N 
HETATM   35  C5  UNL     1      51.220  15.032  33.067  1.00  0.00     0.277 C 
HETATM   36  C6  UNL     1      50.555  16.337  31.278  1.00  0.00     0.277 C 
HETATM   37  C7  UNL     1      52.734  16.535  31.986  1.00  0.00     0.277 C 
ENDBRANCH  33  34
ENDBRANCH   3  33
TORSDOF 14
ENDMDL
MODEL 4
REMARK VINA RESULT: -6.384624903      2.637      4.459
REMARK  14 active torsions:
REMARK  status: ('A' for Active; 'I' for Inactive)
REMARK    1  A    between atoms: C3_3  and  C4_4 
REMARK    2  A    between atoms: C4_4  and  N1_5 
REMARK    3  A    between atoms: C8_9  and  O1_10 
REMARK    4  A    between atoms: N4_17  and  C11_18 
REMARK    5  A    between atoms: C11_18  and  C12_19 
REMARK    6  A    between atoms: C12_19  and  C13_20 
REMARK    7  A    between atoms: C13_20  and  N5_21 
REMARK    8  A    between atoms: N5_21  and  C14_22 
REMARK    9  A    between atoms: N5_21  and  C20_30 
REMARK   10  A    between atoms: C14_22  and  C15_23 
REMARK   11  A    between atoms: C15_23  and  N6_24 
REMARK   12  A    between atoms: N6_24  and  C16_26 
REMARK   13  A    between atoms: C20_30  and  C22_32 
REMARK   14  A    between atoms: C22_32  and  O2_33 
ROOT
HETATM    1  C1  UNL     1      54.147  17.857  35.051  1.00  0.00     0.050 C 
HETATM    2  C2  UNL     1      52.682  17.762  34.759  1.00  0.00    -0.039 A 
HETATM    3  C3  UNL     1      52.190  17.914  33.439  1.00  0.00     0.028 A 
HETATM    4  C8  UNL     1      50.832  17.826  33.274  1.00  0.00     0.093 A 
HETATM    5  C9  UNL     1      50.021  17.594  34.396  1.00  0.00     0.069 A 
HETATM    6  C10 UNL     1      48.650  17.470  34.529  1.00  0.00     0.146 A 
HETATM    7  N2  UNL     1      47.682  17.544  33.503  1.00  0.00    -0.080 NA
HETATM    8  N3  UNL     1      48.421  17.262  35.830  1.00  0.00    -0.284 N 
ATOM      9  H3  UNL     1      47.489  17.134  36.227  1.00  0.00     0.188 HD
HETATM   10  N4  UNL     1      49.526  17.240  36.542  1.00  0.00    -0.289 N 
HETATM   11  C23 UNL     1      50.529  17.445  35.673  1.00  0.00     0.073 A 
HETATM   12  C24 UNL     1      51.881  17.534  35.844  1.00  0.00    -0.026 A 
HETATM   13  C25 UNL     1      52.427  17.392  37.211  1.00  0.00     0.051 C 
ENDROOT
BRANCH  10  14
HETATM   14  C11 UNL     1      49.515  16.965  37.957  1.00  0.00     0.154 C 
BRANCH  14  15
HETATM   15  C12 UNL     1      48.526  17.849  38.660  1.00  0.00     0.066 C 
BRANCH  15  16
HETATM   16  C13 UNL     1      47.477  17.255  39.469  1.00  0.00     0.065 C 
BRANCH  16  17
HETATM   17  N5  UNL     1      46.360  17.908  39.946  1.00  0.00    -0.362 N 
BRANCH  17  18
HETATM   18  C14 UNL     1      45.354  18.441  39.119  1.00  0.00     0.107 C 
BRANCH  18  19
HETATM   19  C15 UNL     1      45.144  19.928  39.414  1.00  0.00     0.101 C 
BRANCH  19  20
HETATM   20  N6  UNL     1      46.182  20.785  39.103  1.00  0.00    -0.390 N 
ATOM     21  H6  UNL     1      46.455  20.841  38.122  1.00  0.00     0.159 HD
BRANCH  20  22
HETATM   22  C16 UNL     1      46.886  21.575  39.996  1.00  0.00     0.018 C 
HETATM   23  C17 UNL     1      48.266  21.158  40.376  1.00  0.00     0.037 C 
HETATM   24  C18 UNL     1      46.084  21.624  41.319  1.00  0.00     0.037 C 
HETATM   25  C19 UNL     1      46.984  23.046  39.589  1.00  0.00     0.037 C 
ENDBRANCH  20  22
ENDBRANCH  19  20
ENDBRANCH  18  19
ENDBRANCH  17  18
BRANCH  17  26
HETATM   26  C20 UNL     1      46.022  17.648  41.319  1.00  0.00     0.108 C 
HETATM   27  C21 UNL     1      45.981  16.125  41.483  1.00  0.00     0.035 C 
BRANCH  26  28
HETATM   28  C22 UNL     1      47.019  18.134  42.303  1.00  0.00     0.189 C 
BRANCH  28  29
HETATM   29  O2  UNL     1      46.644  17.747  43.611  1.00  0.00    -0.399 OA
ATOM     30  H2  UNL     1      47.345  17.255  44.021  1.00  0.00     0.209 HD
ENDBRANCH  28  29
ENDBRANCH  26  28
ENDBRANCH  17  26
ENDBRANCH  16  17
ENDBRANCH  15  16
ENDBRANCH  14  15
ENDBRANCH  10  14
BRANCH   4  31
HETATM   31  O1  UNL     1      50.222  17.956  32.052  1.00  0.00    -0.359 OA
ATOM     32  H1  UNL     1      50.305  17.307  31.364  1.00  0.00     0.217 HD
ENDBRANCH   4  31
BRANCH   3  33
HETATM   33  C4  UNL     1      53.178  18.135  32.423  1.00  0.00     0.215 C 
BRANCH  33  34
HETATM   34  N1  UNL     1      53.817  17.170  31.641  1.00  0.00    -0.058 N 
HETATM   35  C5  UNL     1      53.634  15.794  31.926  1.00  0.00     0.277 C 
HETATM   36  C6  UNL     1      53.197  17.309  30.235  1.00  0.00     0.277 C 
HETATM   37  C7  UNL     1      55.191  17.519  31.362  1.00  0.00     0.277 C 
ENDBRANCH  33  34
ENDBRANCH   3  33
TORSDOF 14
ENDMDL
MODEL 5
REMARK VINA RESULT: -6.373964676      1.507      2.265
REMARK  14 active torsions:
REMARK  status: ('A' for Active; 'I' for Inactive)
REMARK    1  A    between atoms: C3_3  and  C4_4 
REMARK    2  A    between atoms: C4_4  and  N1_5 
REMARK    3  A    between atoms: C8_9  and  O1_10 
REMARK    4  A    between atoms: N4_17  and  C11_18 
REMARK    5  A    between atoms: C11_18  and  C12_19 
REMARK    6  A    between atoms: C12_19  and  C13_20 
REMARK    7  A    between atoms: C13_20  and  N5_21 
REMARK    8  A    between atoms: N5_21  and  C14_22 
REMARK    9  A    between atoms: N5_21  and  C20_30 
REMARK   10  A    between atoms: C14_22  and  C15_23 
REMARK   11  A    between atoms: C15_23  and  N6_24 
REMARK   12  A    between atoms: N6_24  and  C16_26 
REMARK   13  A    between atoms: C20_30  and  C22_32 
REMARK   14  A    between atoms: C22_32  and  O2_33 
ROOT
HETATM    1  C1  UNL     1      52.364  16.783  35.607  1.00  0.00     0.050 C 
HETATM    2  C2  UNL     1      50.894  17.024  35.449  1.00  0.00    -0.039 A 
HETATM    3  C3  UNL     1      50.295  17.058  34.166  1.00  0.00     0.028 A 
HETATM    4  C8  UNL     1      48.947  17.301  34.122  1.00  0.00     0.093 A 
HETATM    5  C9  UNL     1      48.248  17.496  35.324  1.00  0.00     0.069 A 
HETATM    6  C10 UNL     1      46.915  17.763  35.580  1.00  0.00     0.146 A 
HETATM    7  N2  UNL     1      45.876  17.901  34.634  1.00  0.00    -0.080 NA
HETATM    8  N3  UNL     1      46.805  17.861  36.908  1.00  0.00    -0.284 N 
ATOM      9  H3  UNL     1      45.927  18.056  37.390  1.00  0.00     0.188 HD
HETATM   10  N4  UNL     1      47.951  17.679  37.527  1.00  0.00    -0.289 N 
HETATM   11  C23 UNL     1      48.859  17.454  36.564  1.00  0.00     0.073 A 
HETATM   12  C24 UNL     1      50.203  17.214  36.613  1.00  0.00    -0.026 A 
HETATM   13  C25 UNL     1      50.863  17.184  37.937  1.00  0.00     0.051 C 
ENDROOT
BRANCH  10  14
HETATM   14  C11 UNL     1      48.049  17.678  38.966  1.00  0.00     0.154 C 
BRANCH  14  15
HETATM   15  C12 UNL     1      48.009  19.081  39.500  1.00  0.00     0.066 C 
BRANCH  15  16
HETATM   16  C13 UNL     1      47.118  19.408  40.598  1.00  0.00     0.065 C 
BRANCH  16  17
HETATM   17  N5  UNL     1      46.449  20.603  40.765  1.00  0.00    -0.362 N 
BRANCH  17  18
HETATM   18  C14 UNL     1      46.722  21.512  41.804  1.00  0.00     0.107 C 
BRANCH  18  19
HETATM   19  C15 UNL     1      48.186  21.411  42.238  1.00  0.00     0.101 C 
BRANCH  19  20
HETATM   20  N6  UNL     1      49.026  22.443  41.868  1.00  0.00    -0.390 N 
ATOM     21  H6  UNL     1      48.588  23.340  41.656  1.00  0.00     0.159 HD
BRANCH  20  22
HETATM   22  C16 UNL     1      50.405  22.377  41.758  1.00  0.00     0.018 C 
HETATM   23  C17 UNL     1      51.180  23.650  41.794  1.00  0.00     0.037 C 
HETATM   24  C18 UNL     1      50.740  21.721  40.397  1.00  0.00     0.037 C 
HETATM   25  C19 UNL     1      51.070  21.445  42.772  1.00  0.00     0.037 C 
ENDBRANCH  20  22
ENDBRANCH  19  20
ENDBRANCH  18  19
ENDBRANCH  17  18
BRANCH  17  26
HETATM   26  C20 UNL     1      45.770  21.107  39.603  1.00  0.00     0.108 C 
HETATM   27  C21 UNL     1      44.378  20.468  39.592  1.00  0.00     0.035 C 
BRANCH  26  28
HETATM   28  C22 UNL     1      45.543  22.572  39.608  1.00  0.00     0.189 C 
BRANCH  28  29
HETATM   29  O2  UNL     1      44.170  22.854  39.421  1.00  0.00    -0.399 OA
ATOM     30  H2  UNL     1      44.061  23.534  38.766  1.00  0.00     0.209 HD
ENDBRANCH  28  29
ENDBRANCH  26  28
ENDBRANCH  17  26
ENDBRANCH  16  17
ENDBRANCH  15  16
ENDBRANCH  14  15
ENDBRANCH  10  14
BRANCH   4  31
HETATM   31  O1  UNL     1      48.240  17.363  32.948  1.00  0.00    -0.359 OA
ATOM     32  H1  UNL     1      48.067  18.178  32.493  1.00  0.00     0.217 HD
ENDBRANCH   4  31
BRANCH   3  33
HETATM   33  C4  UNL     1      51.173  16.824  33.056  1.00  0.00     0.215 C 
BRANCH  33  34
HETATM   34  N1  UNL     1      51.413  15.610  32.408  1.00  0.00    -0.058 N 
HETATM   35  C5  UNL     1      50.864  14.411  32.927  1.00  0.00     0.277 C 
HETATM   36  C6  UNL     1      50.714  15.736  31.038  1.00  0.00     0.277 C 
HETATM   37  C7  UNL     1      52.790  15.477  31.993  1.00  0.00     0.277 C 
ENDBRANCH  33  34
ENDBRANCH   3  33
TORSDOF 14
ENDMDL
