MODEL 1
REMARK VINA RESULT: -7.775906183      0.000      0.000
REMARK  4 active torsions:
REMARK  status: ('A' for Active; 'I' for Inactive)
REMARK    1  A    between atoms: N1_1  and  N2_4 
REMARK    2  A    between atoms: N2_4  and  N3_5 
REMARK       I    between atoms: N3_5  and  C1_7 
REMARK    3  A    between atoms: C1_7  and  C2_9 
REMARK    4  A    between atoms: C4_14  and  N6_15 
ROOT
HETATM    1  C2  UNL     1      13.659  56.519  53.806  1.00  0.00     0.144 A 
HETATM    2  C3  UNL     1      13.362  57.059  55.066  1.00  0.00     0.153 A 
HETATM    3  N4  UNL     1      14.340  57.711  55.864  1.00  0.00    -0.081 NA
HETATM    4  N5  UNL     1      12.108  56.952  55.524  1.00  0.00    -0.178 N 
ATOM      5  H5  UNL     1      11.895  57.346  56.441  1.00  0.00     0.185 HD
HETATM    6  C4  UNL     1      11.119  56.357  54.846  1.00  0.00     0.680 A 
HETATM    7  N7  UNL     1      11.385  55.835  53.638  1.00  0.00    -0.155 N 
ATOM      8  H7  UNL     1      10.640  55.380  53.111  1.00  0.00     0.187 HD
HETATM    9  C5  UNL     1      12.646  55.906  53.106  1.00  0.00     0.278 A 
HETATM   10  O2  UNL     1      12.827  55.398  51.974  1.00  0.00    -0.266 OA
ENDROOT
BRANCH   1  11
HETATM   11  C1  UNL     1      15.007  56.638  53.322  1.00  0.00     0.290 C 
HETATM   12  N3  UNL     1      16.209  56.385  54.015  1.00  0.00    -0.179 N 
ATOM     13  H3  UNL     1      16.179  56.076  54.987  1.00  0.00     0.207 HD
HETATM   14  O1  UNL     1      15.154  57.021  52.106  1.00  0.00    -0.265 OA
BRANCH  12  15
HETATM   15  N2  UNL     1      17.433  56.553  53.381  1.00  0.00    -0.241 NA
BRANCH  15  16
HETATM   16  N1  UNL     1      18.429  56.676  52.885  1.00  0.00    -0.260 N 
ATOM     17  H12 UNL     1      17.471  56.509  52.578  1.00  0.00     0.193 HD
ATOM     18  H11 UNL     1      19.345  56.791  52.450  1.00  0.00     0.193 HD
ENDBRANCH  15  16
ENDBRANCH  12  15
ENDBRANCH   1  11
BRANCH   6  19
HETATM   19  N6  UNL     1       9.919  56.274  55.324  1.00  0.00    -0.234 N 
ATOM     20  H62 UNL     1       9.621  56.931  56.045  1.00  0.00     0.174 HD
ATOM     21  H61 UNL     1       9.259  55.568  54.998  1.00  0.00     0.174 HD
ENDBRANCH   6  19
TORSDOF 4
ENDMDL
MODEL 2
REMARK VINA RESULT: -7.375307481      2.210      5.243
REMARK  4 active torsions:
REMARK  status: ('A' for Active; 'I' for Inactive)
REMARK    1  A    between atoms: N1_1  and  N2_4 
REMARK    2  A    between atoms: N2_4  and  N3_5 
REMARK       I    between atoms: N3_5  and  C1_7 
REMARK    3  A    between atoms: C1_7  and  C2_9 
REMARK    4  A    between atoms: C4_14  and  N6_15 
ROOT
HETATM    1  C2  UNL     1      13.156  56.369  53.864  1.00  0.00     0.144 A 
HETATM    2  C3  UNL     1      13.242  57.041  52.636  1.00  0.00     0.153 A 
HETATM    3  N4  UNL     1      12.242  57.950  52.195  1.00  0.00    -0.081 NA
HETATM    4  N5  UNL     1      14.308  56.813  51.859  1.00  0.00    -0.178 N 
ATOM      5  H5  UNL     1      14.367  57.304  50.967  1.00  0.00     0.185 HD
HETATM    6  C4  UNL     1      15.299  55.977  52.187  1.00  0.00     0.680 A 
HETATM    7  N7  UNL     1      15.235  55.324  53.359  1.00  0.00    -0.155 N 
ATOM      8  H7  UNL     1      15.985  54.685  53.622  1.00  0.00     0.187 HD
HETATM    9  C5  UNL     1      14.173  55.507  54.206  1.00  0.00     0.278 A 
HETATM   10  O2  UNL     1      14.173  54.867  55.284  1.00  0.00    -0.266 OA
ENDROOT
BRANCH   1  11
HETATM   11  C1  UNL     1      12.008  56.619  54.692  1.00  0.00     0.290 C 
HETATM   12  N3  UNL     1      10.684  56.172  54.507  1.00  0.00    -0.179 N 
ATOM     13  H3  UNL     1      10.452  55.594  53.699  1.00  0.00     0.207 HD
HETATM   14  O1  UNL     1      12.195  57.340  55.737  1.00  0.00    -0.265 OA
BRANCH  12  15
HETATM   15  N2  UNL     1       9.694  56.514  55.418  1.00  0.00    -0.241 NA
BRANCH  15  16
HETATM   16  N1  UNL     1       8.894  56.808  56.144  1.00  0.00    -0.260 N 
ATOM     17  H12 UNL     1       9.383  57.256  55.370  1.00  0.00     0.193 HD
ATOM     18  H11 UNL     1       8.165  57.059  56.813  1.00  0.00     0.193 HD
ENDBRANCH  15  16
ENDBRANCH  12  15
ENDBRANCH   1  11
BRANCH   6  19
HETATM   19  N6  UNL     1      16.315  55.783  51.408  1.00  0.00    -0.234 N 
ATOM     20  H62 UNL     1      16.177  55.786  50.397  1.00  0.00     0.174 HD
ATOM     21  H61 UNL     1      17.253  55.627  51.777  1.00  0.00     0.174 HD
ENDBRANCH   6  19
TORSDOF 4
ENDMDL
MODEL 3
REMARK VINA RESULT: -7.254204411      1.250      4.862
REMARK  4 active torsions:
REMARK  status: ('A' for Active; 'I' for Inactive)
REMARK    1  A    between atoms: N1_1  and  N2_4 
REMARK    2  A    between atoms: N2_4  and  N3_5 
REMARK       I    between atoms: N3_5  and  C1_7 
REMARK    3  A    between atoms: C1_7  and  C2_9 
REMARK    4  A    between atoms: C4_14  and  N6_15 
ROOT
HETATM    1  C2  UNL     1      13.335  56.435  53.680  1.00  0.00     0.144 A 
HETATM    2  C3  UNL     1      14.313  56.765  54.629  1.00  0.00     0.153 A 
HETATM    3  N4  UNL     1      13.984  57.253  55.923  1.00  0.00    -0.081 NA
HETATM    4  N5  UNL     1      15.600  56.609  54.297  1.00  0.00    -0.178 N 
ATOM      5  H5  UNL     1      16.310  56.850  54.990  1.00  0.00     0.185 HD
HETATM    6  C4  UNL     1      16.009  56.157  53.105  1.00  0.00     0.680 A 
HETATM    7  N7  UNL     1      15.087  55.836  52.183  1.00  0.00    -0.155 N 
ATOM      8  H7  UNL     1      15.385  55.489  51.272  1.00  0.00     0.187 HD
HETATM    9  C5  UNL     1      13.750  55.970  52.453  1.00  0.00     0.278 A 
HETATM   10  O2  UNL     1      12.941  55.654  51.549  1.00  0.00    -0.266 OA
ENDROOT
BRANCH   1  11
HETATM   11  C1  UNL     1      11.955  56.606  54.045  1.00  0.00     0.290 C 
HETATM   12  N3  UNL     1      11.330  56.290  55.268  1.00  0.00    -0.179 N 
ATOM     13  H3  UNL     1      11.877  55.884  56.028  1.00  0.00     0.207 HD
HETATM   14  O1  UNL     1      11.180  57.111  53.155  1.00  0.00    -0.265 OA
BRANCH  12  15
HETATM   15  N2  UNL     1       9.974  56.527  55.445  1.00  0.00    -0.241 NA
BRANCH  15  16
HETATM   16  N1  UNL     1       8.885  56.733  55.603  1.00  0.00    -0.260 N 
ATOM     17  H12 UNL     1       9.468  55.903  55.508  1.00  0.00     0.193 HD
ATOM     18  H11 UNL     1       7.896  56.939  55.746  1.00  0.00     0.193 HD
ENDBRANCH  15  16
ENDBRANCH  12  15
ENDBRANCH   1  11
BRANCH   6  19
HETATM   19  N6  UNL     1      17.265  56.020  52.822  1.00  0.00    -0.234 N 
ATOM     20  H62 UNL     1      17.609  56.326  51.912  1.00  0.00     0.174 HD
ATOM     21  H61 UNL     1      17.924  55.612  53.485  1.00  0.00     0.174 HD
ENDBRANCH   6  19
TORSDOF 4
ENDMDL
MODEL 4
REMARK VINA RESULT: -7.158372455      1.268      2.199
REMARK  4 active torsions:
REMARK  status: ('A' for Active; 'I' for Inactive)
REMARK    1  A    between atoms: N1_1  and  N2_4 
REMARK    2  A    between atoms: N2_4  and  N3_5 
REMARK       I    between atoms: N3_5  and  C1_7 
REMARK    3  A    between atoms: C1_7  and  C2_9 
REMARK    4  A    between atoms: C4_14  and  N6_15 
ROOT
HETATM    1  C2  UNL     1      13.639  56.598  54.009  1.00  0.00     0.144 A 
HETATM    2  C3  UNL     1      12.639  56.025  53.209  1.00  0.00     0.153 A 
HETATM    3  N4  UNL     1      12.901  55.534  51.901  1.00  0.00    -0.081 NA
HETATM    4  N5  UNL     1      11.398  55.942  53.703  1.00  0.00    -0.178 N 
ATOM      5  H5  UNL     1      10.674  55.525  53.118  1.00  0.00     0.185 HD
HETATM    6  C4  UNL     1      11.055  56.376  54.922  1.00  0.00     0.680 A 
HETATM    7  N7  UNL     1      11.998  56.927  55.703  1.00  0.00    -0.155 N 
ATOM      8  H7  UNL     1      11.750  57.260  56.634  1.00  0.00     0.187 HD
HETATM    9  C5  UNL     1      13.291  57.045  55.263  1.00  0.00     0.278 A 
HETATM   10  O2  UNL     1      14.123  57.570  56.041  1.00  0.00    -0.266 OA
ENDROOT
BRANCH   1  11
HETATM   11  C1  UNL     1      14.969  56.683  53.470  1.00  0.00     0.290 C 
HETATM   12  N3  UNL     1      16.193  56.422  54.119  1.00  0.00    -0.179 N 
ATOM     13  H3  UNL     1      16.197  56.132  55.096  1.00  0.00     0.207 HD
HETATM   14  O1  UNL     1      15.072  57.042  52.242  1.00  0.00    -0.265 OA
BRANCH  12  15
HETATM   15  N2  UNL     1      17.393  56.556  53.433  1.00  0.00    -0.241 NA
BRANCH  15  16
HETATM   16  N1  UNL     1      18.369  56.650  52.893  1.00  0.00    -0.260 N 
ATOM     17  H12 UNL     1      17.419  56.996  52.758  1.00  0.00     0.193 HD
ATOM     18  H11 UNL     1      19.267  56.725  52.414  1.00  0.00     0.193 HD
ENDBRANCH  15  16
ENDBRANCH  12  15
ENDBRANCH   1  11
BRANCH   6  19
HETATM   19  N6  UNL     1       9.842  56.277  55.365  1.00  0.00    -0.234 N 
ATOM     20  H62 UNL     1       9.559  55.434  55.863  1.00  0.00     0.174 HD
ATOM     21  H61 UNL     1       9.159  57.022  55.228  1.00  0.00     0.174 HD
ENDBRANCH   6  19
TORSDOF 4
ENDMDL
MODEL 5
REMARK VINA RESULT: -7.091565015      2.052      5.063
REMARK  4 active torsions:
REMARK  status: ('A' for Active; 'I' for Inactive)
REMARK    1  A    between atoms: N1_1  and  N2_4 
REMARK    2  A    between atoms: N2_4  and  N3_5 
REMARK       I    between atoms: N3_5  and  C1_7 
REMARK    3  A    between atoms: C1_7  and  C2_9 
REMARK    4  A    between atoms: C4_14  and  N6_15 
ROOT
HETATM    1  C2  UNL     1      13.211  56.453  53.669  1.00  0.00     0.144 A 
HETATM    2  C3  UNL     1      14.217  55.562  54.071  1.00  0.00     0.153 A 
HETATM    3  N4  UNL     1      14.165  54.863  55.307  1.00  0.00    -0.081 NA
HETATM    4  N5  UNL     1      15.259  55.368  53.253  1.00  0.00    -0.178 N 
ATOM      5  H5  UNL     1      15.989  54.719  53.548  1.00  0.00     0.185 HD
HETATM    6  C4  UNL     1      15.397  55.978  52.070  1.00  0.00     0.680 A 
HETATM    7  N7  UNL     1      14.444  56.835  51.668  1.00  0.00    -0.155 N 
ATOM      8  H7  UNL     1      14.536  57.305  50.768  1.00  0.00     0.187 HD
HETATM    9  C5  UNL     1      13.349  57.083  52.453  1.00  0.00     0.278 A 
HETATM   10  O2  UNL     1      12.496  57.894  52.021  1.00  0.00    -0.266 OA
ENDROOT
BRANCH   1  11
HETATM   11  C1  UNL     1      12.097  56.655  54.553  1.00  0.00     0.290 C 
HETATM   12  N3  UNL     1      10.768  56.211  54.400  1.00  0.00    -0.179 N 
ATOM     13  H3  UNL     1      10.505  55.673  53.574  1.00  0.00     0.207 HD
HETATM   14  O1  UNL     1      12.324  57.324  55.626  1.00  0.00    -0.265 OA
BRANCH  12  15
HETATM   15  N2  UNL     1       9.815  56.502  55.367  1.00  0.00    -0.241 NA
BRANCH  15  16
HETATM   16  N1  UNL     1       9.039  56.752  56.134  1.00  0.00    -0.260 N 
ATOM     17  H12 UNL     1       9.689  57.276  55.549  1.00  0.00     0.193 HD
ATOM     18  H11 UNL     1       8.329  56.962  56.836  1.00  0.00     0.193 HD
ENDBRANCH  15  16
ENDBRANCH  12  15
ENDBRANCH   1  11
BRANCH   6  19
HETATM   19  N6  UNL     1      16.420  55.764  51.306  1.00  0.00    -0.234 N 
ATOM     20  H62 UNL     1      17.268  55.363  51.707  1.00  0.00     0.174 HD
ATOM     21  H61 UNL     1      16.404  55.985  50.311  1.00  0.00     0.174 HD
ENDBRANCH   6  19
TORSDOF 4
ENDMDL
