REMARK  2 active torsions:
REMARK  status: ('A' for Active; 'I' for Inactive)
REMARK    1  A    between atoms: C2_2  and  C3_3 
REMARK    2  A    between atoms: C4_4  and  C5_5 
ROOT
HETATM    1  C5  UNL     1      -0.324  -0.507  -0.141  1.00  0.00     0.008 C 
HETATM    2  C6  UNL     1      -0.550   0.958  -0.250  1.00  0.00     0.008 C 
HETATM    3  C7  UNL     1      -1.969   1.389  -0.055  1.00  0.00     0.001 C 
HETATM    4  C8  UNL     1      -2.718   0.598   0.981  1.00  0.00     0.000 C 
HETATM    5  C9  UNL     1      -2.543  -0.866   0.730  1.00  0.00     0.001 C 
HETATM    6  C10 UNL     1      -1.058  -1.131   1.036  1.00  0.00     0.008 C 
ENDROOT
BRANCH   1   7
HETATM    7  C4  UNL     1       1.109  -0.869  -0.120  1.00  0.00    -0.022 C 
HETATM    8  C3  UNL     1       2.119  -0.054  -0.051  1.00  0.00    -0.004 C 
BRANCH   8   9
HETATM    9  C2  UNL     1       3.504  -0.547  -0.037  1.00  0.00    -0.011 C 
HETATM   10  C1  UNL     1       4.528   0.289   0.033  1.00  0.00     0.011 C 
ENDBRANCH   8   9
ENDBRANCH   1   7
TORSDOF 2
