REMARK  0 active torsions:
REMARK  status: ('A' for Active; 'I' for Inactive)
ROOT
HETATM    1  C1  UNL     1      -2.010  -0.175   0.538  1.00  0.00     0.001 C 
HETATM    2  C2  UNL     1      -1.023   0.858   0.971  1.00  0.00     0.005 C 
HETATM    3  C3  UNL     1      -0.005   0.940  -0.172  1.00  0.00    -0.006 C 
HETATM    4  C4  UNL     1       0.051  -0.473  -0.689  1.00  0.00    -0.006 C 
HETATM    5  C5  UNL     1      -1.177  -1.184  -0.187  1.00  0.00     0.005 C 
HETATM    6  C6  UNL     1       1.289  -0.655   0.180  1.00  0.00    -0.005 A 
HETATM    7  C7  UNL     1       2.468   0.120  -0.240  1.00  0.00     0.010 A 
HETATM    8  C8  UNL     1       1.378   0.888   0.374  1.00  0.00    -0.005 A 
ENDROOT
TORSDOF 0
