REMARK  11 active torsions:
REMARK  status: ('A' for Active; 'I' for Inactive)
REMARK    1  A    between atoms: O1_2  and  C2_3 
REMARK    2  A    between atoms: N2_9  and  N3_10 
REMARK    3  A    between atoms: C4_11  and  O3_12 
REMARK    4  A    between atoms: C5_14  and  N4_15 
REMARK    5  A    between atoms: N4_15  and  O4_17 
REMARK    6  A    between atoms: C6_19  and  N5_20 
REMARK    7  A    between atoms: N7_26  and  N8_28 
REMARK    8  A    between atoms: N8_28  and  O5_30 
REMARK    9  A    between atoms: C9_33  and  C10_34 
REMARK   10  A    between atoms: C11_40  and  C12_41 
REMARK   11  A    between atoms: C12_41  and  N10_42 
ROOT
HETATM    1  C2  UNL     1      -1.367  -0.485  -0.307  1.00  0.00     0.231 C 
HETATM    2  O2  UNL     1      -1.046  -1.551   0.584  1.00  0.00    -0.278 OA
HETATM    3  C3  UNL     1       0.282  -1.492   0.904  1.00  0.00     0.238 C 
HETATM    4  N1  UNL     1       0.844  -2.194   1.840  1.00  0.00    -0.364 N 
ATOM      5  H11 UNL     1       1.835  -2.150   2.079  1.00  0.00     0.159 HD
ATOM      6  H12 UNL     1       0.367  -2.864   2.443  1.00  0.00     0.159 HD
HETATM    7  N2  UNL     1       0.957  -0.544   0.051  1.00  0.00    -0.220 N 
HETATM    8  C8  UNL     1      -0.040   0.048  -0.787  1.00  0.00     0.220 C 
HETATM    9  C9  UNL     1      -0.165   1.537  -0.678  1.00  0.00     0.317 C 
HETATM   10  N9  UNL     1      -1.415   1.874  -0.087  1.00  0.00    -0.045 N 
ATOM     11  H91 UNL     1      -2.024   2.393  -0.719  1.00  0.00     0.279 HD
ATOM     12  H92 UNL     1      -1.331   2.588   0.636  1.00  0.00     0.279 HD
HETATM   13  C11 UNL     1      -2.024   0.644   0.402  1.00  0.00     0.289 C 
ENDROOT
BRANCH   7  14
HETATM   14  N3  UNL     1       2.331  -0.368   0.129  1.00  0.00    -0.054 N 
HETATM   15  C4  UNL     1       3.072  -0.855  -0.901  1.00  0.00     0.213 A 
HETATM   16  C5  UNL     1       4.445  -0.729  -0.892  1.00  0.00     0.151 A 
HETATM   17  C6  UNL     1       5.092  -0.109   0.157  1.00  0.00     0.148 A 
HETATM   18  N6  UNL     1       4.330   0.360   1.155  1.00  0.00    -0.171 N 
HETATM   19  C7  UNL     1       2.969   0.235   1.146  1.00  0.00     0.723 A 
ATOM     20  H6  UNL     1       4.779   0.824   1.945  1.00  0.00     0.186 HD
HETATM   21  N7  UNL     1       2.261   0.686   2.128  1.00  0.00    -0.111 N 
ATOM     22  H7  UNL     1       1.245   0.591   2.136  1.00  0.00     0.207 HD
BRANCH  15  23
HETATM   23  O3  UNL     1       2.445  -1.483  -1.969  1.00  0.00    -0.343 OA
ATOM     24  H3  UNL     1       2.963  -1.823  -2.689  1.00  0.00     0.219 HD
ENDBRANCH  15  23
BRANCH  16  25
HETATM   25  N4  UNL     1       5.256  -1.227  -1.957  1.00  0.00    -0.261 N 
ATOM     26  H4  UNL     1       5.632  -2.173  -1.887  1.00  0.00     0.194 HD
BRANCH  25  27
HETATM   27  O4  UNL     1       5.523  -0.545  -2.974  1.00  0.00    -0.289 OA
ATOM     28  H4  UNL     1       6.062  -0.876  -3.682  1.00  0.00     0.244 HD
ENDBRANCH  25  27
ENDBRANCH  16  25
BRANCH  17  29
HETATM   29  N5  UNL     1       6.383   0.015   0.176  1.00  0.00    -0.383 N 
ATOM     30  H52 UNL     1       6.963  -0.342  -0.583  1.00  0.00     0.157 HD
ATOM     31  H51 UNL     1       6.861   0.473   0.952  1.00  0.00     0.157 HD
ENDBRANCH  17  29
BRANCH  21  32
HETATM   32  N8  UNL     1       2.938   1.308   3.177  1.00  0.00    -0.196 N 
ATOM     33  H8  UNL     1       3.599   0.768   3.735  1.00  0.00     0.216 HD
BRANCH  32  34
HETATM   34  O5  UNL     1       2.733   2.626   3.471  1.00  0.00    -0.274 OA
ATOM     35  H5  UNL     1       3.194   3.050   4.185  1.00  0.00     0.246 HD
ENDBRANCH  32  34
ENDBRANCH  21  32
ENDBRANCH   7  14
BRANCH   1  36
HETATM   36  O1  UNL     1      -2.136  -1.021  -1.315  1.00  0.00    -0.356 OA
HETATM   37  C1  UNL     1      -1.582  -2.022  -2.038  1.00  0.00     0.205 C 
ENDBRANCH   1  36
BRANCH   9  38
HETATM   38  C10 UNL     1      -0.103   2.127  -2.071  1.00  0.00     0.207 C 
HETATM   39  O6  UNL     1      -1.080   2.800  -2.506  1.00  0.00    -0.646 OA
HETATM   40  O7  UNL     1       1.014   1.923  -2.838  1.00  0.00    -0.646 OA
ENDBRANCH   9  38
BRANCH  13  41
HETATM   41  C12 UNL     1      -3.509   0.728   0.391  1.00  0.00     0.096 C 
BRANCH  41  42
HETATM   42  N10 UNL     1      -4.313  -0.246   0.944  1.00  0.00    -0.400 N 
HETATM   43  C13 UNL     1      -4.529  -1.527   0.450  1.00  0.00     0.148 C 
HETATM   44  C14 UNL     1      -5.510   0.304   1.597  1.00  0.00     0.148 C 
ENDBRANCH  41  42
ENDBRANCH  13  41
TORSDOF 11
