REMARK  2 active torsions:
REMARK  status: ('A' for Active; 'I' for Inactive)
REMARK    1  A    between atoms: C5_5  and  N1_6 
REMARK    2  A    between atoms: N2_11  and  O1_12 
ROOT
HETATM    1  C1  UNL     1      -2.575  -0.308  -0.616  1.00  0.00     0.028 C 
HETATM    2  C2  UNL     1      -1.200  -0.141  -0.092  1.00  0.00     0.082 C 
HETATM    3  C3  UNL     1      -0.273  -1.302  -0.475  1.00  0.00     0.024 C 
HETATM    4  C4  UNL     1       0.881  -1.144   0.497  1.00  0.00     0.036 C 
HETATM    5  C5  UNL     1       1.541   0.195   0.380  1.00  0.00     0.198 C 
HETATM    6  C6  UNL     1       0.750   1.281  -0.193  1.00  0.00     0.153 C 
HETATM    7  N2  UNL     1      -0.585   1.049  -0.565  1.00  0.00    -0.194 NA
ENDROOT
BRANCH   5   8
HETATM    8  N1  UNL     1       2.773  -0.047  -0.394  1.00  0.00    -0.074 N 
ATOM      9  H13 UNL     1       3.374  -0.769   0.004  1.00  0.00     0.274 HD
ATOM     10  H12 UNL     1       2.613  -0.507  -1.290  1.00  0.00     0.274 HD
ATOM     11  H11 UNL     1       3.223   0.865  -0.474  1.00  0.00     0.274 HD
ENDBRANCH   5   8
BRANCH   7  12
HETATM   12  O1  UNL     1      -1.421   2.090  -0.289  1.00  0.00    -0.313 OA
ATOM     13  H1  UNL     1      -1.010   2.886  -0.605  1.00  0.00     0.237 HD
ENDBRANCH   7  12
TORSDOF 2
