REMARK  0 active torsions:
REMARK  status: ('A' for Active; 'I' for Inactive)
ROOT
HETATM    1  C1  UNL     1       1.583  -0.141  -0.019  1.00  0.00     0.114 C 
HETATM    2  C2  UNL     1       0.579  -1.299  -0.109  1.00  0.00     0.024 C 
HETATM    3  C3  UNL     1      -0.729  -0.799   0.390  1.00  0.00    -0.009 C 
HETATM    4  C4  UNL     1      -1.346   0.049  -0.734  1.00  0.00     0.029 C 
HETATM    5  C5  UNL     1      -0.431   1.151  -0.240  1.00  0.00     0.077 C 
HETATM    6  C6  UNL     1      -0.633   0.512   1.144  1.00  0.00     0.029 C 
HETATM    7  N1  UNL     1       0.925   0.981  -0.553  1.00  0.00    -0.417 N 
ATOM      8  H1  UNL     1       1.417   1.648  -1.147  1.00  0.00     0.153 HD
ENDROOT
TORSDOF 0
