REMARK  7 active torsions:
REMARK  status: ('A' for Active; 'I' for Inactive)
REMARK    1  A    between atoms: C3_3  and  C4_4 
REMARK    2  A    between atoms: C3_3  and  C18_28 
REMARK    3  A    between atoms: C4_4  and  C5_5 
REMARK    4  A    between atoms: C5_5  and  N1_6 
REMARK       I    between atoms: N1_6  and  C6_8 
REMARK    5  A    between atoms: C6_8  and  C7_10 
REMARK       I    between atoms: N2_13  and  C10_14 
REMARK       I    between atoms: C10_14  and  N3_16 
REMARK    6  A    between atoms: N3_16  and  C11_18 
REMARK    7  A    between atoms: C11_18  and  C12_19 
ROOT
HETATM    1  C1  UNL     1      -5.543   0.488   3.353  1.00  0.00     0.012 C 
HETATM    2  C2  UNL     1      -5.331   0.019   2.278  1.00  0.00    -0.112 C 
HETATM    3  C3  UNL     1      -5.040  -0.590   0.924  1.00  0.00     0.073 C 
ENDROOT
BRANCH   3   4
HETATM    4  C4  UNL     1      -3.563  -0.517   0.717  1.00  0.00     0.037 C 
BRANCH   4   5
HETATM    5  C5  UNL     1      -3.026  -1.073  -0.559  1.00  0.00     0.123 C 
BRANCH   5   6
HETATM    6  N1  UNL     1      -1.564  -0.993  -0.642  1.00  0.00    -0.361 N 
HETATM    7  C6  UNL     1      -0.917   0.239  -0.619  1.00  0.00     0.221 C 
HETATM    8  O1  UNL     1      -1.461   1.352  -0.536  1.00  0.00    -0.273 OA
ATOM      9  H1  UNL     1      -1.015  -1.850  -0.717  1.00  0.00     0.162 HD
BRANCH   7  10
HETATM   10  C7  UNL     1       0.579   0.247  -0.702  1.00  0.00     0.081 C 
HETATM   11  C8  UNL     1       1.142   1.639  -0.667  1.00  0.00     0.034 C 
HETATM   12  C9  UNL     1       2.591   1.616  -0.238  1.00  0.00     0.128 C 
HETATM   13  N2  UNL     1       3.186   0.319  -0.385  1.00  0.00    -0.334 N 
HETATM   14  C10 UNL     1       4.418   0.181  -1.054  1.00  0.00     0.318 C 
HETATM   15  C16 UNL     1       2.555  -0.893   0.142  1.00  0.00     0.128 C 
HETATM   16  O2  UNL     1       4.966   1.230  -1.512  1.00  0.00    -0.247 OA
HETATM   17  N3  UNL     1       5.007  -1.099  -1.200  1.00  0.00    -0.338 N 
ATOM     18  H3  UNL     1       4.508  -1.897  -0.808  1.00  0.00     0.164 HD
HETATM   19  C17 UNL     1       1.136  -0.484   0.523  1.00  0.00     0.034 C 
BRANCH  17  20
HETATM   20  C11 UNL     1       6.265  -1.355  -1.865  1.00  0.00     0.170 C 
BRANCH  20  21
HETATM   21  C12 UNL     1       7.323  -0.606  -1.127  1.00  0.00     0.004 A 
HETATM   22  C13 UNL     1       7.946  -0.945   0.048  1.00  0.00     0.042 A 
HETATM   23  C14 UNL     1       8.878  -0.107   0.513  1.00  0.00     0.063 A 
HETATM   24 CL1  UNL     1       9.775  -0.407   2.026  1.00  0.00    -0.082 Cl
HETATM   25  C15 UNL     1       9.136   1.020  -0.219  1.00  0.00     0.096 A 
HETATM   26 CL2  UNL     1      10.302   2.312   0.131  1.00  0.00    -0.074 Cl
HETATM   27  S1  UNL     1       8.064   0.871  -1.538  1.00  0.00    -0.079 SA
ENDBRANCH  20  21
ENDBRANCH  17  20
ENDBRANCH   7  10
ENDBRANCH   5   6
ENDBRANCH   4   5
ENDBRANCH   3   4
BRANCH   3  28
HETATM   28  C18 UNL     1      -5.875   0.167  -0.074  1.00  0.00    -0.037 C 
HETATM   29  C19 UNL     1      -5.513   1.641  -0.132  1.00  0.00     0.015 C 
HETATM   30  C20 UNL     1      -7.298   0.192   0.589  1.00  0.00     0.015 C 
HETATM   31  C21 UNL     1      -5.993  -0.503  -1.387  1.00  0.00     0.015 C 
ENDBRANCH   3  28
TORSDOF 7
