REMARK  2 active torsions:
REMARK  status: ('A' for Active; 'I' for Inactive)
REMARK    1  A    between atoms: C2_2  and  C4_4 
REMARK    2  A    between atoms: C4_4  and  C6_6 
ROOT
HETATM    1  C6  UNL     1       0.990  -0.576  -0.444  1.00  0.00     0.216 C 
HETATM    2  C7  UNL     1       1.258  -1.027   0.948  1.00  0.00     0.203 C 
HETATM    3  O1  UNL     1       2.642  -1.120   1.053  1.00  0.00    -0.362 OA
HETATM    4  C8  UNL     1       3.201  -0.211   0.190  1.00  0.00     0.399 C 
HETATM    5  N1  UNL     1       2.200   0.213  -0.736  1.00  0.00    -0.048 N 
ATOM      6  H11 UNL     1       2.037   1.220  -0.720  1.00  0.00     0.280 HD
ATOM      7  H12 UNL     1       2.498   0.147  -1.709  1.00  0.00     0.280 HD
ENDROOT
BRANCH   1   8
HETATM    8  C4  UNL     1      -0.220   0.255  -0.653  1.00  0.00     0.018 C 
HETATM    9  C5  UNL     1      -0.098   1.649  -0.083  1.00  0.00     0.012 C 
BRANCH   8  10
HETATM   10  C2  UNL     1      -1.516  -0.376  -0.284  1.00  0.00    -0.017 C 
HETATM   11  C1  UNL     1      -2.697   0.446  -0.820  1.00  0.00     0.010 C 
HETATM   12  C3  UNL     1      -1.759  -0.581   1.166  1.00  0.00     0.010 C 
ENDBRANCH   8  10
ENDBRANCH   1   8
TORSDOF 2
