REMARK  11 active torsions:
REMARK  status: ('A' for Active; 'I' for Inactive)
REMARK    1  A    between atoms: C1_2  and  C2_4 
REMARK    2  A    between atoms: C4_6  and  C5_7 
REMARK    3  A    between atoms: C8_11  and  O3_12 
REMARK    4  A    between atoms: C9_14  and  O4_15 
REMARK    5  A    between atoms: N2_17  and  O5_18 
REMARK    6  A    between atoms: N4_22  and  C10_23 
REMARK    7  A    between atoms: C10_23  and  C11_24 
REMARK    8  A    between atoms: C11_24  and  O6_25 
REMARK    9  A    between atoms: O6_25  and  C12_26 
REMARK   10  A    between atoms: C13_29  and  N6_30 
REMARK   11  A    between atoms: C13_29  and  N7_34 
ROOT
HETATM    1  C2  UNL     1      -1.041  -1.685   1.257  1.00  0.00     0.118 A 
HETATM    2  C3  UNL     1      -2.245  -1.013   1.402  1.00  0.00     0.070 A 
HETATM    3  C4  UNL     1      -2.487  -0.373   0.208  1.00  0.00     0.080 A 
HETATM    4  N3  UNL     1      -1.448  -0.660  -0.628  1.00  0.00    -0.296 N 
ATOM      5  H3  UNL     1      -1.353  -0.323  -1.586  1.00  0.00     0.187 HD
HETATM    6  N4  UNL     1      -0.573  -1.452   0.002  1.00  0.00    -0.285 N 
ENDROOT
BRANCH   6   7
HETATM    7  C10 UNL     1       0.644  -1.954  -0.596  1.00  0.00     0.176 C 
BRANCH   7   8
HETATM    8  C11 UNL     1       1.813  -1.032  -0.346  1.00  0.00     0.200 C 
BRANCH   8   9
HETATM    9  O6  UNL     1       3.004  -1.523  -0.931  1.00  0.00    -0.320 OA
BRANCH   9  10
HETATM   10  C12 UNL     1       4.176  -0.766  -0.778  1.00  0.00     0.235 C 
HETATM   11  N5  UNL     1       4.143   0.497  -0.609  1.00  0.00    -0.285 N 
HETATM   12  C13 UNL     1       5.515   0.979  -0.484  1.00  0.00     0.428 C 
ATOM     13  H5  UNL     1       3.302   1.072  -0.568  1.00  0.00     0.169 HD
HETATM   14  N8  UNL     1       6.349  -0.092  -0.994  1.00  0.00    -0.051 NA
HETATM   15  N9  UNL     1       5.516  -1.196  -0.777  1.00  0.00    -0.263 N 
ATOM     16  H9  UNL     1       5.830  -2.157  -0.640  1.00  0.00     0.186 HD
BRANCH  12  17
HETATM   17  N6  UNL     1       5.682   2.192  -1.235  1.00  0.00    -0.011 N 
ATOM     18  H63 UNL     1       5.404   2.079  -2.210  1.00  0.00     0.281 HD
ATOM     19  H62 UNL     1       5.002   2.903  -0.968  1.00  0.00     0.281 HD
ATOM     20  H61 UNL     1       6.641   2.529  -1.148  1.00  0.00     0.281 HD
ENDBRANCH  12  17
BRANCH  12  21
HETATM   21  N7  UNL     1       5.745   1.211   0.930  1.00  0.00    -0.074 N 
HETATM   22  O7  UNL     1       6.627   0.628   1.586  1.00  0.00    -0.532 OA
HETATM   23  O8  UNL     1       4.924   2.131   1.545  1.00  0.00    -0.532 OA
ENDBRANCH  12  21
ENDBRANCH   9  10
ENDBRANCH   8   9
ENDBRANCH   7   8
ENDBRANCH   6   7
BRANCH   1  24
HETATM   24  C1  UNL     1      -0.414  -2.488   2.289  1.00  0.00     0.283 C 
HETATM   25  N1  UNL     1      -1.065  -2.624   3.538  1.00  0.00    -0.056 NA
HETATM   26  O1  UNL     1       0.680  -3.070   2.127  1.00  0.00    -0.269 OA
ENDBRANCH   1  24
BRANCH   3  27
HETATM   27  C5  UNL     1      -3.647   0.451  -0.080  1.00  0.00     0.097 A 
HETATM   28  C6  UNL     1      -4.613   0.644   0.878  1.00  0.00     0.092 A 
HETATM   29  C7  UNL     1      -5.718   1.437   0.583  1.00  0.00     0.211 A 
HETATM   30  O2  UNL     1      -6.609   1.625   1.441  1.00  0.00    -0.285 OA
HETATM   31  C8  UNL     1      -5.856   2.032  -0.655  1.00  0.00     0.170 A 
HETATM   32  C9  UNL     1      -4.855   1.806  -1.583  1.00  0.00     0.205 A 
HETATM   33  N2  UNL     1      -3.791   1.033  -1.278  1.00  0.00    -0.197 N 
BRANCH  31  34
HETATM   34  O3  UNL     1      -6.954   2.830  -0.969  1.00  0.00    -0.354 OA
ATOM     35  H3  UNL     1      -7.049   3.239  -1.821  1.00  0.00     0.218 HD
ENDBRANCH  31  34
BRANCH  32  36
HETATM   36  O4  UNL     1      -5.000   2.407  -2.826  1.00  0.00    -0.342 OA
ATOM     37  H4  UNL     1      -4.313   2.252  -3.463  1.00  0.00     0.219 HD
ENDBRANCH  32  36
BRANCH  33  38
HETATM   38  O5  UNL     1      -2.816   0.834  -2.232  1.00  0.00    -0.280 OA
ATOM     39  H5  UNL     1      -2.918   1.247  -3.082  1.00  0.00     0.245 HD
ENDBRANCH  33  38
ENDBRANCH   3  27
TORSDOF 11
