REMARK  5 active torsions:
REMARK  status: ('A' for Active; 'I' for Inactive)
REMARK    1  A    between atoms: N1_1  and  C1_4 
REMARK    2  A    between atoms: C2_9  and  N4_10 
REMARK    3  A    between atoms: N4_10  and  S1_12 
REMARK    4  A    between atoms: S1_12  and  N5_15 
REMARK    5  A    between atoms: N5_15  and  N6_17 
ROOT
HETATM    1  C1  UNL     1       3.057   0.863  -0.193  1.00  0.00     0.693 A 
HETATM    2  N2  UNL     1       2.570   0.999  -1.439  1.00  0.00    -0.131 N 
ATOM      3  H2  UNL     1       3.142   1.390  -2.188  1.00  0.00     0.205 HD
HETATM    4  N3  UNL     1       1.346   0.616  -1.660  1.00  0.00    -0.266 N 
ATOM      5  H3  UNL     1       0.995   0.727  -2.611  1.00  0.00     0.189 HD
HETATM    6  C2  UNL     1       0.490   0.083  -0.750  1.00  0.00     0.201 A 
HETATM    7  C3  UNL     1       0.994  -0.051   0.516  1.00  0.00     0.305 A 
HETATM    8  O3  UNL     1       0.328  -0.524   1.474  1.00  0.00    -0.263 OA
HETATM    9  N7  UNL     1       2.280   0.348   0.764  1.00  0.00    -0.152 N 
ATOM     10  H7  UNL     1       2.656   0.249   1.707  1.00  0.00     0.188 HD
ENDROOT
BRANCH   6  11
HETATM   11  N4  UNL     1      -0.813  -0.269  -1.112  1.00  0.00    -0.246 N 
ATOM     12  H4  UNL     1      -1.094  -0.087  -2.076  1.00  0.00     0.182 HD
BRANCH  11  13
HETATM   13  S1  UNL     1      -1.959  -0.967  -0.098  1.00  0.00     0.337 S 
HETATM   14  O1  UNL     1      -1.505  -2.246   0.525  1.00  0.00    -0.181 OA
HETATM   15  O2  UNL     1      -3.182  -1.380  -0.974  1.00  0.00    -0.181 OA
BRANCH  13  16
HETATM   16  N5  UNL     1      -2.551   0.090   1.145  1.00  0.00    -0.216 N 
ATOM     17  H5  UNL     1      -2.141   0.187   2.074  1.00  0.00     0.201 HD
BRANCH  16  18
HETATM   18  N6  UNL     1      -3.682   0.795   0.683  1.00  0.00    -0.335 N 
ATOM     19  H62 UNL     1      -4.082   0.688  -0.249  1.00  0.00     0.177 HD
ATOM     20  H61 UNL     1      -4.030   1.416   1.413  1.00  0.00     0.177 HD
ENDBRANCH  16  18
ENDBRANCH  13  16
ENDBRANCH  11  13
ENDBRANCH   6  11
BRANCH   1  21
HETATM   21  N1  UNL     1       4.272   1.242   0.032  1.00  0.00    -0.233 N 
ATOM     22  H12 UNL     1       4.865   1.635  -0.699  1.00  0.00     0.174 HD
ATOM     23  H11 UNL     1       4.641   1.139   0.977  1.00  0.00     0.174 HD
ENDBRANCH   1  21
TORSDOF 5
