REMARK  5 active torsions:
REMARK  status: ('A' for Active; 'I' for Inactive)
REMARK    1  A    between atoms: N1_1  and  N2_4 
REMARK    2  A    between atoms: N3_6  and  C1_8 
REMARK    3  A    between atoms: C2_10  and  C3_11 
REMARK    4  A    between atoms: C3_11  and  O2_12 
REMARK    5  A    between atoms: C7_19  and  O5_20 
ROOT
HETATM    1  C1  UNL     1      -1.096   1.432  -0.406  1.00  0.00     0.292 C 
HETATM    2  O1  UNL     1       0.246   1.545  -0.649  1.00  0.00    -0.350 OA
HETATM    3  C2  UNL     1       0.986   0.451  -0.173  1.00  0.00     0.179 C 
HETATM    4  C4  UNL     1       0.417  -0.857  -0.625  1.00  0.00     0.186 C 
HETATM    5  O3  UNL     1      -0.709  -0.651  -1.445  1.00  0.00    -0.346 OA
HETATM    6  C5  UNL     1      -1.659   0.069  -0.726  1.00  0.00     0.310 C 
HETATM    7  O4  UNL     1      -2.082  -0.606   0.420  1.00  0.00    -0.354 OA
HETATM    8  C6  UNL     1      -1.551  -1.890   0.366  1.00  0.00     0.205 C 
HETATM    9  C7  UNL     1      -0.031  -1.745   0.504  1.00  0.00     0.173 C 
ENDROOT
BRANCH   1  10
HETATM   10  N3  UNL     1      -1.457   1.790   0.956  1.00  0.00    -0.289 N 
HETATM   11  N2  UNL     1      -1.331   2.993   1.245  1.00  0.00    -0.251 N 
ATOM     12  H2  UNL     1      -1.493   3.451   0.348  1.00  0.00     0.207 HD
ATOM     13  H3  UNL     1      -1.791   1.101   1.629  1.00  0.00     0.184 HD
BRANCH  11  14
HETATM   14  N1  UNL     1      -1.122   3.949   1.997  1.00  0.00    -0.331 N 
ATOM     15  H12 UNL     1      -0.967   3.450   2.873  1.00  0.00     0.178 HD
ATOM     16  H11 UNL     1      -1.019   4.936   2.234  1.00  0.00     0.178 HD
ENDBRANCH  11  14
ENDBRANCH   1  10
BRANCH   3  17
HETATM   17  C3  UNL     1       2.396   0.664  -0.741  1.00  0.00     0.198 C 
BRANCH  17  18
HETATM   18  O2  UNL     1       3.261  -0.332  -0.366  1.00  0.00    -0.398 OA
ATOM     19  H2  UNL     1       4.134  -0.200  -0.718  1.00  0.00     0.209 HD
ENDBRANCH  17  18
ENDBRANCH   3  17
BRANCH   9  20
HETATM   20  O5  UNL     1       0.219  -1.237   1.753  1.00  0.00    -0.391 OA
ATOM     21  H5  UNL     1      -0.064  -1.798   2.466  1.00  0.00     0.210 HD
ENDBRANCH   9  20
TORSDOF 5
