REMARK  3 active torsions:
REMARK  status: ('A' for Active; 'I' for Inactive)
REMARK    1  A    between atoms: O1_1  and  C1_3 
REMARK    2  A    between atoms: C1_3  and  C2_4 
REMARK    3  A    between atoms: C7_13  and  N2_14 
ROOT
HETATM    1  C2  UNL     1      -1.161  -0.626  -0.046  1.00  0.00     0.173 C 
HETATM    2  C3  UNL     1      -2.376   0.298   0.127  1.00  0.00     0.266 C 
HETATM    3  N1  UNL     1      -1.812   1.556   0.610  1.00  0.00    -0.064 N 
ATOM      4  H11 UNL     1      -1.530   1.515   1.589  1.00  0.00     0.277 HD
ATOM      5  H12 UNL     1      -2.510   2.294   0.703  1.00  0.00     0.277 HD
HETATM    6  C4  UNL     1      -0.744   1.910  -0.259  1.00  0.00     0.242 C 
HETATM    7  C5  UNL     1      -0.147   3.288  -0.013  1.00  0.00     0.204 C 
HETATM    8  O2  UNL     1       0.693   2.711   0.916  1.00  0.00    -0.377 OA
HETATM    9  C6  UNL     1       0.614   1.510   0.174  1.00  0.00     0.204 C 
HETATM   10  C7  UNL     1       0.728   0.269   0.965  1.00  0.00     0.274 C 
HETATM   11  O3  UNL     1      -0.401  -0.491   1.083  1.00  0.00    -0.353 OA
ENDROOT
BRANCH  10  12
HETATM   12  N2  UNL     1       1.834  -0.545   0.480  1.00  0.00    -0.272 N 
HETATM   13  C8  UNL     1       2.019  -1.870   0.536  1.00  0.00     0.114 A 
HETATM   14  C9  UNL     1       3.222  -2.181  -0.057  1.00  0.00     0.037 A 
HETATM   15  C10 UNL     1       3.749  -0.977  -0.471  1.00  0.00     0.108 A 
HETATM   16  N3  UNL     1       2.884  -0.021  -0.129  1.00  0.00    -0.308 N 
ATOM     17  H3  UNL     1       3.014   0.974  -0.312  1.00  0.00     0.186 HD
ENDBRANCH  10  12
BRANCH   1  18
HETATM   18  C1  UNL     1      -1.714  -2.036  -0.098  1.00  0.00     0.197 C 
BRANCH  18  19
HETATM   19  O1  UNL     1      -2.489  -2.213  -1.226  1.00  0.00    -0.398 OA
ATOM     20  H1  UNL     1      -2.836  -3.097  -1.259  1.00  0.00     0.209 HD
ENDBRANCH  18  19
ENDBRANCH   1  18
TORSDOF 3
