REMARK  13 active torsions:
REMARK  status: ('A' for Active; 'I' for Inactive)
REMARK    1  A    between atoms: N1_2  and  C2_4 
REMARK    2  A    between atoms: C5_9  and  N3_10 
REMARK    3  A    between atoms: N3_10  and  C6_12 
REMARK    4  A    between atoms: C6_12  and  C8_14 
REMARK    5  A    between atoms: C8_14  and  O1_15 
REMARK    6  A    between atoms: C8_14  and  N4_17 
REMARK    7  A    between atoms: N4_17  and  C10_19 
REMARK    8  A    between atoms: C10_19  and  C11_20 
REMARK    9  A    between atoms: C10_19  and  C17_33 
REMARK       I    between atoms: C11_20  and  N5_22 
REMARK   10  A    between atoms: N5_22  and  C12_24 
REMARK       I    between atoms: C17_33  and  N8_35 
REMARK   11  A    between atoms: N8_35  and  C18_37 
REMARK   12  A    between atoms: C18_37  and  C20_39 
REMARK       I    between atoms: C20_39  and  N9_41 
REMARK   13  A    between atoms: N9_41  and  C21_43 
ROOT
HETATM    1  C10 UNL     1      -0.223   0.284   1.529  1.00  0.00     0.271 C 
ENDROOT
BRANCH   1   2
HETATM    2  N4  UNL     1       0.501   0.902   2.586  1.00  0.00    -0.347 N 
HETATM    3  C9  UNL     1      -0.266   1.803   3.475  1.00  0.00     0.153 C 
BRANCH   2   4
HETATM    4  C8  UNL     1       1.841   0.689   2.884  1.00  0.00     0.138 C 
BRANCH   4   5
HETATM    5  C6  UNL     1       2.895  -0.053   2.212  1.00  0.00     0.170 C 
HETATM    6  C7  UNL     1       3.136  -1.345   2.991  1.00  0.00     0.041 C 
BRANCH   5   7
HETATM    7  N3  UNL     1       2.726  -0.324   0.819  1.00  0.00    -0.214 N 
ATOM      8  H3  UNL     1       1.801  -0.234   0.399  1.00  0.00     0.178 HD
BRANCH   7   9
HETATM    9  C5  UNL     1       3.719  -0.678   0.090  1.00  0.00     0.680 A 
HETATM   10  N2  UNL     1       3.440  -0.914  -1.237  1.00  0.00    -0.202 N 
HETATM   11  C4  UNL     1       4.397  -1.289  -2.086  1.00  0.00     0.110 A 
ATOM     12  H2  UNL     1       2.485  -0.800  -1.577  1.00  0.00     0.183 HD
HETATM   13  C3  UNL     1       5.706  -1.451  -1.649  1.00  0.00     0.066 A 
HETATM   14  C2  UNL     1       5.986  -1.217  -0.322  1.00  0.00     0.117 A 
HETATM   15  N11 UNL     1       4.979  -0.842   0.477  1.00  0.00    -0.177 N 
ATOM     16  H11 UNL     1       5.196  -0.669   1.458  1.00  0.00     0.185 HD
BRANCH  14  17
HETATM   17  N1  UNL     1       7.194  -1.355   0.109  1.00  0.00    -0.380 N 
HETATM   18  C1  UNL     1       8.305  -1.744  -0.694  1.00  0.00     0.147 C 
ATOM     19  H1  UNL     1       7.367  -1.172   1.098  1.00  0.00     0.160 HD
ENDBRANCH  14  17
ENDBRANCH   7   9
ENDBRANCH   5   7
ENDBRANCH   4   5
BRANCH   4  20
HETATM   20  O1  UNL     1       2.242   1.266   3.988  1.00  0.00    -0.348 OA
ATOM     21  H1  UNL     1       1.553   1.751   4.427  1.00  0.00     0.219 HD
ENDBRANCH   4  20
ENDBRANCH   2   4
ENDBRANCH   1   2
BRANCH   1  22
HETATM   22  C11 UNL     1      -0.710   1.322   0.564  1.00  0.00     0.268 C 
HETATM   23  O2  UNL     1      -1.400   0.976  -0.450  1.00  0.00    -0.270 OA
HETATM   24  N5  UNL     1      -0.462   2.707   0.682  1.00  0.00    -0.157 N 
ATOM     25  H5  UNL     1      -0.615   3.162   1.582  1.00  0.00     0.187 HD
BRANCH  24  26
HETATM   26  C12 UNL     1      -0.045   3.419  -0.322  1.00  0.00     0.685 A 
HETATM   27  N6  UNL     1       0.212   4.746  -0.291  1.00  0.00    -0.194 N 
HETATM   28  C13 UNL     1       0.618   5.196  -1.473  1.00  0.00     0.045 A 
ATOM     29  H6  UNL     1       0.107   5.330   0.539  1.00  0.00     0.184 HD
HETATM   30  C14 UNL     1       1.005   6.581  -1.903  1.00  0.00     0.071 C 
HETATM   31  C15 UNL     1       0.628   4.117  -2.319  1.00  0.00     0.045 A 
HETATM   32  C16 UNL     1       0.999   4.066  -3.764  1.00  0.00     0.071 C 
HETATM   33  N7  UNL     1       0.216   3.039  -1.588  1.00  0.00    -0.194 N 
ATOM     34  H7  UNL     1       0.120   2.089  -1.947  1.00  0.00     0.184 HD
ENDBRANCH  24  26
ENDBRANCH   1  22
BRANCH   1  35
HETATM   35  C17 UNL     1      -1.409  -0.480   2.020  1.00  0.00     0.250 C 
HETATM   36  O3  UNL     1      -1.732  -0.407   3.208  1.00  0.00    -0.271 OA
HETATM   37  N8  UNL     1      -2.145  -1.276   1.123  1.00  0.00    -0.346 N 
ATOM     38  H8  UNL     1      -1.834  -1.300   0.152  1.00  0.00     0.163 HD
BRANCH  37  39
HETATM   39  C18 UNL     1      -3.309  -2.063   1.472  1.00  0.00     0.173 C 
HETATM   40  C19 UNL     1      -3.060  -3.518   1.241  1.00  0.00     0.042 C 
BRANCH  39  41
HETATM   41  C20 UNL     1      -4.479  -1.593   0.695  1.00  0.00     0.245 C 
HETATM   42  O4  UNL     1      -4.366  -0.569  -0.044  1.00  0.00    -0.271 OA
HETATM   43  N9  UNL     1      -5.730  -2.242   0.739  1.00  0.00    -0.311 N 
ATOM     44  H9  UNL     1      -6.144  -2.434   1.651  1.00  0.00     0.170 HD
BRANCH  43  45
HETATM   45  C21 UNL     1      -6.374  -2.604  -0.312  1.00  0.00     0.107 A 
HETATM   46  C22 UNL     1      -5.951  -2.420  -1.599  1.00  0.00     0.048 A 
HETATM   47  C23 UNL     1      -6.745  -2.837  -2.676  1.00  0.00     0.005 A 
HETATM   48  C24 UNL     1      -7.952  -3.433  -2.394  1.00  0.00     0.017 A 
HETATM   49  C25 UNL     1      -8.334  -3.596  -1.084  1.00  0.00     0.089 A 
HETATM   50  N10 UNL     1      -7.578  -3.198  -0.055  1.00  0.00    -0.352 N 
ATOM     51  H10 UNL     1      -7.894  -3.335   0.905  1.00  0.00     0.166 HD
ENDBRANCH  43  45
ENDBRANCH  39  41
ENDBRANCH  37  39
ENDBRANCH   1  35
TORSDOF 13
