REMARK  1 active torsions:
REMARK  status: ('A' for Active; 'I' for Inactive)
REMARK    1  A    between atoms: N1_3  and  O2_4 
ROOT
HETATM    1  O1  UNL     1      -0.846   2.006   0.825  1.00  0.00    -0.265 OA
HETATM    2  C1  UNL     1      -0.454   0.877   0.448  1.00  0.00     0.309 A 
HETATM    3  N1  UNL     1       0.635  -0.019  -0.003  1.00  0.00    -0.174 N 
HETATM    4  C2  UNL     1      -0.719  -0.507   0.132  1.00  0.00     0.297 A 
HETATM    5 CL1  UNL     1      -1.066  -1.664   1.426  1.00  0.00    -0.065 Cl
HETATM    6 CL2  UNL     1      -1.668  -0.792  -1.354  1.00  0.00    -0.065 Cl
ENDROOT
BRANCH   3   7
HETATM    7  O2  UNL     1       1.942  -0.025  -0.261  1.00  0.00    -0.281 OA
ATOM      8  H2  UNL     1       2.641  -0.600  -0.550  1.00  0.00     0.245 HD
ENDBRANCH   3   7
TORSDOF 1
