REMARK  4 active torsions:
REMARK  status: ('A' for Active; 'I' for Inactive)
REMARK    1  A    between atoms: C3_8  and  C4_9 
REMARK    2  A    between atoms: C4_9  and  N3_10 
REMARK    3  A    between atoms: C4_9  and  N4_14 
REMARK    4  A    between atoms: C5_18  and  N5_19 
ROOT
HETATM    1  N1  UNL     1      -1.342   4.014  -0.990  1.00  0.00    -0.234 N 
ATOM      2  H11 UNL     1      -0.473   4.548  -0.991  1.00  0.00     0.174 HD
ATOM      3  H12 UNL     1      -2.233   4.480  -1.161  1.00  0.00     0.174 HD
HETATM    4  C1  UNL     1      -1.253   2.746  -0.771  1.00  0.00     0.677 A 
HETATM    5  N2  UNL     1      -2.419   2.029  -0.769  1.00  0.00    -0.201 N 
ATOM      6  H2  UNL     1      -3.305   2.505  -0.940  1.00  0.00     0.183 HD
HETATM    7  C2  UNL     1      -2.407   0.705  -0.544  1.00  0.00     0.121 A 
HETATM    8  C3  UNL     1      -1.177   0.108  -0.317  1.00  0.00     0.060 A 
HETATM    9  C5  UNL     1       0.000   0.804  -0.315  1.00  0.00     0.138 A 
HETATM   10  N7  UNL     1      -0.088   2.137  -0.548  1.00  0.00    -0.176 N 
ATOM     11  H7  UNL     1       0.767   2.693  -0.553  1.00  0.00     0.186 HD
ENDROOT
BRANCH   8  12
HETATM   12  C4  UNL     1      -1.205  -1.358  -0.053  1.00  0.00     0.416 C 
BRANCH  12  13
HETATM   13  N3  UNL     1      -2.049  -1.987  -1.052  1.00  0.00    -0.046 N 
ATOM     14  H33 UNL     1      -2.982  -1.578  -1.091  1.00  0.00     0.277 HD
ATOM     15  H32 UNL     1      -1.760  -1.766  -2.005  1.00  0.00     0.277 HD
ATOM     16  H31 UNL     1      -2.068  -2.991  -0.871  1.00  0.00     0.277 HD
ENDBRANCH  12  13
BRANCH  12  17
HETATM   17  N4  UNL     1      -1.996  -1.491   1.192  1.00  0.00    -0.046 N 
ATOM     18  H43 UNL     1      -1.646  -0.933   1.971  1.00  0.00     0.277 HD
ATOM     19  H42 UNL     1      -2.918  -1.057   1.149  1.00  0.00     0.277 HD
ATOM     20  H41 UNL     1      -2.015  -2.495   1.373  1.00  0.00     0.277 HD
ENDBRANCH  12  17
ENDBRANCH   8  12
BRANCH   9  21
HETATM   21  N5  UNL     1       1.260   0.186  -0.087  1.00  0.00    -0.283 N 
HETATM   22  C6  UNL     1       2.047   0.387   1.091  1.00  0.00     0.155 C 
HETATM   23  C7  UNL     1       3.225  -0.509   0.958  1.00  0.00     0.144 C 
HETATM   24  N6  UNL     1       2.937  -1.354  -0.184  1.00  0.00    -0.341 N 
HETATM   25  C8  UNL     1       1.939  -0.689  -0.952  1.00  0.00     0.324 C 
ATOM     26  H6  UNL     1       3.367  -2.254  -0.397  1.00  0.00     0.164 HD
HETATM   27  O1  UNL     1       1.754  -0.900  -2.194  1.00  0.00    -0.247 OA
ENDBRANCH   9  21
TORSDOF 4
