REMARK  14 active torsions:
REMARK  status: ('A' for Active; 'I' for Inactive)
REMARK    1  A    between atoms: C2_2  and  C3_3 
REMARK    2  A    between atoms: C2_2  and  C11_16 
REMARK    3  A    between atoms: C3_3  and  C4_4 
REMARK    4  A    between atoms: C4_4  and  C5_5 
REMARK    5  A    between atoms: C5_5  and  C6_6 
REMARK    6  A    between atoms: C6_6  and  C7_7 
REMARK    7  A    between atoms: C7_7  and  C8_8 
REMARK       I    between atoms: C8_8  and  N1_10 
REMARK    8  A    between atoms: N1_10  and  C9_12 
REMARK    9  A    between atoms: C9_12  and  C10_13 
REMARK   10  A    between atoms: C11_16  and  C12_17 
REMARK   11  A    between atoms: C12_17  and  C13_18 
REMARK   12  A    between atoms: C13_18  and  C15_20 
REMARK   13  A    between atoms: C21_26  and  O4_27 
REMARK   14  A    between atoms: C26_33  and  O5_34 
ROOT
HETATM    1  C15 UNL     1      -1.311   1.148  -0.028  1.00  0.00    -0.002 C 
HETATM    2  C16 UNL     1      -1.744   2.539   0.517  1.00  0.00     0.006 C 
HETATM    3  C17 UNL     1      -3.233   2.455   0.751  1.00  0.00     0.006 C 
HETATM    4  C18 UNL     1      -3.572   1.204   0.016  1.00  0.00    -0.002 C 
HETATM    5  C19 UNL     1      -4.960   0.759   0.074  1.00  0.00    -0.003 C 
HETATM    6  C20 UNL     1      -5.637   0.753   1.392  1.00  0.00     0.038 C 
HETATM    7  C21 UNL     1      -6.471  -0.459   1.685  1.00  0.00     0.127 C 
HETATM    8  C22 UNL     1      -7.246  -0.853   0.464  1.00  0.00    -0.012 C 
HETATM    9  C23 UNL     1      -8.048  -2.123   0.777  1.00  0.00     0.018 C 
HETATM   10  C24 UNL     1      -8.255   0.210   0.101  1.00  0.00     0.014 C 
HETATM   11  C25 UNL     1      -8.436   0.027  -1.368  1.00  0.00     0.033 C 
HETATM   12  C26 UNL     1      -7.212  -0.646  -1.914  1.00  0.00     0.123 C 
HETATM   13  C27 UNL     1      -6.406  -1.130  -0.729  1.00  0.00     0.029 C 
HETATM   14  C28 UNL     1      -5.044  -0.529  -0.714  1.00  0.00    -0.003 C 
HETATM   15  C29 UNL     1      -4.020  -1.531  -0.314  1.00  0.00     0.006 C 
HETATM   16  C30 UNL     1      -2.613  -1.033  -0.211  1.00  0.00     0.010 C 
HETATM   17  C31 UNL     1      -2.468   0.281   0.435  1.00  0.00    -0.036 C 
HETATM   18  C32 UNL     1      -2.371   0.063   1.919  1.00  0.00     0.016 C 
ENDROOT
BRANCH   1  19
HETATM   19  C13 UNL     1       0.010   0.908   0.642  1.00  0.00    -0.014 C 
HETATM   20  C14 UNL     1       0.673  -0.388   0.385  1.00  0.00     0.010 C 
BRANCH  19  21
HETATM   21  C12 UNL     1       0.904   2.056   0.250  1.00  0.00     0.005 C 
BRANCH  21  22
HETATM   22  C11 UNL     1       2.181   2.243   0.938  1.00  0.00     0.004 C 
BRANCH  22  23
HETATM   23  C2  UNL     1       3.286   1.279   0.861  1.00  0.00    -0.019 C 
HETATM   24  C1  UNL     1       4.416   1.863   1.767  1.00  0.00     0.010 C 
BRANCH  23  25
HETATM   25  C3  UNL     1       3.968   1.289  -0.528  1.00  0.00     0.004 C 
BRANCH  25  26
HETATM   26  C4  UNL     1       5.191   0.417  -0.445  1.00  0.00     0.000 C 
BRANCH  26  27
HETATM   27  C5  UNL     1       5.870   0.414  -1.799  1.00  0.00     0.000 C 
BRANCH  27  28
HETATM   28  C6  UNL     1       7.102  -0.434  -1.820  1.00  0.00     0.009 C 
BRANCH  28  29
HETATM   29  C7  UNL     1       8.161  -0.006  -0.846  1.00  0.00     0.103 C 
BRANCH  29  30
HETATM   30  C8  UNL     1       9.318  -0.945  -0.984  1.00  0.00     0.217 C 
HETATM   31  O1  UNL     1       9.289  -1.898  -1.822  1.00  0.00    -0.274 OA
HETATM   32  N1  UNL     1      10.470  -0.787  -0.179  1.00  0.00    -0.351 N 
ATOM     33  H1  UNL     1      10.480  -0.019   0.492  1.00  0.00     0.163 HD
BRANCH  32  34
HETATM   34  C9  UNL     1      11.632  -1.639  -0.244  1.00  0.00     0.235 C 
BRANCH  34  35
HETATM   35  C10 UNL     1      12.243  -1.571  -1.587  1.00  0.00     0.191 C 
HETATM   36  O2  UNL     1      11.838  -0.861  -2.536  1.00  0.00    -0.647 OA
HETATM   37  O3  UNL     1      13.379  -2.367  -1.837  1.00  0.00    -0.647 OA
ENDBRANCH  34  35
ENDBRANCH  32  34
ENDBRANCH  29  30
ENDBRANCH  28  29
ENDBRANCH  27  28
ENDBRANCH  26  27
ENDBRANCH  25  26
ENDBRANCH  23  25
ENDBRANCH  22  23
ENDBRANCH  21  22
ENDBRANCH  19  21
ENDBRANCH   1  19
BRANCH   7  38
HETATM   38  O4  UNL     1      -7.432  -0.111   2.666  1.00  0.00    -0.395 OA
ATOM     39  H4  UNL     1      -7.960  -0.879   2.852  1.00  0.00     0.210 HD
ENDBRANCH   7  38
BRANCH  12  40
HETATM   40  O5  UNL     1      -7.635  -1.693  -2.733  1.00  0.00    -0.395 OA
ATOM     41  H5  UNL     1      -6.860  -2.119  -3.079  1.00  0.00     0.210 HD
ENDBRANCH  12  40
TORSDOF 14
