REMARK  13 active torsions:
REMARK  status: ('A' for Active; 'I' for Inactive)
REMARK       I    between atoms: C1_2  and  N1_3 
REMARK    1  A    between atoms: C1_2  and  O3_14 
REMARK    2  A    between atoms: N1_3  and  C2_5 
REMARK    3  A    between atoms: C2_5  and  C3_6 
REMARK    4  A    between atoms: C8_11  and  O2_12 
REMARK    5  A    between atoms: O3_14  and  C9_15 
REMARK    6  A    between atoms: C9_15  and  C10_16 
REMARK    7  A    between atoms: C14_20  and  O4_21 
REMARK    8  A    between atoms: O4_21  and  C15_22 
REMARK    9  A    between atoms: C16_24  and  C17_25 
REMARK   10  A    between atoms: C17_25  and  O6_26 
REMARK   11  A    between atoms: C18_28  and  O7_29 
REMARK   12  A    between atoms: C19_31  and  O8_32 
REMARK   13  A    between atoms: C20_34  and  O9_35 
ROOT
HETATM    1  C10 UNL     1       0.711  -1.701  -2.147  1.00  0.00     0.149 C 
HETATM    2  C11 UNL     1       1.594  -2.805  -2.647  1.00  0.00     0.034 C 
HETATM    3  C12 UNL     1       2.798  -2.240  -3.368  1.00  0.00     0.007 C 
HETATM    4  C13 UNL     1       2.840  -0.742  -3.072  1.00  0.00     0.061 C 
HETATM    5  C14 UNL     1       2.660  -0.606  -1.566  1.00  0.00     0.263 C 
HETATM    6  O10 UNL     1       1.335  -0.849  -1.261  1.00  0.00    -0.354 OA
ENDROOT
BRANCH   5   7
HETATM    7  O4  UNL     1       3.008   0.639  -1.099  1.00  0.00    -0.329 OA
BRANCH   7   8
HETATM    8  C15 UNL     1       4.076   0.609  -0.210  1.00  0.00     0.294 C 
HETATM    9  O5  UNL     1       3.780   1.230   1.002  1.00  0.00    -0.348 OA
HETATM   10  C16 UNL     1       4.820   0.946   1.875  1.00  0.00     0.179 C 
HETATM   11  C18 UNL     1       6.135   1.517   1.431  1.00  0.00     0.180 C 
HETATM   12  C19 UNL     1       6.454   1.161   0.007  1.00  0.00     0.183 C 
HETATM   13  C20 UNL     1       5.216   1.393  -0.845  1.00  0.00     0.204 C 
BRANCH  10  14
HETATM   14  C17 UNL     1       4.519   1.462   3.266  1.00  0.00     0.198 C 
BRANCH  14  15
HETATM   15  O6  UNL     1       5.631   1.125   4.072  1.00  0.00    -0.398 OA
ATOM     16  H6  UNL     1       5.442   1.449   4.945  1.00  0.00     0.209 HD
ENDBRANCH  14  15
ENDBRANCH  10  14
BRANCH  11  17
HETATM   17  O7  UNL     1       6.121   2.911   1.538  1.00  0.00    -0.390 OA
ATOM     18  H7  UNL     1       6.953   3.272   1.257  1.00  0.00     0.210 HD
ENDBRANCH  11  17
BRANCH  12  19
HETATM   19  O8  UNL     1       7.451   2.051  -0.430  1.00  0.00    -0.390 OA
ATOM     20  H8  UNL     1       7.653   1.826  -1.331  1.00  0.00     0.210 HD
ENDBRANCH  12  19
BRANCH  13  21
HETATM   21  O9  UNL     1       4.901   2.740  -0.752  1.00  0.00    -0.388 OA
ATOM     22  H9  UNL     1       5.612   3.229  -1.148  1.00  0.00     0.210 HD
ENDBRANCH  13  21
ENDBRANCH   7   8
ENDBRANCH   5   7
BRANCH   1  23
HETATM   23  C9  UNL     1      -0.478  -2.351  -1.440  1.00  0.00     0.212 C 
BRANCH  23  24
HETATM   24  O3  UNL     1      -1.388  -1.361  -1.014  1.00  0.00    -0.302 OA
BRANCH  24  25
HETATM   25  C1  UNL     1      -2.534  -1.752  -0.352  1.00  0.00     0.360 C 
HETATM   26  O1  UNL     1      -2.717  -2.980  -0.156  1.00  0.00    -0.239 OA
HETATM   27  N1  UNL     1      -3.511  -0.834   0.117  1.00  0.00    -0.336 N 
ATOM     28  H1  UNL     1      -3.372   0.165  -0.037  1.00  0.00     0.164 HD
BRANCH  27  29
HETATM   29  C2  UNL     1      -4.697  -1.284   0.807  1.00  0.00     0.132 C 
BRANCH  29  30
HETATM   30  C3  UNL     1      -5.555  -0.113   1.190  1.00  0.00     0.032 C 
HETATM   31  C4  UNL     1      -6.815  -0.562   1.921  1.00  0.00     0.009 C 
HETATM   32  C5  UNL     1      -7.534   0.715   2.352  1.00  0.00     0.001 C 
HETATM   33  C6  UNL     1      -7.988   1.504   1.141  1.00  0.00     0.002 C 
HETATM   34  C7  UNL     1      -7.428   0.936  -0.139  1.00  0.00     0.032 C 
HETATM   35  C8  UNL     1      -5.951   0.638  -0.035  1.00  0.00     0.123 C 
BRANCH  35  36
HETATM   36  O2  UNL     1      -5.184   1.802  -0.128  1.00  0.00    -0.395 OA
ATOM     37  H2  UNL     1      -5.436   2.281  -0.909  1.00  0.00     0.210 HD
ENDBRANCH  35  36
ENDBRANCH  29  30
ENDBRANCH  27  29
ENDBRANCH  24  25
ENDBRANCH  23  24
ENDBRANCH   1  23
TORSDOF 13
