REMARK  3 active torsions:
REMARK  status: ('A' for Active; 'I' for Inactive)
REMARK    1  A    between atoms: C1_2  and  C2_4 
REMARK       I    between atoms: N1_7  and  C5_8 
REMARK    2  A    between atoms: C5_8  and  C6_10 
REMARK    3  A    between atoms: C6_10  and  N2_11 
ROOT
HETATM    1  N2  UNL     1       0.054  -0.265  -0.803  1.00  0.00    -0.287 N 
HETATM    2  N3  UNL     1       0.873   0.602  -1.457  1.00  0.00    -0.309 N 
ATOM      3  H3  UNL     1       1.835   0.401  -1.728  1.00  0.00     0.186 HD
HETATM    4  C7  UNL     1       0.246   1.743  -1.692  1.00  0.00     0.116 A 
HETATM    5  C8  UNL     1      -1.023   1.583  -1.164  1.00  0.00    -0.016 A 
HETATM    6  C9  UNL     1      -1.147   0.299  -0.598  1.00  0.00     0.045 A 
HETATM    7  C10 UNL     1      -2.366  -0.246  -0.022  1.00  0.00     0.008 C 
HETATM    8  C11 UNL     1      -3.528   0.734  -0.238  1.00  0.00     0.016 C 
HETATM    9  C12 UNL     1      -3.543   2.010   0.440  1.00  0.00     0.001 C 
HETATM   10  C13 UNL     1      -2.584   3.063   0.067  1.00  0.00     0.005 C 
HETATM   11  C14 UNL     1      -1.971   2.717  -1.271  1.00  0.00     0.042 C 
HETATM   12  C15 UNL     1      -2.921  -1.412  -0.887  1.00  0.00     0.042 C 
HETATM   13  C16 UNL     1      -4.173  -1.983  -0.350  1.00  0.00     0.168 C 
HETATM   14  O4  UNL     1      -4.326  -2.065   0.984  1.00  0.00    -0.391 OA
HETATM   15  C17 UNL     1      -3.798  -1.085   1.772  1.00  0.00     0.168 C 
HETATM   16  C18 UNL     1      -2.369  -0.820   1.326  1.00  0.00     0.042 C 
ENDROOT
BRANCH   1  17
HETATM   17  C6  UNL     1       0.536  -1.525  -0.367  1.00  0.00     0.251 C 
BRANCH  17  18
HETATM   18  C5  UNL     1       1.462  -1.344   0.796  1.00  0.00     0.241 C 
HETATM   19  N1  UNL     1       2.879  -1.373   0.657  1.00  0.00    -0.329 N 
HETATM   20  C4  UNL     1       3.609  -1.591  -0.556  1.00  0.00     0.131 C 
HETATM   21  C19 UNL     1       3.675  -1.164   1.852  1.00  0.00     0.297 C 
HETATM   22  C3  UNL     1       4.923  -0.840  -0.410  1.00  0.00     0.063 C 
HETATM   23  C2  UNL     1       4.668   0.375   0.448  1.00  0.00     0.225 C 
HETATM   24  O5  UNL     1       4.345   0.040   1.754  1.00  0.00    -0.356 OA
HETATM   25  O3  UNL     1       0.956  -1.163   1.927  1.00  0.00    -0.271 OA
BRANCH  23  26
HETATM   26  C1  UNL     1       5.875   1.256   0.501  1.00  0.00     0.203 C 
HETATM   27  O1  UNL     1       6.419   1.730  -0.541  1.00  0.00    -0.646 OA
HETATM   28  O2  UNL     1       6.474   1.608   1.699  1.00  0.00    -0.646 OA
ENDBRANCH  23  26
ENDBRANCH  17  18
ENDBRANCH   1  17
TORSDOF 3
