REMARK  7 active torsions:
REMARK  status: ('A' for Active; 'I' for Inactive)
REMARK    1  A    between atoms: O1_2  and  C2_3 
REMARK    2  A    between atoms: C2_3  and  C3_4 
REMARK    3  A    between atoms: C5_6  and  C6_7 
REMARK    4  A    between atoms: C6_7  and  C7_9 
REMARK    5  A    between atoms: C7_9  and  N1_10 
REMARK    6  A    between atoms: C12_15  and  O3_16 
REMARK    7  A    between atoms: C17_22  and  O4_23 
ROOT
HETATM    1  C3  UNL     1      -0.336   1.277   0.814  1.00  0.00     0.003 C 
HETATM    2  C4  UNL     1      -0.774   0.239   0.151  1.00  0.00    -0.063 C 
HETATM    3  C5  UNL     1       0.118  -0.853  -0.337  1.00  0.00     0.119 C 
HETATM    4  C12 UNL     1      -0.250  -2.120   0.386  1.00  0.00     0.134 C 
HETATM    5  C13 UNL     1      -1.541  -1.988   1.141  1.00  0.00     0.042 C 
HETATM    6  C14 UNL     1      -2.651  -1.327   0.397  1.00  0.00    -0.032 C 
HETATM    7  C15 UNL     1      -3.795  -1.162   1.401  1.00  0.00     0.016 C 
HETATM    8  C16 UNL     1      -3.187  -2.061  -0.775  1.00  0.00     0.041 C 
HETATM    9  C17 UNL     1      -3.740  -0.924  -1.635  1.00  0.00     0.119 C 
HETATM   10  C18 UNL     1      -2.546   0.026  -1.619  1.00  0.00     0.041 C 
HETATM   11  C19 UNL     1      -2.204   0.042  -0.141  1.00  0.00     0.026 C 
ENDROOT
BRANCH   3  12
HETATM   12  C6  UNL     1       1.542  -0.610  -0.275  1.00  0.00     0.175 C 
HETATM   13  O2  UNL     1       2.192  -1.328   0.474  1.00  0.00    -0.291 OA
BRANCH  12  14
HETATM   14  C7  UNL     1       2.335   0.408  -1.007  1.00  0.00     0.136 C 
BRANCH  14  15
HETATM   15  N1  UNL     1       3.704   0.422  -0.696  1.00  0.00    -0.387 N 
HETATM   16  C8  UNL     1       4.527  -0.656  -1.084  1.00  0.00     0.122 C 
HETATM   17  C9  UNL     1       5.898  -0.195  -0.556  1.00  0.00     0.021 C 
HETATM   18  C10 UNL     1       5.621   0.856   0.472  1.00  0.00     0.021 C 
HETATM   19  C11 UNL     1       4.109   0.880   0.590  1.00  0.00     0.122 C 
ENDBRANCH  14  15
ENDBRANCH  12  14
ENDBRANCH   3  12
BRANCH   4  20
HETATM   20  O3  UNL     1      -0.235  -3.233  -0.466  1.00  0.00    -0.394 OA
ATOM     21  H3  UNL     1      -0.467  -4.033  -0.009  1.00  0.00     0.210 HD
ENDBRANCH   4  20
BRANCH   1  22
HETATM   22  C2  UNL     1      -1.194   2.361   1.299  1.00  0.00     0.194 C 
BRANCH  22  23
HETATM   23  O1  UNL     1      -0.819   3.612   0.753  1.00  0.00    -0.392 OA
HETATM   24  C1  UNL     1      -1.734   4.527   1.319  1.00  0.00     0.201 C 
ENDBRANCH  22  23
ENDBRANCH   1  22
BRANCH   9  25
HETATM   25  O4  UNL     1      -3.983  -1.423  -2.910  1.00  0.00    -0.396 OA
ATOM     26  H4  UNL     1      -4.327  -0.717  -3.444  1.00  0.00     0.210 HD
ENDBRANCH   9  25
TORSDOF 7
