REMARK  6 active torsions:
REMARK  status: ('A' for Active; 'I' for Inactive)
REMARK    1  A    between atoms: C2_2  and  C3_3 
REMARK    2  A    between atoms: C3_3  and  N1_4 
REMARK    3  A    between atoms: N1_4  and  C4_6 
REMARK    4  A    between atoms: C5_9  and  C6_10 
REMARK    5  A    between atoms: C8_14  and  C9_15 
REMARK    6  A    between atoms: C11_21  and  N6_22 
ROOT
HETATM    1  C4  UNL     1      -0.197   1.912   0.775  1.00  0.00     0.694 A 
HETATM    2  N2  UNL     1      -1.264   1.103   0.679  1.00  0.00    -0.173 N 
ATOM      3  H2  UNL     1      -2.193   1.469   0.889  1.00  0.00     0.186 HD
HETATM    4  C5  UNL     1      -1.126  -0.176   0.312  1.00  0.00     0.164 A 
HETATM    5  N5  UNL     1       0.111  -0.628   0.041  1.00  0.00    -0.173 N 
ATOM      6  H5  UNL     1       0.220  -1.603  -0.239  1.00  0.00     0.186 HD
HETATM    7  C11 UNL     1       1.209   0.140   0.121  1.00  0.00     0.696 A 
HETATM    8  N8  UNL     1       1.020   1.419   0.495  1.00  0.00    -0.022 N 
ATOM      9  H8  UNL     1       1.830   2.035   0.568  1.00  0.00     0.203 HD
ENDROOT
BRANCH   4  10
HETATM   10  C6  UNL     1      -2.263  -1.087   0.196  1.00  0.00     0.094 A 
HETATM   11  C7  UNL     1      -2.253  -2.416  -0.170  1.00  0.00     0.122 A 
HETATM   12  N3  UNL     1      -3.513  -2.876  -0.147  1.00  0.00    -0.353 N 
HETATM   13  C8  UNL     1      -4.335  -1.890   0.222  1.00  0.00     0.081 A 
ATOM     14  H3  UNL     1      -3.798  -3.828  -0.375  1.00  0.00     0.166 HD
HETATM   15  N4  UNL     1      -3.554  -0.800   0.428  1.00  0.00    -0.342 N 
ATOM     16  H4  UNL     1      -3.901   0.114   0.720  1.00  0.00     0.167 HD
BRANCH  13  17
HETATM   17  C9  UNL     1      -5.802  -1.995   0.367  1.00  0.00     0.072 C 
HETATM   18  C10 UNL     1      -6.242  -3.401   0.033  1.00  0.00     0.013 C 
ENDBRANCH  13  17
ENDBRANCH   4  10
BRANCH   1  19
HETATM   19  N1  UNL     1      -0.284   3.149   1.125  1.00  0.00    -0.226 N 
ATOM     20  H1  UNL     1       0.581   3.687   1.170  1.00  0.00     0.177 HD
BRANCH  19  21
HETATM   21  C3  UNL     1      -1.501   3.827   1.456  1.00  0.00     0.137 C 
BRANCH  21  22
HETATM   22  C2  UNL     1      -1.465   5.189   0.766  1.00  0.00     0.016 C 
HETATM   23  C1  UNL     1      -1.356   4.915  -0.732  1.00  0.00     0.006 C 
ENDBRANCH  21  22
ENDBRANCH  19  21
ENDBRANCH   1  19
BRANCH   7  24
HETATM   24  N6  UNL     1       2.519  -0.388  -0.178  1.00  0.00    -0.214 N 
HETATM   25  C12 UNL     1       2.602  -1.762  -0.557  1.00  0.00     0.160 C 
HETATM   26  C13 UNL     1       3.971  -2.346  -0.562  1.00  0.00     0.136 C 
HETATM   27  N7  UNL     1       5.015  -1.476  -0.976  1.00  0.00    -0.414 N 
HETATM   28  C14 UNL     1       6.268  -1.676  -0.304  1.00  0.00     0.143 C 
HETATM   29  C15 UNL     1       4.656  -0.112  -1.160  1.00  0.00     0.136 C 
HETATM   30  C16 UNL     1       3.700   0.402  -0.106  1.00  0.00     0.160 C 
ENDBRANCH   7  24
TORSDOF 6
