REMARK  1 active torsions:
REMARK  status: ('A' for Active; 'I' for Inactive)
REMARK    1  A    between atoms: N2_4  and  C1_6 
ROOT
HETATM    1  C1  UNL     1       1.141  -0.049   0.181  1.00  0.00     0.340 C 
HETATM    2  C2  UNL     1       0.223  -0.020  -1.016  1.00  0.00     0.043 C 
HETATM    3  C3  UNL     1      -0.394   1.369  -0.806  1.00  0.00     0.039 C 
HETATM    4  C4  UNL     1      -0.381   1.491   0.704  1.00  0.00     0.275 C 
HETATM    5  N3  UNL     1       0.109   0.196   1.208  1.00  0.00     0.113 N 
HETATM    6  C5  UNL     1      -0.968  -0.738   0.873  1.00  0.00     0.275 C 
HETATM    7  C6  UNL     1      -0.836  -1.004  -0.623  1.00  0.00     0.039 C 
ENDROOT
BRANCH   1   8
HETATM    8  N2  UNL     1       1.831  -1.245   0.367  1.00  0.00    -0.310 N 
HETATM    9  N1  UNL     1       2.019  -2.033  -0.566  1.00  0.00    -0.347 N 
ATOM     10  H12 UNL     1       1.654  -1.787  -1.486  1.00  0.00     0.176 HD
ATOM     11  H11 UNL     1       2.524  -2.909  -0.430  1.00  0.00     0.176 HD
ATOM     12  H2  UNL     1       2.189  -1.475   1.294  1.00  0.00     0.182 HD
ENDBRANCH   1   8
TORSDOF 1
