REMARK  5 active torsions:
REMARK  status: ('A' for Active; 'I' for Inactive)
REMARK       I    between atoms: N1_2  and  C2_4 
REMARK    1  A    between atoms: C2_4  and  C3_6 
REMARK    2  A    between atoms: C7_10  and  N2_11 
REMARK    3  A    between atoms: C9_18  and  O2_19 
REMARK    4  A    between atoms: C10_24  and  N6_25 
REMARK       I    between atoms: N6_25  and  C11_27 
REMARK       I    between atoms: C11_27  and  N8_31 
REMARK    5  A    between atoms: N8_31  and  N9_33 
ROOT
HETATM    1  N2  UNL     1       0.381  -0.166  -0.301  1.00  0.00    -0.144 N 
HETATM    2  C8  UNL     1       0.267  -1.419  -0.964  1.00  0.00     0.678 C 
HETATM    3  N3  UNL     1      -0.618  -1.707  -1.854  1.00  0.00    -0.235 N 
ATOM      4  H31 UNL     1      -0.700  -2.606  -2.330  1.00  0.00     0.174 HD
ATOM      5  H32 UNL     1      -1.272  -0.956  -2.074  1.00  0.00     0.174 HD
HETATM    6  N4  UNL     1       1.191  -2.479  -0.653  1.00  0.00    -0.174 N 
ATOM      7  H4  UNL     1       0.951  -3.460  -0.799  1.00  0.00     0.182 HD
HETATM    8  C9  UNL     1       2.476  -2.082  -0.124  1.00  0.00     0.445 C 
HETATM    9  N5  UNL     1       2.252  -1.086   0.887  1.00  0.00     0.009 N 
ATOM     10  H51 UNL     1       3.108  -0.877   1.401  1.00  0.00     0.287 HD
ATOM     11  H52 UNL     1       1.692  -1.454   1.656  1.00  0.00     0.287 HD
HETATM   12  C10 UNL     1       1.661   0.115   0.328  1.00  0.00     0.427 C 
ENDROOT
BRANCH   1  13
HETATM   13  C7  UNL     1      -0.758   0.689  -0.308  1.00  0.00     0.245 C 
HETATM   14  C6  UNL     1      -0.556   1.998   0.399  1.00  0.00     0.055 C 
HETATM   15  C5  UNL     1      -1.775   2.856   0.123  1.00  0.00     0.007 C 
HETATM   16  C4  UNL     1      -3.057   2.145   0.483  1.00  0.00     0.042 C 
HETATM   17  C3  UNL     1      -2.988   0.776  -0.139  1.00  0.00     0.216 C 
HETATM   18  O5  UNL     1      -1.870   0.079   0.309  1.00  0.00    -0.351 OA
BRANCH  17  19
HETATM   19  C2  UNL     1      -4.232   0.011   0.009  1.00  0.00     0.246 C 
HETATM   20  N1  UNL     1      -4.296  -1.298   0.549  1.00  0.00    -0.363 N 
HETATM   21  C1  UNL     1      -5.506  -2.047   0.695  1.00  0.00     0.149 C 
ATOM     22  H1  UNL     1      -3.425  -1.733   0.852  1.00  0.00     0.162 HD
HETATM   23  O1  UNL     1      -5.306   0.535  -0.360  1.00  0.00    -0.271 OA
ENDBRANCH  17  19
ENDBRANCH   1  13
BRANCH  12  24
HETATM   24  N6  UNL     1       2.611   0.687  -0.577  1.00  0.00    -0.178 N 
HETATM   25  C11 UNL     1       3.911   1.018  -0.109  1.00  0.00     0.694 C 
HETATM   26  N7  UNL     1       4.014   1.783   0.930  1.00  0.00    -0.233 N 
HETATM   27  N8  UNL     1       5.105   0.552  -0.725  1.00  0.00    -0.072 N 
ATOM     28  H72 UNL     1       3.158   2.117   1.372  1.00  0.00     0.174 HD
ATOM     29  H71 UNL     1       4.947   2.021   1.266  1.00  0.00     0.174 HD
ATOM     30  H8  UNL     1       5.269   0.744  -1.713  1.00  0.00     0.212 HD
ATOM     31  H6  UNL     1       2.357   0.856  -1.550  1.00  0.00     0.181 HD
BRANCH  27  32
HETATM   32  N9  UNL     1       6.058  -0.165   0.005  1.00  0.00    -0.024 N 
HETATM   33  O3  UNL     1       6.699  -1.103  -0.493  1.00  0.00    -0.516 OA
HETATM   34  O4  UNL     1       6.324   0.150   1.330  1.00  0.00    -0.516 OA
ENDBRANCH  27  32
ENDBRANCH  12  24
BRANCH   8  35
HETATM   35  O2  UNL     1       3.184  -3.153   0.403  1.00  0.00    -0.354 OA
ATOM     36  H2  UNL     1       4.029  -2.892   0.751  1.00  0.00     0.214 HD
ENDBRANCH   8  35
TORSDOF 5
