REMARK  3 active torsions:
REMARK  status: ('A' for Active; 'I' for Inactive)
REMARK    1  A    between atoms: C3_3  and  N1_4 
REMARK    2  A    between atoms: C3_3  and  C15_22 
REMARK       I    between atoms: N1_4  and  C4_6 
REMARK       I    between atoms: C4_6  and  N2_8 
REMARK    3  A    between atoms: N2_8  and  C5_10 
ROOT
HETATM    1  C1  UNL     1       5.892  -2.241   1.386  1.00  0.00     0.015 C 
HETATM    2  C2  UNL     1       5.235  -1.252   1.440  1.00  0.00    -0.081 C 
HETATM    3  C3  UNL     1       4.397  -0.031   1.498  1.00  0.00     0.266 C 
ENDROOT
BRANCH   3   4
HETATM    4  N1  UNL     1       3.425  -0.105   0.434  1.00  0.00    -0.319 N 
HETATM    5  C4  UNL     1       2.049  -0.053   0.774  1.00  0.00     0.317 C 
HETATM    6  O1  UNL     1       1.659   0.053   1.965  1.00  0.00    -0.247 OA
HETATM    7  N2  UNL     1       1.057  -0.121  -0.228  1.00  0.00    -0.336 N 
ATOM      8  H2  UNL     1       1.353  -0.208  -1.200  1.00  0.00     0.164 HD
ATOM      9  H1  UNL     1       3.720  -0.193  -0.538  1.00  0.00     0.166 HD
BRANCH   7  10
HETATM   10  C5  UNL     1      -0.363  -0.073   0.060  1.00  0.00     0.108 C 
HETATM   11  C6  UNL     1      -0.976  -1.340  -0.455  1.00  0.00     0.032 C 
HETATM   12  C7  UNL     1      -2.467  -1.384  -0.333  1.00  0.00    -0.010 C 
HETATM   13  C8  UNL     1      -3.037  -0.507   0.718  1.00  0.00     0.009 C 
HETATM   14  C12 UNL     1      -3.062  -1.146  -1.703  1.00  0.00     0.029 C 
HETATM   15  C9  UNL     1      -3.248   0.911   0.336  1.00  0.00    -0.010 C 
HETATM   16  C10 UNL     1      -3.838   1.058  -1.072  1.00  0.00     0.029 C 
HETATM   17  C14 UNL     1      -1.976   1.729   0.307  1.00  0.00     0.031 C 
HETATM   18  C11 UNL     1      -2.886   0.345  -1.990  1.00  0.00     0.077 C 
HETATM   19  N3  UNL     1      -1.544   0.780  -1.925  1.00  0.00    -0.411 N 
HETATM   20  C13 UNL     1      -1.020   1.099  -0.654  1.00  0.00     0.100 C 
ATOM     21  H3  UNL     1      -0.974   0.861  -2.767  1.00  0.00     0.154 HD
ENDBRANCH   7  10
ENDBRANCH   3   4
BRANCH   3  22
HETATM   22  C15 UNL     1       5.306   1.109   1.351  1.00  0.00     0.209 C 
HETATM   23  O2  UNL     1       5.190   1.887   0.386  1.00  0.00    -0.646 OA
HETATM   24  O3  UNL     1       6.296   1.327   2.282  1.00  0.00    -0.646 OA
ENDBRANCH   3  22
TORSDOF 3
