REMARK  11 active torsions:
REMARK  status: ('A' for Active; 'I' for Inactive)
REMARK    1  A    between atoms: C2_2  and  N1_3 
REMARK    2  A    between atoms: N1_3  and  C3_5 
REMARK    3  A    between atoms: N3_9  and  C5_10 
REMARK    4  A    between atoms: C5_10  and  C6_11 
REMARK       I    between atoms: C6_11  and  N4_13 
REMARK    5  A    between atoms: N4_13  and  C7_15 
REMARK    6  A    between atoms: C7_15  and  C8_16 
REMARK    7  A    between atoms: C7_15  and  C21_41 
REMARK    8  A    between atoms: C8_16  and  C9_17 
REMARK       I    between atoms: C9_17  and  N5_19 
REMARK    9  A    between atoms: N5_19  and  C10_21 
REMARK       I    between atoms: N8_31  and  C15_32 
REMARK   10  A    between atoms: C15_32  and  C16_34 
REMARK   11  A    between atoms: C16_34  and  O4_36 
ROOT
HETATM    1  C9  UNL     1      -1.246   0.669   0.643  1.00  0.00     0.225 C 
HETATM    2  O2  UNL     1      -0.703   1.790   0.560  1.00  0.00    -0.273 OA
HETATM    3  N5  UNL     1      -2.627   0.564   0.347  1.00  0.00    -0.312 N 
ATOM      4  H5  UNL     1      -3.330   0.665   1.079  1.00  0.00     0.170 HD
ENDROOT
BRANCH   1   5
HETATM    5  C8  UNL     1      -0.451  -0.506   1.043  1.00  0.00     0.129 C 
BRANCH   5   6
HETATM    6  C7  UNL     1       0.982  -0.230   1.320  1.00  0.00     0.100 C 
BRANCH   6   7
HETATM    7  N4  UNL     1       1.724   0.312   0.215  1.00  0.00    -0.354 N 
HETATM    8  C6  UNL     1       2.493   1.490   0.270  1.00  0.00     0.236 C 
HETATM    9  O1  UNL     1       2.564   2.143   1.341  1.00  0.00    -0.272 OA
ATOM     10  H4  UNL     1       1.691  -0.192  -0.671  1.00  0.00     0.162 HD
BRANCH   8  11
HETATM   11  C5  UNL     1       3.228   1.986  -0.912  1.00  0.00     0.233 C 
BRANCH  11  12
HETATM   12  N3  UNL     1       4.583   1.435  -0.968  1.00  0.00    -0.329 N 
HETATM   13  C4  UNL     1       5.616   2.062  -0.381  1.00  0.00     0.201 A 
HETATM   14  N2  UNL     1       6.890   1.568  -0.419  1.00  0.00    -0.188 N 
HETATM   15  C3  UNL     1       7.106   0.417  -1.068  1.00  0.00     0.681 A 
ATOM     16  H2  UNL     1       7.657   2.064   0.036  1.00  0.00     0.185 HD
HETATM   17  N9  UNL     1       6.085  -0.235  -1.668  1.00  0.00    -0.184 N 
HETATM   18  C25 UNL     1       4.839   0.275  -1.614  1.00  0.00     0.204 A 
HETATM   19  C26 UNL     1       6.392  -1.475  -2.351  1.00  0.00     0.176 C 
BRANCH  15  20
HETATM   20  N1  UNL     1       8.284  -0.086  -1.131  1.00  0.00    -0.226 N 
ATOM     21  H1  UNL     1       8.414  -0.964  -1.633  1.00  0.00     0.177 HD
BRANCH  20  22
HETATM   22  C2  UNL     1       9.428   0.536  -0.524  1.00  0.00     0.133 C 
HETATM   23  C1  UNL     1       9.441   0.369   0.973  1.00  0.00     0.027 C 
ENDBRANCH  20  22
ENDBRANCH  15  20
ENDBRANCH  11  12
ENDBRANCH   8  11
ENDBRANCH   6   7
BRANCH   6  24
HETATM   24  C21 UNL     1       1.728  -1.453   1.818  1.00  0.00    -0.030 C 
HETATM   25  C22 UNL     1       1.882  -2.525   0.786  1.00  0.00     0.016 C 
HETATM   26  C23 UNL     1       0.967  -2.043   3.007  1.00  0.00     0.016 C 
HETATM   27  C24 UNL     1       3.059  -0.981   2.363  1.00  0.00     0.016 C 
ENDBRANCH   6  24
ENDBRANCH   5   6
ENDBRANCH   1   5
BRANCH   3  28
HETATM   28  C10 UNL     1      -2.973   0.336  -0.884  1.00  0.00     0.128 A 
HETATM   29  N6  UNL     1      -2.082   0.197  -1.880  1.00  0.00    -0.318 N 
HETATM   30  C11 UNL     1      -2.451  -0.039  -3.156  1.00  0.00     0.181 A 
ATOM     31  H6  UNL     1      -1.088   0.273  -1.663  1.00  0.00     0.170 HD
HETATM   32 CL1  UNL     1      -1.260  -0.216  -4.435  1.00  0.00    -0.045 Cl
HETATM   33  N7  UNL     1      -3.772  -0.133  -3.401  1.00  0.00    -0.332 N 
HETATM   34  C12 UNL     1      -4.703  -0.001  -2.440  1.00  0.00     0.055 A 
ATOM     35  H7  UNL     1      -4.079  -0.312  -4.357  1.00  0.00     0.168 HD
HETATM   36  C13 UNL     1      -6.054  -0.097  -2.691  1.00  0.00     0.048 A 
HETATM   37  C20 UNL     1      -4.332   0.240  -1.133  1.00  0.00     0.103 A 
HETATM   38  C14 UNL     1      -6.978   0.049  -1.648  1.00  0.00     0.106 A 
HETATM   39  N8  UNL     1      -6.616   0.283  -0.385  1.00  0.00    -0.256 N 
HETATM   40  C15 UNL     1      -7.491   0.430   0.716  1.00  0.00     0.259 C 
HETATM   41  C19 UNL     1      -5.274   0.377  -0.138  1.00  0.00     0.270 A 
HETATM   42  O3  UNL     1      -7.036   0.660   1.868  1.00  0.00    -0.270 OA
HETATM   43  O5  UNL     1      -4.873   0.598   1.043  1.00  0.00    -0.266 OA
BRANCH  40  44
HETATM   44  C16 UNL     1      -8.965   0.328   0.590  1.00  0.00     0.209 C 
HETATM   45  C17 UNL     1      -9.378  -1.054   0.103  1.00  0.00     0.050 C 
BRANCH  44  46
HETATM   46  O4  UNL     1      -9.599   0.617   1.799  1.00  0.00    -0.382 OA
HETATM   47  C18 UNL     1     -10.415   1.724   1.607  1.00  0.00     0.202 C 
ENDBRANCH  44  46
ENDBRANCH  40  44
ENDBRANCH   3  28
TORSDOF 11
