REMARK  4 active torsions:
REMARK  status: ('A' for Active; 'I' for Inactive)
REMARK    1  A    between atoms: C3_5  and  N2_6 
REMARK    2  A    between atoms: N2_6  and  C4_8 
REMARK    3  A    between atoms: C7_13  and  N4_14 
REMARK    4  A    between atoms: N4_14  and  C8_16 
ROOT
HETATM    1  C4  UNL     1       0.944  -0.645  -0.545  1.00  0.00     0.698 A 
HETATM    2  N3  UNL     1       0.912   0.577   0.018  1.00  0.00    -0.201 N 
ATOM      3  H3  UNL     1       1.789   1.082   0.142  1.00  0.00     0.183 HD
HETATM    4  C5  UNL     1      -0.237   1.161   0.426  1.00  0.00     0.110 A 
HETATM    5  C6  UNL     1      -1.397   0.439   0.238  1.00  0.00     0.066 A 
HETATM    6  C7  UNL     1      -1.374  -0.814  -0.339  1.00  0.00     0.122 A 
HETATM    7  N6  UNL     1      -0.195  -1.337  -0.723  1.00  0.00    -0.176 N 
ATOM      8  H6  UNL     1      -0.165  -2.262  -1.151  1.00  0.00     0.186 HD
ENDROOT
BRANCH   1   9
HETATM    9  N2  UNL     1       2.084  -1.168  -0.924  1.00  0.00    -0.021 N 
ATOM     10  H2  UNL     1       2.114  -2.094  -1.352  1.00  0.00     0.203 HD
BRANCH   9  11
HETATM   11  C3  UNL     1       3.278  -0.421  -0.728  1.00  0.00     0.712 A 
HETATM   12  N1  UNL     1       4.165  -0.506   0.280  1.00  0.00    -0.178 N 
HETATM   13  C2  UNL     1       5.166   0.370   0.105  1.00  0.00     0.108 A 
ATOM     14  H1  UNL     1       4.087  -1.148   1.069  1.00  0.00     0.185 HD
HETATM   15  C1  UNL     1       6.355   0.593   1.003  1.00  0.00     0.091 C 
HETATM   16  N8  UNL     1       4.902   1.019  -1.038  1.00  0.00    -0.275 N 
HETATM   17  N7  UNL     1       3.772   0.538  -1.528  1.00  0.00    -0.130 N 
ATOM     18  H8  UNL     1       5.472   1.754  -1.456  1.00  0.00     0.189 HD
ATOM     19  H7  UNL     1       3.335   0.852  -2.395  1.00  0.00     0.205 HD
ENDBRANCH   9  11
ENDBRANCH   1   9
BRANCH   6  20
HETATM   20  N4  UNL     1      -2.429  -1.523  -0.535  1.00  0.00    -0.341 N 
ATOM     21  H4  UNL     1      -2.357  -2.444  -0.967  1.00  0.00     0.167 HD
BRANCH  20  22
HETATM   22  C8  UNL     1      -3.699  -1.010  -0.144  1.00  0.00     0.049 A 
HETATM   23  C9  UNL     1      -4.406  -0.213  -1.029  1.00  0.00     0.032 A 
HETATM   24  C10 UNL     1      -5.618   0.281  -0.667  1.00  0.00     0.019 A 
HETATM   25  C11 UNL     1      -6.130  -0.022   0.587  1.00  0.00     0.088 A 
HETATM   26  N5  UNL     1      -5.465  -0.793   1.462  1.00  0.00    -0.373 N 
HETATM   27  C12 UNL     1      -4.260  -1.276   1.086  1.00  0.00     0.117 A 
ATOM     28  H5  UNL     1      -5.856  -1.007   2.379  1.00  0.00     0.164 HD
ENDBRANCH  20  22
ENDBRANCH   6  20
TORSDOF 4
