REMARK  5 active torsions:
REMARK  status: ('A' for Active; 'I' for Inactive)
REMARK    1  A    between atoms: C2_2  and  N1_3 
REMARK    2  A    between atoms: N1_3  and  C3_6 
REMARK    3  A    between atoms: C3_6  and  C4_7 
REMARK    4  A    between atoms: C4_7  and  C5_8 
REMARK    5  A    between atoms: C5_8  and  C6_9 
ROOT
HETATM    1  C6  UNL     1       0.510  -0.524   0.264  1.00  0.00     0.014 C 
HETATM    2  C7  UNL     1       0.582   0.446  -0.853  1.00  0.00     0.008 C 
HETATM    3  C8  UNL     1       1.992   0.885  -1.237  1.00  0.00     0.036 C 
HETATM    4  C9  UNL     1       2.918  -0.279  -0.962  1.00  0.00     0.223 C 
HETATM    5  C10 UNL     1       4.367   0.002  -1.267  1.00  0.00     0.037 C 
HETATM    6  C11 UNL     1       5.031  -1.049  -0.354  1.00  0.00     0.032 C 
HETATM    7  C12 UNL     1       3.956  -1.381   0.700  1.00  0.00     0.273 C 
HETATM    8  N2  UNL     1       2.984  -0.380   0.485  1.00  0.00     0.093 N 
HETATM    9  C13 UNL     1       1.764  -0.402   1.141  1.00  0.00     0.277 C 
ENDROOT
BRANCH   1  10
HETATM   10  C5  UNL     1      -0.634  -0.259   1.163  1.00  0.00     0.008 C 
BRANCH  10  11
HETATM   11  C4  UNL     1      -2.013  -0.294   0.699  1.00  0.00     0.028 C 
BRANCH  11  12
HETATM   12  C3  UNL     1      -2.501   0.629  -0.337  1.00  0.00     0.232 C 
BRANCH  12  13
HETATM   13  N1  UNL     1      -3.930   0.344  -0.563  1.00  0.00    -0.075 N 
ATOM     14  H12 UNL     1      -4.065  -0.635  -0.816  1.00  0.00     0.277 HD
ATOM     15  H11 UNL     1      -4.253   0.790  -1.422  1.00  0.00     0.277 HD
BRANCH  13  16
HETATM   16  C2  UNL     1      -4.770   0.699   0.533  1.00  0.00     0.228 C 
HETATM   17  C1  UNL     1      -6.205   0.378   0.086  1.00  0.00     0.034 C 
ENDBRANCH  13  16
ENDBRANCH  12  13
ENDBRANCH  11  12
ENDBRANCH  10  11
ENDBRANCH   1  10
TORSDOF 5
