REMARK  9 active torsions:
REMARK  status: ('A' for Active; 'I' for Inactive)
REMARK    1  A    between atoms: C2_2  and  C3_3 
REMARK    2  A    between atoms: C3_3  and  O1_4 
REMARK    3  A    between atoms: O1_4  and  C4_5 
REMARK    4  A    between atoms: C12_13  and  O2_14 
REMARK    5  A    between atoms: C20_23  and  C21_24 
REMARK       I    between atoms: C21_24  and  N1_26 
REMARK    6  A    between atoms: N1_26  and  C22_28 
REMARK    7  A    between atoms: C22_28  and  C23_29 
REMARK    8  A    between atoms: C22_28  and  C27_33 
REMARK    9  A    between atoms: C23_29  and  C24_30 
REMARK       I    between atoms: C27_33  and  N2_35 
ROOT
HETATM    1  C4  UNL     1       0.528   3.253   0.163  1.00  0.00     0.154 C 
HETATM    2  C5  UNL     1       1.722   2.355   0.213  1.00  0.00     0.010 C 
HETATM    3  C6  UNL     1       1.493   1.189  -0.363  1.00  0.00    -0.058 C 
HETATM    4  C7  UNL     1       2.428   0.025  -0.520  1.00  0.00     0.020 C 
HETATM    5  C8  UNL     1       3.104  -0.364   0.757  1.00  0.00     0.010 C 
HETATM    6  C9  UNL     1       3.372  -1.797   0.948  1.00  0.00     0.006 C 
HETATM    7  C10 UNL     1       3.326  -2.712  -0.220  1.00  0.00    -0.004 C 
HETATM    8  C11 UNL     1       4.638  -3.465  -0.449  1.00  0.00     0.037 C 
HETATM    9  C12 UNL     1       5.710  -2.614  -1.013  1.00  0.00     0.118 C 
HETATM   10  C13 UNL     1       5.256  -1.533  -1.922  1.00  0.00     0.032 C 
HETATM   11  C14 UNL     1       3.863  -1.673  -2.448  1.00  0.00     0.012 C 
HETATM   12  C15 UNL     1       2.835  -2.159  -1.509  1.00  0.00    -0.036 C 
HETATM   13  C16 UNL     1       2.040  -3.269  -2.231  1.00  0.00     0.016 C 
HETATM   14  C17 UNL     1       1.744  -1.134  -1.157  1.00  0.00     0.002 C 
HETATM   15  C18 UNL     1       0.879  -0.788  -2.315  1.00  0.00     0.007 C 
HETATM   16  C19 UNL     1       0.201   0.521  -2.261  1.00  0.00     0.025 C 
HETATM   17  C20 UNL     1       0.086   1.127  -0.897  1.00  0.00     0.074 C 
HETATM   18  C29 UNL     1      -0.297   2.585  -0.934  1.00  0.00     0.002 C 
HETATM   19  C30 UNL     1       0.055   3.273  -2.226  1.00  0.00     0.019 C 
HETATM   20  C31 UNL     1      -1.732   2.850  -0.528  1.00  0.00     0.019 C 
ENDROOT
BRANCH  17  21
HETATM   21  C21 UNL     1      -0.834   0.436   0.012  1.00  0.00     0.232 C 
HETATM   22  O3  UNL     1      -0.405   0.191   1.183  1.00  0.00    -0.272 OA
HETATM   23  N1  UNL     1      -2.129   0.022  -0.271  1.00  0.00    -0.347 N 
ATOM     24  H1  UNL     1      -2.484   0.217  -1.207  1.00  0.00     0.163 HD
BRANCH  23  25
HETATM   25  C22 UNL     1      -3.031  -0.668   0.652  1.00  0.00     0.177 C 
BRANCH  25  26
HETATM   26  C23 UNL     1      -4.233   0.217   0.838  1.00  0.00     0.038 C 
BRANCH  26  27
HETATM   27  C24 UNL     1      -5.281  -0.239   1.764  1.00  0.00    -0.020 C 
HETATM   28  C25 UNL     1      -4.742  -0.407   3.188  1.00  0.00     0.009 C 
HETATM   29  C26 UNL     1      -6.405   0.794   1.910  1.00  0.00     0.009 C 
ENDBRANCH  26  27
ENDBRANCH  25  26
BRANCH  25  30
HETATM   30  C27 UNL     1      -3.445  -1.964   0.109  1.00  0.00     0.240 C 
HETATM   31  O4  UNL     1      -3.116  -2.153  -1.132  1.00  0.00    -0.271 OA
HETATM   32  N2  UNL     1      -4.124  -3.018   0.703  1.00  0.00    -0.364 N 
HETATM   33  C28 UNL     1      -4.439  -4.232  -0.053  1.00  0.00     0.149 C 
ATOM     34  H2  UNL     1      -4.408  -2.946   1.680  1.00  0.00     0.161 HD
ENDBRANCH  25  30
ENDBRANCH  23  25
ENDBRANCH  17  21
BRANCH   1  35
HETATM   35  O1  UNL     1      -0.130   3.352   1.362  1.00  0.00    -0.378 OA
BRANCH  35  36
HETATM   36  C3  UNL     1      -0.097   4.693   1.766  1.00  0.00     0.195 C 
BRANCH  36  37
HETATM   37  C2  UNL     1      -0.794   4.900   3.051  1.00  0.00    -0.011 C 
HETATM   38  C1  UNL     1      -0.128   5.384   4.084  1.00  0.00     0.009 C 
ENDBRANCH  36  37
ENDBRANCH  35  36
ENDBRANCH   1  35
BRANCH   9  39
HETATM   39  O2  UNL     1       6.464  -2.051   0.044  1.00  0.00    -0.396 OA
ATOM     40  H2  UNL     1       7.152  -1.505  -0.318  1.00  0.00     0.210 HD
ENDBRANCH   9  39
TORSDOF 9
