REMARK  8 active torsions:
REMARK  status: ('A' for Active; 'I' for Inactive)
REMARK    1  A    between atoms: O1_1  and  C1_3 
REMARK    2  A    between atoms: C1_3  and  C2_4 
REMARK    3  A    between atoms: C1_3  and  C9_13 
REMARK    4  A    between atoms: C2_4  and  N1_5 
REMARK    5  A    between atoms: N1_5  and  C3_7 
REMARK    6  A    between atoms: C9_13  and  O2_14 
REMARK    7  A    between atoms: C9_13  and  C10_16 
REMARK    8  A    between atoms: C10_16  and  C11_17 
ROOT
HETATM    1  C1  UNL     1      -0.076  -0.369   0.045  1.00  0.00     0.164 C 
ENDROOT
BRANCH   1   2
HETATM    2  O1  UNL     1      -0.390  -1.490   0.814  1.00  0.00    -0.391 OA
ATOM      3  H1  UNL     1      -1.019  -2.040   0.362  1.00  0.00     0.210 HD
ENDBRANCH   1   2
BRANCH   1   4
HETATM    4  C2  UNL     1       0.929   0.509   0.767  1.00  0.00     0.148 C 
BRANCH   4   5
HETATM    5  N1  UNL     1       2.144  -0.161   1.072  1.00  0.00    -0.415 N 
ATOM      6  H1  UNL     1       2.402  -0.371   2.036  1.00  0.00     0.153 HD
BRANCH   5   7
HETATM    7  C3  UNL     1       2.991  -0.530  -0.012  1.00  0.00     0.076 C 
HETATM    8  C4  UNL     1       3.483   0.687  -0.726  1.00  0.00     0.024 C 
HETATM    9  C5  UNL     1       4.826   1.118  -0.167  1.00  0.00     0.002 C 
HETATM   10  C6  UNL     1       5.765   0.004  -0.573  1.00  0.00     0.000 C 
HETATM   11  C7  UNL     1       5.415  -1.276   0.107  1.00  0.00     0.002 C 
HETATM   12  C8  UNL     1       4.008  -1.486   0.465  1.00  0.00     0.024 C 
ENDBRANCH   5   7
ENDBRANCH   4   5
ENDBRANCH   1   4
BRANCH   1  13
HETATM   13  C9  UNL     1      -1.371   0.453  -0.047  1.00  0.00     0.148 C 
BRANCH  13  14
HETATM   14  O2  UNL     1      -1.199   1.598  -0.799  1.00  0.00    -0.393 OA
ATOM     15  H2  UNL     1      -2.000   2.106  -0.856  1.00  0.00     0.210 HD
ENDBRANCH  13  14
BRANCH  13  16
HETATM   16  C10 UNL     1      -2.472  -0.434  -0.547  1.00  0.00     0.039 C 
BRANCH  16  17
HETATM   17  C11 UNL     1      -3.810   0.251  -0.669  1.00  0.00    -0.012 C 
HETATM   18  C12 UNL     1      -4.231   0.773   0.691  1.00  0.00     0.005 C 
HETATM   19  C13 UNL     1      -5.735   0.855   0.567  1.00  0.00     0.000 C 
HETATM   20  C14 UNL     1      -6.143  -0.104  -0.531  1.00  0.00     0.000 C 
HETATM   21  C15 UNL     1      -4.881  -0.827  -0.915  1.00  0.00     0.005 C 
ENDBRANCH  16  17
ENDBRANCH  13  16
ENDBRANCH   1  13
TORSDOF 8
