REMARK  5 active torsions:
REMARK  status: ('A' for Active; 'I' for Inactive)
REMARK       I    between atoms: C1_4  and  N3_6 
REMARK       I    between atoms: N3_6  and  C2_8 
REMARK    1  A    between atoms: C2_8  and  C3_10 
REMARK    2  A    between atoms: C6_13  and  C7_14 
REMARK    3  A    between atoms: C11_18  and  C12_19 
REMARK    4  A    between atoms: C16_23  and  O2_24 
REMARK    5  A    between atoms: O2_24  and  C17_25 
ROOT
HETATM    1  C7  UNL     1       1.025  -0.925  -1.273  1.00  0.00    -0.025 A 
HETATM    2  C8  UNL     1       0.445  -1.573  -2.341  1.00  0.00     0.012 A 
HETATM    3  C9  UNL     1      -0.942  -1.678  -2.429  1.00  0.00     0.002 A 
HETATM    4  C10 UNL     1      -1.762  -1.140  -1.456  1.00  0.00     0.012 A 
HETATM    5  C11 UNL     1      -1.187  -0.491  -0.386  1.00  0.00    -0.025 A 
HETATM    6  C24 UNL     1       0.205  -0.388  -0.301  1.00  0.00     0.024 A 
ENDROOT
BRANCH   1   7
HETATM    7  C6  UNL     1       2.489  -0.793  -1.142  1.00  0.00    -0.026 A 
HETATM    8  C5  UNL     1       3.058   0.292  -0.525  1.00  0.00     0.013 A 
HETATM    9  C4  UNL     1       4.427   0.415  -0.403  1.00  0.00     0.018 A 
HETATM   10  C3  UNL     1       5.273  -0.545  -0.896  1.00  0.00     0.032 A 
HETATM   11  C26 UNL     1       4.701  -1.634  -1.515  1.00  0.00     0.018 A 
HETATM   12  C25 UNL     1       3.328  -1.773  -1.646  1.00  0.00     0.013 A 
BRANCH  10  13
HETATM   13  C2  UNL     1       6.704  -0.432  -0.778  1.00  0.00     0.258 C 
HETATM   14  N3  UNL     1       7.317   0.708  -0.194  1.00  0.00    -0.297 N 
HETATM   15  C1  UNL     1       8.746   0.772  -0.100  1.00  0.00     0.188 C 
ATOM     16  H3  UNL     1       6.744   1.476   0.156  1.00  0.00     0.171 HD
HETATM   17  N1  UNL     1       9.330   1.786   0.422  1.00  0.00    -0.373 N 
HETATM   18  N2  UNL     1       9.534  -0.299  -0.588  1.00  0.00    -0.064 NA
ATOM     19  H12 UNL     1      10.347   1.832   0.489  1.00  0.00     0.158 HD
ATOM     20  H11 UNL     1       8.763   2.557   0.773  1.00  0.00     0.158 HD
HETATM   21  O1  UNL     1       7.412  -1.400  -1.220  1.00  0.00    -0.267 OA
ENDBRANCH  10  13
ENDBRANCH   1   7
BRANCH   5  22
HETATM   22  C12 UNL     1      -2.054   0.076   0.640  1.00  0.00    -0.023 A 
HETATM   23  C13 UNL     1      -1.657   1.208   1.322  1.00  0.00     0.012 A 
HETATM   24  C14 UNL     1      -2.498   1.743   2.304  1.00  0.00     0.004 A 
HETATM   25  C15 UNL     1      -3.719   1.151   2.598  1.00  0.00     0.037 A 
HETATM   26  C16 UNL     1      -4.111   0.020   1.914  1.00  0.00     0.076 A 
HETATM   27  C23 UNL     1      -3.266  -0.494   0.946  1.00  0.00     0.049 A 
BRANCH  26  28
HETATM   28  O2  UNL     1      -5.336  -0.560   2.220  1.00  0.00    -0.311 OA
BRANCH  28  29
HETATM   29  C17 UNL     1      -6.510  -0.188   1.561  1.00  0.00     0.076 A 
HETATM   30  C18 UNL     1      -6.483   0.778   0.576  1.00  0.00     0.037 A 
HETATM   31  C19 UNL     1      -7.665   1.114  -0.049  1.00  0.00     0.003 A 
HETATM   32  C20 UNL     1      -8.829   0.463   0.344  1.00  0.00     0.000 A 
HETATM   33  C21 UNL     1      -8.864  -0.494   1.318  1.00  0.00     0.003 A 
HETATM   34  C22 UNL     1      -7.671  -0.825   1.940  1.00  0.00     0.037 A 
ENDBRANCH  28  29
ENDBRANCH  26  28
ENDBRANCH   5  22
TORSDOF 5
