REMARK  3 active torsions:
REMARK  status: ('A' for Active; 'I' for Inactive)
REMARK    1  A    between atoms: N1_1  and  C1_4 
REMARK    2  A    between atoms: C4_12  and  C5_13 
REMARK    3  A    between atoms: C6_22  and  N8_23 
ROOT
HETATM    1  C1  UNL     1      -3.479  -0.941   0.213  1.00  0.00     0.680 A 
HETATM    2  N2  UNL     1      -2.748  -2.062   0.329  1.00  0.00    -0.154 N 
ATOM      3  H2  UNL     1      -3.231  -2.952   0.455  1.00  0.00     0.187 HD
HETATM    4  C2  UNL     1      -1.407  -2.056   0.286  1.00  0.00     0.290 A 
HETATM    5  O1  UNL     1      -0.732  -3.103   0.395  1.00  0.00    -0.265 OA
HETATM    6  C3  UNL     1      -0.736  -0.854   0.117  1.00  0.00     0.147 A 
HETATM    7  N3  UNL     1       0.592  -0.781   0.068  1.00  0.00    -0.342 N 
ATOM      8  H3  UNL     1       1.125  -1.646   0.159  1.00  0.00     0.166 HD
HETATM    9  C4  UNL     1       1.292   0.401  -0.099  1.00  0.00     0.131 A 
HETATM   10  C6  UNL     1       0.553   1.534  -0.219  1.00  0.00     0.206 A 
HETATM   11  N9  UNL     1      -0.826   1.431  -0.163  1.00  0.00    -0.319 N 
ATOM     12  H9  UNL     1      -1.373   2.287  -0.251  1.00  0.00     0.169 HD
HETATM   13  C7  UNL     1      -1.480   0.290  -0.002  1.00  0.00     0.155 A 
HETATM   14  N10 UNL     1      -2.820   0.233   0.047  1.00  0.00    -0.174 N 
ATOM     15  H10 UNL     1      -3.357   1.095  -0.043  1.00  0.00     0.186 HD
ENDROOT
BRANCH   9  16
HETATM   16  C5  UNL     1       2.744   0.348  -0.106  1.00  0.00     0.168 A 
HETATM   17  N4  UNL     1       3.736   1.199  -0.229  1.00  0.00    -0.267 N 
HETATM   18  N5  UNL     1       4.896   0.583  -0.161  1.00  0.00    -0.227 N 
ATOM     19  H4  UNL     1       3.622   2.204  -0.360  1.00  0.00     0.190 HD
HETATM   20  N6  UNL     1       4.675  -0.715   0.012  1.00  0.00    -0.227 N 
ATOM     21  H5  UNL     1       5.811   1.027  -0.230  1.00  0.00     0.210 HD
HETATM   22  N7  UNL     1       3.372  -0.871   0.047  1.00  0.00    -0.267 N 
ATOM     23  H6  UNL     1       5.380  -1.447   0.100  1.00  0.00     0.210 HD
ATOM     24  H7  UNL     1       2.894  -1.763   0.169  1.00  0.00     0.190 HD
ENDBRANCH   9  16
BRANCH  10  25
HETATM   25  N8  UNL     1       1.107   2.814  -0.389  1.00  0.00    -0.095 N 
HETATM   26  O2  UNL     1       0.412   3.770   0.135  1.00  0.00    -0.530 OA
HETATM   27  O3  UNL     1       2.232   3.236  -0.991  1.00  0.00    -0.530 OA
ENDBRANCH  10  25
BRANCH   1  28
HETATM   28  N1  UNL     1      -4.772  -0.979   0.260  1.00  0.00    -0.234 N 
ATOM     29  H12 UNL     1      -5.268  -1.862   0.385  1.00  0.00     0.174 HD
ATOM     30  H11 UNL     1      -5.327  -0.128   0.172  1.00  0.00     0.174 HD
ENDBRANCH   1  28
TORSDOF 3
