REMARK  10 active torsions:
REMARK  status: ('A' for Active; 'I' for Inactive)
REMARK    1  A    between atoms: C4_4  and  N1_5 
REMARK       I    between atoms: N1_5  and  C5_7 
REMARK    2  A    between atoms: C5_7  and  C6_9 
REMARK    3  A    between atoms: C14_17  and  C15_18 
REMARK    4  A    between atoms: C15_18  and  C17_20 
REMARK    5  A    between atoms: C17_20  and  C18_21 
REMARK    6  A    between atoms: C18_21  and  C19_22 
REMARK    7  A    between atoms: C19_22  and  O2_23 
REMARK    8  A    between atoms: C19_22  and  C20_25 
REMARK    9  A    between atoms: C20_25  and  C21_26 
REMARK   10  A    between atoms: C27_34  and  O5_35 
ROOT
HETATM    1  C6  UNL     1       3.506  -0.024   1.150  1.00  0.00     0.090 C 
HETATM    2  C7  UNL     1       2.680  -0.870   0.154  1.00  0.00     0.025 C 
HETATM    3  C8  UNL     1       1.771   0.338   0.023  1.00  0.00     0.027 C 
HETATM    4  C9  UNL     1       0.328  -0.067   0.198  1.00  0.00    -0.074 C 
HETATM    5  C10 UNL     1      -0.189  -1.103  -0.374  1.00  0.00    -0.022 C 
HETATM    6  C11 UNL     1      -1.570  -1.530  -0.234  1.00  0.00     0.037 C 
HETATM    7  C12 UNL     1      -2.459  -0.671   0.632  1.00  0.00    -0.033 C 
HETATM    8  C13 UNL     1      -2.699  -1.483   1.884  1.00  0.00     0.016 C 
HETATM    9  C14 UNL     1      -3.711  -0.381  -0.165  1.00  0.00    -0.002 C 
HETATM   10  C22 UNL     1      -3.123   0.566  -1.192  1.00  0.00     0.006 C 
HETATM   11  C23 UNL     1      -2.346   1.524  -0.286  1.00  0.00     0.006 C 
HETATM   12  C24 UNL     1      -1.947   0.696   0.912  1.00  0.00     0.002 C 
HETATM   13  C25 UNL     1      -0.480   0.806   1.081  1.00  0.00     0.022 C 
HETATM   14  C26 UNL     1       0.018   0.703   2.502  1.00  0.00     0.042 C 
HETATM   15  C27 UNL     1       1.410   0.126   2.493  1.00  0.00     0.128 C 
HETATM   16  C28 UNL     1       2.273   0.760   1.399  1.00  0.00     0.002 C 
HETATM   17  C29 UNL     1       2.494   2.223   1.596  1.00  0.00     0.019 C 
ENDROOT
BRANCH   1  18
HETATM   18  C5  UNL     1       4.674   0.601   0.527  1.00  0.00     0.223 C 
HETATM   19  N1  UNL     1       5.721  -0.206  -0.011  1.00  0.00    -0.356 N 
ATOM     20  H1  UNL     1       5.633  -1.220   0.051  1.00  0.00     0.162 HD
HETATM   21  O1  UNL     1       4.811   1.829   0.436  1.00  0.00    -0.273 OA
BRANCH  19  22
HETATM   22  C4  UNL     1       6.888   0.340  -0.633  1.00  0.00     0.088 C 
HETATM   23  C3  UNL     1       7.152  -0.135  -2.026  1.00  0.00     0.056 C 
HETATM   24  C2  UNL     1       8.605  -0.061  -2.405  1.00  0.00     0.119 C 
HETATM   25  C1  UNL     1       9.338  -1.375  -2.195  1.00  0.00     0.039 C 
HETATM   26  O6  UNL     1       9.267   0.983  -1.770  1.00  0.00    -0.386 OA
HETATM   27  C31 UNL     1       9.279   0.885  -0.386  1.00  0.00     0.170 C 
HETATM   28  C30 UNL     1       8.139   0.090   0.181  1.00  0.00     0.051 C 
ENDBRANCH  19  22
ENDBRANCH   1  18
BRANCH  15  29
HETATM   29  O5  UNL     1       2.067   0.364   3.702  1.00  0.00    -0.395 OA
ATOM     30  H5  UNL     1       2.945   0.000   3.696  1.00  0.00     0.210 HD
ENDBRANCH  15  29
BRANCH   9  31
HETATM   31  C15 UNL     1      -4.792   0.332   0.519  1.00  0.00    -0.014 C 
HETATM   32  C16 UNL     1      -5.391  -0.289   1.741  1.00  0.00     0.010 C 
BRANCH  31  33
HETATM   33  C17 UNL     1      -5.912   0.633  -0.449  1.00  0.00     0.007 C 
BRANCH  33  34
HETATM   34  C18 UNL     1      -6.513  -0.602  -1.082  1.00  0.00     0.032 C 
BRANCH  34  35
HETATM   35  C19 UNL     1      -7.623  -0.289  -2.022  1.00  0.00     0.128 C 
BRANCH  35  36
HETATM   36  O2  UNL     1      -7.222   0.532  -3.075  1.00  0.00    -0.395 OA
ATOM     37  H2  UNL     1      -7.931   0.732  -3.675  1.00  0.00     0.210 HD
ENDBRANCH  35  36
BRANCH  35  38
HETATM   38  C20 UNL     1      -8.884   0.215  -1.422  1.00  0.00     0.144 C 
BRANCH  38  39
HETATM   39  C21 UNL     1      -9.553  -0.679  -0.490  1.00  0.00     0.175 C 
HETATM   40  O3  UNL     1     -10.551  -0.244   0.141  1.00  0.00    -0.648 OA
HETATM   41  O4  UNL     1      -9.174  -1.978  -0.246  1.00  0.00    -0.648 OA
ENDBRANCH  38  39
ENDBRANCH  35  38
ENDBRANCH  34  35
ENDBRANCH  33  34
ENDBRANCH  31  33
ENDBRANCH   9  31
TORSDOF 10
