REMARK  10 active torsions:
REMARK  status: ('A' for Active; 'I' for Inactive)
REMARK    1  A    between atoms: C3_4  and  O2_5 
REMARK    2  A    between atoms: O2_5  and  C4_6 
REMARK    3  A    between atoms: C5_7  and  N1_8 
REMARK    4  A    between atoms: C7_13  and  N2_14 
REMARK    5  A    between atoms: C7_13  and  C8_18 
REMARK    6  A    between atoms: C8_18  and  O3_19 
REMARK    7  A    between atoms: C9_21  and  O4_22 
REMARK    8  A    between atoms: C10_24  and  N3_25 
REMARK       I    between atoms: N3_25  and  C11_27 
REMARK    9  A    between atoms: C12_30  and  N5_31 
REMARK   10  A    between atoms: C14_36  and  N6_37 
ROOT
HETATM    1  C4  UNL     1      -0.574  -0.241  -0.724  1.00  0.00     0.180 C 
HETATM    2  C5  UNL     1      -1.034  -1.593  -1.252  1.00  0.00     0.217 C 
HETATM    3  C6  UNL     1      -1.854  -2.233  -0.187  1.00  0.00     0.079 C 
HETATM    4  C7  UNL     1      -3.028  -1.416   0.241  1.00  0.00     0.174 C 
HETATM    5  C9  UNL     1      -2.866   0.042   0.285  1.00  0.00     0.181 C 
HETATM    6  C10 UNL     1      -1.750   0.659  -0.483  1.00  0.00     0.148 C 
ENDROOT
BRANCH   1   7
HETATM    7  O2  UNL     1       0.235  -0.388   0.374  1.00  0.00    -0.350 OA
BRANCH   7   8
HETATM    8  C3  UNL     1       1.548   0.046   0.144  1.00  0.00     0.291 C 
HETATM    9  O1  UNL     1       1.873   0.932   1.135  1.00  0.00    -0.352 OA
HETATM   10  C2  UNL     1       3.179   1.367   1.125  1.00  0.00     0.151 C 
HETATM   11  C1  UNL     1       3.478   2.316  -0.014  1.00  0.00     0.042 C 
HETATM   12  C14 UNL     1       4.186   0.261   1.107  1.00  0.00     0.214 C 
HETATM   13  C13 UNL     1       3.849  -0.733   0.015  1.00  0.00     0.073 C 
HETATM   14  C12 UNL     1       2.420  -1.204   0.313  1.00  0.00     0.240 C 
BRANCH  12  15
HETATM   15  N6  UNL     1       5.492   0.807   0.801  1.00  0.00    -0.072 N 
ATOM     16  H63 UNL     1       5.493   1.344  -0.066  1.00  0.00     0.274 HD
ATOM     17  H62 UNL     1       5.755   1.559   1.438  1.00  0.00     0.274 HD
ATOM     18  H61 UNL     1       6.179   0.053   0.789  1.00  0.00     0.274 HD
ENDBRANCH  12  15
BRANCH  14  19
HETATM   19  N5  UNL     1       2.384  -1.541   1.713  1.00  0.00    -0.070 N 
ATOM     20  H53 UNL     1       2.660  -0.770   2.321  1.00  0.00     0.274 HD
ATOM     21  H52 UNL     1       1.438  -1.656   2.077  1.00  0.00     0.274 HD
ATOM     22  H51 UNL     1       2.964  -2.372   1.825  1.00  0.00     0.274 HD
ENDBRANCH  14  19
ENDBRANCH   7   8
ENDBRANCH   1   7
BRANCH   2  23
HETATM   23  N1  UNL     1      -1.683  -1.439  -2.518  1.00  0.00    -0.072 N 
ATOM     24  H13 UNL     1      -2.450  -0.768  -2.473  1.00  0.00     0.274 HD
ATOM     25  H12 UNL     1      -1.093  -0.949  -3.190  1.00  0.00     0.274 HD
ATOM     26  H11 UNL     1      -1.991  -2.345  -2.872  1.00  0.00     0.274 HD
ENDBRANCH   2  23
BRANCH   6  27
HETATM   27  N3  UNL     1      -1.288   1.820   0.227  1.00  0.00    -0.336 N 
HETATM   28  C11 UNL     1      -1.335   3.095  -0.358  1.00  0.00     0.329 C 
HETATM   29  N4  UNL     1      -0.892   4.282   0.296  1.00  0.00    -0.040 NA
HETATM   30  O5  UNL     1      -1.788   3.266  -1.537  1.00  0.00    -0.251 OA
ATOM     31  H3  UNL     1      -0.920   1.716   1.172  1.00  0.00     0.164 HD
ENDBRANCH   6  27
BRANCH   5  32
HETATM   32  O4  UNL     1      -4.047   0.641  -0.169  1.00  0.00    -0.391 OA
ATOM     33  H4  UNL     1      -3.942   1.585  -0.141  1.00  0.00     0.210 HD
ENDBRANCH   5  32
BRANCH   4  34
HETATM   34  N2  UNL     1      -3.376  -1.934   1.582  1.00  0.00    -0.066 N 
ATOM     35  H23 UNL     1      -3.539  -2.941   1.609  1.00  0.00     0.275 HD
ATOM     36  H22 UNL     1      -2.600  -1.925   2.245  1.00  0.00     0.275 HD
ATOM     37  H21 UNL     1      -4.178  -1.376   1.874  1.00  0.00     0.275 HD
ENDBRANCH   4  34
BRANCH   4  38
HETATM   38  C8  UNL     1      -4.215  -1.839  -0.624  1.00  0.00     0.205 C 
BRANCH  38  39
HETATM   39  O3  UNL     1      -5.400  -1.291  -0.141  1.00  0.00    -0.398 OA
ATOM     40  H3  UNL     1      -6.138  -1.554  -0.679  1.00  0.00     0.209 HD
ENDBRANCH  38  39
ENDBRANCH   4  38
TORSDOF 10
