REMARK  7 active torsions:
REMARK  status: ('A' for Active; 'I' for Inactive)
REMARK    1  A    between atoms: N1_1  and  C1_5 
REMARK    2  A    between atoms: C1_5  and  O1_6 
REMARK    3  A    between atoms: C1_5  and  C2_8 
REMARK    4  A    between atoms: C2_8  and  N2_9 
REMARK    5  A    between atoms: C2_8  and  C3_13 
REMARK       I    between atoms: C3_13  and  N3_15 
REMARK    6  A    between atoms: N3_15  and  C4_17 
REMARK    7  A    between atoms: C4_17  and  C5_18 
ROOT
HETATM    1  C5  UNL     1       0.478  -0.353   0.119  1.00  0.00     0.294 C 
HETATM    2  N4  UNL     1       0.823   0.361   1.330  1.00  0.00    -0.061 N 
ATOM      3  H41 UNL     1       1.453   1.139   1.136  1.00  0.00     0.278 HD
ATOM      4  H42 UNL     1       1.435  -0.195   1.927  1.00  0.00     0.278 HD
HETATM    5  C6  UNL     1      -0.357   0.804   2.049  1.00  0.00     0.235 C 
HETATM    6  C7  UNL     1      -0.642   2.262   1.902  1.00  0.00     0.055 C 
HETATM    7  C8  UNL     1      -1.749   2.596   0.953  1.00  0.00     0.233 C 
HETATM    8  N5  UNL     1      -3.034   2.085   1.309  1.00  0.00    -0.075 N 
ATOM      9  H51 UNL     1      -3.471   2.627   2.054  1.00  0.00     0.277 HD
ATOM     10  H52 UNL     1      -2.972   1.191   1.796  1.00  0.00     0.277 HD
HETATM   11  C9  UNL     1      -3.868   2.007   0.127  1.00  0.00     0.232 C 
HETATM   12  C10 UNL     1      -5.084   1.155   0.299  1.00  0.00     0.029 C 
HETATM   13  C11 UNL     1      -4.892  -0.293  -0.037  1.00  0.00     0.029 C 
HETATM   14  C12 UNL     1      -4.348  -0.535  -1.409  1.00  0.00     0.232 C 
HETATM   15  N6  UNL     1      -4.187  -1.966  -1.586  1.00  0.00    -0.074 N 
ATOM     16  H61 UNL     1      -4.742  -2.312  -2.369  1.00  0.00     0.277 HD
ATOM     17  H62 UNL     1      -4.635  -2.489  -0.834  1.00  0.00     0.277 HD
HETATM   18  C13 UNL     1      -2.769  -2.329  -1.727  1.00  0.00     0.251 C 
HETATM   19  C14 UNL     1      -2.121  -2.040  -0.416  1.00  0.00     0.150 C 
HETATM   20  N7  UNL     1      -0.767  -2.542  -0.295  1.00  0.00    -0.358 N 
ATOM     21  H7  UNL     1      -0.559  -3.468  -0.669  1.00  0.00     0.162 HD
HETATM   22  C15 UNL     1       0.287  -1.809   0.319  1.00  0.00     0.250 C 
HETATM   23  O3  UNL     1       1.100  -2.406   1.066  1.00  0.00    -0.271 OA
ENDROOT
BRANCH   1  24
HETATM   24  C4  UNL     1       1.545  -0.071  -0.911  1.00  0.00     0.165 C 
BRANCH  24  25
HETATM   25  N3  UNL     1       2.831  -0.512  -0.416  1.00  0.00    -0.357 N 
HETATM   26  C3  UNL     1       4.016  -0.365  -1.200  1.00  0.00     0.252 C 
HETATM   27  O2  UNL     1       3.914   0.160  -2.335  1.00  0.00    -0.271 OA
ATOM     28  H3  UNL     1       2.893  -0.936   0.510  1.00  0.00     0.162 HD
BRANCH  26  29
HETATM   29  C2  UNL     1       5.359  -0.796  -0.749  1.00  0.00     0.330 C 
BRANCH  29  30
HETATM   30  C1  UNL     1       6.319   0.369  -0.644  1.00  0.00     0.356 C 
BRANCH  30  31
HETATM   31  N1  UNL     1       6.598   0.961  -1.930  1.00  0.00    -0.051 N 
ATOM     32  H13 UNL     1       5.781   1.433  -2.318  1.00  0.00     0.277 HD
ATOM     33  H12 UNL     1       7.215   1.769  -1.852  1.00  0.00     0.277 HD
ATOM     34  H11 UNL     1       6.970   0.256  -2.567  1.00  0.00     0.277 HD
ENDBRANCH  30  31
BRANCH  30  35
HETATM   35  O1  UNL     1       5.805   1.342   0.235  1.00  0.00    -0.368 OA
ATOM     36  H1  UNL     1       5.621   0.952   1.082  1.00  0.00     0.212 HD
ENDBRANCH  30  35
ENDBRANCH  29  30
BRANCH  29  37
HETATM   37  N2  UNL     1       5.197  -1.367   0.580  1.00  0.00    -0.062 N 
ATOM     38  H23 UNL     1       6.085  -1.625   1.009  1.00  0.00     0.275 HD
ATOM     39  H22 UNL     1       4.906  -0.677   1.273  1.00  0.00     0.275 HD
ATOM     40  H21 UNL     1       4.550  -2.152   0.509  1.00  0.00     0.275 HD
ENDBRANCH  29  37
ENDBRANCH  26  29
ENDBRANCH  24  25
ENDBRANCH   1  24
TORSDOF 7
