REMARK  5 active torsions:
REMARK  status: ('A' for Active; 'I' for Inactive)
REMARK    1  A    between atoms: N1_1  and  C1_5 
REMARK    2  A    between atoms: C1_5  and  C2_6 
REMARK    3  A    between atoms: C2_6  and  C3_7 
REMARK    4  A    between atoms: C3_7  and  N2_8 
REMARK       I    between atoms: C4_10  and  N4_12 
REMARK    5  A    between atoms: N4_12  and  N5_14 
ROOT
HETATM    1  N5  UNL     1       1.234   1.373   0.033  1.00  0.00    -0.285 N 
ATOM      2  H5  UNL     1       1.140   2.265   0.518  1.00  0.00     0.188 HD
HETATM    3  C5  UNL     1       0.355   0.479   0.199  1.00  0.00     0.109 C 
HETATM    4  C6  UNL     1      -0.840   0.626   1.069  1.00  0.00     0.199 C 
HETATM    5  N6  UNL     1      -1.081   1.966   1.514  1.00  0.00    -0.358 N 
ATOM      6  H6  UNL     1      -0.261   2.497   1.808  1.00  0.00     0.162 HD
HETATM    7  C7  UNL     1      -2.323   2.640   1.594  1.00  0.00     0.184 C 
HETATM    8  N7  UNL     1      -2.727   3.137   2.898  1.00  0.00    -0.064 NA
HETATM    9  N8  UNL     1      -3.079   2.835   0.599  1.00  0.00    -0.363 N 
ATOM     10  H8  UNL     1      -3.938   3.335   0.830  1.00  0.00     0.162 HD
HETATM   11  C8  UNL     1      -2.970   2.498  -0.767  1.00  0.00     0.150 C 
HETATM   12  C9  UNL     1      -4.233   1.709  -1.147  1.00  0.00     0.251 C 
HETATM   13  N9  UNL     1      -4.619   0.959   0.012  1.00  0.00    -0.072 N 
ATOM     14  H91 UNL     1      -5.249   1.485   0.618  1.00  0.00     0.277 HD
ATOM     15  H92 UNL     1      -3.847   0.842   0.668  1.00  0.00     0.277 HD
HETATM   16  C10 UNL     1      -5.194  -0.326  -0.398  1.00  0.00     0.259 C 
HETATM   17  C11 UNL     1      -4.462  -1.446   0.303  1.00  0.00     0.259 C 
HETATM   18  N10 UNL     1      -3.685  -2.251  -0.634  1.00  0.00    -0.073 N 
ATOM     19 1H10 UNL     1      -3.498  -1.736  -1.495  1.00  0.00     0.277 HD
ATOM     20 2H10 UNL     1      -4.245  -3.012  -1.018  1.00  0.00     0.277 HD
HETATM   21  C12 UNL     1      -2.457  -2.750  -0.044  1.00  0.00     0.234 C 
HETATM   22  C13 UNL     1      -1.310  -2.353  -0.947  1.00  0.00     0.047 C 
HETATM   23  C14 UNL     1      -0.145  -1.989  -0.058  1.00  0.00     0.122 C 
HETATM   24  N11 UNL     1       0.491  -0.764  -0.481  1.00  0.00    -0.377 N 
ATOM     25  H11 UNL     1       1.073  -0.791  -1.318  1.00  0.00     0.160 HD
ENDROOT
BRANCH   1  26
HETATM   26  N4  UNL     1       2.330   1.159  -0.803  1.00  0.00    -0.272 N 
HETATM   27  C4  UNL     1       3.617   1.453  -0.291  1.00  0.00     0.203 C 
HETATM   28  N2  UNL     1       4.570   0.595  -0.378  1.00  0.00    -0.363 N 
HETATM   29  N3  UNL     1       3.825   2.712   0.319  1.00  0.00    -0.062 NA
ATOM     30  H2  UNL     1       5.480   0.848   0.006  1.00  0.00     0.162 HD
ATOM     31  H4  UNL     1       2.208   0.803  -1.751  1.00  0.00     0.189 HD
BRANCH  28  32
HETATM   32  C3  UNL     1       4.429  -0.696  -0.982  1.00  0.00     0.124 C 
BRANCH  32  33
HETATM   33  C2  UNL     1       5.648  -1.079  -1.795  1.00  0.00     0.047 C 
BRANCH  33  34
HETATM   34  C1  UNL     1       6.870  -1.104  -0.882  1.00  0.00     0.231 C 
BRANCH  34  35
HETATM   35  N1  UNL     1       6.613  -2.087   0.157  1.00  0.00    -0.079 N 
ATOM     36  H13 UNL     1       5.742  -1.917   0.660  1.00  0.00     0.274 HD
ATOM     37  H12 UNL     1       6.373  -3.006  -0.214  1.00  0.00     0.274 HD
ATOM     38  H11 UNL     1       7.430  -2.104   0.767  1.00  0.00     0.274 HD
ENDBRANCH  34  35
ENDBRANCH  33  34
ENDBRANCH  32  33
ENDBRANCH  28  32
ENDBRANCH   1  26
TORSDOF 5
