REMARK  19 active torsions:
REMARK  status: ('A' for Active; 'I' for Inactive)
REMARK    1  A    between atoms: C3_5  and  O3_6 
REMARK    2  A    between atoms: C4_8  and  O4_9 
REMARK    3  A    between atoms: C6_13  and  C7_14 
REMARK    4  A    between atoms: C7_14  and  O5_15 
REMARK    5  A    between atoms: C7_14  and  O6_17 
REMARK    6  A    between atoms: C11_24  and  O9_25 
REMARK    7  A    between atoms: O9_25  and  C12_26 
REMARK    8  A    between atoms: C13_28  and  C14_29 
REMARK    9  A    between atoms: C14_29  and  O11_30 
REMARK   10  A    between atoms: C15_32  and  O12_33 
REMARK   11  A    between atoms: O12_33  and  C16_34 
REMARK   12  A    between atoms: C16_34  and  C17_35 
REMARK   13  A    between atoms: C16_34  and  C18_38 
REMARK   14  A    between atoms: C17_35  and  O13_36 
REMARK   15  A    between atoms: C18_38  and  O14_39 
REMARK   16  A    between atoms: C19_41  and  O15_42 
REMARK   17  A    between atoms: C20_44  and  C21_45 
REMARK   18  A    between atoms: C21_45  and  N1_46 
REMARK   19  A    between atoms: N1_46  and  C22_48 
ROOT
HETATM    1  O1  UNL     1      -1.567   0.698   2.933  1.00  0.00    -0.259 OA
HETATM    2  C1  UNL     1      -1.789   0.263   1.831  1.00  0.00     0.299 C 
HETATM    3  O2  UNL     1      -2.752  -0.688   1.801  1.00  0.00    -0.271 OA
HETATM    4  C2  UNL     1      -2.979  -1.555   0.846  1.00  0.00     0.133 C 
HETATM    5  C3  UNL     1      -4.316  -1.963   1.035  1.00  0.00     0.136 C 
HETATM    6  C4  UNL     1      -4.807  -3.254   0.711  1.00  0.00     0.120 C 
HETATM    7  C5  UNL     1      -4.156  -4.248  -0.010  1.00  0.00     0.063 C 
HETATM    8  S1  UNL     1      -4.961  -5.869   0.063  1.00  0.00    -0.049 SA
HETATM    9  C6  UNL     1      -3.029  -4.180  -0.770  1.00  0.00     0.067 C 
HETATM   10  C8  UNL     1      -2.041  -3.199  -0.776  1.00  0.00     0.201 C 
HETATM   11  O7  UNL     1      -1.033  -3.489  -1.444  1.00  0.00    -0.287 OA
HETATM   12  C9  UNL     1      -2.089  -1.983  -0.118  1.00  0.00     0.104 C 
HETATM   13  C10 UNL     1      -1.002  -1.286  -0.642  1.00  0.00     0.223 C 
HETATM   14  O8  UNL     1      -0.409  -1.921  -1.533  1.00  0.00    -0.284 OA
HETATM   15  C11 UNL     1      -0.530  -0.018  -0.301  1.00  0.00     0.137 C 
HETATM   16  C20 UNL     1      -1.097   0.735   0.691  1.00  0.00     0.072 C 
ENDROOT
BRANCH  15  17
HETATM   17  O9  UNL     1       0.508   0.435  -0.979  1.00  0.00    -0.313 OA
BRANCH  17  18
HETATM   18  C12 UNL     1       1.894   0.339  -0.878  1.00  0.00     0.298 C 
HETATM   19  O10 UNL     1       2.436  -0.694  -1.617  1.00  0.00    -0.348 OA
HETATM   20  C13 UNL     1       3.181  -1.517  -0.758  1.00  0.00     0.180 C 
HETATM   21  C15 UNL     1       3.779  -0.552   0.232  1.00  0.00     0.186 C 
HETATM   22  C19 UNL     1       2.506   0.322   0.473  1.00  0.00     0.205 C 
BRANCH  20  23
HETATM   23  C14 UNL     1       4.325  -2.091  -1.596  1.00  0.00     0.198 C 
BRANCH  23  24
HETATM   24  O11 UNL     1       3.839  -2.764  -2.728  1.00  0.00    -0.398 OA
ATOM     25  H11 UNL     1       4.549  -3.120  -3.248  1.00  0.00     0.209 HD
ENDBRANCH  23  24
ENDBRANCH  20  23
BRANCH  21  26
HETATM   26  O12 UNL     1       4.770   0.112  -0.453  1.00  0.00    -0.371 OA
BRANCH  26  27
HETATM   27  C16 UNL     1       5.803   0.702   0.196  1.00  0.00     0.169 C 
BRANCH  27  28
HETATM   28  C17 UNL     1       6.584   1.536  -0.744  1.00  0.00     0.198 C 
BRANCH  28  29
HETATM   29  O13 UNL     1       7.132   0.630  -1.703  1.00  0.00    -0.398 OA
ATOM     30  H13 UNL     1       7.633   1.165  -2.307  1.00  0.00     0.209 HD
ENDBRANCH  28  29
ENDBRANCH  27  28
BRANCH  27  31
HETATM   31  C18 UNL     1       6.858  -0.482   0.522  1.00  0.00     0.198 C 
BRANCH  31  32
HETATM   32  O14 UNL     1       7.882   0.236   1.132  1.00  0.00    -0.398 OA
ATOM     33  H14 UNL     1       8.501  -0.459   1.323  1.00  0.00     0.209 HD
ENDBRANCH  31  32
ENDBRANCH  27  31
ENDBRANCH  26  27
ENDBRANCH  21  26
BRANCH  22  34
HETATM   34  O15 UNL     1       1.746  -0.463   1.342  1.00  0.00    -0.388 OA
ATOM     35  H15 UNL     1       2.138  -0.474   2.207  1.00  0.00     0.210 HD
ENDBRANCH  22  34
ENDBRANCH  17  18
ENDBRANCH  15  17
BRANCH  16  36
HETATM   36  C21 UNL     1      -0.968   2.202   0.714  1.00  0.00     0.167 C 
BRANCH  36  37
HETATM   37  N1  UNL     1      -1.708   2.775  -0.442  1.00  0.00    -0.384 N 
ATOM     38  H1  UNL     1      -1.511   2.517  -1.409  1.00  0.00     0.160 HD
BRANCH  37  39
HETATM   39  C22 UNL     1      -2.721   3.719  -0.080  1.00  0.00     0.046 A 
HETATM   40  C23 UNL     1      -4.077   3.500  -0.223  1.00  0.00     0.119 A 
HETATM   41  N2  UNL     1      -4.978   4.452   0.207  1.00  0.00    -0.342 N 
HETATM   42  C24 UNL     1      -4.641   5.601   0.764  1.00  0.00     0.178 A 
ATOM     43  H2  UNL     1      -5.972   4.255   0.087  1.00  0.00     0.167 HD
HETATM   44  C25 UNL     1      -3.284   5.862   0.923  1.00  0.00     0.124 A 
HETATM   45  O17 UNL     1      -5.357   6.700   1.262  1.00  0.00    -0.307 OA
HETATM   46  C26 UNL     1      -2.332   4.944   0.514  1.00  0.00     0.072 A 
HETATM   47  O16 UNL     1      -3.168   7.092   1.503  1.00  0.00    -0.321 OA
HETATM   48  C27 UNL     1      -4.459   7.672   1.733  1.00  0.00     0.353 A 
ENDBRANCH  37  39
ENDBRANCH  36  37
ENDBRANCH  16  36
BRANCH   5  49
HETATM   49  O3  UNL     1      -5.164  -1.047   1.554  1.00  0.00    -0.356 OA
ATOM     50  H3  UNL     1      -6.064  -1.322   1.681  1.00  0.00     0.218 HD
ENDBRANCH   5  49
BRANCH   9  51
HETATM   51  C7  UNL     1      -2.745  -5.249  -1.752  1.00  0.00     0.293 C 
BRANCH  51  52
HETATM   52  O5  UNL     1      -1.424  -5.692  -1.609  1.00  0.00    -0.367 OA
ATOM     53  H5  UNL     1      -1.242  -6.379  -2.240  1.00  0.00     0.213 HD
ENDBRANCH  51  52
BRANCH  51  54
HETATM   54  O6  UNL     1      -2.824  -4.724  -3.056  1.00  0.00    -0.367 OA
ATOM     55  H6  UNL     1      -2.642  -5.411  -3.687  1.00  0.00     0.213 HD
ENDBRANCH  51  54
ENDBRANCH   9  51
BRANCH   6  56
HETATM   56  O4  UNL     1      -6.049  -3.577   1.144  1.00  0.00    -0.357 OA
ATOM     57  H4  UNL     1      -6.378  -4.441   0.927  1.00  0.00     0.218 HD
ENDBRANCH   6  56
TORSDOF 19
