REMARK  11 active torsions:
REMARK  status: ('A' for Active; 'I' for Inactive)
REMARK    1  A    between atoms: N1_1  and  C1_4 
REMARK    2  A    between atoms: C2_7  and  N3_8 
REMARK    3  A    between atoms: C4_14  and  N5_15 
REMARK    4  A    between atoms: N5_15  and  C5_16 
REMARK    5  A    between atoms: N10_25  and  C6_26 
REMARK    6  A    between atoms: C6_26  and  C7_27 
REMARK    7  A    between atoms: N11_29  and  C9_30 
REMARK    8  A    between atoms: C9_30  and  O1_31 
REMARK    9  A    between atoms: O1_31  and  C10_32 
REMARK   10  A    between atoms: C10_32  and  C11_33 
REMARK   11  A    between atoms: C11_33  and  O2_34 
ROOT
HETATM    1  C1  UNL     1      -1.997  -2.183  -3.675  1.00  0.00     0.679 A 
HETATM    2  N2  UNL     1      -3.113  -1.567  -4.148  1.00  0.00    -0.175 N 
ATOM      3  H2  UNL     1      -3.444  -1.735  -5.098  1.00  0.00     0.186 HD
HETATM    4  C2  UNL     1      -3.761  -0.738  -3.332  1.00  0.00     0.145 A 
HETATM    5  C3  UNL     1      -3.316  -0.510  -2.043  1.00  0.00     0.125 A 
HETATM    6  N4  UNL     1      -3.754   0.246  -1.036  1.00  0.00    -0.310 N 
ATOM      7  H4  UNL     1      -4.583   0.839  -1.075  1.00  0.00     0.170 HD
HETATM    8  C4  UNL     1      -2.932   0.118   0.068  1.00  0.00     0.267 A 
HETATM    9  N10 UNL     1      -1.952  -0.772  -0.323  1.00  0.00    -0.285 N 
HETATM   10  C12 UNL     1      -2.181  -1.144  -1.577  1.00  0.00     0.158 A 
HETATM   11  N14 UNL     1      -1.541  -1.983  -2.435  1.00  0.00    -0.174 N 
ATOM     12  H14 UNL     1      -0.698  -2.468  -2.127  1.00  0.00     0.186 HD
ENDROOT
BRANCH   9  13
HETATM   13  C6  UNL     1      -0.907  -1.157   0.561  1.00  0.00     0.195 C 
BRANCH  13  14
HETATM   14  C7  UNL     1       0.288  -0.319   0.517  1.00  0.00     0.062 A 
HETATM   15  C8  UNL     1       1.411  -0.430  -0.254  1.00  0.00     0.142 A 
HETATM   16  N11 UNL     1       2.260   0.567   0.041  1.00  0.00    -0.264 N 
HETATM   17  N12 UNL     1       1.667   1.277   0.979  1.00  0.00    -0.239 N 
HETATM   18  N13 UNL     1       0.485   0.769   1.283  1.00  0.00    -0.287 N 
ATOM     19  H12 UNL     1       2.067   2.109   1.413  1.00  0.00     0.208 HD
ATOM     20  H13 UNL     1      -0.165   1.138   1.978  1.00  0.00     0.188 HD
BRANCH  16  21
HETATM   21  C9  UNL     1       3.559   0.869  -0.507  1.00  0.00     0.317 C 
BRANCH  21  22
HETATM   22  O1  UNL     1       4.568   0.248   0.179  1.00  0.00    -0.368 OA
BRANCH  22  23
HETATM   23  C10 UNL     1       4.667   0.571   1.508  1.00  0.00     0.196 C 
BRANCH  23  24
HETATM   24  C11 UNL     1       5.813  -0.153   2.197  1.00  0.00     0.190 C 
BRANCH  24  25
HETATM   25  O2  UNL     1       7.035   0.133   1.643  1.00  0.00    -0.399 OA
ATOM     26  H2  UNL     1       7.751  -0.319   2.073  1.00  0.00     0.209 HD
ENDBRANCH  24  25
ENDBRANCH  23  24
ENDBRANCH  22  23
ENDBRANCH  21  22
ENDBRANCH  16  21
ENDBRANCH  13  14
ENDBRANCH   9  13
BRANCH   8  27
HETATM   27  N5  UNL     1      -3.097   0.739   1.232  1.00  0.00    -0.333 NA
BRANCH  27  28
HETATM   28  C5  UNL     1      -3.223   1.307   2.252  1.00  0.00     0.294 A 
HETATM   29  N6  UNL     1      -4.063   1.054   3.337  1.00  0.00    -0.242 N 
HETATM   30  N7  UNL     1      -3.832   1.961   4.226  1.00  0.00    -0.225 N 
ATOM     31  H6  UNL     1      -4.736   0.292   3.414  1.00  0.00     0.192 HD
HETATM   32  N8  UNL     1      -2.902   2.805   3.829  1.00  0.00    -0.225 N 
ATOM     33  H7  UNL     1      -4.311   2.017   5.125  1.00  0.00     0.210 HD
HETATM   34  N9  UNL     1      -2.526   2.430   2.650  1.00  0.00    -0.242 N 
ATOM     35  H8  UNL     1      -2.545   3.604   4.353  1.00  0.00     0.210 HD
ATOM     36  H9  UNL     1      -1.813   2.899   2.091  1.00  0.00     0.192 HD
ENDBRANCH  27  28
ENDBRANCH   8  27
BRANCH   4  37
HETATM   37  N3  UNL     1      -4.812  -0.143  -3.742  1.00  0.00    -0.383 N 
ATOM     38  H32 UNL     1      -5.140  -0.311  -4.693  1.00  0.00     0.157 HD
ATOM     39  H31 UNL     1      -5.308   0.492  -3.117  1.00  0.00     0.157 HD
ENDBRANCH   4  37
BRANCH   1  40
HETATM   40  N1  UNL     1      -1.398  -2.976  -4.496  1.00  0.00    -0.234 N 
ATOM     41  H12 UNL     1      -1.746  -3.129  -5.443  1.00  0.00     0.174 HD
ATOM     42  H11 UNL     1      -0.561  -3.438  -4.141  1.00  0.00     0.174 HD
ENDBRANCH   1  40
TORSDOF 11
