REMARK  3 active torsions:
REMARK  status: ('A' for Active; 'I' for Inactive)
REMARK    1  A    between atoms: C1_2  and  C2_3 
REMARK    2  A    between atoms: C3_4  and  C4_5 
REMARK    3  A    between atoms: N1_6  and  N2_8 
ROOT
HETATM    1  C4  UNL     1       1.481   0.284  -0.561  1.00  0.00     0.107 C 
HETATM    2  N1  UNL     1       0.829   0.335   0.548  1.00  0.00    -0.314 N 
ATOM      3  H1  UNL     1       1.316   0.301   1.444  1.00  0.00     0.185 HD
ENDROOT
BRANCH   2   4
HETATM    4  N2  UNL     1      -0.562   0.438   0.491  1.00  0.00    -0.328 N 
HETATM    5  C5  UNL     1      -1.375  -0.663   0.960  1.00  0.00     0.142 C 
HETATM    6  C6  UNL     1      -2.498  -0.991   0.007  1.00  0.00     0.021 C 
HETATM    7  C7  UNL     1      -2.738   0.112  -0.997  1.00  0.00     0.003 C 
HETATM    8  C8  UNL     1      -2.601   1.439  -0.271  1.00  0.00     0.021 C 
HETATM    9  C9  UNL     1      -1.118   1.660  -0.042  1.00  0.00     0.142 C 
ENDBRANCH   2   4
BRANCH   1  10
HETATM   10  C3  UNL     1       2.924   0.177  -0.509  1.00  0.00     0.022 C 
HETATM   11  C2  UNL     1       3.568   0.131   0.642  1.00  0.00     0.042 C 
BRANCH  11  12
HETATM   12  C1  UNL     1       5.014   0.024   0.666  1.00  0.00     0.258 C 
HETATM   13  O1  UNL     1       5.666  -0.026  -0.428  1.00  0.00    -0.302 OA
ENDBRANCH  11  12
ENDBRANCH   1  10
TORSDOF 3
