REMARK  6 active torsions:
REMARK  status: ('A' for Active; 'I' for Inactive)
REMARK    1  A    between atoms: O1_1  and  C1_3 
REMARK    2  A    between atoms: C5_7  and  C6_8 
REMARK    3  A    between atoms: C9_11  and  C10_12 
REMARK    4  A    between atoms: C13_15  and  C14_16 
REMARK    5  A    between atoms: C14_16  and  N1_17 
REMARK    6  A    between atoms: N1_17  and  C15_19 
ROOT
HETATM    1  C10 UNL     1      -1.212   1.528   0.338  1.00  0.00    -0.009 A 
HETATM    2  C11 UNL     1      -0.754   0.329   0.805  1.00  0.00     0.014 A 
HETATM    3  C12 UNL     1       0.572   0.149   1.158  1.00  0.00     0.010 A 
HETATM    4  C13 UNL     1       1.416   1.231   1.020  1.00  0.00    -0.041 A 
HETATM    5  C23 UNL     1       0.978   2.453   0.551  1.00  0.00     0.010 A 
HETATM    6  C24 UNL     1      -0.348   2.592   0.210  1.00  0.00     0.014 A 
ENDROOT
BRANCH   4   7
HETATM    7  C14 UNL     1       2.858   1.042   1.403  1.00  0.00     0.159 C 
BRANCH   7   8
HETATM    8  N1  UNL     1       3.570   0.596   0.250  1.00  0.00    -0.372 N 
ATOM      9  H1  UNL     1       3.227   0.918  -0.655  1.00  0.00     0.161 HD
BRANCH   8  10
HETATM   10  C15 UNL     1       4.596  -0.168   0.240  1.00  0.00     0.101 A 
HETATM   11  C16 UNL     1       5.161  -0.675   1.402  1.00  0.00     0.049 A 
HETATM   12  C17 UNL     1       6.267  -1.491   1.278  1.00  0.00     0.019 A 
HETATM   13  C18 UNL     1       6.807  -1.802   0.032  1.00  0.00     0.006 A 
HETATM   14  C19 UNL     1       7.907  -2.612  -0.105  1.00  0.00     0.101 A 
HETATM   15  C22 UNL     1       6.204  -1.269  -1.092  1.00  0.00     0.046 A 
HETATM   16  N2  UNL     1       8.437  -2.919  -1.304  1.00  0.00    -0.374 N 
HETATM   17  C20 UNL     1       7.871  -2.415  -2.413  1.00  0.00     0.090 A 
ATOM     18  H2  UNL     1       9.255  -3.525  -1.369  1.00  0.00     0.164 HD
HETATM   19  C21 UNL     1       6.767  -1.600  -2.311  1.00  0.00     0.047 A 
HETATM   20  N3  UNL     1       5.138  -0.485  -0.950  1.00  0.00    -0.342 N 
ATOM     21  H3  UNL     1       4.707  -0.102  -1.792  1.00  0.00     0.167 HD
ENDBRANCH   8  10
ENDBRANCH   7   8
ENDBRANCH   4   7
BRANCH   1  22
HETATM   22  C9  UNL     1      -2.604   1.708  -0.030  1.00  0.00     0.043 A 
HETATM   23  C8  UNL     1      -3.239   2.831  -0.513  1.00  0.00     0.033 A 
HETATM   24  C7  UNL     1      -4.577   2.515  -0.719  1.00  0.00     0.033 A 
HETATM   25  C6  UNL     1      -4.733   1.216  -0.361  1.00  0.00     0.043 A 
HETATM   26  N4  UNL     1      -3.540   0.751   0.049  1.00  0.00    -0.355 N 
ATOM     27  H4  UNL     1      -3.370  -0.200   0.376  1.00  0.00     0.166 HD
BRANCH  25  28
HETATM   28  C5  UNL     1      -5.982   0.426  -0.403  1.00  0.00    -0.007 A 
HETATM   29  C4  UNL     1      -7.160   0.989  -0.839  1.00  0.00     0.014 A 
HETATM   30  C3  UNL     1      -8.342   0.271  -0.888  1.00  0.00     0.004 A 
HETATM   31  C2  UNL     1      -8.299  -1.049  -0.478  1.00  0.00     0.036 A 
HETATM   32  C1  UNL     1      -7.146  -1.662  -0.032  1.00  0.00     0.066 A 
HETATM   33  C25 UNL     1      -5.998  -0.888  -0.008  1.00  0.00     0.050 A 
BRANCH  32  34
HETATM   34  O1  UNL     1      -7.173  -2.990   0.364  1.00  0.00    -0.361 OA
ATOM     35  H1  UNL     1      -6.379  -3.412   0.671  1.00  0.00     0.217 HD
ENDBRANCH  32  34
ENDBRANCH  25  28
ENDBRANCH   1  22
TORSDOF 6
