REMARK  3 active torsions:
REMARK  status: ('A' for Active; 'I' for Inactive)
REMARK    1  A    between atoms: N1_1  and  C1_4 
REMARK    2  A    between atoms: C2_7  and  N3_8 
REMARK       I    between atoms: N3_8  and  C3_10 
REMARK       I    between atoms: C3_10  and  N4_12 
REMARK    3  A    between atoms: N4_12  and  N5_14 
ROOT
HETATM    1  C1  UNL     1      -2.877  -0.055  -0.397  1.00  0.00     0.694 A 
HETATM    2  N2  UNL     1      -1.617  -0.134  -0.891  1.00  0.00    -0.022 N 
ATOM      3  H2  UNL     1      -1.482  -0.291  -1.890  1.00  0.00     0.203 HD
HETATM    4  C2  UNL     1      -0.536  -0.009  -0.089  1.00  0.00     0.705 A 
HETATM    5  N6  UNL     1      -0.763   0.196   1.212  1.00  0.00    -0.140 N 
ATOM      6  H6  UNL     1       0.045   0.292   1.827  1.00  0.00     0.189 HD
HETATM    7  C4  UNL     1      -1.971   0.283   1.756  1.00  0.00     0.352 A 
HETATM    8  O2  UNL     1      -2.215   0.474   2.968  1.00  0.00    -0.246 OA
HETATM    9  N7  UNL     1      -3.045   0.153   0.922  1.00  0.00    -0.141 N 
ATOM     10  H7  UNL     1      -3.988   0.214   1.305  1.00  0.00     0.189 HD
ENDROOT
BRANCH   4  11
HETATM   11  N3  UNL     1       0.764  -0.099  -0.649  1.00  0.00    -0.139 N 
HETATM   12  C3  UNL     1       1.912   0.028   0.172  1.00  0.00     0.352 C 
HETATM   13  O1  UNL     1       1.811   0.223   1.409  1.00  0.00    -0.245 OA
HETATM   14  N4  UNL     1       3.221  -0.059  -0.373  1.00  0.00    -0.258 N 
ATOM     15  H4  UNL     1       3.334  -0.216  -1.374  1.00  0.00     0.191 HD
ATOM     16  H3  UNL     1       0.873  -0.256  -1.651  1.00  0.00     0.189 HD
BRANCH  14  17
HETATM   17  N5  UNL     1       4.352   0.065   0.427  1.00  0.00    -0.341 N 
ATOM     18  H52 UNL     1       4.221   0.222   1.426  1.00  0.00     0.177 HD
ATOM     19  H51 UNL     1       5.292   0.003   0.036  1.00  0.00     0.177 HD
ENDBRANCH  14  17
ENDBRANCH   4  11
BRANCH   1  20
HETATM   20  N1  UNL     1      -3.914  -0.178  -1.188  1.00  0.00    -0.234 N 
ATOM     21  H12 UNL     1      -3.787  -0.336  -2.188  1.00  0.00     0.174 HD
ATOM     22  H11 UNL     1      -4.862  -0.119  -0.816  1.00  0.00     0.174 HD
ENDBRANCH   1  20
TORSDOF 3
