REMARK  2 active torsions:
REMARK  status: ('A' for Active; 'I' for Inactive)
REMARK       I    between atoms: C1_4  and  N2_5 
REMARK       I    between atoms: C1_4  and  N4_10 
REMARK    1  A    between atoms: N2_5  and  N3_7 
REMARK    2  A    between atoms: N4_10  and  C2_12 
ROOT
HETATM    1  C2  UNL     1       0.432  -0.139  -0.158  1.00  0.00     0.113 A 
HETATM    2  C3  UNL     1       0.530  -1.460   0.239  1.00  0.00     0.142 A 
HETATM    3  N5  UNL     1       1.781  -1.663   0.715  1.00  0.00    -0.297 N 
ATOM      4  H5  UNL     1       2.138  -2.547   1.078  1.00  0.00     0.186 HD
HETATM    5  N6  UNL     1       2.468  -0.536   0.636  1.00  0.00    -0.184 N 
HETATM    6  C4  UNL     1       3.646   0.074   0.864  1.00  0.00     0.362 A 
HETATM    7  O1  UNL     1       4.698  -0.453   1.362  1.00  0.00    -0.243 OA
HETATM    8  N7  UNL     1       3.540   1.357   0.474  1.00  0.00    -0.248 N 
ATOM      9  H7  UNL     1       4.286   2.050   0.533  1.00  0.00     0.192 HD
HETATM   10  N8  UNL     1       2.335   1.584   0.007  1.00  0.00    -0.278 N 
ATOM     11  H8  UNL     1       1.975   2.467  -0.356  1.00  0.00     0.189 HD
HETATM   12  C5  UNL     1       1.666   0.414   0.104  1.00  0.00     0.175 A 
ENDROOT
BRANCH   1  13
HETATM   13  N4  UNL     1      -0.719   0.459  -0.710  1.00  0.00    -0.186 N 
HETATM   14  C1  UNL     1      -1.940  -0.260  -0.923  1.00  0.00     0.690 C 
HETATM   15  N1  UNL     1      -1.897  -1.336  -1.632  1.00  0.00    -0.233 N 
HETATM   16  N2  UNL     1      -3.171   0.191  -0.370  1.00  0.00    -0.139 N 
ATOM     17  H12 UNL     1      -2.766  -1.848  -1.784  1.00  0.00     0.174 HD
ATOM     18  H11 UNL     1      -1.015  -1.659  -2.028  1.00  0.00     0.174 HD
ATOM     19  H2  UNL     1      -3.665   0.972  -0.802  1.00  0.00     0.205 HD
ATOM     20  H4  UNL     1      -0.681   1.445  -0.969  1.00  0.00     0.184 HD
BRANCH  16  21
HETATM   21  N3  UNL     1      -3.703  -0.426   0.753  1.00  0.00    -0.331 N 
ATOM     22  H32 UNL     1      -3.196  -1.206   1.172  1.00  0.00     0.177 HD
ATOM     23  H31 UNL     1      -4.585  -0.103   1.149  1.00  0.00     0.177 HD
ENDBRANCH  16  21
ENDBRANCH   1  13
TORSDOF 2
