REMARK  3 active torsions:
REMARK  status: ('A' for Active; 'I' for Inactive)
REMARK    1  A    between atoms: N1_1  and  C1_5 
REMARK    2  A    between atoms: C1_5  and  C2_6 
REMARK    3  A    between atoms: C1_5  and  C3_13 
ROOT
HETATM    1  C1  UNL     1       0.904  -0.520  -0.650  1.00  0.00     0.283 C 
ENDROOT
BRANCH   1   2
HETATM    2  N1  UNL     1       1.298  -0.067  -1.970  1.00  0.00    -0.066 N 
ATOM      3  H13 UNL     1       1.647   0.891  -1.941  1.00  0.00     0.275 HD
ATOM      4  H12 UNL     1       2.146  -0.540  -2.283  1.00  0.00     0.275 HD
ATOM      5  H11 UNL     1       0.548  -0.165  -2.654  1.00  0.00     0.275 HD
ENDBRANCH   1   2
BRANCH   1   6
HETATM    6  C2  UNL     1       1.992  -0.378   0.343  1.00  0.00     0.146 A 
HETATM    7  N2  UNL     1       2.907   0.558   0.700  1.00  0.00    -0.272 N 
HETATM    8  N3  UNL     1       3.399  -0.206   1.634  1.00  0.00    -0.240 N 
ATOM      9  H2  UNL     1       3.125   1.497   0.366  1.00  0.00     0.190 HD
HETATM   10  N4  UNL     1       2.532  -1.144   1.326  1.00  0.00    -0.272 N 
ATOM     11  H3  UNL     1       4.148  -0.114   2.320  1.00  0.00     0.208 HD
ATOM     12  H4  UNL     1       2.340  -2.080   1.684  1.00  0.00     0.190 HD
ENDBRANCH   1   6
BRANCH   1  13
HETATM   13  C3  UNL     1      -0.248   0.323  -0.200  1.00  0.00     0.223 C 
HETATM   14  C4  UNL     1      -1.441   0.214  -1.136  1.00  0.00     0.037 C 
HETATM   15  C5  UNL     1      -2.522   0.865  -0.282  1.00  0.00     0.029 C 
HETATM   16  C6  UNL     1      -2.120   0.477   1.115  1.00  0.00     0.233 C 
HETATM   17  N5  UNL     1      -0.842  -0.171   1.040  1.00  0.00    -0.069 N 
ATOM     18  H52 UNL     1      -0.888  -1.188   1.102  1.00  0.00     0.277 HD
ATOM     19  H51 UNL     1      -0.257  -0.032   1.864  1.00  0.00     0.277 HD
ENDBRANCH   1  13
TORSDOF 3
