REMARK  3 active torsions:
REMARK  status: ('A' for Active; 'I' for Inactive)
REMARK    1  A    between atoms: C3_5  and  N2_6 
REMARK    2  A    between atoms: N2_6  and  S1_8 
REMARK    3  A    between atoms: S1_8  and  C4_11 
ROOT
HETATM    1  S1  UNL     1      -0.017  -0.747   0.184  1.00  0.00     0.292 S 
HETATM    2  O1  UNL     1       0.129  -1.120   1.630  1.00  0.00    -0.198 OA
HETATM    3  O2  UNL     1       0.230  -1.909  -0.727  1.00  0.00    -0.198 OA
ENDROOT
BRANCH   1   4
HETATM    4  N2  UNL     1       1.080   0.506  -0.270  1.00  0.00    -0.110 N 
ATOM      5  H2  UNL     1       0.734   1.362  -0.703  1.00  0.00     0.197 HD
BRANCH   4   6
HETATM    6  C3  UNL     1       2.343   0.348  -0.055  1.00  0.00     0.708 A 
HETATM    7  N1  UNL     1       3.340   1.221  -0.346  1.00  0.00    -0.178 N 
HETATM    8  C2  UNL     1       4.521   0.706   0.024  1.00  0.00     0.108 A 
ATOM      9  H1  UNL     1       3.210   2.134  -0.782  1.00  0.00     0.185 HD
HETATM   10  C1  UNL     1       5.869   1.320  -0.107  1.00  0.00     0.091 C 
HETATM   11  N5  UNL     1       4.233  -0.499   0.547  1.00  0.00    -0.275 N 
HETATM   12  N4  UNL     1       2.935  -0.724   0.505  1.00  0.00    -0.130 N 
ATOM     13  H5  UNL     1       4.923  -1.149   0.924  1.00  0.00     0.189 HD
ATOM     14  H4  UNL     1       2.462  -1.564   0.838  1.00  0.00     0.205 HD
ENDBRANCH   4   6
ENDBRANCH   1   4
BRANCH   1  15
HETATM   15  C4  UNL     1      -1.671  -0.237  -0.052  1.00  0.00     0.157 A 
HETATM   16  N3  UNL     1      -2.134   0.947  -0.518  1.00  0.00    -0.348 N 
HETATM   17  C5  UNL     1      -3.477   0.949  -0.551  1.00  0.00     0.024 A 
ATOM     18  H3  UNL     1      -1.545   1.729  -0.804  1.00  0.00     0.166 HD
HETATM   19  C6  UNL     1      -4.419   2.013  -0.982  1.00  0.00     0.069 C 
HETATM   20  C7  UNL     1      -3.875  -0.299  -0.082  1.00  0.00     0.042 A 
HETATM   21 BR1  UNL     1      -5.668  -0.943   0.121  1.00  0.00    -0.048 Br
HETATM   22  C8  UNL     1      -2.755  -1.041   0.230  1.00  0.00    -0.003 A 
HETATM   23  C9  UNL     1      -2.763  -2.442   0.767  1.00  0.00     0.053 C 
ENDBRANCH   1  15
TORSDOF 3
