REMARK  4 active torsions:
REMARK  status: ('A' for Active; 'I' for Inactive)
REMARK    1  A    between atoms: C2_2  and  C4_4 
REMARK    2  A    between atoms: C7_7  and  O1_8 
REMARK    3  A    between atoms: C11_14  and  C12_15 
REMARK    4  A    between atoms: C12_15  and  O3_16 
ROOT
HETATM    1  C4  UNL     1      -1.318   0.060   0.202  1.00  0.00    -0.002 C 
HETATM    2  C5  UNL     1      -2.031   1.406   0.082  1.00  0.00     0.008 C 
HETATM    3  C6  UNL     1      -1.296   2.556   0.663  1.00  0.00     0.033 C 
HETATM    4  C7  UNL     1       0.153   2.223   0.771  1.00  0.00     0.130 C 
HETATM    5  C8  UNL     1       0.534   1.469  -0.474  1.00  0.00     0.093 C 
HETATM    6  C9  UNL     1       1.989   1.560  -0.603  1.00  0.00     0.135 C 
HETATM    7  O2  UNL     1       2.484   2.591  -1.034  1.00  0.00    -0.297 OA
HETATM    8  C10 UNL     1       2.924   0.479  -0.244  1.00  0.00     0.090 C 
HETATM    9  C11 UNL     1       2.292  -0.832  -0.029  1.00  0.00    -0.008 A 
HETATM   10  C13 UNL     1       1.472  -1.137   1.175  1.00  0.00     0.018 A 
HETATM   11  C14 UNL     1       0.866  -1.017  -0.212  1.00  0.00     0.007 A 
HETATM   12  C15 UNL     1      -0.020   0.079  -0.564  1.00  0.00    -0.023 C 
HETATM   13  C16 UNL     1      -0.403  -0.106  -2.050  1.00  0.00     0.017 C 
ENDROOT
BRANCH   1  14
HETATM   14  C2  UNL     1      -2.336  -0.942  -0.309  1.00  0.00    -0.018 C 
HETATM   15  C1  UNL     1      -3.611  -0.850   0.559  1.00  0.00     0.010 C 
HETATM   16  C3  UNL     1      -1.907  -2.384  -0.169  1.00  0.00     0.010 C 
ENDBRANCH   1  14
BRANCH   4  17
HETATM   17  O1  UNL     1       0.861   3.442   0.743  1.00  0.00    -0.395 OA
ATOM     18  H1  UNL     1       1.784   3.230   0.812  1.00  0.00     0.210 HD
ENDBRANCH   4  17
BRANCH   9  19
HETATM   19  C12 UNL     1       3.233  -1.997  -0.394  1.00  0.00     0.174 C 
BRANCH  19  20
HETATM   20  O3  UNL     1       4.370  -1.947   0.379  1.00  0.00    -0.400 OA
ATOM     21  H3  UNL     1       4.950  -2.665   0.154  1.00  0.00     0.209 HD
ENDBRANCH  19  20
ENDBRANCH   9  19
TORSDOF 4
