REMARK  4 active torsions:
REMARK  status: ('A' for Active; 'I' for Inactive)
REMARK    1  A    between atoms: C5_5  and  C6_6 
REMARK    2  A    between atoms: C6_6  and  N1_7 
REMARK    3  A    between atoms: N1_7  and  O1_8 
REMARK       I    between atoms: N1_7  and  C7_10 
REMARK       I    between atoms: C7_10  and  N2_12 
REMARK    4  A    between atoms: N2_12  and  C8_14 
ROOT
HETATM    1  C8  UNL     1       4.307  -0.034  -0.683  1.00  0.00     0.123 A 
HETATM    2  C9  UNL     1       4.970   1.287  -0.695  1.00  0.00     0.091 C 
HETATM    3  N3  UNL     1       5.494   2.321  -0.686  1.00  0.00    -0.195 NA
HETATM    4  C10 UNL     1       5.205  -1.219  -0.667  1.00  0.00     0.050 A 
HETATM    5  C11 UNL     1       4.517  -0.835   0.585  1.00  0.00     0.050 A 
ENDROOT
BRANCH   1   6
HETATM    6  N2  UNL     1       3.041  -0.157  -1.374  1.00  0.00    -0.319 N 
HETATM    7  C7  UNL     1       1.899   0.633  -1.003  1.00  0.00     0.343 C 
HETATM    8  N1  UNL     1       0.668   0.534  -1.653  1.00  0.00    -0.210 N 
HETATM    9  O2  UNL     1       2.058   1.431  -0.054  1.00  0.00    -0.245 OA
ATOM     10  H2  UNL     1       2.957  -0.821  -2.144  1.00  0.00     0.166 HD
BRANCH   8  11
HETATM   11  C6  UNL     1      -0.482   1.273  -1.274  1.00  0.00     0.166 C 
BRANCH  11  12
HETATM   12  C5  UNL     1      -1.437   0.669  -0.327  1.00  0.00     0.010 C 
HETATM   13  C4  UNL     1      -2.573   1.678  -0.116  1.00  0.00     0.007 C 
HETATM   14  C3  UNL     1      -3.764   0.881   0.298  1.00  0.00     0.005 C 
HETATM   15  C2  UNL     1      -3.435   0.014   1.463  1.00  0.00    -0.018 C 
HETATM   16  C1  UNL     1      -3.831  -1.408   1.101  1.00  0.00     0.010 C 
HETATM   17  C14 UNL     1      -2.062   0.108   2.015  1.00  0.00     0.009 C 
HETATM   18  C12 UNL     1      -0.952   0.141   0.971  1.00  0.00    -0.013 C 
HETATM   19  C13 UNL     1      -0.301  -1.217   0.838  1.00  0.00     0.010 C 
ENDBRANCH  11  12
ENDBRANCH   8  11
BRANCH   8  20
HETATM   20  O1  UNL     1       0.577  -0.326  -2.712  1.00  0.00    -0.283 OA
ATOM     21  H1  UNL     1       1.347  -0.821  -2.966  1.00  0.00     0.245 HD
ENDBRANCH   8  20
ENDBRANCH   1   6
TORSDOF 4
