REMARK  11 active torsions:
REMARK  status: ('A' for Active; 'I' for Inactive)
REMARK    1  A    between atoms: N1_1  and  N2_4 
REMARK    2  A    between atoms: N2_4  and  N3_6 
REMARK    3  A    between atoms: N3_6  and  C1_8 
REMARK    4  A    between atoms: C1_8  and  C2_9 
REMARK    5  A    between atoms: C4_12  and  O1_13 
REMARK    6  A    between atoms: O1_13  and  C5_14 
REMARK    7  A    between atoms: C5_14  and  C6_15 
REMARK    8  A    between atoms: C12_21  and  O2_22 
REMARK    9  A    between atoms: O2_22  and  C13_23 
REMARK   10  A    between atoms: C13_23  and  C14_24 
REMARK   11  A    between atoms: C20_31  and  O3_32 
ROOT
HETATM    1  C1  UNL     1      -1.387   3.246   0.973  1.00  0.00     0.081 C 
HETATM    2  C3  UNL     1      -1.795   1.851   0.552  1.00  0.00     0.070 C 
HETATM    3  C4  UNL     1      -0.668   1.128  -0.167  1.00  0.00     0.155 C 
HETATM    4  C12 UNL     1       0.520   1.124   0.745  1.00  0.00     0.181 C 
HETATM    5  C20 UNL     1       1.023   2.537   0.978  1.00  0.00     0.170 C 
HETATM    6  C21 UNL     1      -0.084   3.254   1.725  1.00  0.00     0.144 C 
HETATM    7 CL2  UNL     1      -0.301   2.415   3.273  1.00  0.00    -0.119 Cl
ENDROOT
BRANCH   1   8
HETATM    8  N3  UNL     1      -1.384   4.168  -0.139  1.00  0.00    -0.310 N 
ATOM      9  H3  UNL     1      -0.531   4.685  -0.350  1.00  0.00     0.182 HD
BRANCH   8  10
HETATM   10  N2  UNL     1      -2.508   4.372  -0.930  1.00  0.00    -0.253 N 
ATOM     11  H2  UNL     1      -3.031   3.563  -1.265  1.00  0.00     0.207 HD
BRANCH  10  12
HETATM   12  N1  UNL     1      -2.909   5.554  -1.253  1.00  0.00    -0.331 N 
ATOM     13  H12 UNL     1      -2.374   6.352  -0.910  1.00  0.00     0.178 HD
ATOM     14  H11 UNL     1      -3.734   5.704  -1.834  1.00  0.00     0.178 HD
ENDBRANCH  10  12
ENDBRANCH   8  10
ENDBRANCH   1   8
BRANCH   1  15
HETATM   15  C2  UNL     1      -2.457   3.729   1.946  1.00  0.00     0.148 C 
HETATM   16 CL1  UNL     1      -4.065   3.763   1.194  1.00  0.00    -0.128 Cl
ENDBRANCH   1  15
BRANCH   3  17
HETATM   17  O1  UNL     1      -1.061  -0.193  -0.352  1.00  0.00    -0.379 OA
BRANCH  17  18
HETATM   18  C5  UNL     1      -1.081  -0.565  -1.690  1.00  0.00     0.207 C 
BRANCH  18  19
HETATM   19  C6  UNL     1      -1.514  -1.986  -1.741  1.00  0.00    -0.035 A 
HETATM   20  C7  UNL     1      -1.621  -2.615  -2.965  1.00  0.00     0.009 A 
HETATM   21  C8  UNL     1      -2.029  -3.951  -3.009  1.00  0.00     0.001 A 
HETATM   22  C9  UNL     1      -2.330  -4.668  -1.878  1.00  0.00     0.000 A 
HETATM   23  C10 UNL     1      -2.221  -4.030  -0.646  1.00  0.00     0.001 A 
HETATM   24  C11 UNL     1      -1.819  -2.717  -0.616  1.00  0.00     0.009 A 
ENDBRANCH  18  19
ENDBRANCH  17  18
ENDBRANCH   3  17
BRANCH   5  25
HETATM   25  O3  UNL     1       1.415   3.171  -0.166  1.00  0.00    -0.391 OA
ATOM     26  H3  UNL     1       1.730   4.055  -0.020  1.00  0.00     0.210 HD
ENDBRANCH   5  25
BRANCH   4  27
HETATM   27  O2  UNL     1       1.501   0.239   0.423  1.00  0.00    -0.376 OA
BRANCH  27  28
HETATM   28  C13 UNL     1       1.729  -0.758   1.351  1.00  0.00     0.210 C 
BRANCH  28  29
HETATM   29  C14 UNL     1       2.818  -1.659   0.890  1.00  0.00     0.004 A 
HETATM   30  C15 UNL     1       3.440  -1.425  -0.324  1.00  0.00     0.012 A 
HETATM   31  C16 UNL     1       4.457  -2.227  -0.805  1.00  0.00     0.001 A 
HETATM   32  C17 UNL     1       4.888  -3.311  -0.066  1.00  0.00     0.003 A 
HETATM   33  C18 UNL     1       4.265  -3.540   1.144  1.00  0.00     0.043 A 
HETATM   34  C19 UNL     1       3.249  -2.739   1.623  1.00  0.00     0.124 A 
HETATM   35  F1  UNL     1       2.639  -2.966   2.811  1.00  0.00    -0.205 F 
ENDBRANCH  28  29
ENDBRANCH  27  28
ENDBRANCH   4  27
TORSDOF 11
