REMARK  3 active torsions:
REMARK  status: ('A' for Active; 'I' for Inactive)
REMARK    1  A    between atoms: C2_2  and  O1_4 
REMARK    2  A    between atoms: O1_4  and  C4_5 
REMARK    3  A    between atoms: C5_10  and  N3_11 
ROOT
HETATM    1  C4  UNL     1       0.854   0.050   0.250  1.00  0.00     0.253 A 
HETATM    2  N1  UNL     1       1.229  -0.004  -1.037  1.00  0.00    -0.250 N 
ATOM      3  H1  UNL     1       0.590  -0.061  -1.830  1.00  0.00     0.191 HD
HETATM    4  N2  UNL     1       2.553   0.027  -1.128  1.00  0.00    -0.129 N 
ATOM      5  H2  UNL     1       3.098  -0.001  -1.989  1.00  0.00     0.205 HD
HETATM    6  C5  UNL     1       3.042   0.102   0.114  1.00  0.00     0.693 A 
HETATM    7  N4  UNL     1       1.995   0.116   0.958  1.00  0.00    -0.153 N 
ATOM      8  H4  UNL     1       2.057   0.168   1.975  1.00  0.00     0.188 HD
ENDROOT
BRANCH   1   9
HETATM    9  O1  UNL     1      -0.400   0.045   0.825  1.00  0.00    -0.316 OA
BRANCH   9  10
HETATM   10  C2  UNL     1      -1.566  -0.027   0.028  1.00  0.00     0.123 C 
HETATM   11  C1  UNL     1      -2.484   1.138   0.216  1.00  0.00     0.040 C 
HETATM   12  C3  UNL     1      -2.300  -1.312   0.407  1.00  0.00     0.040 C 
ENDBRANCH   9  10
ENDBRANCH   1   9
BRANCH   6  13
HETATM   13  N3  UNL     1       4.284   0.154   0.475  1.00  0.00    -0.233 N 
ATOM     14  H32 UNL     1       5.078   0.143  -0.165  1.00  0.00     0.174 HD
ATOM     15  H31 UNL     1       4.657   0.211   1.423  1.00  0.00     0.174 HD
ENDBRANCH   6  13
TORSDOF 3
