REMARK  6 active torsions:
REMARK  status: ('A' for Active; 'I' for Inactive)
REMARK    1  A    between atoms: C2_3  and  C3_4 
REMARK    2  A    between atoms: C3_4  and  N2_5 
REMARK    3  A    between atoms: N2_5  and  C4_8 
REMARK    4  A    between atoms: C4_8  and  C5_9 
REMARK    5  A    between atoms: C5_9  and  C6_10 
REMARK    6  A    between atoms: C8_14  and  C9_15 
ROOT
HETATM    1  N1  UNL     1       5.608   1.519   1.499  1.00  0.00    -0.197 NA
HETATM    2  C1  UNL     1       4.668   1.373   0.848  1.00  0.00     0.060 C 
HETATM    3  C2  UNL     1       3.452   1.202   0.025  1.00  0.00     0.151 C 
ENDROOT
BRANCH   3   4
HETATM    4  C3  UNL     1       2.845  -0.121   0.435  1.00  0.00     0.246 C 
BRANCH   4   5
HETATM    5  N2  UNL     1       1.632  -0.333  -0.358  1.00  0.00    -0.074 N 
ATOM      6  H22 UNL     1       0.980   0.447  -0.277  1.00  0.00     0.277 HD
ATOM      7  H21 UNL     1       1.814  -0.271  -1.360  1.00  0.00     0.277 HD
BRANCH   5   8
HETATM    8  C4  UNL     1       1.014  -1.602   0.008  1.00  0.00     0.237 C 
BRANCH   8   9
HETATM    9  C5  UNL     1      -0.226  -1.814  -0.808  1.00  0.00     0.067 C 
BRANCH   9  10
HETATM   10  C6  UNL     1      -1.237  -0.767  -0.620  1.00  0.00    -0.039 A 
HETATM   11  C7  UNL     1      -1.364   0.398  -1.337  1.00  0.00     0.095 A 
HETATM   12  N3  UNL     1      -2.418   1.063  -0.835  1.00  0.00    -0.364 N 
HETATM   13  C8  UNL     1      -2.986   0.395   0.170  1.00  0.00     0.047 A 
ATOM     14  H3  UNL     1      -2.743   1.966  -1.180  1.00  0.00     0.165 HD
HETATM   15  C10 UNL     1      -2.251  -0.761   0.317  1.00  0.00     0.039 A 
BRANCH  13  16
HETATM   16  C9  UNL     1      -4.163   0.814   0.961  1.00  0.00     0.110 C 
HETATM   17  N4  UNL     1      -4.754   1.919   0.719  1.00  0.00    -0.406 N 
ATOM     18  H42 UNL     1      -4.397   2.509  -0.033  1.00  0.00     0.155 HD
ATOM     19  H41 UNL     1      -5.566   2.208   1.265  1.00  0.00     0.155 HD
ENDBRANCH  13  16
ENDBRANCH   9  10
ENDBRANCH   8   9
ENDBRANCH   5   8
ENDBRANCH   4   5
ENDBRANCH   3   4
TORSDOF 6
