REMARK  6 active torsions:
REMARK  status: ('A' for Active; 'I' for Inactive)
REMARK    1  A    between atoms: C3_6  and  C4_7 
REMARK    2  A    between atoms: C4_7  and  N2_8 
REMARK    3  A    between atoms: N2_8  and  C5_11 
REMARK    4  A    between atoms: C5_11  and  C6_12 
REMARK    5  A    between atoms: C6_12  and  N3_13 
REMARK    6  A    between atoms: N3_13  and  C7_15 
ROOT
HETATM    1  N2  UNL     1      -0.103   0.802  -0.997  1.00  0.00    -0.072 N 
ATOM      2  H21 UNL     1      -0.202   1.437  -0.205  1.00  0.00     0.277 HD
ATOM      3  H22 UNL     1       0.475   1.379  -1.608  1.00  0.00     0.277 HD
ENDROOT
BRANCH   1   4
HETATM    4  C4  UNL     1      -1.387   0.546  -1.606  1.00  0.00     0.265 C 
BRANCH   4   5
HETATM    5  C3  UNL     1      -2.331   0.013  -0.580  1.00  0.00     0.211 C 
HETATM    6  N1  UNL     1      -3.645  -0.272  -1.175  1.00  0.00    -0.069 N 
HETATM    7  C2  UNL     1      -4.421  -0.578   0.018  1.00  0.00     0.233 C 
ATOM      8  H12 UNL     1      -3.653  -0.988  -1.901  1.00  0.00     0.277 HD
ATOM      9  H11 UNL     1      -4.026   0.462  -1.772  1.00  0.00     0.277 HD
HETATM   10  C1  UNL     1      -3.943   0.429   1.066  1.00  0.00     0.029 C 
HETATM   11  C10 UNL     1      -2.740   1.089   0.437  1.00  0.00     0.036 C 
ENDBRANCH   4   5
ENDBRANCH   1   4
BRANCH   1  12
HETATM   12  C5  UNL     1       0.604  -0.386  -0.607  1.00  0.00     0.251 C 
BRANCH  12  13
HETATM   13  C6  UNL     1       1.965   0.057  -0.055  1.00  0.00     0.141 C 
BRANCH  13  14
HETATM   14  N3  UNL     1       2.672  -1.122   0.347  1.00  0.00    -0.415 N 
ATOM     15  H3  UNL     1       2.245  -2.048   0.328  1.00  0.00     0.153 HD
BRANCH  14  16
HETATM   16  C7  UNL     1       4.015  -0.910   0.776  1.00  0.00     0.076 A 
HETATM   17  C8  UNL     1       5.062  -0.393  -0.147  1.00  0.00     0.027 A 
HETATM   18  C9  UNL     1       4.570   0.470   0.990  1.00  0.00     0.027 A 
ENDBRANCH  14  16
ENDBRANCH  13  14
ENDBRANCH  12  13
ENDBRANCH   1  12
TORSDOF 6
