REMARK  7 active torsions:
REMARK  status: ('A' for Active; 'I' for Inactive)
REMARK    1  A    between atoms: C9_9  and  O1_10 
REMARK    2  A    between atoms: O1_10  and  C10_11 
REMARK    3  A    between atoms: C13_15  and  C14_16 
REMARK    4  A    between atoms: C14_16  and  C17_19 
REMARK    5  A    between atoms: C18_22  and  O5_23 
REMARK    6  A    between atoms: C23_30  and  O7_31 
REMARK    7  A    between atoms: O7_31  and  C24_32 
ROOT
HETATM    1  C1  UNL     1       5.031  -0.950   1.558  1.00  0.00     0.017 C 
HETATM    2  C2  UNL     1       3.871  -0.719   0.950  1.00  0.00    -0.055 C 
HETATM    3  C3  UNL     1       2.603  -1.258   1.505  1.00  0.00     0.046 C 
HETATM    4  C4  UNL     1       1.548  -1.482   0.451  1.00  0.00    -0.026 C 
HETATM    5  C5  UNL     1       2.071  -2.501  -0.526  1.00  0.00     0.016 C 
HETATM    6  C6  UNL     1       0.382  -2.104   1.161  1.00  0.00     0.011 C 
HETATM    7  C7  UNL     1      -0.873  -2.164   0.332  1.00  0.00     0.011 C 
HETATM    8  C8  UNL     1      -1.753  -1.050   0.743  1.00  0.00     0.058 C 
HETATM    9  C9  UNL     1      -3.189  -1.144   0.369  1.00  0.00     0.139 C 
HETATM   10  C12 UNL     1      -3.665   0.304   0.274  1.00  0.00     0.042 C 
HETATM   11  C13 UNL     1      -2.432   1.091  -0.226  1.00  0.00     0.049 C 
HETATM   12  C18 UNL     1      -1.351   0.183  -0.132  1.00  0.00     0.129 C 
HETATM   13  C19 UNL     1      -0.003   0.443   0.322  1.00  0.00     0.171 C 
HETATM   14  O6  UNL     1       0.194   1.211   1.209  1.00  0.00    -0.294 OA
HETATM   15  C20 UNL     1       1.257  -0.161  -0.196  1.00  0.00     0.098 C 
HETATM   16  C21 UNL     1       2.410   0.759  -0.249  1.00  0.00    -0.044 C 
HETATM   17  C22 UNL     1       2.355   2.072  -0.282  1.00  0.00     0.018 C 
HETATM   18  C23 UNL     1       3.771   0.075  -0.296  1.00  0.00     0.189 C 
ENDROOT
BRANCH  11  19
HETATM   19  C14 UNL     1      -2.557   2.436   0.370  1.00  0.00     0.048 C 
HETATM   20  C15 UNL     1      -1.494   3.438   0.026  1.00  0.00     0.027 C 
HETATM   21  C16 UNL     1      -2.792   2.399   1.882  1.00  0.00     0.027 C 
BRANCH  19  22
HETATM   22  C17 UNL     1      -3.827   2.994  -0.180  1.00  0.00     0.181 C 
HETATM   23  O3  UNL     1      -3.766   3.943  -1.022  1.00  0.00    -0.647 OA
HETATM   24  O4  UNL     1      -5.096   2.549   0.161  1.00  0.00    -0.647 OA
ENDBRANCH  19  22
ENDBRANCH  11  19
BRANCH  12  25
HETATM   25  O5  UNL     1      -1.280  -0.473  -1.424  1.00  0.00    -0.381 OA
ATOM     26  H5  UNL     1      -1.036   0.276  -1.955  1.00  0.00     0.211 HD
ENDBRANCH  12  25
BRANCH   9  27
HETATM   27  O1  UNL     1      -3.389  -1.847  -0.842  1.00  0.00    -0.316 OA
BRANCH  27  28
HETATM   28  C10 UNL     1      -4.174  -2.964  -0.976  1.00  0.00     0.255 C 
HETATM   29  C11 UNL     1      -4.371  -3.689  -2.263  1.00  0.00     0.126 C 
HETATM   30  O2  UNL     1      -4.761  -3.397   0.047  1.00  0.00    -0.266 OA
ENDBRANCH  27  28
ENDBRANCH   9  27
BRANCH  18  31
HETATM   31  O7  UNL     1       4.790   1.056  -0.381  1.00  0.00    -0.307 OA
BRANCH  31  32
HETATM   32  C24 UNL     1       5.569   1.069  -1.529  1.00  0.00     0.255 C 
HETATM   33  C25 UNL     1       6.669   2.055  -1.725  1.00  0.00     0.126 C 
HETATM   34  O8  UNL     1       5.369   0.238  -2.452  1.00  0.00    -0.266 OA
ENDBRANCH  31  32
ENDBRANCH  18  31
TORSDOF 7
