REMARK  9 active torsions:
REMARK  status: ('A' for Active; 'I' for Inactive)
REMARK    1  A    between atoms: C2_2  and  C4_4 
REMARK       I    between atoms: C4_4  and  N1_6 
REMARK    2  A    between atoms: N1_6  and  C5_8 
REMARK    3  A    between atoms: C5_8  and  C6_9 
REMARK    4  A    between atoms: C6_9  and  C7_10 
REMARK    5  A    between atoms: C7_10  and  N2_11 
REMARK       I    between atoms: N2_11  and  C8_13 
REMARK       I    between atoms: C8_13  and  N3_15 
REMARK    6  A    between atoms: N3_15  and  C9_17 
REMARK       I    between atoms: N4_20  and  C12_21 
REMARK       I    between atoms: C12_21  and  N5_23 
REMARK    7  A    between atoms: N5_23  and  C13_25 
REMARK    8  A    between atoms: C13_25  and  C14_26 
REMARK    9  A    between atoms: C14_26  and  N6_27 
ROOT
HETATM    1  C9  UNL     1       1.653  -1.459   1.029  1.00  0.00     0.105 C 
HETATM    2  C10 UNL     1       1.134  -1.603  -0.384  1.00  0.00     0.047 C 
HETATM    3  C11 UNL     1      -0.360  -1.655  -0.123  1.00  0.00     0.129 C 
HETATM    4  N4  UNL     1      -0.542  -0.599   0.825  1.00  0.00    -0.332 N 
HETATM    5  C12 UNL     1      -1.666   0.260   0.902  1.00  0.00     0.318 C 
HETATM    6  O3  UNL     1      -1.744   1.173   1.779  1.00  0.00    -0.247 OA
HETATM    7  N5  UNL     1      -2.735   0.110  -0.012  1.00  0.00    -0.341 N 
ATOM      8  H5  UNL     1      -2.704  -0.613  -0.731  1.00  0.00     0.164 HD
HETATM    9  C23 UNL     1       0.611  -0.566   1.685  1.00  0.00     0.152 C 
ENDROOT
BRANCH   1  10
HETATM   10  N3  UNL     1       2.920  -0.785   1.083  1.00  0.00    -0.337 N 
HETATM   11  C8  UNL     1       4.065  -1.325   1.716  1.00  0.00     0.316 C 
HETATM   12  N2  UNL     1       5.272  -0.588   1.714  1.00  0.00    -0.343 N 
HETATM   13  O2  UNL     1       3.936  -2.449   2.251  1.00  0.00    -0.247 OA
ATOM     14  H2  UNL     1       5.264   0.321   1.251  1.00  0.00     0.164 HD
ATOM     15  H3  UNL     1       2.999   0.131   0.642  1.00  0.00     0.164 HD
BRANCH  12  16
HETATM   16  C7  UNL     1       6.514  -1.013   2.312  1.00  0.00     0.126 C 
BRANCH  16  17
HETATM   17  C6  UNL     1       6.977  -2.282   1.666  1.00  0.00     0.039 C 
BRANCH  17  18
HETATM   18  C5  UNL     1       7.178  -2.057   0.193  1.00  0.00     0.124 C 
BRANCH  18  19
HETATM   19  N1  UNL     1       8.167  -1.044  -0.047  1.00  0.00    -0.361 N 
HETATM   20  C4  UNL     1       8.487  -0.698  -1.385  1.00  0.00     0.221 C 
HETATM   21  O1  UNL     1       7.924  -1.260  -2.357  1.00  0.00    -0.273 OA
ATOM     22  H1  UNL     1       8.633  -0.580   0.733  1.00  0.00     0.162 HD
BRANCH  20  23
HETATM   23  C2  UNL     1       9.516   0.354  -1.623  1.00  0.00     0.070 C 
HETATM   24  C1  UNL     1      10.796  -0.126  -0.996  1.00  0.00     0.019 C 
HETATM   25  C3  UNL     1       9.070   1.621  -0.947  1.00  0.00     0.019 C 
ENDBRANCH  20  23
ENDBRANCH  18  19
ENDBRANCH  17  18
ENDBRANCH  16  17
ENDBRANCH  12  16
ENDBRANCH   1  10
BRANCH   7  26
HETATM   26  C13 UNL     1      -3.875   0.999   0.088  1.00  0.00     0.153 C 
BRANCH  26  27
HETATM   27  C14 UNL     1      -4.907   0.698  -0.959  1.00  0.00     0.266 C 
BRANCH  27  28
HETATM   28  N6  UNL     1      -6.067   1.545  -0.932  1.00  0.00    -0.008 N 
HETATM   29  C15 UNL     1      -5.704   2.809  -1.555  1.00  0.00     0.283 C 
HETATM   30  C16 UNL     1      -6.551   1.742   0.396  1.00  0.00     0.247 C 
HETATM   31  C17 UNL     1      -6.950   0.534   1.140  1.00  0.00     0.029 C 
HETATM   32  C18 UNL     1      -8.376   0.159   1.151  1.00  0.00     0.002 C 
HETATM   33  C19 UNL     1      -9.342   0.991   0.404  1.00  0.00     0.001 C 
HETATM   34  C20 UNL     1      -9.400   0.821  -1.068  1.00  0.00     0.009 C 
HETATM   35  C21 UNL     1      -8.256   0.121  -1.715  1.00  0.00     0.111 C 
HETATM   36  C22 UNL     1      -7.028   0.935  -1.794  1.00  0.00     0.318 C 
HETATM   37  O4  UNL     1      -6.724   1.169  -2.952  1.00  0.00    -0.265 OA
ENDBRANCH  27  28
ENDBRANCH  26  27
ENDBRANCH   7  26
TORSDOF 9
