REMARK  3 active torsions:
REMARK  status: ('A' for Active; 'I' for Inactive)
REMARK    1  A    between atoms: C3_3  and  O1_4 
REMARK    2  A    between atoms: C6_8  and  O2_9 
REMARK    3  A    between atoms: C10_14  and  O3_15 
ROOT
HETATM    1  C1  UNL     1       0.606   2.165   0.479  1.00  0.00     0.021 C 
HETATM    2  C2  UNL     1       0.185   0.824   0.026  1.00  0.00     0.020 C 
HETATM    3  C3  UNL     1       0.308   0.589  -1.460  1.00  0.00     0.136 C 
HETATM    4  C4  UNL     1       0.629  -0.869  -1.098  1.00  0.00     0.053 C 
HETATM    5  C5  UNL     1      -0.702  -1.572  -0.983  1.00  0.00     0.042 C 
HETATM    6  C6  UNL     1      -1.705  -0.761  -0.249  1.00  0.00     0.123 C 
HETATM    7  C7  UNL     1      -1.069   0.292   0.621  1.00  0.00     0.028 C 
HETATM    8  C8  UNL     1      -0.544  -0.439   1.864  1.00  0.00     0.011 C 
HETATM    9  C9  UNL     1       0.703  -1.122   1.375  1.00  0.00     0.040 C 
HETATM   10  C10 UNL     1       1.162  -0.311   0.218  1.00  0.00     0.074 C 
ENDROOT
BRANCH   3  11
HETATM   11  O1  UNL     1       1.476   1.182  -1.936  1.00  0.00    -0.394 OA
ATOM     12  H1  UNL     1       1.553   1.034  -2.871  1.00  0.00     0.210 HD
ENDBRANCH   3  11
BRANCH  10  13
HETATM   13  O3  UNL     1       2.493   0.015   0.157  1.00  0.00    -0.388 OA
ATOM     14  H3  UNL     1       3.108  -0.699   0.278  1.00  0.00     0.210 HD
ENDBRANCH  10  13
BRANCH   6  15
HETATM   15  O2  UNL     1      -2.658  -0.155  -1.044  1.00  0.00    -0.395 OA
ATOM     16  H2  UNL     1      -3.300   0.364  -0.574  1.00  0.00     0.210 HD
ENDBRANCH   6  15
TORSDOF 3
