REMARK  14 active torsions:
REMARK  status: ('A' for Active; 'I' for Inactive)
REMARK    1  A    between atoms: C2_2  and  C3_3 
REMARK    2  A    between atoms: C3_3  and  N1_4 
REMARK    3  A    between atoms: N1_4  and  C4_6 
REMARK    4  A    between atoms: C4_6  and  O1_7 
REMARK    5  A    between atoms: C4_6  and  N2_9 
REMARK    6  A    between atoms: N2_9  and  C5_10 
REMARK    7  A    between atoms: C6_13  and  N4_14 
REMARK    8  A    between atoms: N4_14  and  C7_16 
REMARK    9  A    between atoms: C9_18  and  O2_19 
REMARK   10  A    between atoms: C12_22  and  O3_23 
REMARK   11  A    between atoms: C16_29  and  C17_30 
REMARK       I    between atoms: C17_30  and  N6_32 
REMARK   12  A    between atoms: N6_32  and  C18_34 
REMARK   13  A    between atoms: C18_34  and  C19_35 
REMARK   14  A    between atoms: C19_35  and  N7_36 
ROOT
HETATM    1  C5  UNL     1      -0.125   0.588   0.008  1.00  0.00     0.215 A 
HETATM    2  N3  UNL     1      -1.439   0.391  -0.194  1.00  0.00    -0.163 N 
ATOM      3  H3  UNL     1      -1.933   1.075  -0.767  1.00  0.00     0.187 HD
HETATM    4  C6  UNL     1      -2.172  -0.660   0.310  1.00  0.00     0.684 A 
HETATM    5  N5  UNL     1      -1.479  -1.555   1.074  1.00  0.00    -0.200 N 
ATOM      6  H5  UNL     1      -1.990  -2.346   1.467  1.00  0.00     0.183 HD
HETATM    7  C15 UNL     1      -0.172  -1.459   1.339  1.00  0.00     0.128 A 
HETATM    8  C16 UNL     1       0.509  -0.404   0.815  1.00  0.00     0.106 A 
ENDROOT
BRANCH   4   9
HETATM    9  N4  UNL     1      -3.371  -0.736   0.050  1.00  0.00    -0.191 N 
ATOM     10  H4  UNL     1      -3.629   0.057  -0.538  1.00  0.00     0.184 HD
BRANCH   9  11
HETATM   11  C7  UNL     1      -4.471  -1.494   0.264  1.00  0.00     0.054 A 
HETATM   12  C8  UNL     1      -5.715  -0.785   0.145  1.00  0.00     0.066 A 
HETATM   13  C9  UNL     1      -6.924  -1.387   0.333  1.00  0.00     0.073 A 
HETATM   14  C11 UNL     1      -6.927  -2.721   0.648  1.00  0.00     0.073 A 
HETATM   15  C12 UNL     1      -5.766  -3.448   0.775  1.00  0.00     0.073 A 
HETATM   16  C14 UNL     1      -4.553  -2.809   0.575  1.00  0.00     0.066 A 
BRANCH  13  17
HETATM   17  O2  UNL     1      -8.097  -0.644   0.198  1.00  0.00    -0.356 OA
HETATM   18  C10 UNL     1      -8.000   0.736  -0.147  1.00  0.00     0.210 C 
ENDBRANCH  13  17
BRANCH  15  19
HETATM   19  O3  UNL     1      -5.709  -4.787   1.090  1.00  0.00    -0.356 OA
HETATM   20  C13 UNL     1      -6.791  -5.601   1.326  1.00  0.00     0.210 C 
ENDBRANCH  15  19
ENDBRANCH   9  11
ENDBRANCH   4   9
BRANCH   1  21
HETATM   21  N2  UNL     1       0.514   1.531  -0.366  1.00  0.00    -0.345 NA
BRANCH  21  22
HETATM   22  C4  UNL     1       1.260   2.510  -0.734  1.00  0.00     0.296 C 
BRANCH  22  23
HETATM   23  N1  UNL     1       2.217   3.189   0.101  1.00  0.00    -0.341 N 
ATOM     24  H1  UNL     1       2.333   2.904   1.073  1.00  0.00     0.164 HD
BRANCH  23  25
HETATM   25  C3  UNL     1       3.008   4.263  -0.424  1.00  0.00     0.150 C 
BRANCH  25  26
HETATM   26  C2  UNL     1       3.916   4.715   0.650  1.00  0.00    -0.018 C 
HETATM   27  C1  UNL     1       3.894   5.947   1.082  1.00  0.00     0.008 C 
ENDBRANCH  25  26
ENDBRANCH  23  25
ENDBRANCH  22  23
BRANCH  22  28
HETATM   28  O1  UNL     1       1.228   3.004  -1.943  1.00  0.00    -0.321 OA
ATOM     29  H1  UNL     1       0.597   2.556  -2.494  1.00  0.00     0.222 HD
ENDBRANCH  22  28
ENDBRANCH  21  22
ENDBRANCH   1  21
BRANCH   8  30
HETATM   30  C17 UNL     1       1.944  -0.310   0.985  1.00  0.00     0.258 C 
HETATM   31  O4  UNL     1       2.469  -0.242   2.152  1.00  0.00    -0.267 OA
HETATM   32  N6  UNL     1       2.816  -0.296  -0.152  1.00  0.00    -0.352 N 
ATOM     33  H6  UNL     1       2.412  -0.365  -1.086  1.00  0.00     0.163 HD
BRANCH  32  34
HETATM   34  C18 UNL     1       4.247  -0.188  -0.017  1.00  0.00     0.167 C 
BRANCH  34  35
HETATM   35  C19 UNL     1       4.951  -0.250  -1.359  1.00  0.00     0.076 C 
BRANCH  35  36
HETATM   36  N7  UNL     1       6.347  -0.122  -1.272  1.00  0.00    -0.400 N 
HETATM   37  C20 UNL     1       7.061  -1.150  -0.649  1.00  0.00     0.148 C 
HETATM   38  C21 UNL     1       6.950   1.078  -1.641  1.00  0.00     0.148 C 
ENDBRANCH  35  36
ENDBRANCH  34  35
ENDBRANCH  32  34
ENDBRANCH   8  30
TORSDOF 14
