REMARK  17 active torsions:
REMARK  status: ('A' for Active; 'I' for Inactive)
REMARK    1  A    between atoms: N1_2  and  C2_3 
REMARK    2  A    between atoms: N1_2  and  C4_7 
REMARK    3  A    between atoms: C2_3  and  C3_4 
REMARK    4  A    between atoms: C4_7  and  O2_8 
REMARK    5  A    between atoms: C4_7  and  C5_10 
REMARK    6  A    between atoms: C6_11  and  O3_12 
REMARK    7  A    between atoms: O3_12  and  C7_13 
REMARK    8  A    between atoms: C7_13  and  C8_14 
REMARK    9  A    between atoms: C8_14  and  C9_15 
REMARK   10  A    between atoms: C9_15  and  C10_16 
REMARK   11  A    between atoms: C10_16  and  C11_17 
REMARK   12  A    between atoms: C11_17  and  N3_18 
REMARK   13  A    between atoms: C14_24  and  O4_25 
REMARK   14  A    between atoms: C16_28  and  C17_29 
REMARK   15  A    between atoms: C17_29  and  C18_30 
REMARK   16  A    between atoms: C18_30  and  N4_31 
REMARK   17  A    between atoms: C25_41  and  C26_42 
ROOT
HETATM    1  C5  UNL     1      -1.146  -2.358  -0.120  1.00  0.00     0.035 C 
HETATM    2  C6  UNL     1      -0.467  -1.156  -0.171  1.00  0.00     0.066 C 
HETATM    3  C12 UNL     1       0.886  -1.338  -0.792  1.00  0.00     0.083 C 
HETATM    4  C13 UNL     1       1.831  -0.211  -0.510  1.00  0.00    -0.008 A 
HETATM    5  C14 UNL     1       2.293   0.641  -1.490  1.00  0.00     0.073 A 
HETATM    6  C15 UNL     1       3.194   1.657  -1.217  1.00  0.00     0.044 A 
HETATM    7  C16 UNL     1       3.669   1.856   0.062  1.00  0.00    -0.053 A 
HETATM    8  C19 UNL     1       3.216   1.014   1.049  1.00  0.00     0.015 A 
HETATM    9  C20 UNL     1       2.302  -0.016   0.768  1.00  0.00    -0.048 A 
HETATM   10  C21 UNL     1       1.847  -0.884   1.868  1.00  0.00     0.039 C 
HETATM   11  C22 UNL     1       1.492  -2.265   1.470  1.00  0.00     0.010 C 
HETATM   12  C23 UNL     1       1.536  -2.488  -0.002  1.00  0.00     0.002 C 
HETATM   13  C24 UNL     1       0.915  -3.754  -0.433  1.00  0.00     0.024 C 
HETATM   14  C25 UNL     1      -0.558  -3.544  -0.735  1.00  0.00     0.115 C 
ENDROOT
BRANCH   2  15
HETATM   15  O3  UNL     1      -0.845   0.009   0.237  1.00  0.00    -0.354 OA
BRANCH  15  16
HETATM   16  C7  UNL     1      -1.260   1.155   0.673  1.00  0.00     0.175 C 
BRANCH  16  17
HETATM   17  C8  UNL     1      -0.568   2.456   0.208  1.00  0.00     0.027 C 
BRANCH  17  18
HETATM   18  C9  UNL     1      -1.354   3.551   0.947  1.00  0.00     0.004 C 
BRANCH  18  19
HETATM   19  C10 UNL     1      -0.819   4.918   0.618  1.00  0.00     0.027 C 
BRANCH  19  20
HETATM   20  C11 UNL     1      -0.891   5.249  -0.833  1.00  0.00     0.229 C 
BRANCH  20  21
HETATM   21  N3  UNL     1      -0.346   6.584  -1.014  1.00  0.00    -0.079 N 
ATOM     22  H33 UNL     1      -0.804   7.281  -0.426  1.00  0.00     0.274 HD
ATOM     23  H32 UNL     1       0.595   6.682  -0.633  1.00  0.00     0.274 HD
ATOM     24  H31 UNL     1      -0.395   6.811  -2.007  1.00  0.00     0.274 HD
ENDBRANCH  20  21
ENDBRANCH  19  20
ENDBRANCH  18  19
ENDBRANCH  17  18
ENDBRANCH  16  17
ENDBRANCH  15  16
ENDBRANCH   2  15
BRANCH   1  25
HETATM   25  C4  UNL     1      -2.441  -2.386   0.461  1.00  0.00     0.151 C 
BRANCH  25  26
HETATM   26  N1  UNL     1      -3.417  -3.333   0.748  1.00  0.00    -0.337 N 
HETATM   27  C1  UNL     1      -4.697  -2.793   1.385  1.00  0.00     0.158 C 
BRANCH  26  28
HETATM   28  C2  UNL     1      -3.432  -4.726   0.563  1.00  0.00     0.163 C 
BRANCH  28  29
HETATM   29  C3  UNL     1      -4.034  -5.193  -0.733  1.00  0.00     0.270 C 
HETATM   30  N2  UNL     1      -4.031  -6.606  -0.970  1.00  0.00    -0.057 NA
HETATM   31  O1  UNL     1      -4.508  -4.398  -1.553  1.00  0.00    -0.270 OA
ENDBRANCH  28  29
ENDBRANCH  26  28
ENDBRANCH  25  26
BRANCH  25  32
HETATM   32  O2  UNL     1      -2.855  -1.189   0.851  1.00  0.00    -0.345 OA
ATOM     33  H2  UNL     1      -2.188  -0.542   0.655  1.00  0.00     0.219 HD
ENDBRANCH  25  32
ENDBRANCH   1  25
BRANCH  14  34
HETATM   34  C26 UNL     1      -0.661  -3.547  -2.247  1.00  0.00     0.239 C 
HETATM   35  N5  UNL     1      -1.730  -2.921  -2.908  1.00  0.00    -0.062 NA
HETATM   36  O5  UNL     1       0.228  -4.123  -2.956  1.00  0.00    -0.276 OA
ENDBRANCH  14  34
BRANCH   5  37
HETATM   37  O4  UNL     1       1.795   0.416  -2.781  1.00  0.00    -0.360 OA
ATOM     38  H4  UNL     1       2.113   1.003  -3.456  1.00  0.00     0.217 HD
ENDBRANCH   5  37
BRANCH   7  39
HETATM   39  C17 UNL     1       4.642   2.953   0.372  1.00  0.00     0.066 C 
BRANCH  39  40
HETATM   40  C18 UNL     1       3.907   4.221   0.744  1.00  0.00     0.234 C 
BRANCH  40  41
HETATM   41  N4  UNL     1       4.928   5.229   1.028  1.00  0.00    -0.079 N 
ATOM     42  H43 UNL     1       5.602   4.932   1.734  1.00  0.00     0.274 HD
ATOM     43  H42 UNL     1       5.591   5.357   0.264  1.00  0.00     0.274 HD
ATOM     44  H41 UNL     1       4.432   6.084   1.279  1.00  0.00     0.274 HD
ENDBRANCH  40  41
ENDBRANCH  39  40
ENDBRANCH   7  39
TORSDOF 17
