REMARK  8 active torsions:
REMARK  status: ('A' for Active; 'I' for Inactive)
REMARK    1  A    between atoms: N1_1  and  C1_5 
REMARK    2  A    between atoms: C1_5  and  C2_6 
REMARK    3  A    between atoms: C2_6  and  C3_7 
REMARK    4  A    between atoms: C3_7  and  N2_8 
REMARK    5  A    between atoms: C5_13  and  N4_14 
REMARK    6  A    between atoms: N4_14  and  N5_16 
REMARK    7  A    between atoms: N5_16  and  C6_18 
REMARK    8  A    between atoms: C6_18  and  C7_19 
ROOT
HETATM    1  N2  UNL     1       2.355  -0.506  -0.823  1.00  0.00    -0.240 N 
HETATM    2  N3  UNL     1       1.437  -0.033   0.023  1.00  0.00    -0.257 N 
ATOM      3  H3  UNL     1       1.741   0.339   0.923  1.00  0.00     0.190 HD
HETATM    4  C4  UNL     1       0.141  -0.031  -0.267  1.00  0.00     0.305 A 
HETATM    5  O1  UNL     1      -0.720   0.422   0.548  1.00  0.00    -0.263 OA
HETATM    6  C5  UNL     1      -0.259  -0.541  -1.493  1.00  0.00     0.194 A 
HETATM    7  N7  UNL     1       0.685  -1.020  -2.347  1.00  0.00    -0.288 N 
ATOM      8  H7  UNL     1       0.401  -1.397  -3.251  1.00  0.00     0.172 HD
HETATM    9  C12 UNL     1       1.987  -1.004  -2.016  1.00  0.00     0.342 A 
HETATM   10  O2  UNL     1       2.820  -1.457  -2.838  1.00  0.00    -0.245 OA
ENDROOT
BRANCH   6  11
HETATM   11  N4  UNL     1      -1.493  -0.573  -1.843  1.00  0.00    -0.285 N 
ATOM     12  H4  UNL     1      -1.738  -0.958  -2.755  1.00  0.00     0.188 HD
BRANCH  11  13
HETATM   13  N5  UNL     1      -2.507  -0.099  -1.017  1.00  0.00    -0.330 N 
ATOM     14  H5  UNL     1      -2.646   0.906  -0.910  1.00  0.00     0.180 HD
BRANCH  13  15
HETATM   15  C6  UNL     1      -3.359  -1.015  -0.314  1.00  0.00     0.179 C 
BRANCH  15  16
HETATM   16  C7  UNL     1      -4.378  -0.316   0.513  1.00  0.00    -0.024 A 
HETATM   17  C8  UNL     1      -5.598   0.004  -0.022  1.00  0.00     0.011 A 
HETATM   18  C9  UNL     1      -6.518   0.650   0.769  1.00  0.00     0.018 A 
HETATM   19  C10 UNL     1      -6.241   0.977   2.071  1.00  0.00     0.087 A 
HETATM   20  N6  UNL     1      -5.049   0.650   2.554  1.00  0.00    -0.375 N 
HETATM   21  C11 UNL     1      -4.117   0.018   1.818  1.00  0.00     0.096 A 
ATOM     22  H6  UNL     1      -4.831   0.887   3.522  1.00  0.00     0.164 HD
ENDBRANCH  15  16
ENDBRANCH  13  15
ENDBRANCH  11  13
ENDBRANCH   6  11
BRANCH   1  23
HETATM   23  C3  UNL     1       3.725  -0.462  -0.418  1.00  0.00     0.155 C 
BRANCH  23  24
HETATM   24  C2  UNL     1       4.417   0.825  -0.818  1.00  0.00     0.049 C 
BRANCH  24  25
HETATM   25  C1  UNL     1       5.862   0.707  -0.313  1.00  0.00     0.231 C 
BRANCH  25  26
HETATM   26  N1  UNL     1       5.858   0.542   1.129  1.00  0.00    -0.079 N 
ATOM     27  H13 UNL     1       5.344   1.286   1.601  1.00  0.00     0.274 HD
ATOM     28  H12 UNL     1       5.280  -0.245   1.426  1.00  0.00     0.274 HD
ATOM     29  H11 UNL     1       6.818   0.464   1.465  1.00  0.00     0.274 HD
ENDBRANCH  25  26
ENDBRANCH  24  25
ENDBRANCH  23  24
ENDBRANCH   1  23
TORSDOF 8
