REMARK  13 active torsions:
REMARK  status: ('A' for Active; 'I' for Inactive)
REMARK    1  A    between atoms: O1_1  and  C1_3 
REMARK    2  A    between atoms: C3_8  and  N2_9 
REMARK    3  A    between atoms: N2_9  and  C4_12 
REMARK    4  A    between atoms: C4_12  and  C5_13 
REMARK    5  A    between atoms: C5_13  and  N3_14 
REMARK    6  A    between atoms: N3_14  and  C6_16 
REMARK    7  A    between atoms: C6_16  and  C7_17 
REMARK    8  A    between atoms: C7_17  and  C8_18 
REMARK    9  A    between atoms: C8_18  and  N4_19 
REMARK   10  A    between atoms: N4_19  and  C9_21 
REMARK   11  A    between atoms: C9_21  and  C10_22 
REMARK   12  A    between atoms: C11_25  and  O3_26 
REMARK   13  A    between atoms: C12_28  and  O4_29 
ROOT
HETATM    1  C4  UNL     1      -1.818   0.876  -0.187  1.00  0.00     0.254 C 
ENDROOT
BRANCH   1   2
HETATM    2  N2  UNL     1      -2.875   0.387  -0.997  1.00  0.00    -0.042 N 
ATOM      3  H22 UNL     1      -2.521  -0.255  -1.706  1.00  0.00     0.279 HD
ATOM      4  H21 UNL     1      -3.238   1.124  -1.602  1.00  0.00     0.279 HD
BRANCH   2   5
HETATM    5  C3  UNL     1      -3.916  -0.211  -0.256  1.00  0.00     0.413 C 
HETATM    6  N1  UNL     1      -4.951  -0.743  -1.121  1.00  0.00    -0.041 N 
HETATM    7  C2  UNL     1      -6.235  -0.375  -0.593  1.00  0.00     0.269 C 
ATOM      8  H12 UNL     1      -4.862  -1.750  -1.260  1.00  0.00     0.279 HD
ATOM      9  H11 UNL     1      -4.833  -0.454  -2.092  1.00  0.00     0.279 HD
HETATM   10  C1  UNL     1      -5.956   0.090   0.801  1.00  0.00     0.176 C 
HETATM   11  C12 UNL     1      -4.627   0.789   0.654  1.00  0.00     0.206 C 
BRANCH  10  12
HETATM   12  O1  UNL     1      -6.952   0.939   1.291  1.00  0.00    -0.391 OA
ATOM     13  H1  UNL     1      -6.775   1.234   2.176  1.00  0.00     0.210 HD
ENDBRANCH  10  12
BRANCH  11  14
HETATM   14  O4  UNL     1      -4.696   1.989  -0.024  1.00  0.00    -0.389 OA
ATOM     15  H4  UNL     1      -3.859   2.429  -0.117  1.00  0.00     0.210 HD
ENDBRANCH  11  14
ENDBRANCH   2   5
ENDBRANCH   1   2
BRANCH   1  16
HETATM   16  C5  UNL     1      -1.052  -0.321   0.425  1.00  0.00     0.146 C 
BRANCH  16  17
HETATM   17  N3  UNL     1      -0.514  -1.155  -0.548  1.00  0.00    -0.401 N 
ATOM     18  H3  UNL     1      -0.952  -2.067  -0.676  1.00  0.00     0.158 HD
BRANCH  17  19
HETATM   19  C6  UNL     1       0.561  -0.852  -1.353  1.00  0.00     0.057 C 
BRANCH  19  20
HETATM   20  C7  UNL     1       1.947  -0.856  -0.863  1.00  0.00     0.063 C 
BRANCH  20  21
HETATM   21  C8  UNL     1       2.333   0.034   0.253  1.00  0.00     0.119 C 
BRANCH  21  22
HETATM   22  N4  UNL     1       3.755  -0.163   0.556  1.00  0.00    -0.418 N 
ATOM     23  H4  UNL     1       4.070  -0.615   1.414  1.00  0.00     0.153 HD
BRANCH  22  24
HETATM   24  C9  UNL     1       4.659   0.315  -0.420  1.00  0.00     0.151 C 
BRANCH  24  25
HETATM   25  C10 UNL     1       6.048  -0.179  -0.024  1.00  0.00     0.211 C 
HETATM   26  O2  UNL     1       7.050   0.226  -0.878  1.00  0.00    -0.273 OA
HETATM   27  N5  UNL     1       7.512   1.099   0.040  1.00  0.00    -0.066 NA
HETATM   28  C11 UNL     1       6.701   0.537   1.092  1.00  0.00     0.270 C 
BRANCH  28  29
HETATM   29  O3  UNL     1       7.389  -0.334   1.944  1.00  0.00    -0.375 OA
ATOM     30  H3  UNL     1       7.809   0.126   2.661  1.00  0.00     0.211 HD
ENDBRANCH  28  29
ENDBRANCH  24  25
ENDBRANCH  22  24
ENDBRANCH  21  22
ENDBRANCH  20  21
ENDBRANCH  19  20
ENDBRANCH  17  19
ENDBRANCH  16  17
ENDBRANCH   1  16
TORSDOF 13
