REMARK  7 active torsions:
REMARK  status: ('A' for Active; 'I' for Inactive)
REMARK    1  A    between atoms: N1_1  and  S1_4 
REMARK    2  A    between atoms: S1_4  and  N2_7 
REMARK    3  A    between atoms: N2_7  and  C1_9 
REMARK    4  A    between atoms: C1_9  and  C2_10 
REMARK    5  A    between atoms: C2_10  and  O3_11 
REMARK    6  A    between atoms: O3_11  and  N3_12 
REMARK    7  A    between atoms: C7_25  and  O5_26 
ROOT
HETATM    1  N3  UNL     1      -0.335   0.287  -0.551  1.00  0.00    -0.265 N 
ATOM      2  H3  UNL     1      -0.016   0.682  -1.436  1.00  0.00     0.194 HD
HETATM    3  C3  UNL     1      -1.505   0.469  -0.532  1.00  0.00     0.106 C 
HETATM    4  C4  UNL     1      -2.365   1.124  -1.602  1.00  0.00     0.117 C 
HETATM    5  N4  UNL     1      -3.478   1.633  -0.949  1.00  0.00    -0.372 N 
ATOM      6  H4  UNL     1      -4.024   2.433  -1.267  1.00  0.00     0.161 HD
HETATM    7  C5  UNL     1      -3.748   0.885   0.221  1.00  0.00     0.248 C 
HETATM    8  N5  UNL     1      -4.787  -0.137  -0.022  1.00  0.00    -0.317 N 
ATOM      9  H5  UNL     1      -5.785   0.046  -0.129  1.00  0.00     0.166 HD
HETATM   10  C6  UNL     1      -4.161  -1.436  -0.083  1.00  0.00     0.320 C 
HETATM   11  O4  UNL     1      -4.693  -2.510  -0.490  1.00  0.00    -0.247 OA
HETATM   12  N6  UNL     1      -2.842  -1.310   0.379  1.00  0.00    -0.302 N 
ATOM     13  H6  UNL     1      -2.218  -2.087   0.595  1.00  0.00     0.167 HD
HETATM   14  C7  UNL     1      -2.505   0.079   0.501  1.00  0.00     0.222 C 
ENDROOT
BRANCH   1  15
HETATM   15  O3  UNL     1       0.748  -0.184   0.030  1.00  0.00    -0.279 OA
BRANCH  15  16
HETATM   16  C2  UNL     1       1.627   0.858   0.573  1.00  0.00     0.221 C 
BRANCH  16  17
HETATM   17  C1  UNL     1       2.958   0.456   0.026  1.00  0.00     0.162 C 
BRANCH  17  18
HETATM   18  N2  UNL     1       3.461  -0.770   0.413  1.00  0.00    -0.301 N 
ATOM     19  H2  UNL     1       2.992  -1.385   1.079  1.00  0.00     0.173 HD
BRANCH  18  20
HETATM   20  S1  UNL     1       4.958  -1.156  -0.341  1.00  0.00     0.312 S 
HETATM   21  O1  UNL     1       4.919  -2.580  -0.842  1.00  0.00    -0.183 OA
HETATM   22  O2  UNL     1       5.012  -0.275  -1.596  1.00  0.00    -0.183 OA
BRANCH  20  23
HETATM   23  N1  UNL     1       6.247  -0.914   0.705  1.00  0.00    -0.312 N 
ATOM     24  H12 UNL     1       6.911  -1.645   0.960  1.00  0.00     0.170 HD
ATOM     25  H11 UNL     1       6.273   0.048   1.043  1.00  0.00     0.170 HD
ENDBRANCH  20  23
ENDBRANCH  18  20
ENDBRANCH  17  18
ENDBRANCH  16  17
ENDBRANCH  15  16
ENDBRANCH   1  15
BRANCH  14  26
HETATM   26  O5  UNL     1      -2.085   0.389   1.818  1.00  0.00    -0.362 OA
ATOM     27  H5  UNL     1      -2.723   0.140   2.477  1.00  0.00     0.213 HD
ENDBRANCH  14  26
TORSDOF 7
