REMARK  7 active torsions:
REMARK  status: ('A' for Active; 'I' for Inactive)
REMARK    1  A    between atoms: N1_1  and  C1_5 
REMARK    2  A    between atoms: C1_5  and  C2_6 
REMARK    3  A    between atoms: C2_6  and  N2_7 
REMARK    4  A    between atoms: N2_7  and  C3_9 
REMARK    5  A    between atoms: C4_13  and  C5_14 
REMARK    6  A    between atoms: C5_14  and  C6_15 
REMARK    7  A    between atoms: C6_15  and  N5_16 
ROOT
HETATM    1  C3  UNL     1      -2.558  -1.180  -0.056  1.00  0.00     0.186 C 
HETATM    2  N3  UNL     1      -1.242  -0.870   0.062  1.00  0.00    -0.273 N 
ATOM      3  H3  UNL     1      -1.058   0.041   0.482  1.00  0.00     0.189 HD
HETATM    4  N4  UNL     1      -0.148  -1.555  -0.278  1.00  0.00    -0.236 N 
HETATM    5  C4  UNL     1       1.107  -1.074  -0.231  1.00  0.00     0.053 A 
HETATM    6  C8  UNL     1       1.977  -2.060  -0.653  1.00  0.00     0.117 A 
HETATM    7  N8  UNL     1       1.217  -3.130  -0.949  1.00  0.00    -0.344 N 
ATOM      8  H8  UNL     1       1.570  -4.024  -1.290  1.00  0.00     0.167 HD
HETATM    9  C9  UNL     1      -0.080  -2.844  -0.727  1.00  0.00     0.196 A 
HETATM   10  C10 UNL     1      -1.102  -3.739  -0.939  1.00  0.00     0.294 C 
HETATM   11  O1  UNL     1      -0.766  -4.883  -1.319  1.00  0.00    -0.264 OA
HETATM   12  N9  UNL     1      -2.417  -3.519  -0.782  1.00  0.00    -0.284 N 
ATOM     13  H9  UNL     1      -3.019  -4.291  -1.067  1.00  0.00     0.172 HD
HETATM   14  C11 UNL     1      -3.072  -2.428  -0.303  1.00  0.00     0.293 C 
HETATM   15  O2  UNL     1      -4.285  -2.639  -0.076  1.00  0.00    -0.264 OA
ENDROOT
BRANCH   1  16
HETATM   16  N2  UNL     1      -3.427  -0.242   0.070  1.00  0.00    -0.369 N 
ATOM     17  H2  UNL     1      -4.414  -0.485  -0.020  1.00  0.00     0.161 HD
BRANCH  16  18
HETATM   18  C2  UNL     1      -3.086   1.133   0.331  1.00  0.00     0.148 C 
BRANCH  18  19
HETATM   19  C1  UNL     1      -4.266   2.039  -0.023  1.00  0.00     0.249 C 
BRANCH  19  20
HETATM   20  N1  UNL     1      -5.429   1.692   0.767  1.00  0.00    -0.078 N 
ATOM     21  H13 UNL     1      -5.669   0.705   0.675  1.00  0.00     0.274 HD
ATOM     22  H12 UNL     1      -5.226   1.707   1.767  1.00  0.00     0.274 HD
ATOM     23  H11 UNL     1      -6.216   2.296   0.531  1.00  0.00     0.274 HD
ENDBRANCH  19  20
ENDBRANCH  18  19
ENDBRANCH  16  18
ENDBRANCH   1  16
BRANCH   5  24
HETATM   24  C5  UNL     1       1.479   0.296   0.206  1.00  0.00     0.080 C 
BRANCH  24  25
HETATM   25  C6  UNL     1       2.978   0.493   0.131  1.00  0.00     0.128 C 
BRANCH  25  26
HETATM   26  N5  UNL     1       3.366   1.821   0.552  1.00  0.00    -0.367 N 
HETATM   27  C7  UNL     1       4.609   2.117   0.546  1.00  0.00     0.196 C 
HETATM   28  N6  UNL     1       5.585   1.180   0.142  1.00  0.00    -0.067 NA
HETATM   29  N7  UNL     1       4.996   3.415   0.957  1.00  0.00    -0.067 NA
ATOM     30  H5  UNL     1       2.666   2.503   0.846  1.00  0.00     0.161 HD
ENDBRANCH  25  26
ENDBRANCH  24  25
ENDBRANCH   5  24
TORSDOF 7
