REMARK  7 active torsions:
REMARK  status: ('A' for Active; 'I' for Inactive)
REMARK    1  A    between atoms: N1_1  and  N2_4 
REMARK    2  A    between atoms: N2_4  and  N3_5 
REMARK       I    between atoms: N3_5  and  C1_7 
REMARK       I    between atoms: C1_7  and  N5_11 
REMARK    3  A    between atoms: N5_11  and  C2_13 
REMARK    4  A    between atoms: C2_13  and  C3_14 
REMARK    5  A    between atoms: C2_13  and  C6_21 
REMARK    6  A    between atoms: C3_14  and  C4_15 
REMARK    7  A    between atoms: C4_15  and  N6_16 
REMARK       I    between atoms: C6_21  and  N9_23 
ROOT
HETATM    1  C2  UNL     1      -0.226   1.199  -0.129  1.00  0.00     0.193 C 
ENDROOT
BRANCH   1   2
HETATM    2  N5  UNL     1      -0.194   2.447  -0.913  1.00  0.00    -0.211 N 
HETATM    3  C1  UNL     1       0.251   3.660  -0.343  1.00  0.00     0.699 C 
HETATM    4  N3  UNL     1       0.761   4.704  -1.176  1.00  0.00    -0.046 N 
HETATM    5  N4  UNL     1       0.230   3.916   0.925  1.00  0.00    -0.233 N 
ATOM      6  H3  UNL     1       0.135   5.258  -1.761  1.00  0.00     0.223 HD
ATOM      7  H42 UNL     1       0.551   4.792   1.337  1.00  0.00     0.174 HD
ATOM      8  H41 UNL     1      -0.134   3.171   1.519  1.00  0.00     0.174 HD
ATOM      9  H5  UNL     1      -0.499   2.434  -1.886  1.00  0.00     0.178 HD
BRANCH   4  10
HETATM   10  N2  UNL     1       2.095   4.941  -1.171  1.00  0.00    -0.229 NA
BRANCH  10  11
HETATM   11  N1  UNL     1       3.207   5.146  -1.185  1.00  0.00    -0.260 N 
ATOM     12  H12 UNL     1       2.404   5.256  -1.805  1.00  0.00     0.193 HD
ATOM     13  H11 UNL     1       4.211   5.324  -1.181  1.00  0.00     0.193 HD
ENDBRANCH  10  11
ENDBRANCH   4  10
ENDBRANCH   1   2
BRANCH   1  14
HETATM   14  C3  UNL     1       1.212   0.924   0.251  1.00  0.00     0.055 C 
BRANCH  14  15
HETATM   15  C4  UNL     1       1.440  -0.303   1.052  1.00  0.00     0.124 C 
BRANCH  15  16
HETATM   16  N6  UNL     1       2.854  -0.469   1.367  1.00  0.00    -0.367 N 
HETATM   17  C5  UNL     1       3.559  -1.424   0.899  1.00  0.00     0.196 C 
HETATM   18  N7  UNL     1       2.970  -2.378   0.035  1.00  0.00    -0.067 NA
HETATM   19  N8  UNL     1       4.917  -1.548   1.230  1.00  0.00    -0.067 NA
ATOM     20  H6  UNL     1       3.299   0.207   1.988  1.00  0.00     0.161 HD
ENDBRANCH  15  16
ENDBRANCH  14  15
ENDBRANCH   1  14
BRANCH   1  21
HETATM   21  C6  UNL     1      -0.831   0.127  -0.925  1.00  0.00     0.243 C 
HETATM   22  O1  UNL     1      -0.654   0.188  -2.176  1.00  0.00    -0.271 OA
HETATM   23  N9  UNL     1      -1.589  -0.955  -0.417  1.00  0.00    -0.347 N 
HETATM   24  C7  UNL     1      -1.920  -1.168   0.969  1.00  0.00     0.153 C 
HETATM   25  C10 UNL     1      -2.109  -1.988  -1.333  1.00  0.00     0.153 C 
HETATM   26  C8  UNL     1      -3.454  -1.190   1.046  1.00  0.00     0.252 C 
HETATM   27  N10 UNL     1      -3.870  -2.384   0.334  1.00  0.00    -0.072 N 
HETATM   28  C9  UNL     1      -3.601  -2.123  -1.082  1.00  0.00     0.252 C 
ATOM     29 2H10 UNL     1      -3.433  -3.238   0.681  1.00  0.00     0.277 HD
ATOM     30 1H10 UNL     1      -4.835  -2.655   0.522  1.00  0.00     0.277 HD
ENDBRANCH   1  21
TORSDOF 7
