REMARK  16 active torsions:
REMARK  status: ('A' for Active; 'I' for Inactive)
REMARK    1  A    between atoms: C1_4  and  N2_5 
REMARK    2  A    between atoms: C1_4  and  C4_13 
REMARK    3  A    between atoms: N2_5  and  C2_7 
REMARK    4  A    between atoms: C2_7  and  C3_8 
REMARK    5  A    between atoms: C3_8  and  O1_9 
REMARK    6  A    between atoms: C3_8  and  O2_11 
REMARK    7  A    between atoms: C5_17  and  S1_18 
REMARK    8  A    between atoms: S1_18  and  C6_19 
REMARK    9  A    between atoms: C7_20  and  O3_21 
REMARK   10  A    between atoms: C8_23  and  N6_24 
REMARK   11  A    between atoms: C10_30  and  C11_31 
REMARK   12  A    between atoms: C11_31  and  O4_32 
REMARK   13  A    between atoms: N9_34  and  C12_35 
REMARK   14  A    between atoms: C13_39  and  O5_40 
REMARK   15  A    between atoms: C14_42  and  O6_43 
REMARK   16  A    between atoms: C15_45  and  O7_46 
ROOT
HETATM    1  C6  UNL     1      -0.938  -0.220   0.238  1.00  0.00     0.182 C 
HETATM    2  C7  UNL     1      -0.562   0.933  -0.646  1.00  0.00     0.195 C 
HETATM    3  C8  UNL     1      -2.012   0.873  -1.079  1.00  0.00     0.239 C 
HETATM    4  N9  UNL     1      -2.273  -0.076  -0.161  1.00  0.00    -0.343 N 
ENDROOT
BRANCH   1   5
HETATM    5  S1  UNL     1       0.047  -1.643  -0.245  1.00  0.00    -0.091 SA
BRANCH   5   6
HETATM    6  C5  UNL     1       1.764  -1.489   0.211  1.00  0.00     0.299 C 
HETATM    7  N5  UNL     1       1.964  -1.506   1.654  1.00  0.00    -0.087 NA
HETATM    8  N4  UNL     1       1.804  -0.255   2.232  1.00  0.00    -0.034 NA
HETATM    9  N3  UNL     1       2.732   0.661   1.721  1.00  0.00    -0.090 NA
HETATM   10  C4  UNL     1       3.411  -0.007   0.614  1.00  0.00     0.301 C 
HETATM   11  O8  UNL     1       2.431  -0.392  -0.298  1.00  0.00    -0.330 OA
BRANCH  10  12
HETATM   12  C1  UNL     1       4.413   0.893  -0.012  1.00  0.00     0.118 C 
HETATM   13  N1  UNL     1       4.511   2.101   0.406  1.00  0.00    -0.386 N 
ATOM     14  H12 UNL     1       5.199   2.719  -0.024  1.00  0.00     0.157 HD
ATOM     15  H11 UNL     1       3.912   2.432   1.162  1.00  0.00     0.157 HD
BRANCH  12  16
HETATM   16  N2  UNL     1       5.239   0.437  -1.055  1.00  0.00    -0.372 N 
ATOM     17  H2  UNL     1       4.963   0.684  -2.005  1.00  0.00     0.161 HD
BRANCH  16  18
HETATM   18  C2  UNL     1       6.440  -0.348  -0.905  1.00  0.00     0.181 C 
BRANCH  18  19
HETATM   19  C3  UNL     1       7.529   0.448  -0.264  1.00  0.00     0.271 C 
BRANCH  19  20
HETATM   20  O1  UNL     1       8.662  -0.399  -0.173  1.00  0.00    -0.370 OA
ATOM     21  H1  UNL     1       9.355   0.107   0.235  1.00  0.00     0.212 HD
ENDBRANCH  19  20
BRANCH  19  22
HETATM   22  O2  UNL     1       7.160   0.887   1.006  1.00  0.00    -0.370 OA
ATOM     23  H2  UNL     1       7.853   1.393   1.414  1.00  0.00     0.212 HD
ENDBRANCH  19  22
ENDBRANCH  18  19
ENDBRANCH  16  18
ENDBRANCH  12  16
ENDBRANCH  10  12
ENDBRANCH   5   6
ENDBRANCH   1   5
BRANCH   2  24
HETATM   24  O3  UNL     1       0.289   0.665  -1.718  1.00  0.00    -0.389 OA
ATOM     25  H3  UNL     1       0.527   1.395  -2.278  1.00  0.00     0.210 HD
ENDBRANCH   2  24
BRANCH   4  26
HETATM   26  C12 UNL     1      -3.197  -1.109  -0.245  1.00  0.00     0.319 C 
HETATM   27  N10 UNL     1      -2.851  -2.293  -1.013  1.00  0.00    -0.023 N 
HETATM   28  C13 UNL     1      -4.151  -2.999  -0.907  1.00  0.00     0.352 C 
ATOM     29 2H10 UNL     1      -2.491  -2.138  -1.955  1.00  0.00     0.282 HD
ATOM     30 1H10 UNL     1      -2.025  -2.809  -0.710  1.00  0.00     0.282 HD
HETATM   31  C14 UNL     1      -4.274  -3.038   0.602  1.00  0.00     0.207 C 
HETATM   32  C15 UNL     1      -3.488  -1.806   1.088  1.00  0.00     0.201 C 
BRANCH  28  33
HETATM   33  O5  UNL     1      -5.168  -2.349  -1.547  1.00  0.00    -0.368 OA
ATOM     34  H5  UNL     1      -6.001  -2.801  -1.479  1.00  0.00     0.212 HD
ENDBRANCH  28  33
BRANCH  31  35
HETATM   35  O6  UNL     1      -5.592  -2.989   1.020  1.00  0.00    -0.388 OA
ATOM     36  H6  UNL     1      -5.669  -3.013   1.967  1.00  0.00     0.210 HD
ENDBRANCH  31  35
BRANCH  32  37
HETATM   37  O7  UNL     1      -4.303  -1.128   1.930  1.00  0.00    -0.389 OA
ATOM     38  H7  UNL     1      -4.483  -1.560   2.757  1.00  0.00     0.210 HD
ENDBRANCH  32  37
ENDBRANCH   4  26
BRANCH   3  39
HETATM   39  N6  UNL     1      -2.507   2.216  -1.058  1.00  0.00    -0.252 N 
HETATM   40  N7  UNL     1      -1.921   3.156  -1.822  1.00  0.00    -0.239 N 
HETATM   41  N8  UNL     1      -2.511   4.302  -1.665  1.00  0.00    -0.295 N 
ATOM     42  H7  UNL     1      -1.125   2.991  -2.438  1.00  0.00     0.208 HD
HETATM   43  C9  UNL     1      -3.503   4.163  -0.796  1.00  0.00     0.137 A 
ATOM     44  H8  UNL     1      -2.253   5.170  -2.135  1.00  0.00     0.187 HD
HETATM   45  C10 UNL     1      -3.483   2.823  -0.421  1.00  0.00     0.072 A 
BRANCH  45  46
HETATM   46  C11 UNL     1      -4.399   2.200   0.526  1.00  0.00     0.224 C 
BRANCH  46  47
HETATM   47  O4  UNL     1      -5.281   3.138   1.066  1.00  0.00    -0.395 OA
ATOM     48  H4  UNL     1      -5.878   2.732   1.683  1.00  0.00     0.209 HD
ENDBRANCH  46  47
ENDBRANCH  45  46
ENDBRANCH   3  39
TORSDOF 16
