REMARK  20 active torsions:
REMARK  status: ('A' for Active; 'I' for Inactive)
REMARK    1  A    between atoms: O1_2  and  C2_3 
REMARK       I    between atoms: C2_3  and  N1_5 
REMARK    2  A    between atoms: N1_5  and  C3_7 
REMARK    3  A    between atoms: C5_9  and  N2_10 
REMARK    4  A    between atoms: N2_10  and  C6_12 
REMARK    5  A    between atoms: C7_14  and  C8_15 
REMARK    6  A    between atoms: C8_15  and  O4_16 
REMARK    7  A    between atoms: C9_18  and  O5_19 
REMARK    8  A    between atoms: C10_21  and  O6_22 
REMARK    9  A    between atoms: C11_24  and  N3_25 
REMARK   10  A    between atoms: N3_25  and  C12_27 
REMARK   11  A    between atoms: C12_27  and  N4_28 
REMARK   12  A    between atoms: C12_27  and  O7_32 
REMARK   13  A    between atoms: O7_32  and  N5_33 
REMARK   14  A    between atoms: C13_36  and  C14_37 
REMARK   15  A    between atoms: C14_37  and  N7_42 
REMARK   16  A    between atoms: N6_38  and  O8_40 
REMARK   17  A    between atoms: N7_42  and  C15_44 
REMARK   18  A    between atoms: C15_44  and  N8_45 
REMARK   19  A    between atoms: C15_44  and  O9_49 
REMARK   20  A    between atoms: C16_53  and  O10_54 
ROOT
HETATM    1  C3  UNL     1       2.888   0.834  -0.479  1.00  0.00     0.090 A 
HETATM    2  C4  UNL     1       1.552   0.635  -0.254  1.00  0.00     0.065 A 
HETATM    3  C5  UNL     1       0.919  -0.610  -0.459  1.00  0.00     0.063 A 
HETATM    4  C13 UNL     1       1.706  -1.633  -0.899  1.00  0.00     0.107 A 
HETATM    5  N9  UNL     1       3.034  -1.419  -1.117  1.00  0.00    -0.330 N 
ATOM      6  H9  UNL     1       3.595  -2.205  -1.445  1.00  0.00     0.168 HD
HETATM    7  C16 UNL     1       3.644  -0.258  -0.931  1.00  0.00     0.168 A 
ENDROOT
BRANCH   3   8
HETATM    8  N2  UNL     1      -0.473  -0.706  -0.240  1.00  0.00    -0.360 N 
ATOM      9  H2  UNL     1      -0.947  -1.579  -0.470  1.00  0.00     0.162 HD
BRANCH   8  10
HETATM   10  C6  UNL     1      -1.267   0.411   0.310  1.00  0.00     0.246 C 
HETATM   11  O3  UNL     1      -0.850   0.767   1.582  1.00  0.00    -0.355 OA
HETATM   12  C7  UNL     1      -1.131  -0.195   2.520  1.00  0.00     0.179 C 
HETATM   13  C9  UNL     1      -2.654  -0.203   2.673  1.00  0.00     0.180 C 
HETATM   14  C10 UNL     1      -3.205  -0.708   1.361  1.00  0.00     0.176 C 
HETATM   15  C11 UNL     1      -2.729   0.135   0.216  1.00  0.00     0.160 C 
BRANCH  12  16
HETATM   16  C8  UNL     1      -0.456   0.075   3.823  1.00  0.00     0.198 C 
BRANCH  16  17
HETATM   17  O4  UNL     1       0.904   0.107   3.659  1.00  0.00    -0.398 OA
ATOM     18  H4  UNL     1       1.334   0.279   4.489  1.00  0.00     0.209 HD
ENDBRANCH  16  17
ENDBRANCH  12  16
BRANCH  13  19
HETATM   19  O5  UNL     1      -3.066   1.067   3.007  1.00  0.00    -0.390 OA
ATOM     20  H5  UNL     1      -4.011   1.062   3.102  1.00  0.00     0.210 HD
ENDBRANCH  13  19
BRANCH  14  21
HETATM   21  O6  UNL     1      -4.582  -0.849   1.387  1.00  0.00    -0.391 OA
ATOM     22  H6  UNL     1      -4.929  -1.167   0.562  1.00  0.00     0.210 HD
ENDBRANCH  14  21
BRANCH  15  23
HETATM   23  N3  UNL     1      -3.543   1.278  -0.037  1.00  0.00    -0.362 N 
ATOM     24  H3  UNL     1      -4.236   1.602   0.638  1.00  0.00     0.158 HD
BRANCH  23  25
HETATM   25  C12 UNL     1      -3.341   1.944  -1.276  1.00  0.00     0.446 C 
BRANCH  25  26
HETATM   26  N4  UNL     1      -3.557   1.009  -2.378  1.00  0.00    -0.033 N 
ATOM     27  H43 UNL     1      -2.978   0.173  -2.292  1.00  0.00     0.279 HD
ATOM     28  H42 UNL     1      -4.472   0.560  -2.328  1.00  0.00     0.279 HD
ATOM     29  H41 UNL     1      -3.412   1.487  -3.267  1.00  0.00     0.279 HD
ENDBRANCH  25  26
BRANCH  25  30
HETATM   30  O7  UNL     1      -4.254   2.980  -1.493  1.00  0.00    -0.232 OA
BRANCH  30  31
HETATM   31  N5  UNL     1      -3.667   4.166  -1.691  1.00  0.00    -0.307 N 
ATOM     32  H52 UNL     1      -2.654   4.286  -1.681  1.00  0.00     0.184 HD
ATOM     33  H51 UNL     1      -4.333   4.922  -1.849  1.00  0.00     0.184 HD
ENDBRANCH  30  31
ENDBRANCH  25  30
ENDBRANCH  23  25
ENDBRANCH  15  23
ENDBRANCH   8  10
ENDBRANCH   3   8
BRANCH   4  34
HETATM   34  C14 UNL     1       1.145  -2.963  -1.103  1.00  0.00     0.153 C 
HETATM   35  N6  UNL     1       0.405  -3.522  -0.235  1.00  0.00    -0.251 N 
ATOM     36  H6  UNL     1       0.199  -3.022   0.630  1.00  0.00     0.196 HD
BRANCH  35  37
HETATM   37  O8  UNL     1      -0.128  -4.772  -0.416  1.00  0.00    -0.288 OA
ATOM     38  H8  UNL     1      -0.681  -5.190   0.233  1.00  0.00     0.244 HD
ENDBRANCH  35  37
BRANCH  34  39
HETATM   39  N7  UNL     1       1.453  -3.646  -2.335  1.00  0.00    -0.325 N 
ATOM     40  H7  UNL     1       0.832  -3.594  -3.143  1.00  0.00     0.165 HD
BRANCH  39  41
HETATM   41  C15 UNL     1       2.680  -4.408  -2.375  1.00  0.00     0.425 C 
BRANCH  41  42
HETATM   42  N8  UNL     1       2.648  -5.440  -1.372  1.00  0.00    -0.035 N 
ATOM     43  H83 UNL     1       2.460  -5.065  -0.442  1.00  0.00     0.279 HD
ATOM     44  H82 UNL     1       1.824  -6.035  -1.461  1.00  0.00     0.279 HD
ATOM     45  H81 UNL     1       3.514  -5.978  -1.400  1.00  0.00     0.279 HD
ENDBRANCH  41  42
BRANCH  41  46
HETATM   46  O9  UNL     1       2.862  -5.005  -3.623  1.00  0.00    -0.355 OA
ATOM     47  H9  UNL     1       3.669  -5.506  -3.649  1.00  0.00     0.213 HD
ENDBRANCH  41  46
ENDBRANCH  39  41
ENDBRANCH  34  39
ENDBRANCH   4  34
BRANCH   1  48
HETATM   48  N1  UNL     1       3.547   2.064  -0.286  1.00  0.00    -0.299 N 
HETATM   49  C2  UNL     1       2.970   3.235   0.169  1.00  0.00     0.364 C 
HETATM   50  O2  UNL     1       1.791   3.398   0.482  1.00  0.00    -0.238 OA
ATOM     51  H1  UNL     1       4.543   2.093  -0.502  1.00  0.00     0.171 HD
BRANCH  49  52
HETATM   52  O1  UNL     1       3.796   4.383   0.299  1.00  0.00    -0.309 OA
HETATM   53  C1  UNL     1       3.243   5.587   0.759  1.00  0.00     0.215 C 
ENDBRANCH  49  52
ENDBRANCH   1  48
BRANCH   7  54
HETATM   54  O10 UNL     1       4.991  -0.052  -1.157  1.00  0.00    -0.344 OA
ATOM     55  H10 UNL     1       5.503  -0.791  -1.463  1.00  0.00     0.219 HD
ENDBRANCH   7  54
TORSDOF 20
