REMARK  7 active torsions:
REMARK  status: ('A' for Active; 'I' for Inactive)
REMARK    1  A    between atoms: O1_2  and  C2_3 
REMARK    2  A    between atoms: C2_3  and  N1_5 
REMARK    3  A    between atoms: C3_7  and  N2_8 
REMARK    4  A    between atoms: C3_7  and  C14_20 
REMARK    5  A    between atoms: N2_8  and  C4_10 
REMARK    6  A    between atoms: C7_13  and  C8_14 
REMARK    7  A    between atoms: C8_14  and  C9_15 
ROOT
HETATM    1  N1  UNL     1      -1.503  -1.699   0.169  1.00  0.00    -0.313 N 
ATOM      2  H1  UNL     1      -2.360  -1.791   0.714  1.00  0.00     0.170 HD
HETATM    3  C3  UNL     1      -1.230  -0.527  -0.283  1.00  0.00     0.110 C 
ENDROOT
BRANCH   3   4
HETATM    4  N2  UNL     1      -0.050  -0.376  -1.036  1.00  0.00    -0.371 N 
ATOM      5  H2  UNL     1      -0.130  -0.600  -2.028  1.00  0.00     0.161 HD
BRANCH   4   6
HETATM    6  C4  UNL     1       1.234   0.045  -0.606  1.00  0.00     0.083 C 
HETATM    7  C5  UNL     1       1.796  -0.665   0.602  1.00  0.00     0.025 C 
HETATM    8  C6  UNL     1       2.908   0.150   1.244  1.00  0.00     0.006 C 
HETATM    9  C7  UNL     1       3.779   0.861   0.289  1.00  0.00    -0.014 C 
HETATM   10  C12 UNL     1       2.954   1.774  -0.627  1.00  0.00     0.006 C 
HETATM   11  C13 UNL     1       1.466   1.504  -0.430  1.00  0.00     0.025 C 
BRANCH   9  12
HETATM   12  C8  UNL     1       4.791   0.098  -0.466  1.00  0.00     0.008 C 
BRANCH  12  13
HETATM   13  C9  UNL     1       5.855  -0.618   0.302  1.00  0.00    -0.022 C 
HETATM   14  C10 UNL     1       6.681   0.307   1.178  1.00  0.00     0.009 C 
HETATM   15  C11 UNL     1       5.452  -1.845   1.023  1.00  0.00     0.009 C 
ENDBRANCH  12  13
ENDBRANCH   9  12
ENDBRANCH   4   6
ENDBRANCH   3   4
BRANCH   3  16
HETATM   16  C14 UNL     1      -2.173   0.551  -0.017  1.00  0.00    -0.011 A 
HETATM   17  C15 UNL     1      -3.345   0.646   0.628  1.00  0.00    -0.065 A 
HETATM   18  C16 UNL     1      -4.245  -0.253   1.370  1.00  0.00     0.040 C 
HETATM   19  C22 UNL     1      -3.460   2.056   0.299  1.00  0.00     0.020 A 
HETATM   20  C17 UNL     1      -5.688   0.160   1.242  1.00  0.00    -0.010 C 
HETATM   21  C18 UNL     1      -6.103   0.328  -0.204  1.00  0.00     0.009 C 
HETATM   22  C20 UNL     1      -5.909   1.620   1.447  1.00  0.00     0.009 C 
HETATM   23  C19 UNL     1      -5.929   1.823  -0.031  1.00  0.00    -0.013 C 
HETATM   24  C21 UNL     1      -4.635   2.300  -0.621  1.00  0.00     0.014 C 
HETATM   25  C23 UNL     1      -2.141   1.992  -0.394  1.00  0.00     0.051 A 
ENDBRANCH   3  16
BRANCH   1  26
HETATM   26  C2  UNL     1      -0.742  -2.866  -0.010  1.00  0.00     0.215 C 
HETATM   27  S1  UNL     1      -0.497  -3.842   1.275  1.00  0.00    -0.033 SA
BRANCH  26  28
HETATM   28  O1  UNL     1      -0.181  -3.248  -1.218  1.00  0.00    -0.332 OA
HETATM   29  C1  UNL     1      -0.810  -4.308  -1.932  1.00  0.00     0.212 C 
ENDBRANCH  26  28
ENDBRANCH   1  26
TORSDOF 7
