REMARK  4 active torsions:
REMARK  status: ('A' for Active; 'I' for Inactive)
REMARK    1  A    between atoms: C2_2  and  C3_3 
REMARK    2  A    between atoms: C3_3  and  C4_4 
REMARK    3  A    between atoms: C4_4  and  C5_5 
REMARK    4  A    between atoms: C17_18  and  O1_19 
ROOT
HETATM    1  C5  UNL     1       2.417   0.062  -0.963  1.00  0.00    -0.013 C 
HETATM    2  C6  UNL     1       2.812  -1.183  -0.589  1.00  0.00     0.026 C 
HETATM    3  C7  UNL     1       3.969  -1.817  -0.161  1.00  0.00     0.063 C 
HETATM    4  C8  UNL     1       3.508  -3.241   0.207  1.00  0.00     0.051 C 
HETATM    5  C9  UNL     1       1.988  -3.294   0.267  1.00  0.00     0.070 C 
HETATM    6  N1  UNL     1       1.761  -2.304  -0.595  1.00  0.00    -0.333 N 
HETATM    7  C10 UNL     1       0.630  -1.977  -1.380  1.00  0.00     0.012 C 
HETATM    8  C11 UNL     1      -0.218  -2.002  -0.293  1.00  0.00    -0.001 C 
HETATM    9  C12 UNL     1      -1.637  -1.643  -0.432  1.00  0.00     0.035 C 
HETATM   10  C13 UNL     1      -1.488  -0.131  -0.960  1.00  0.00     0.006 C 
HETATM   11  C14 UNL     1      -2.604   0.544  -0.245  1.00  0.00    -0.005 C 
HETATM   12  C15 UNL     1      -3.974   0.070  -0.677  1.00  0.00     0.008 C 
HETATM   13  C16 UNL     1      -4.937   0.120   0.491  1.00  0.00     0.032 C 
HETATM   14  C17 UNL     1      -4.763   1.297   1.388  1.00  0.00     0.118 C 
HETATM   15  C18 UNL     1      -3.349   1.580   1.818  1.00  0.00     0.036 C 
HETATM   16  C19 UNL     1      -2.498   0.423   1.257  1.00  0.00    -0.008 C 
HETATM   17  C20 UNL     1      -1.113   0.404   1.764  1.00  0.00     0.006 C 
HETATM   18  C21 UNL     1       0.027   0.502   0.845  1.00  0.00     0.014 C 
HETATM   19  C22 UNL     1      -0.166   0.521  -0.621  1.00  0.00    -0.015 C 
HETATM   20  C23 UNL     1      -0.580   2.059  -0.831  1.00  0.00     0.020 C 
HETATM   21  C24 UNL     1       1.036   0.465  -1.461  1.00  0.00    -0.059 C 
HETATM   22  C25 UNL     1       0.771  -0.109  -2.866  1.00  0.00     0.042 C 
HETATM   23  C26 UNL     1       0.488  -1.603  -2.791  1.00  0.00     0.061 C 
ENDROOT
BRANCH   1  24
HETATM   24  C4  UNL     1       3.528   1.000  -0.903  1.00  0.00    -0.009 C 
BRANCH  24  25
HETATM   25  C3  UNL     1       3.655   2.028   0.124  1.00  0.00     0.054 C 
BRANCH  25  26
HETATM   26  C2  UNL     1       3.846   1.530   1.489  1.00  0.00    -0.033 C 
HETATM   27  C1  UNL     1       3.136   1.861   2.541  1.00  0.00     0.007 C 
ENDBRANCH  25  26
ENDBRANCH  24  25
ENDBRANCH   1  24
BRANCH  14  28
HETATM   28  O1  UNL     1      -5.360   2.425   0.775  1.00  0.00    -0.396 OA
ATOM     29  H1  UNL     1      -5.249   3.175   1.347  1.00  0.00     0.210 HD
ENDBRANCH  14  28
TORSDOF 4
