REMARK  4 active torsions:
REMARK  status: ('A' for Active; 'I' for Inactive)
REMARK    1  A    between atoms: O1_2  and  C2_3 
REMARK    2  A    between atoms: N1_5  and  C4_6 
REMARK    3  A    between atoms: C4_6  and  C5_7 
REMARK    4  A    between atoms: C5_7  and  C6_8 
ROOT
HETATM    1  C2  UNL     1      -2.579   0.562  -1.027  1.00  0.00     0.157 C 
HETATM    2  C3  UNL     1      -1.088   0.202  -1.009  1.00  0.00     0.305 C 
HETATM    3  N1  UNL     1      -0.449   1.076  -0.082  1.00  0.00     0.091 N 
HETATM    4  C16 UNL     1      -1.258   1.182   1.132  1.00  0.00     0.273 C 
HETATM    5  C17 UNL     1      -2.079  -0.079   1.263  1.00  0.00     0.042 C 
HETATM    6  C18 UNL     1      -3.199  -0.031   0.216  1.00  0.00    -0.008 C 
HETATM    7  C19 UNL     1      -3.639  -1.450  -0.014  1.00  0.00     0.042 C 
HETATM    8  C20 UNL     1      -5.050  -1.562  -0.492  1.00  0.00     0.272 C 
HETATM    9  N2  UNL     1      -6.013  -0.832   0.265  1.00  0.00     0.084 N 
HETATM   10  C21 UNL     1      -6.313  -1.429   1.529  1.00  0.00     0.309 C 
HETATM   11  C22 UNL     1      -5.657   0.549   0.315  1.00  0.00     0.272 C 
HETATM   12  C23 UNL     1      -4.280   0.829   0.807  1.00  0.00     0.042 C 
ENDROOT
BRANCH   3  13
HETATM   13  C4  UNL     1       0.866   0.635   0.354  1.00  0.00     0.273 C 
BRANCH  13  14
HETATM   14  C5  UNL     1       1.882   0.679  -0.726  1.00  0.00     0.039 C 
BRANCH  14  15
HETATM   15  C6  UNL     1       3.235   0.219  -0.299  1.00  0.00    -0.038 C 
HETATM   16  C7  UNL     1       3.726   1.109   0.814  1.00  0.00     0.014 C 
HETATM   17  C8  UNL     1       5.109   0.703   1.292  1.00  0.00    -0.013 C 
HETATM   18  C9  UNL     1       4.995  -0.713   1.798  1.00  0.00     0.009 C 
HETATM   19  C13 UNL     1       6.082   0.852   0.160  1.00  0.00     0.009 C 
HETATM   20  C10 UNL     1       4.619  -1.587   0.634  1.00  0.00    -0.013 C 
HETATM   21  C11 UNL     1       5.642  -1.457  -0.472  1.00  0.00     0.009 C 
HETATM   22  C15 UNL     1       3.273  -1.242   0.080  1.00  0.00     0.014 C 
HETATM   23  C12 UNL     1       5.592  -0.042  -0.978  1.00  0.00    -0.013 C 
HETATM   24  C14 UNL     1       4.232   0.374  -1.448  1.00  0.00     0.014 C 
ENDBRANCH  14  15
ENDBRANCH  13  14
ENDBRANCH   3  13
BRANCH   1  25
HETATM   25  O1  UNL     1      -3.181   0.179  -2.199  1.00  0.00    -0.388 OA
HETATM   26  C1  UNL     1      -3.639   1.334  -2.865  1.00  0.00     0.202 C 
ENDBRANCH   1  25
TORSDOF 4
