REMARK  12 active torsions:
REMARK  status: ('A' for Active; 'I' for Inactive)
REMARK    1  A    between atoms: C2_2  and  O1_3 
REMARK    2  A    between atoms: O1_3  and  C3_4 
REMARK    3  A    between atoms: C3_4  and  C4_6 
REMARK    4  A    between atoms: C6_10  and  C7_11 
REMARK    5  A    between atoms: C7_11  and  C8_12 
REMARK    6  A    between atoms: C7_11  and  N4_31 
REMARK    7  A    between atoms: C8_12  and  C9_13 
REMARK    8  A    between atoms: C9_13  and  O3_14 
REMARK    9  A    between atoms: C9_13  and  C10_16 
REMARK       I    between atoms: C10_16  and  N2_18 
REMARK   10  A    between atoms: N2_18  and  C11_20 
REMARK   11  A    between atoms: N4_31  and  C20_33 
REMARK   12  A    between atoms: C23_37  and  C24_38 
ROOT
HETATM    1  C7  UNL     1      -2.447  -1.704  -1.165  1.00  0.00     0.151 C 
ENDROOT
BRANCH   1   2
HETATM    2  C6  UNL     1      -2.146  -1.048   0.148  1.00  0.00     0.105 A 
HETATM    3  N1  UNL     1      -1.715  -1.644   1.252  1.00  0.00    -0.352 N 
HETATM    4  C5  UNL     1      -1.611  -0.736   2.262  1.00  0.00     0.125 A 
ATOM      5  H1  UNL     1      -1.494  -2.636   1.333  1.00  0.00     0.166 HD
HETATM    6  C4  UNL     1      -2.008   0.460   1.704  1.00  0.00     0.125 A 
HETATM    7  N5  UNL     1      -2.328   0.240   0.409  1.00  0.00    -0.338 N 
ATOM      8  H5  UNL     1      -2.654   0.944  -0.254  1.00  0.00     0.167 HD
BRANCH   6   9
HETATM    9  C3  UNL     1      -2.078   1.736   2.428  1.00  0.00     0.311 C 
HETATM   10  O2  UNL     1      -1.760   1.764   3.639  1.00  0.00    -0.258 OA
BRANCH   9  11
HETATM   11  O1  UNL     1      -2.480   2.906   1.828  1.00  0.00    -0.317 OA
BRANCH  11  12
HETATM   12  C2  UNL     1      -2.554   4.146   2.512  1.00  0.00     0.175 C 
HETATM   13  C1  UNL     1      -1.217   4.566   3.064  1.00  0.00     0.034 C 
ENDBRANCH  11  12
ENDBRANCH   9  11
ENDBRANCH   6   9
ENDBRANCH   1   2
BRANCH   1  14
HETATM   14  C8  UNL     1      -1.282  -2.065  -1.983  1.00  0.00     0.103 C 
BRANCH  14  15
HETATM   15  C9  UNL     1      -0.340  -0.946  -2.367  1.00  0.00     0.113 C 
BRANCH  15  16
HETATM   16  O3  UNL     1      -0.901   0.089  -3.055  1.00  0.00    -0.359 OA
ATOM     17  H3  UNL     1      -0.309   0.792  -3.296  1.00  0.00     0.217 HD
ENDBRANCH  15  16
BRANCH  15  18
HETATM   18  C10 UNL     1       0.678  -0.615  -1.375  1.00  0.00     0.271 C 
HETATM   19  O4  UNL     1       1.197  -1.524  -0.678  1.00  0.00    -0.266 OA
HETATM   20  N2  UNL     1       1.153   0.706  -1.128  1.00  0.00    -0.344 N 
ATOM     21  H2  UNL     1       0.753   1.474  -1.667  1.00  0.00     0.163 HD
BRANCH  20  22
HETATM   22  C11 UNL     1       2.174   1.010  -0.151  1.00  0.00     0.157 C 
HETATM   23  C12 UNL     1       1.763   2.067   0.847  1.00  0.00     0.035 C 
HETATM   24  C13 UNL     1       2.837   2.029   1.943  1.00  0.00     0.033 C 
HETATM   25  C14 UNL     1       3.826   3.126   1.785  1.00  0.00     0.273 C 
HETATM   26  N3  UNL     1       4.586   3.152   0.591  1.00  0.00     0.100 N 
HETATM   27  C15 UNL     1       6.016   3.393   0.871  1.00  0.00     0.273 C 
HETATM   28  C18 UNL     1       4.652   1.962  -0.181  1.00  0.00     0.294 C 
HETATM   29  C16 UNL     1       6.737   3.032  -0.399  1.00  0.00     0.033 C 
HETATM   30  C17 UNL     1       5.679   2.374  -1.256  1.00  0.00     0.045 C 
HETATM   31  C19 UNL     1       3.405   1.515  -0.804  1.00  0.00     0.182 C 
HETATM   32  O5  UNL     1       3.360   1.558  -2.011  1.00  0.00    -0.293 OA
ENDBRANCH  20  22
ENDBRANCH  15  18
ENDBRANCH  14  15
ENDBRANCH   1  14
BRANCH   1  33
HETATM   33  N4  UNL     1      -3.263  -2.831  -0.839  1.00  0.00    -0.403 N 
ATOM     34  H4  UNL     1      -3.345  -3.090   0.144  1.00  0.00     0.154 HD
BRANCH  33  35
HETATM   35  C20 UNL     1      -3.951  -3.596  -1.770  1.00  0.00     0.113 C 
HETATM   36  C21 UNL     1      -3.199  -4.451  -2.738  1.00  0.00     0.053 C 
HETATM   37  C22 UNL     1      -3.994  -5.743  -2.751  1.00  0.00     0.170 C 
HETATM   38  O6  UNL     1      -5.206  -5.450  -2.160  1.00  0.00    -0.378 OA
HETATM   39  C23 UNL     1      -4.983  -4.523  -1.184  1.00  0.00     0.208 C 
BRANCH  39  40
HETATM   40  C24 UNL     1      -4.619  -5.166   0.109  1.00  0.00     0.383 C 
HETATM   41  F1  UNL     1      -3.481  -5.930   0.048  1.00  0.00    -0.212 F 
HETATM   42  F2  UNL     1      -4.623  -4.370   1.208  1.00  0.00    -0.212 F 
ENDBRANCH  39  40
ENDBRANCH  33  35
ENDBRANCH   1  33
TORSDOF 12
