REMARK  9 active torsions:
REMARK  status: ('A' for Active; 'I' for Inactive)
REMARK    1  A    between atoms: O1_2  and  C2_3 
REMARK    2  A    between atoms: C5_6  and  C6_7 
REMARK    3  A    between atoms: C7_8  and  C8_9 
REMARK    4  A    between atoms: C11_12  and  C12_13 
REMARK    5  A    between atoms: C15_16  and  N1_17 
REMARK    6  A    between atoms: N2_26  and  C24_27 
REMARK    7  A    between atoms: C24_27  and  C25_28 
REMARK    8  A    between atoms: C25_28  and  C26_29 
REMARK    9  A    between atoms: C26_29  and  N3_30 
ROOT
HETATM    1  C6  UNL     1      -2.588  -0.698   0.398  1.00  0.00     0.266 C 
HETATM    2  C7  UNL     1      -1.591   0.303   0.621  1.00  0.00     0.085 C 
HETATM    3  C23 UNL     1      -2.255   1.125  -0.496  1.00  0.00     0.285 C 
HETATM    4  N2  UNL     1      -3.432   0.285  -0.306  1.00  0.00     0.099 N 
ENDROOT
BRANCH   2   5
HETATM    5  C8  UNL     1      -0.162   0.217   0.445  1.00  0.00    -0.049 A 
HETATM    6  C9  UNL     1       0.558   1.392   0.749  1.00  0.00     0.008 A 
HETATM    7  C10 UNL     1       1.919   1.461   0.642  1.00  0.00     0.013 A 
HETATM    8  C11 UNL     1       2.681   0.369   0.225  1.00  0.00    -0.020 A 
HETATM    9  C20 UNL     1       1.987  -0.779  -0.073  1.00  0.00    -0.050 A 
HETATM   10  C21 UNL     1       2.735  -1.989  -0.545  1.00  0.00     0.049 C 
HETATM   11  C22 UNL     1       0.595  -0.843   0.039  1.00  0.00     0.015 A 
BRANCH   8  12
HETATM   12  C12 UNL     1       4.132   0.481   0.140  1.00  0.00    -0.025 A 
HETATM   13  C13 UNL     1       4.914  -0.446   0.773  1.00  0.00     0.014 A 
HETATM   14  C14 UNL     1       6.284  -0.390   0.722  1.00  0.00     0.030 A 
HETATM   15  C15 UNL     1       6.862   0.638   0.006  1.00  0.00     0.029 A 
HETATM   16  C18 UNL     1       6.095   1.590  -0.645  1.00  0.00     0.030 A 
HETATM   17  C19 UNL     1       4.724   1.489  -0.562  1.00  0.00     0.014 A 
BRANCH  15  18
HETATM   18  N1  UNL     1       8.275   0.667  -0.024  1.00  0.00    -0.390 N 
HETATM   19  C16 UNL     1       8.978  -0.056  -1.044  1.00  0.00     0.149 C 
HETATM   20  C17 UNL     1       9.003   1.418   0.961  1.00  0.00     0.149 C 
ENDBRANCH  15  18
ENDBRANCH   8  12
ENDBRANCH   2   5
BRANCH   1  21
HETATM   21  C5  UNL     1      -2.507  -1.903  -0.381  1.00  0.00    -0.024 A 
HETATM   22  C4  UNL     1      -2.538  -3.120   0.322  1.00  0.00     0.012 A 
HETATM   23  C3  UNL     1      -2.500  -4.344  -0.302  1.00  0.00     0.037 A 
HETATM   24  C2  UNL     1      -2.428  -4.398  -1.691  1.00  0.00     0.068 A 
HETATM   25  C30 UNL     1      -2.397  -3.220  -2.401  1.00  0.00     0.037 A 
HETATM   26  C29 UNL     1      -2.437  -1.982  -1.739  1.00  0.00     0.012 A 
BRANCH  24  27
HETATM   27  O1  UNL     1      -2.385  -5.570  -2.397  1.00  0.00    -0.356 OA
HETATM   28  C1  UNL     1      -2.403  -6.869  -1.893  1.00  0.00     0.210 C 
ENDBRANCH  24  27
ENDBRANCH   1  21
BRANCH   4  29
HETATM   29  C24 UNL     1      -4.445   0.908   0.528  1.00  0.00     0.275 C 
BRANCH  29  30
HETATM   30  C25 UNL     1      -5.222   1.867  -0.344  1.00  0.00     0.060 C 
BRANCH  30  31
HETATM   31  C26 UNL     1      -6.290   2.575   0.468  1.00  0.00     0.273 C 
BRANCH  31  32
HETATM   32  N3  UNL     1      -5.703   3.344   1.575  1.00  0.00     0.080 N 
HETATM   33  C27 UNL     1      -6.858   3.912   2.289  1.00  0.00     0.309 C 
HETATM   34  C28 UNL     1      -4.943   4.475   1.104  1.00  0.00     0.309 C 
ENDBRANCH  31  32
ENDBRANCH  30  31
ENDBRANCH  29  30
ENDBRANCH   4  29
TORSDOF 9
