REMARK  4 active torsions:
REMARK  status: ('A' for Active; 'I' for Inactive)
REMARK       I    between atoms: C3_3  and  N1_5 
REMARK    1  A    between atoms: N1_5  and  C4_7 
REMARK    2  A    between atoms: C6_12  and  N2_13 
REMARK    3  A    between atoms: C7_17  and  N3_18 
REMARK    4  A    between atoms: C7_17  and  O4_22 
ROOT
HETATM    1  C1  UNL     1       5.007  -1.545   0.261  1.00  0.00     0.108 C 
HETATM    2  C2  UNL     1       4.013  -0.830   0.227  1.00  0.00    -0.088 C 
HETATM    3  C3  UNL     1       2.865   0.012   0.198  1.00  0.00     0.284 C 
HETATM    4  O1  UNL     1       2.990   1.228   0.451  1.00  0.00    -0.259 OA
HETATM    5  N1  UNL     1       1.589  -0.501  -0.111  1.00  0.00    -0.341 N 
ATOM      6  H1  UNL     1       1.513  -1.498  -0.314  1.00  0.00     0.164 HD
ENDROOT
BRANCH   5   7
HETATM    7  C4  UNL     1       0.386   0.288  -0.159  1.00  0.00     0.165 C 
HETATM    8  C5  UNL     1      -0.283   0.248  -1.525  1.00  0.00     0.173 C 
HETATM    9  S1  UNL     1      -1.873   0.987  -1.110  1.00  0.00     0.180 S 
HETATM   10  O2  UNL     1      -2.994   0.159  -1.618  1.00  0.00    -0.226 OA
HETATM   11  O3  UNL     1      -1.933   2.413  -1.523  1.00  0.00    -0.226 OA
HETATM   12  C6  UNL     1      -1.750   0.878   0.681  1.00  0.00     0.368 C 
HETATM   13  C7  UNL     1      -0.676  -0.216   0.786  1.00  0.00     0.285 C 
BRANCH  12  14
HETATM   14  N2  UNL     1      -2.947   0.343   1.254  1.00  0.00    -0.057 N 
ATOM     15  H23 UNL     1      -3.769   0.875   0.967  1.00  0.00     0.276 HD
ATOM     16  H22 UNL     1      -3.190  -0.557   0.840  1.00  0.00     0.276 HD
ATOM     17  H21 UNL     1      -2.877   0.281   2.270  1.00  0.00     0.276 HD
ENDBRANCH  12  14
BRANCH  13  18
HETATM   18  N3  UNL     1      -0.264  -0.289   2.133  1.00  0.00    -0.042 N 
ATOM     19  H33 UNL     1       0.584  -0.850   2.217  1.00  0.00     0.278 HD
ATOM     20  H32 UNL     1       0.093   0.614   2.446  1.00  0.00     0.278 HD
ATOM     21  H31 UNL     1      -0.982  -0.630   2.772  1.00  0.00     0.278 HD
ENDBRANCH  13  18
BRANCH  13  22
HETATM   22  O4  UNL     1      -1.242  -1.366   0.280  1.00  0.00    -0.361 OA
ATOM     23  H4  UNL     1      -1.911  -1.683   0.875  1.00  0.00     0.212 HD
ENDBRANCH  13  22
ENDBRANCH   5   7
TORSDOF 4
