REMARK  7 active torsions:
REMARK  status: ('A' for Active; 'I' for Inactive)
REMARK    1  A    between atoms: C2_2  and  C3_3 
REMARK       I    between atoms: C3_3  and  N1_5 
REMARK    2  A    between atoms: N1_5  and  C4_7 
REMARK    3  A    between atoms: C4_7  and  C5_8 
REMARK       I    between atoms: C5_8  and  N2_10 
REMARK    4  A    between atoms: N2_10  and  C6_12 
REMARK    5  A    between atoms: C6_12  and  C7_13 
REMARK    6  A    between atoms: C7_13  and  O3_14 
REMARK    7  A    between atoms: C17_25  and  C18_26 
ROOT
HETATM    1  C4  UNL     1       0.829   0.827  -1.353  1.00  0.00     0.114 C 
HETATM    2  C15 UNL     1       1.380  -0.066  -2.427  1.00  0.00     0.041 C 
HETATM    3  C16 UNL     1       2.778  -0.435  -1.993  1.00  0.00     0.010 C 
HETATM    4  C17 UNL     1       2.656  -0.526  -0.503  1.00  0.00     0.020 C 
HETATM    5  C23 UNL     1       1.511   0.364  -0.084  1.00  0.00     0.048 C 
ENDROOT
BRANCH   1   6
HETATM    6  N1  UNL     1       1.194   2.210  -1.545  1.00  0.00    -0.343 N 
HETATM    7  C3  UNL     1       0.898   3.220  -0.625  1.00  0.00     0.218 C 
HETATM    8  O1  UNL     1       0.296   3.069   0.461  1.00  0.00    -0.274 OA
ATOM      9  H1  UNL     1       1.694   2.464  -2.397  1.00  0.00     0.163 HD
BRANCH   7  10
HETATM   10  C2  UNL     1       1.322   4.635  -0.926  1.00  0.00     0.098 C 
HETATM   11  C1  UNL     1       0.940   5.600   0.142  1.00  0.00     0.014 C 
ENDBRANCH   7  10
ENDBRANCH   1   6
BRANCH   1  12
HETATM   12  C5  UNL     1      -0.646   0.694  -1.268  1.00  0.00     0.246 C 
HETATM   13  O2  UNL     1      -1.400   1.693  -1.378  1.00  0.00    -0.271 OA
HETATM   14  N2  UNL     1      -1.244  -0.573  -1.058  1.00  0.00    -0.348 N 
ATOM     15  H2  UNL     1      -0.620  -1.375  -0.967  1.00  0.00     0.163 HD
BRANCH  14  16
HETATM   16  C6  UNL     1      -2.665  -0.824  -0.962  1.00  0.00     0.054 C 
HETATM   17  C8  UNL     1      -2.868  -2.291  -0.845  1.00  0.00     0.033 C 
HETATM   18  C9  UNL     1      -4.028  -2.746  -0.039  1.00  0.00     0.003 C 
HETATM   19  C10 UNL     1      -3.886  -2.123   1.335  1.00  0.00     0.009 C 
HETATM   20  C11 UNL     1      -4.047  -0.652   1.172  1.00  0.00    -0.045 C 
HETATM   21  C12 UNL     1      -5.550  -0.377   1.022  1.00  0.00     0.015 C 
HETATM   22  C13 UNL     1      -3.686  -0.041   2.539  1.00  0.00     0.015 C 
HETATM   23  C14 UNL     1      -3.249   0.007   0.123  1.00  0.00     0.042 C 
BRANCH  16  24
HETATM   24  C7  UNL     1      -3.336  -0.423  -2.286  1.00  0.00     0.195 C 
BRANCH  24  25
HETATM   25  O3  UNL     1      -4.723  -0.680  -2.181  1.00  0.00    -0.398 OA
ATOM     26  H3  UNL     1      -5.138  -0.432  -2.999  1.00  0.00     0.209 HD
ENDBRANCH  24  25
ENDBRANCH  16  24
ENDBRANCH  14  16
ENDBRANCH   1  12
BRANCH   4  27
HETATM   27  C18 UNL     1       3.971  -0.058   0.096  1.00  0.00     0.149 C 
HETATM   28  C19 UNL     1       5.125  -0.903  -0.358  1.00  0.00     0.200 C 
HETATM   29  O4  UNL     1       6.120  -0.840   0.625  1.00  0.00    -0.386 OA
HETATM   30  C20 UNL     1       5.734  -1.550   1.755  1.00  0.00     0.199 C 
HETATM   31  C21 UNL     1       4.234  -1.435   1.879  1.00  0.00     0.141 C 
HETATM   32  C22 UNL     1       3.759  -1.602   3.303  1.00  0.00     0.042 C 
HETATM   33  O5  UNL     1       3.871  -0.152   1.471  1.00  0.00    -0.376 OA
ENDBRANCH   4  27
TORSDOF 7
