REMARK  6 active torsions:
REMARK  status: ('A' for Active; 'I' for Inactive)
REMARK       I    between atoms: C1_2  and  N1_3 
REMARK    1  A    between atoms: C1_2  and  C5_7 
REMARK    2  A    between atoms: C5_7  and  C6_8 
REMARK    3  A    between atoms: C6_8  and  C7_9 
REMARK    4  A    between atoms: C7_9  and  C8_10 
REMARK    5  A    between atoms: C8_10  and  O2_11 
REMARK    6  A    between atoms: C17_21  and  O3_22 
ROOT
HETATM    1  C5  UNL     1      -0.431  -0.100   0.078  1.00  0.00     0.045 C 
HETATM    2  C9  UNL     1       0.068   1.010   1.025  1.00  0.00     0.020 C 
HETATM    3  C10 UNL     1       1.277   0.367   1.642  1.00  0.00     0.007 C 
HETATM    4  C11 UNL     1       1.884  -0.533   0.649  1.00  0.00     0.002 C 
HETATM    5  C12 UNL     1       0.798  -0.760  -0.413  1.00  0.00     0.009 C 
HETATM    6  C13 UNL     1       1.643   0.038  -1.384  1.00  0.00     0.018 C 
HETATM    7  C14 UNL     1       2.766  -0.024  -0.397  1.00  0.00    -0.010 C 
HETATM    8  C15 UNL     1       3.969  -0.810  -0.794  1.00  0.00     0.015 C 
HETATM    9  C16 UNL     1       4.644   0.527  -1.123  1.00  0.00     0.033 C 
HETATM   10  C17 UNL     1       3.594   1.172  -0.206  1.00  0.00     0.127 C 
ENDROOT
BRANCH   1  11
HETATM   11  C1  UNL     1      -1.272   0.483  -0.993  1.00  0.00     0.229 C 
HETATM   12  O1  UNL     1      -0.927   0.400  -2.224  1.00  0.00    -0.272 OA
HETATM   13  N1  UNL     1      -2.471   1.144  -0.701  1.00  0.00    -0.351 N 
HETATM   14  C2  UNL     1      -3.476   1.804  -1.565  1.00  0.00     0.127 C 
HETATM   15  C4  UNL     1      -3.335   1.529   0.403  1.00  0.00     0.127 C 
HETATM   16  C3  UNL     1      -3.717   2.759  -0.434  1.00  0.00     0.040 C 
ENDBRANCH   1  11
BRANCH   1  17
HETATM   17  C6  UNL     1      -1.272  -1.071   0.858  1.00  0.00     0.022 C 
BRANCH  17  18
HETATM   18  C7  UNL     1      -1.783  -2.142  -0.053  1.00  0.00     0.027 C 
BRANCH  18  19
HETATM   19  C8  UNL     1      -2.658  -3.124   0.751  1.00  0.00     0.164 C 
BRANCH  19  20
HETATM   20  O2  UNL     1      -1.830  -3.649   1.731  1.00  0.00    -0.401 OA
ATOM     21  H2  UNL     1      -2.369  -4.254   2.226  1.00  0.00     0.209 HD
ENDBRANCH  19  20
ENDBRANCH  18  19
ENDBRANCH  17  18
ENDBRANCH   1  17
BRANCH  10  22
HETATM   22  O3  UNL     1       4.164   1.399   1.029  1.00  0.00    -0.395 OA
ATOM     23  H3  UNL     1       4.700   2.173   1.153  1.00  0.00     0.210 HD
ENDBRANCH  10  22
TORSDOF 6
