REMARK  6 active torsions:
REMARK  status: ('A' for Active; 'I' for Inactive)
REMARK    1  A    between atoms: C2_4  and  C3_5 
REMARK    2  A    between atoms: C2_4  and  N3_16 
REMARK    3  A    between atoms: C3_5  and  N2_6 
REMARK    4  A    between atoms: N2_6  and  C4_9 
REMARK    5  A    between atoms: C12_19  and  O1_20 
REMARK    6  A    between atoms: C12_19  and  C13_22 
ROOT
HETATM    1  C1  UNL     1       1.367   2.898   1.030  1.00  0.00     0.147 C 
HETATM    2  N1  UNL     1       0.378   1.917   0.857  1.00  0.00    -0.383 N 
ATOM      3  H1  UNL     1      -0.557   2.253   1.086  1.00  0.00     0.160 HD
HETATM    4  C2  UNL     1       0.388   0.718   0.483  1.00  0.00     0.100 C 
ENDROOT
BRANCH   4   5
HETATM    5  C3  UNL     1      -0.892  -0.078   0.409  1.00  0.00     0.308 C 
BRANCH   5   6
HETATM    6  N2  UNL     1      -1.897   0.757  -0.161  1.00  0.00    -0.060 N 
ATOM      7  H22 UNL     1      -1.869   1.690   0.250  1.00  0.00     0.278 HD
ATOM      8  H21 UNL     1      -1.668   0.991  -1.127  1.00  0.00     0.278 HD
BRANCH   6   9
HETATM    9  C4  UNL     1      -3.220   0.198  -0.070  1.00  0.00     0.125 C 
HETATM   10  C5  UNL     1      -3.607   0.156   1.391  1.00  0.00     0.046 C 
HETATM   11  C6  UNL     1      -3.292  -1.221  -0.588  1.00  0.00     0.041 C 
HETATM   12  C7  UNL     1      -4.807  -1.413  -0.757  1.00  0.00     0.040 C 
HETATM   13  C8  UNL     1      -5.314  -0.054  -1.199  1.00  0.00     0.172 C 
HETATM   14  F1  UNL     1      -6.509   0.264  -0.588  1.00  0.00    -0.249 F 
HETATM   15  C9  UNL     1      -4.207   0.931  -0.892  1.00  0.00     0.075 C 
ENDBRANCH   6   9
ENDBRANCH   5   6
ENDBRANCH   4   5
BRANCH   4  16
HETATM   16  N3  UNL     1       1.581   0.054   0.141  1.00  0.00    -0.369 N 
HETATM   17  C10 UNL     1       2.171  -0.812   1.136  1.00  0.00     0.127 C 
HETATM   18  C11 UNL     1       3.383  -1.535   0.617  1.00  0.00     0.059 C 
HETATM   19  C12 UNL     1       4.262  -0.525  -0.076  1.00  0.00     0.073 C 
HETATM   20  C14 UNL     1       3.570  -0.106  -1.325  1.00  0.00     0.059 C 
HETATM   21  C15 UNL     1       2.131   0.251  -1.171  1.00  0.00     0.127 C 
BRANCH  19  22
HETATM   22  O1  UNL     1       4.541   0.528   0.798  1.00  0.00    -0.389 OA
ATOM     23  H1  UNL     1       5.095   1.164   0.361  1.00  0.00     0.210 HD
ENDBRANCH  19  22
BRANCH  19  24
HETATM   24  C13 UNL     1       5.596  -1.139  -0.433  1.00  0.00     0.152 C 
HETATM   25 CL1  UNL     1       6.451  -1.703   1.011  1.00  0.00    -0.127 Cl
ENDBRANCH  19  24
ENDBRANCH   4  16
TORSDOF 6
