REMARK  19 active torsions:
REMARK  status: ('A' for Active; 'I' for Inactive)
REMARK    1  A    between atoms: N1_2  and  C2_5 
REMARK    2  A    between atoms: C2_5  and  C3_6 
REMARK    3  A    between atoms: C3_6  and  C4_7 
REMARK    4  A    between atoms: C4_7  and  C5_8 
REMARK    5  A    between atoms: C5_8  and  N2_9 
REMARK    6  A    between atoms: N2_9  and  C6_11 
REMARK    7  A    between atoms: C7_12  and  N3_13 
REMARK    8  A    between atoms: N3_13  and  N4_14 
REMARK    9  A    between atoms: C8_20  and  O1_21 
REMARK   10  A    between atoms: O1_21  and  C9_22 
REMARK   11  A    between atoms: C10_24  and  C11_25 
REMARK   12  A    between atoms: C11_25  and  N6_26 
REMARK   13  A    between atoms: N6_26  and  C12_28 
REMARK   14  A    between atoms: C12_28  and  O3_29 
REMARK   15  A    between atoms: C12_28  and  C13_31 
REMARK   16  A    between atoms: C13_31  and  N7_32 
REMARK   17  A    between atoms: C14_36  and  O4_37 
REMARK   18  A    between atoms: C15_39  and  N8_40 
REMARK   19  A    between atoms: C16_44  and  O5_45 
ROOT
HETATM    1  C9  UNL     1      -1.056  -0.935   0.284  1.00  0.00     0.294 C 
HETATM    2  O2  UNL     1      -1.578   0.306   0.193  1.00  0.00    -0.349 OA
HETATM    3  C10 UNL     1      -2.754   0.427  -0.531  1.00  0.00     0.173 C 
HETATM    4  C14 UNL     1      -3.554  -0.842  -0.486  1.00  0.00     0.181 C 
HETATM    5  C15 UNL     1      -2.748  -1.779  -1.407  1.00  0.00     0.247 C 
HETATM    6  C16 UNL     1      -1.434  -1.980  -0.694  1.00  0.00     0.206 C 
ENDROOT
BRANCH   1   7
HETATM    7  O1  UNL     1       0.343  -0.772   0.380  1.00  0.00    -0.324 OA
BRANCH   7   8
HETATM    8  C8  UNL     1       0.882  -1.200   1.533  1.00  0.00     0.351 C 
HETATM    9  C6  UNL     1       2.152  -2.007   1.470  1.00  0.00     0.182 C 
HETATM   10  C7  UNL     1       2.317  -1.410   2.890  1.00  0.00     0.326 C 
HETATM   11  N5  UNL     1       1.670  -0.214   2.304  1.00  0.00    -0.025 N 
ATOM     12  H52 UNL     1       1.235   0.510   2.876  1.00  0.00     0.282 HD
ATOM     13  H51 UNL     1       2.201   0.534   1.857  1.00  0.00     0.282 HD
BRANCH   9  14
HETATM   14  N2  UNL     1       3.233  -1.565   0.681  1.00  0.00    -0.410 N 
ATOM     15  H2  UNL     1       4.148  -1.407   1.104  1.00  0.00     0.153 HD
BRANCH  14  16
HETATM   16  C5  UNL     1       3.039  -1.342  -0.701  1.00  0.00     0.114 C 
BRANCH  16  17
HETATM   17  C4  UNL     1       4.319  -0.944  -1.413  1.00  0.00     0.021 C 
BRANCH  17  18
HETATM   18  C3  UNL     1       4.905   0.335  -0.897  1.00  0.00     0.029 C 
BRANCH  18  19
HETATM   19  C2  UNL     1       6.186   0.643  -1.653  1.00  0.00     0.231 C 
BRANCH  19  20
HETATM   20  N1  UNL     1       6.762   1.853  -1.176  1.00  0.00    -0.079 N 
HETATM   21  C1  UNL     1       5.950   2.974  -1.527  1.00  0.00     0.266 C 
ATOM     22  H12 UNL     1       7.723   1.967  -1.499  1.00  0.00     0.276 HD
ATOM     23  H11 UNL     1       6.941   1.816  -0.172  1.00  0.00     0.276 HD
ENDBRANCH  19  20
ENDBRANCH  18  19
ENDBRANCH  17  18
ENDBRANCH  16  17
ENDBRANCH  14  16
ENDBRANCH   9  14
BRANCH  10  24
HETATM   24  N3  UNL     1       3.660  -1.233   3.320  1.00  0.00    -0.112 NA
BRANCH  24  25
HETATM   25  N4  UNL     1       4.313  -2.448   3.370  1.00  0.00    -0.346 N 
ATOM     26  H42 UNL     1       3.879  -3.339   3.129  1.00  0.00     0.172 HD
ATOM     27  H41 UNL     1       5.277  -2.321   3.679  1.00  0.00     0.172 HD
ENDBRANCH  24  25
ENDBRANCH  10  24
ENDBRANCH   7   8
ENDBRANCH   1   7
BRANCH   6  28
HETATM   28  O5  UNL     1      -1.555  -3.256  -0.075  1.00  0.00    -0.388 OA
ATOM     29  H5  UNL     1      -1.798  -3.927  -0.703  1.00  0.00     0.210 HD
ENDBRANCH   6  28
BRANCH   3  30
HETATM   30  C11 UNL     1      -3.559   1.655  -0.207  1.00  0.00     0.151 C 
BRANCH  30  31
HETATM   31  N6  UNL     1      -4.719   1.663  -1.073  1.00  0.00    -0.393 N 
ATOM     32  H6  UNL     1      -4.903   0.906  -1.731  1.00  0.00     0.155 HD
BRANCH  31  33
HETATM   33  C12 UNL     1      -5.582   2.776  -0.957  1.00  0.00     0.239 C 
BRANCH  33  34
HETATM   34  O3  UNL     1      -6.615   2.599  -1.902  1.00  0.00    -0.376 OA
ATOM     35  H3  UNL     1      -7.195   3.347  -1.824  1.00  0.00     0.212 HD
ENDBRANCH  33  34
BRANCH  33  36
HETATM   36  C13 UNL     1      -6.272   2.940   0.376  1.00  0.00     0.282 C 
BRANCH  36  37
HETATM   37  N7  UNL     1      -7.126   4.121   0.260  1.00  0.00    -0.075 N 
ATOM     38  H73 UNL     1      -6.622   4.956  -0.039  1.00  0.00     0.274 HD
ATOM     39  H72 UNL     1      -7.774   4.075  -0.527  1.00  0.00     0.274 HD
ATOM     40  H71 UNL     1      -7.592   4.232   1.160  1.00  0.00     0.274 HD
ENDBRANCH  36  37
ENDBRANCH  33  36
ENDBRANCH  31  33
ENDBRANCH  30  31
ENDBRANCH   3  30
BRANCH   5  41
HETATM   41  N8  UNL     1      -3.471  -3.002  -1.583  1.00  0.00    -0.070 N 
ATOM     42  H83 UNL     1      -3.709  -3.443  -0.694  1.00  0.00     0.274 HD
ATOM     43  H82 UNL     1      -4.419  -2.846  -1.924  1.00  0.00     0.274 HD
ATOM     44  H81 UNL     1      -2.938  -3.622  -2.192  1.00  0.00     0.274 HD
ENDBRANCH   5  41
BRANCH   4  45
HETATM   45  O4  UNL     1      -4.811  -0.704  -1.004  1.00  0.00    -0.391 OA
ATOM     46  H4  UNL     1      -5.317  -1.507  -0.976  1.00  0.00     0.210 HD
ENDBRANCH   4  45
TORSDOF 19
