REMARK  4 active torsions:
REMARK  status: ('A' for Active; 'I' for Inactive)
REMARK    1  A    between atoms: C4_7  and  N3_8 
REMARK    2  A    between atoms: N3_8  and  C5_10 
REMARK    3  A    between atoms: C8_19  and  N7_20 
REMARK    4  A    between atoms: N7_20  and  C9_22 
ROOT
HETATM    1  N1  UNL     1      -2.010  -2.277  -2.010  1.00  0.00    -0.191 NA
HETATM    2  C1  UNL     1      -1.230  -1.625  -1.451  1.00  0.00     0.104 C 
HETATM    3  C2  UNL     1      -0.239  -0.843  -0.777  1.00  0.00     0.105 A 
HETATM    4  C3  UNL     1       1.115  -1.198  -0.953  1.00  0.00     0.132 A 
HETATM    5  N2  UNL     1       2.056  -0.474  -0.327  1.00  0.00    -0.200 N 
ATOM      6  H2  UNL     1       3.038  -0.722  -0.448  1.00  0.00     0.183 HD
HETATM    7  C4  UNL     1       1.734   0.570   0.455  1.00  0.00     0.685 A 
HETATM    8  N6  UNL     1       0.458   0.887   0.607  1.00  0.00    -0.175 N 
ATOM      9  H6  UNL     1       0.232   1.683   1.204  1.00  0.00     0.186 HD
HETATM   10  C8  UNL     1      -0.586   0.212   0.012  1.00  0.00     0.143 A 
ENDROOT
BRANCH  10  11
HETATM   11  N7  UNL     1      -1.730   0.586   0.218  1.00  0.00    -0.341 N 
ATOM     12  H7  UNL     1      -1.686   1.391   0.842  1.00  0.00     0.167 HD
BRANCH  11  13
HETATM   13  C9  UNL     1      -3.040   0.349  -0.059  1.00  0.00     0.033 A 
HETATM   14  C10 UNL     1      -3.693   0.934  -1.130  1.00  0.00     0.029 A 
HETATM   15  C11 UNL     1      -5.015   0.686  -1.369  1.00  0.00     0.002 A 
HETATM   16  C12 UNL     1      -5.760  -0.153  -0.562  1.00  0.00     0.000 A 
HETATM   17  C13 UNL     1      -5.087  -0.726   0.502  1.00  0.00     0.002 A 
HETATM   18  C14 UNL     1      -3.766  -0.488   0.754  1.00  0.00     0.029 A 
ENDBRANCH  11  13
ENDBRANCH  10  11
BRANCH   7  19
HETATM   19  N3  UNL     1       2.698   1.239   1.040  1.00  0.00    -0.175 N 
ATOM     20  H3  UNL     1       2.454   2.032   1.634  1.00  0.00     0.186 HD
BRANCH  19  21
HETATM   21  C5  UNL     1       4.048   0.908   0.882  1.00  0.00     0.136 A 
HETATM   22  C6  UNL     1       4.769  -0.099   1.521  1.00  0.00     0.069 A 
HETATM   23  C7  UNL     1       6.047   0.003   1.007  1.00  0.00     0.111 A 
HETATM   24  N4  UNL     1       6.058   1.017   0.119  1.00  0.00    -0.310 N 
HETATM   25  N5  UNL     1       4.880   1.566   0.032  1.00  0.00    -0.285 N 
ATOM     26  H4  UNL     1       6.877   1.314  -0.412  1.00  0.00     0.186 HD
ATOM     27  H5  UNL     1       4.627   2.351  -0.568  1.00  0.00     0.188 HD
ENDBRANCH  19  21
ENDBRANCH   7  19
TORSDOF 4
