REMARK  2 active torsions:
REMARK  status: ('A' for Active; 'I' for Inactive)
REMARK       I    between atoms: N1_2  and  C2_4 
REMARK       I    between atoms: C2_4  and  N3_8 
REMARK       I    between atoms: C3_10  and  N4_11 
REMARK       I    between atoms: C3_10  and  N5_18 
REMARK    1  A    between atoms: N4_11  and  C4_13 
REMARK    2  A    between atoms: C4_13  and  C6_15 
ROOT
HETATM    1  C1  UNL     1      -4.075  -1.839   0.488  1.00  0.00     0.165 C 
HETATM    2  N1  UNL     1      -2.794  -2.100   1.078  1.00  0.00    -0.230 N 
ATOM      3  H1  UNL     1      -2.487  -3.070   1.142  1.00  0.00     0.177 HD
HETATM    4  C2  UNL     1      -1.924  -1.091   1.580  1.00  0.00     0.685 C 
HETATM    5  N2  UNL     1      -2.443  -0.230   2.391  1.00  0.00    -0.234 N 
ATOM      6  H21 UNL     1      -1.820   0.493   2.751  1.00  0.00     0.174 HD
ATOM      7  H22 UNL     1      -3.424  -0.258   2.667  1.00  0.00     0.174 HD
HETATM    8  N3  UNL     1      -0.578  -1.053   1.201  1.00  0.00    -0.023 N 
ATOM      9  H3  UNL     1       0.061  -1.703   1.660  1.00  0.00     0.203 HD
HETATM   10  C3  UNL     1      -0.085  -0.256   0.313  1.00  0.00     0.691 C 
HETATM   11  N4  UNL     1      -0.956   0.674  -0.355  1.00  0.00    -0.211 N 
ATOM     12  H4  UNL     1      -1.842   0.333  -0.727  1.00  0.00     0.178 HD
HETATM   13  N5  UNL     1       1.292  -0.264  -0.031  1.00  0.00    -0.217 N 
HETATM   14  C7  UNL     1       2.366  -0.129   0.911  1.00  0.00     0.141 C 
HETATM   15  C8  UNL     1       3.575  -0.865   0.361  1.00  0.00     0.020 C 
HETATM   16  C9  UNL     1       3.163  -2.113  -0.389  1.00  0.00     0.003 C 
HETATM   17  C10 UNL     1       2.402  -1.687  -1.616  1.00  0.00     0.020 C 
HETATM   18  C11 UNL     1       1.631  -0.418  -1.434  1.00  0.00     0.141 C 
ENDROOT
BRANCH  11  19
HETATM   19  C4  UNL     1      -0.631   2.059  -0.520  1.00  0.00     0.196 C 
HETATM   20  C5  UNL     1      -0.453   2.657   0.858  1.00  0.00     0.044 C 
BRANCH  19  21
HETATM   21  C6  UNL     1      -1.778   2.759  -1.147  1.00  0.00     0.196 C 
HETATM   22  O1  UNL     1      -2.853   2.169  -1.466  1.00  0.00    -0.646 OA
HETATM   23  O2  UNL     1      -1.686   4.113  -1.403  1.00  0.00    -0.646 OA
ENDBRANCH  19  21
ENDBRANCH  11  19
TORSDOF 2
