REMARK  0 active torsions:
REMARK  status: ('A' for Active; 'I' for Inactive)
REMARK       I    between atoms: C1_4  and  N3_6 
ROOT
HETATM    1  N1  UNL     1      -2.971  -0.369  -1.620  1.00  0.00    -0.372 N 
ATOM      2  H11 UNL     1      -2.090  -0.251  -2.120  1.00  0.00     0.158 HD
ATOM      3  H12 UNL     1      -3.866  -0.335  -2.108  1.00  0.00     0.158 HD
HETATM    4  C1  UNL     1      -2.914  -0.537  -0.344  1.00  0.00     0.204 C 
HETATM    5  N2  UNL     1      -4.140  -0.701   0.351  1.00  0.00    -0.062 NA
HETATM    6  N3  UNL     1      -1.710  -0.583   0.312  1.00  0.00    -0.248 N 
HETATM    7  C2  UNL     1      -1.626  -1.861   1.167  1.00  0.00     0.237 C 
HETATM    8  C3  UNL     1      -0.241  -2.096   1.189  1.00  0.00    -0.133 C 
HETATM    9  C4  UNL     1       0.753  -1.992   1.023  1.00  0.00     0.065 C 
HETATM   10  C5  UNL     1       1.915  -1.425   0.530  1.00  0.00    -0.016 A 
HETATM   11  C6  UNL     1       3.032  -2.017   0.457  1.00  0.00     0.013 A 
HETATM   12  C7  UNL     1       4.094  -1.400  -0.247  1.00  0.00     0.001 A 
HETATM   13  C8  UNL     1       3.873  -0.178  -0.829  1.00  0.00     0.001 A 
HETATM   14  C9  UNL     1       2.638   0.514  -0.768  1.00  0.00     0.014 A 
HETATM   15  C10 UNL     1       1.685  -0.089  -0.102  1.00  0.00     0.003 A 
HETATM   16  C11 UNL     1       0.484   0.749  -0.039  1.00  0.00     0.067 A 
HETATM   17  C12 UNL     1       1.026   2.007  -0.190  1.00  0.00     0.032 A 
HETATM   18  C13 UNL     1       0.163   3.072  -0.225  1.00  0.00     0.004 A 
HETATM   19  C14 UNL     1      -1.207   2.811  -0.101  1.00  0.00     0.019 A 
HETATM   20  C15 UNL     1      -1.692   1.559   0.051  1.00  0.00     0.117 A 
HETATM   21  N4  UNL     1      -0.854   0.478   0.089  1.00  0.00    -0.262 N 
ENDROOT
TORSDOF 0
