REMARK  3 active torsions:
REMARK  status: ('A' for Active; 'I' for Inactive)
REMARK    1  A    between atoms: C2_2  and  C3_3 
REMARK    2  A    between atoms: C3_3  and  N1_4 
REMARK    3  A    between atoms: C3_3  and  C4_8 
ROOT
HETATM    1  C4  UNL     1       0.087  -0.049   0.425  1.00  0.00     0.216 C 
HETATM    2  C5  UNL     1       1.064  -1.225   0.269  1.00  0.00     0.036 C 
HETATM    3  C6  UNL     1       2.418  -0.608   0.503  1.00  0.00     0.024 C 
HETATM    4  C7  UNL     1       2.666   0.524  -0.431  1.00  0.00     0.108 C 
HETATM    5 CL1  UNL     1       3.347  -0.155  -1.940  1.00  0.00    -0.123 Cl
HETATM    6  C8  UNL     1       1.510   1.395  -0.727  1.00  0.00     0.253 C 
HETATM    7  N2  UNL     1       0.229   0.745  -0.738  1.00  0.00    -0.068 N 
ATOM      8  H21 UNL     1      -0.538   1.409  -0.846  1.00  0.00     0.277 HD
ATOM      9  H22 UNL     1       0.079   0.207  -1.591  1.00  0.00     0.277 HD
ENDROOT
BRANCH   1  10
HETATM   10  C3  UNL     1      -1.267  -0.639   0.646  1.00  0.00     0.213 C 
BRANCH  10  11
HETATM   11  C2  UNL     1      -2.337   0.406   0.817  1.00  0.00     0.030 C 
HETATM   12  C1  UNL     1      -2.604   1.148  -0.470  1.00  0.00     0.007 C 
ENDBRANCH  10  11
BRANCH  10  13
HETATM   13  N1  UNL     1      -1.630  -1.631  -0.348  1.00  0.00    -0.073 N 
ATOM     14  H13 UNL     1      -2.532  -2.056  -0.134  1.00  0.00     0.274 HD
ATOM     15  H12 UNL     1      -1.866  -1.193  -1.239  1.00  0.00     0.274 HD
ATOM     16  H11 UNL     1      -0.905  -2.339  -0.464  1.00  0.00     0.274 HD
ENDBRANCH  10  13
ENDBRANCH   1  10
TORSDOF 3
