REMARK  10 active torsions:
REMARK  status: ('A' for Active; 'I' for Inactive)
REMARK    1  A    between atoms: C2_2  and  C4_12 
REMARK    2  A    between atoms: N1_3  and  N2_5 
REMARK       I    between atoms: N2_5  and  C3_7 
REMARK    3  A    between atoms: C4_12  and  O2_14 
REMARK    4  A    between atoms: O2_14  and  C5_15 
REMARK    5  A    between atoms: C5_15  and  C7_17 
REMARK    6  A    between atoms: C7_17  and  N7_25 
REMARK    7  A    between atoms: N5_18  and  O3_20 
REMARK    8  A    between atoms: O3_20  and  N6_21 
REMARK    9  A    between atoms: N6_21  and  O4_23 
REMARK   10  A    between atoms: N7_25  and  C8_27 
ROOT
HETATM    1  C7  UNL     1       0.767   0.596   1.028  1.00  0.00     0.129 C 
HETATM    2  N5  UNL     1       0.842   1.791   0.563  1.00  0.00    -0.225 N 
ATOM      3  H5  UNL     1       1.745   2.104   0.206  1.00  0.00     0.198 HD
ENDROOT
BRANCH   1   4
HETATM    4  C5  UNL     1       1.942  -0.310   1.055  1.00  0.00     0.197 C 
HETATM    5  C6  UNL     1       1.775  -1.549   0.234  1.00  0.00     0.048 C 
BRANCH   4   6
HETATM    6  O2  UNL     1       3.050   0.455   0.602  1.00  0.00    -0.304 OA
BRANCH   6   7
HETATM    7  C4  UNL     1       4.128   0.670   1.413  1.00  0.00     0.307 C 
HETATM    8  O1  UNL     1       4.144   0.191   2.571  1.00  0.00    -0.258 OA
BRANCH   7   9
HETATM    9  C2  UNL     1       5.264   1.448   0.959  1.00  0.00     0.097 C 
HETATM   10  C1  UNL     1       6.405   1.646   1.910  1.00  0.00     0.076 C 
HETATM   11  N1  UNL     1       5.270   1.943  -0.218  1.00  0.00    -0.297 N 
ATOM     12  H1  UNL     1       6.082   2.488  -0.507  1.00  0.00     0.187 HD
BRANCH  11  13
HETATM   13  N2  UNL     1       4.229   1.780  -1.129  1.00  0.00    -0.274 N 
HETATM   14  C3  UNL     1       4.292   0.840  -2.197  1.00  0.00     0.200 C 
HETATM   15  N3  UNL     1       3.497   0.972  -3.186  1.00  0.00    -0.372 N 
HETATM   16  N4  UNL     1       5.225  -0.236  -2.173  1.00  0.00    -0.062 NA
ATOM     17  H32 UNL     1       2.829   1.743  -3.203  1.00  0.00     0.158 HD
ATOM     18  H31 UNL     1       3.542   0.299  -3.951  1.00  0.00     0.158 HD
ATOM     19  H2  UNL     1       3.392   2.354  -1.028  1.00  0.00     0.189 HD
ENDBRANCH  11  13
ENDBRANCH   7   9
ENDBRANCH   6   7
ENDBRANCH   4   6
ENDBRANCH   1   4
BRANCH   1  20
HETATM   20  N7  UNL     1      -0.470   0.145   1.537  1.00  0.00    -0.371 N 
ATOM     21  H7  UNL     1      -0.750   0.445   2.471  1.00  0.00     0.161 HD
BRANCH  20  22
HETATM   22  C8  UNL     1      -1.349  -0.712   0.806  1.00  0.00     0.087 C 
HETATM   23  C9  UNL     1      -1.765  -0.017  -0.465  1.00  0.00     0.031 C 
HETATM   24  C10 UNL     1      -2.710  -0.876  -1.281  1.00  0.00     0.060 C 
HETATM   25  C11 UNL     1      -3.934  -1.050  -0.448  1.00  0.00     0.027 A 
HETATM   26  C12 UNL     1      -3.795  -1.121   0.899  1.00  0.00     0.035 A 
HETATM   27  N9  UNL     1      -5.127  -1.127  -1.098  1.00  0.00    -0.307 N 
HETATM   28  C13 UNL     1      -4.952  -1.284   1.667  1.00  0.00     0.257 A 
HETATM   29  C16 UNL     1      -2.541  -1.043   1.677  1.00  0.00     0.071 C 
HETATM   30  O5  UNL     1      -4.922  -1.361   2.920  1.00  0.00    -0.267 OA
HETATM   31  N8  UNL     1      -6.125  -1.360   1.018  1.00  0.00    -0.275 N 
HETATM   32  C14 UNL     1      -6.217  -1.284  -0.332  1.00  0.00     0.329 A 
ATOM     33  H8  UNL     1      -6.980  -1.480   1.562  1.00  0.00     0.173 HD
HETATM   34  O6  UNL     1      -7.329  -1.356  -0.922  1.00  0.00    -0.246 OA
HETATM   35  C15 UNL     1      -5.153  -1.040  -2.531  1.00  0.00     0.161 C 
ENDBRANCH  20  22
ENDBRANCH   1  20
BRANCH   2  36
HETATM   36  O3  UNL     1      -0.198   2.673   0.511  1.00  0.00    -0.134 OA
BRANCH  36  37
HETATM   37  N6  UNL     1      -0.211   3.703  -0.424  1.00  0.00    -0.149 N 
ATOM     38  H6  UNL     1       0.636   3.917  -0.950  1.00  0.00     0.226 HD
BRANCH  37  39
HETATM   39  O4  UNL     1      -1.235   4.360  -0.624  1.00  0.00    -0.268 OA
ATOM     40  H4  UNL     1      -1.244   5.063  -1.263  1.00  0.00     0.246 HD
ENDBRANCH  37  39
ENDBRANCH  36  37
ENDBRANCH   2  36
TORSDOF 10
