REMARK  5 active torsions:
REMARK  status: ('A' for Active; 'I' for Inactive)
REMARK    1  A    between atoms: C5_5  and  C6_6 
REMARK    2  A    between atoms: C6_6  and  N2_11 
REMARK    3  A    between atoms: N1_7  and  O1_9 
REMARK    4  A    between atoms: N2_11  and  N3_13 
REMARK    5  A    between atoms: C7_15  and  C8_16 
ROOT
HETATM    1  C6  UNL     1      -0.581  -0.313   0.244  1.00  0.00     0.174 C 
HETATM    2  N1  UNL     1      -0.151   0.698   0.898  1.00  0.00    -0.249 N 
ATOM      3  H1  UNL     1       0.851   0.846   1.019  1.00  0.00     0.196 HD
ENDROOT
BRANCH   1   4
HETATM    4  C5  UNL     1      -2.015  -0.491   0.091  1.00  0.00     0.122 A 
HETATM    5  C4  UNL     1      -2.729  -1.674  -0.036  1.00  0.00     0.043 A 
HETATM    6  C3  UNL     1      -4.054  -1.306  -0.152  1.00  0.00     0.035 A 
HETATM    7  C2  UNL     1      -4.099   0.068  -0.094  1.00  0.00     0.050 A 
HETATM    8  C1  UNL     1      -5.358   0.877  -0.183  1.00  0.00     0.076 C 
HETATM    9  O3  UNL     1      -2.887   0.495   0.048  1.00  0.00    -0.312 OA
ENDBRANCH   1   4
BRANCH   1  10
HETATM   10  N2  UNL     1       0.375  -1.205  -0.297  1.00  0.00    -0.282 N 
ATOM     11  H2  UNL     1       0.124  -2.181  -0.452  1.00  0.00     0.188 HD
BRANCH  10  12
HETATM   12  N3  UNL     1       1.646  -0.766  -0.617  1.00  0.00    -0.307 N 
HETATM   13  C7  UNL     1       2.499  -0.333   0.248  1.00  0.00     0.144 C 
ATOM     14  H3  UNL     1       1.927  -0.786  -1.597  1.00  0.00     0.186 HD
BRANCH  13  15
HETATM   15  C8  UNL     1       3.811   0.100  -0.250  1.00  0.00     0.091 A 
HETATM   16  C9  UNL     1       4.850   0.593   0.542  1.00  0.00     0.040 A 
HETATM   17  C10 UNL     1       5.907   0.888  -0.277  1.00  0.00     0.027 A 
HETATM   18  C11 UNL     1       5.471   0.559  -1.559  1.00  0.00     0.142 A 
HETATM   19  O2  UNL     1       4.246   0.107  -1.478  1.00  0.00    -0.321 OA
ENDBRANCH  13  15
ENDBRANCH  10  12
ENDBRANCH   1  10
BRANCH   2  20
HETATM   20  O1  UNL     1      -1.051   1.578   1.433  1.00  0.00    -0.288 OA
ATOM     21  H1  UNL     1      -0.732   2.329   1.919  1.00  0.00     0.244 HD
ENDBRANCH   2  20
TORSDOF 5
