REMARK  16 active torsions:
REMARK  status: ('A' for Active; 'I' for Inactive)
REMARK    1  A    between atoms: C2_2  and  C3_3 
REMARK    2  A    between atoms: C3_3  and  C4_4 
REMARK    3  A    between atoms: C3_3  and  C15_15 
REMARK    4  A    between atoms: C4_4  and  C5_5 
REMARK    5  A    between atoms: C15_15  and  N2_19 
REMARK    6  A    between atoms: N2_19  and  C16_21 
REMARK    7  A    between atoms: C16_21  and  C19_29 
REMARK    8  A    between atoms: C17_22  and  C18_23 
REMARK    9  A    between atoms: C18_23  and  N3_24 
REMARK   10  A    between atoms: N3_24  and  N4_26 
REMARK       I    between atoms: C19_29  and  N5_31 
REMARK   11  A    between atoms: N5_31  and  C20_32 
REMARK   12  A    between atoms: C20_32  and  C21_33 
REMARK   13  A    between atoms: C21_33  and  C22_34 
REMARK   14  A    between atoms: C22_34  and  N6_35 
REMARK   15  A    between atoms: N6_35  and  C24_37 
REMARK   16  A    between atoms: N6_35  and  C26_39 
ROOT
HETATM    1  N2  UNL     1      -0.484   1.754  -0.547  1.00  0.00    -0.341 N 
ATOM      2  H2  UNL     1      -0.776   2.719  -0.393  1.00  0.00     0.167 HD
ENDROOT
BRANCH   1   3
HETATM    3  C15 UNL     1      -1.242   0.709   0.046  1.00  0.00     0.079 C 
HETATM    4  N1  UNL     1      -0.615  -0.390   0.207  1.00  0.00    -0.389 N 
ATOM      5  H12 UNL     1      -1.159  -1.140   0.633  1.00  0.00     0.157 HD
ATOM      6  H11 UNL     1       0.362  -0.447  -0.081  1.00  0.00     0.157 HD
BRANCH   3   7
HETATM    7  C3  UNL     1      -2.665   0.792   0.466  1.00  0.00     0.053 C 
BRANCH   7   8
HETATM    8  C2  UNL     1      -2.788   1.551   1.738  1.00  0.00     0.008 C 
HETATM    9  C1  UNL     1      -2.108   2.918   1.743  1.00  0.00     0.006 C 
ENDBRANCH   7   8
BRANCH   7  10
HETATM   10  C4  UNL     1      -3.258  -0.536   0.372  1.00  0.00     0.021 C 
BRANCH  10  11
HETATM   11  C5  UNL     1      -4.689  -0.856   0.470  1.00  0.00    -0.039 C 
HETATM   12  C6  UNL     1      -4.746  -2.410   0.250  1.00  0.00     0.014 C 
HETATM   13  C7  UNL     1      -6.116  -2.948   0.350  1.00  0.00    -0.013 C 
HETATM   14  C8  UNL     1      -6.627  -2.704   1.764  1.00  0.00     0.009 C 
HETATM   15  C12 UNL     1      -7.056  -2.295  -0.602  1.00  0.00     0.009 C 
HETATM   16  C9  UNL     1      -6.681  -1.238   1.971  1.00  0.00    -0.013 C 
HETATM   17  C10 UNL     1      -7.505  -0.485   0.943  1.00  0.00     0.009 C 
HETATM   18  C14 UNL     1      -5.262  -0.661   1.835  1.00  0.00     0.014 C 
HETATM   19  C11 UNL     1      -6.963  -0.800  -0.421  1.00  0.00    -0.013 C 
HETATM   20  C13 UNL     1      -5.546  -0.303  -0.629  1.00  0.00     0.014 C 
ENDBRANCH  10  11
ENDBRANCH   7  10
ENDBRANCH   3   7
ENDBRANCH   1   3
BRANCH   1  21
HETATM   21  C16 UNL     1       0.652   1.511  -1.337  1.00  0.00     0.118 C 
HETATM   22  C17 UNL     1       0.622   1.191  -2.581  1.00  0.00     0.055 C 
BRANCH  22  23
HETATM   23  C18 UNL     1      -0.469   0.998  -3.500  1.00  0.00     0.109 C 
BRANCH  23  24
HETATM   24  N3  UNL     1      -1.786   1.247  -3.092  1.00  0.00    -0.318 N 
ATOM     25  H3  UNL     1      -2.390   0.473  -2.816  1.00  0.00     0.185 HD
BRANCH  24  26
HETATM   26  N4  UNL     1      -2.225   2.434  -3.066  1.00  0.00    -0.345 N 
ATOM     27  H42 UNL     1      -1.608   3.197  -3.345  1.00  0.00     0.176 HD
ATOM     28  H41 UNL     1      -3.184   2.615  -2.769  1.00  0.00     0.176 HD
ENDBRANCH  24  26
ENDBRANCH  23  24
ENDBRANCH  22  23
BRANCH  21  29
HETATM   29  C19 UNL     1       2.023   1.722  -0.682  1.00  0.00     0.342 C 
HETATM   30  O1  UNL     1       1.915   2.094   0.527  1.00  0.00    -0.249 OA
HETATM   31  N5  UNL     1       3.151   1.530  -1.365  1.00  0.00    -0.382 NA
BRANCH  31  32
HETATM   32  C20 UNL     1       4.341   1.334  -2.065  1.00  0.00     0.161 C 
BRANCH  32  33
HETATM   33  C21 UNL     1       5.354   0.383  -1.507  1.00  0.00     0.087 C 
BRANCH  33  34
HETATM   34  C22 UNL     1       5.897   0.751  -0.157  1.00  0.00     0.243 C 
BRANCH  34  35
HETATM   35  N6  UNL     1       6.907  -0.137   0.342  1.00  0.00    -0.071 N 
HETATM   36  C23 UNL     1       6.931   0.056   1.801  1.00  0.00     0.272 C 
BRANCH  35  37
HETATM   37  C24 UNL     1       6.709  -1.523   0.088  1.00  0.00     0.232 C 
HETATM   38  C25 UNL     1       5.568  -2.149   0.824  1.00  0.00     0.035 C 
ENDBRANCH  35  37
BRANCH  35  39
HETATM   39  C26 UNL     1       8.239   0.224  -0.107  1.00  0.00     0.232 C 
HETATM   40  C27 UNL     1       8.768   1.435   0.614  1.00  0.00     0.035 C 
ENDBRANCH  35  39
ENDBRANCH  34  35
ENDBRANCH  33  34
ENDBRANCH  32  33
ENDBRANCH  31  32
ENDBRANCH  21  29
ENDBRANCH   1  21
TORSDOF 16
