REMARK  17 active torsions:
REMARK  status: ('A' for Active; 'I' for Inactive)
REMARK    1  A    between atoms: C2_2  and  C3_3 
REMARK    2  A    between atoms: C3_3  and  C4_4 
REMARK    3  A    between atoms: C3_3  and  C6_6 
REMARK    4  A    between atoms: C6_6  and  C7_7 
REMARK    5  A    between atoms: C7_7  and  N3_13 
REMARK    6  A    between atoms: N1_8  and  N2_10 
REMARK    7  A    between atoms: N3_13  and  C9_15 
REMARK    8  A    between atoms: C9_15  and  C10_16 
REMARK    9  A    between atoms: C10_16  and  C11_17 
REMARK   10  A    between atoms: C15_21  and  C16_22 
REMARK   11  A    between atoms: C16_22  and  C17_23 
REMARK   12  A    between atoms: C21_27  and  C22_28 
REMARK   13  A    between atoms: C22_28  and  N4_29 
REMARK   14  A    between atoms: N4_29  and  C25_32 
REMARK   15  A    between atoms: C25_32  and  C26_33 
REMARK   16  A    between atoms: C26_33  and  C27_34 
REMARK   17  A    between atoms: C27_34  and  N5_35 
ROOT
HETATM    1  C11 UNL     1      -2.364   1.239   1.042  1.00  0.00    -0.056 A 
HETATM    2  C12 UNL     1      -3.077   2.424   0.976  1.00  0.00     0.007 A 
HETATM    3  C13 UNL     1      -2.636   3.383   0.092  1.00  0.00     0.001 A 
HETATM    4  C14 UNL     1      -1.535   3.208  -0.712  1.00  0.00     0.007 A 
HETATM    5  C15 UNL     1      -0.821   2.031  -0.653  1.00  0.00    -0.053 A 
HETATM    6  C30 UNL     1      -1.249   1.062   0.227  1.00  0.00     0.014 A 
ENDROOT
BRANCH   5   7
HETATM    7  C16 UNL     1       0.357   1.773  -1.489  1.00  0.00     0.077 C 
BRANCH   7   8
HETATM    8  C17 UNL     1       1.637   2.210  -0.889  1.00  0.00    -0.053 A 
HETATM    9  C18 UNL     1       2.056   3.500  -1.098  1.00  0.00     0.007 A 
HETATM   10  C19 UNL     1       3.253   3.912  -0.554  1.00  0.00     0.001 A 
HETATM   11  C20 UNL     1       4.024   3.061   0.187  1.00  0.00     0.009 A 
HETATM   12  C21 UNL     1       3.617   1.769   0.403  1.00  0.00    -0.032 A 
HETATM   13  C29 UNL     1       2.420   1.360  -0.143  1.00  0.00     0.016 A 
BRANCH  12  14
HETATM   14  C22 UNL     1       4.429   0.846   1.191  1.00  0.00     0.275 C 
BRANCH  14  15
HETATM   15  N4  UNL     1       5.430   0.105   0.391  1.00  0.00    -0.071 N 
HETATM   16  C23 UNL     1       4.906  -1.183   0.031  1.00  0.00     0.272 C 
HETATM   17  C24 UNL     1       5.659   0.854  -0.857  1.00  0.00     0.272 C 
BRANCH  15  18
HETATM   18  C25 UNL     1       6.641   0.094   1.139  1.00  0.00     0.238 C 
BRANCH  18  19
HETATM   19  C26 UNL     1       7.458  -1.139   1.140  1.00  0.00     0.047 C 
BRANCH  19  20
HETATM   20  C27 UNL     1       7.973  -1.587  -0.196  1.00  0.00     0.123 C 
BRANCH  20  21
HETATM   21  N5  UNL     1       8.749  -2.813   0.069  1.00  0.00    -0.367 N 
HETATM   22  C28 UNL     1      10.042  -2.717   0.257  1.00  0.00     0.196 C 
HETATM   23  N6  UNL     1      10.681  -1.451   0.204  1.00  0.00    -0.067 NA
HETATM   24  N7  UNL     1      10.733  -3.922   0.505  1.00  0.00    -0.067 NA
ATOM     25  H5  UNL     1       8.286  -3.721   0.105  1.00  0.00     0.161 HD
ENDBRANCH  20  21
ENDBRANCH  19  20
ENDBRANCH  18  19
ENDBRANCH  15  18
ENDBRANCH  14  15
ENDBRANCH  12  14
ENDBRANCH   7   8
ENDBRANCH   5   7
BRANCH   1  26
HETATM   26  C10 UNL     1      -2.762   0.157   1.939  1.00  0.00     0.058 C 
BRANCH  26  27
HETATM   27  C9  UNL     1      -3.602  -0.852   1.219  1.00  0.00     0.125 C 
BRANCH  27  28
HETATM   28  N3  UNL     1      -4.809  -0.334   0.652  1.00  0.00    -0.378 N 
ATOM     29  H3  UNL     1      -5.047   0.655   0.721  1.00  0.00     0.160 HD
BRANCH  28  30
HETATM   30  C7  UNL     1      -5.676  -1.270  -0.022  1.00  0.00     0.091 C 
HETATM   31  N1  UNL     1      -5.330  -1.643  -1.196  1.00  0.00    -0.294 N 
ATOM     32  H1  UNL     1      -5.937  -2.301  -1.684  1.00  0.00     0.188 HD
BRANCH  30  33
HETATM   33  C6  UNL     1      -6.893  -1.754   0.616  1.00  0.00     0.082 C 
BRANCH  33  34
HETATM   34  C3  UNL     1      -8.113  -0.918   0.485  1.00  0.00    -0.008 C 
BRANCH  34  35
HETATM   35  C2  UNL     1      -7.965   0.454   1.041  1.00  0.00     0.000 C 
HETATM   36  C1  UNL     1      -9.331   1.146   1.108  1.00  0.00     0.005 C 
ENDBRANCH  34  35
BRANCH  34  37
HETATM   37  C4  UNL     1      -8.682  -0.849  -0.917  1.00  0.00     0.000 C 
HETATM   38  C5  UNL     1      -8.856  -2.216  -1.518  1.00  0.00     0.005 C 
ENDBRANCH  34  37
ENDBRANCH  33  34
ENDBRANCH  30  33
BRANCH  31  39
HETATM   39  N2  UNL     1      -4.190  -1.215  -1.846  1.00  0.00    -0.340 N 
HETATM   40  C8  UNL     1      -3.348  -2.122  -2.612  1.00  0.00     0.167 C 
ATOM     41  H2  UNL     1      -3.929  -0.231  -1.788  1.00  0.00     0.179 HD
ENDBRANCH  31  39
ENDBRANCH  28  30
ENDBRANCH  27  28
ENDBRANCH  26  27
ENDBRANCH   1  26
TORSDOF 17
