REMARK  6 active torsions:
REMARK  status: ('A' for Active; 'I' for Inactive)
REMARK    1  A    between atoms: C2_2  and  S1_3 
REMARK    2  A    between atoms: S1_3  and  C3_4 
REMARK    3  A    between atoms: C3_4  and  N1_5 
REMARK    4  A    between atoms: C3_4  and  C12_15 
REMARK       I    between atoms: N1_5  and  C4_6 
REMARK    5  A    between atoms: C4_6  and  C5_8 
REMARK    6  A    between atoms: C5_8  and  C6_9 
ROOT
HETATM    1  N1  UNL     1       1.090   0.662   0.625  1.00  0.00    -0.356 NA
HETATM    2  C4  UNL     1       0.125   0.520   1.505  1.00  0.00     0.296 C 
HETATM    3  O1  UNL     1      -0.393   1.552   2.072  1.00  0.00    -0.257 OA
ENDROOT
BRANCH   2   4
HETATM    4  C5  UNL     1      -0.423  -0.791   1.907  1.00  0.00     0.146 C 
BRANCH   4   5
HETATM    5  C6  UNL     1      -1.817  -0.929   2.298  1.00  0.00    -0.014 C 
HETATM    6  C7  UNL     1      -2.944  -0.703   1.421  1.00  0.00    -0.083 C 
HETATM    7  C8  UNL     1      -3.003  -1.531   0.161  1.00  0.00     0.034 C 
HETATM    8  C11 UNL     1      -3.379   0.670   1.072  1.00  0.00     0.034 C 
HETATM    9  C9  UNL     1      -2.578  -0.504  -0.895  1.00  0.00     0.005 C 
HETATM   10  C10 UNL     1      -2.953   0.846  -0.378  1.00  0.00     0.005 C 
ENDBRANCH   4   5
ENDBRANCH   2   4
BRANCH   1  11
HETATM   11  C3  UNL     1       2.032   0.825  -0.106  1.00  0.00     0.223 C 
BRANCH  11  12
HETATM   12  S1  UNL     1       1.859   0.438  -1.839  1.00  0.00    -0.091 SA
BRANCH  12  13
HETATM   13  C2  UNL     1       3.389   0.457  -2.762  1.00  0.00     0.077 C 
HETATM   14  C1  UNL     1       4.299  -0.685  -2.348  1.00  0.00     0.016 C 
ENDBRANCH  12  13
ENDBRANCH  11  12
BRANCH  11  15
HETATM   15  C12 UNL     1       3.302   1.310   0.439  1.00  0.00     0.248 C 
HETATM   16  O2  UNL     1       3.324   1.523   1.710  1.00  0.00    -0.642 OA
HETATM   17  O3  UNL     1       4.400   1.531  -0.331  1.00  0.00    -0.642 OA
ENDBRANCH  11  15
ENDBRANCH   1  11
TORSDOF 6
