REMARK  8 active torsions:
REMARK  status: ('A' for Active; 'I' for Inactive)
REMARK    1  A    between atoms: C2_2  and  C4_4 
REMARK    2  A    between atoms: C4_4  and  C5_5 
REMARK    3  A    between atoms: C4_4  and  N2_12 
REMARK    4  A    between atoms: C5_5  and  C6_6 
REMARK    5  A    between atoms: C6_6  and  C7_7 
REMARK    6  A    between atoms: C7_7  and  N1_8 
REMARK    7  A    between atoms: N1_8  and  C8_10 
REMARK    8  A    between atoms: N2_12  and  N3_14 
ROOT
HETATM    1  C4  UNL     1      -0.872  -1.383   0.462  1.00  0.00     0.022 C 
ENDROOT
BRANCH   1   2
HETATM    2  C2  UNL     1      -1.326  -2.206  -0.465  1.00  0.00    -0.064 C 
HETATM    3  C1  UNL     1      -2.771  -2.534  -0.472  1.00  0.00     0.045 C 
HETATM    4  C3  UNL     1      -0.468  -2.824  -1.504  1.00  0.00     0.045 C 
ENDBRANCH   1   2
BRANCH   1   5
HETATM    5  C5  UNL     1      -1.729  -0.779   1.484  1.00  0.00     0.060 C 
BRANCH   5   6
HETATM    6  C6  UNL     1      -1.807   0.714   1.463  1.00  0.00     0.025 C 
BRANCH   6   7
HETATM    7  C7  UNL     1      -2.363   1.218   0.153  1.00  0.00     0.120 C 
BRANCH   7   8
HETATM    8  N1  UNL     1      -2.430   2.662   0.143  1.00  0.00    -0.390 N 
ATOM      9  H1  UNL     1      -3.205   3.119  -0.337  1.00  0.00     0.159 HD
BRANCH   8  10
HETATM   10  C8  UNL     1      -1.549   3.378   0.716  1.00  0.00     0.165 C 
HETATM   11  S1  UNL     1      -0.727   4.205   1.825  1.00  0.00    -0.075 SA
ENDBRANCH   8  10
ENDBRANCH   7   8
ENDBRANCH   6   7
ENDBRANCH   5   6
ENDBRANCH   1   5
BRANCH   1  12
HETATM   12  N2  UNL     1       0.513  -1.115   0.448  1.00  0.00    -0.323 N 
ATOM     13  H2  UNL     1       1.170  -1.884   0.580  1.00  0.00     0.180 HD
BRANCH  12  14
HETATM   14  N3  UNL     1       0.995   0.152   0.261  1.00  0.00    -0.231 NA
HETATM   15  C9  UNL     1       1.288   0.338  -1.156  1.00  0.00     0.113 C 
HETATM   16  C10 UNL     1       1.792   1.783  -1.276  1.00  0.00     0.016 C 
HETATM   17  C11 UNL     1       3.214   1.759  -0.760  1.00  0.00     0.002 C 
HETATM   18  C12 UNL     1       3.392   0.741   0.342  1.00  0.00     0.016 C 
HETATM   19  C13 UNL     1       2.127   0.476   1.100  1.00  0.00     0.113 C 
ENDBRANCH  12  14
ENDBRANCH   1  12
TORSDOF 8
