REMARK  16 active torsions:
REMARK  status: ('A' for Active; 'I' for Inactive)
REMARK    1  A    between atoms: C2_2  and  N1_3 
REMARK    2  A    between atoms: C6_7  and  O1_8 
REMARK    3  A    between atoms: C7_10  and  C8_11 
REMARK    4  A    between atoms: C8_11  and  C9_12 
REMARK    5  A    between atoms: C9_12  and  C10_13 
REMARK    6  A    between atoms: N5_25  and  C16_26 
REMARK    7  A    between atoms: C16_26  and  C17_27 
REMARK    8  A    between atoms: C17_27  and  C18_28 
REMARK    9  A    between atoms: C18_28  and  C19_29 
REMARK   10  A    between atoms: C19_29  and  C20_30 
REMARK   11  A    between atoms: C20_30  and  C21_31 
REMARK   12  A    between atoms: C21_31  and  N6_32 
REMARK   13  A    between atoms: C24_35  and  C25_36 
REMARK       I    between atoms: C25_36  and  N7_38 
REMARK   14  A    between atoms: N7_38  and  C26_40 
REMARK   15  A    between atoms: C26_40  and  C27_41 
REMARK   16  A    between atoms: C27_41  and  O4_42 
ROOT
HETATM    1  N1  UNL     1      -5.634  -5.496  -0.707  1.00  0.00    -0.366 N 
HETATM    2  C3  UNL     1      -6.715  -4.915  -0.161  1.00  0.00     0.091 A 
HETATM    3  C4  UNL     1      -6.638  -3.588   0.205  1.00  0.00     0.032 A 
HETATM    4  C5  UNL     1      -5.496  -2.837   0.033  1.00  0.00     0.017 A 
HETATM    5  C6  UNL     1      -5.392  -1.512   0.386  1.00  0.00     0.099 A 
HETATM    6  C7  UNL     1      -4.200  -0.806   0.181  1.00  0.00     0.049 A 
HETATM    7  N5  UNL     1      -3.152  -1.418  -0.361  1.00  0.00    -0.315 N 
HETATM    8  C30 UNL     1      -3.257  -2.709  -0.705  1.00  0.00     0.260 A 
HETATM    9  O5  UNL     1      -2.249  -3.284  -1.223  1.00  0.00    -0.267 OA
HETATM   10  C31 UNL     1      -4.399  -3.452  -0.529  1.00  0.00     0.061 A 
HETATM   11  C32 UNL     1      -4.515  -4.780  -0.881  1.00  0.00     0.108 A 
ENDROOT
BRANCH   7  12
HETATM   12  C16 UNL     1      -1.927  -0.724  -0.552  1.00  0.00     0.132 C 
BRANCH  12  13
HETATM   13  C17 UNL     1      -1.059  -0.947   0.653  1.00  0.00     0.020 C 
BRANCH  13  14
HETATM   14  C18 UNL     1       0.287  -0.218   0.527  1.00  0.00     0.002 C 
BRANCH  14  15
HETATM   15  C19 UNL     1       1.131  -0.506   1.741  1.00  0.00     0.002 C 
BRANCH  15  16
HETATM   16  C20 UNL     1       2.470   0.153   1.729  1.00  0.00     0.020 C 
BRANCH  16  17
HETATM   17  C21 UNL     1       3.307  -0.223   0.553  1.00  0.00     0.128 C 
BRANCH  17  18
HETATM   18  N6  UNL     1       4.612   0.370   0.557  1.00  0.00    -0.366 N 
HETATM   19  C22 UNL     1       4.828   1.572   0.015  1.00  0.00     0.091 A 
HETATM   20  C23 UNL     1       6.082   2.181  -0.037  1.00  0.00     0.034 A 
HETATM   21  C24 UNL     1       7.162   1.515   0.497  1.00  0.00     0.034 A 
HETATM   22  C28 UNL     1       6.964   0.287   1.057  1.00  0.00     0.034 A 
HETATM   23  C29 UNL     1       5.693  -0.268   1.079  1.00  0.00     0.091 A 
BRANCH  21  24
HETATM   24  C25 UNL     1       8.516   2.107   0.463  1.00  0.00     0.251 C 
HETATM   25  O3  UNL     1       8.645   3.362   0.393  1.00  0.00    -0.268 OA
HETATM   26  N7  UNL     1       9.641   1.274   0.504  1.00  0.00    -0.355 N 
ATOM     27  H7  UNL     1       9.452   0.274   0.569  1.00  0.00     0.162 HD
BRANCH  26  28
HETATM   28  C26 UNL     1      11.020   1.646   0.466  1.00  0.00     0.148 C 
BRANCH  28  29
HETATM   29  C27 UNL     1      11.492   2.323  -0.774  1.00  0.00     0.183 C 
BRANCH  29  30
HETATM   30  O4  UNL     1      10.898   3.510  -1.103  1.00  0.00    -0.399 OA
ATOM     31  H4  UNL     1      11.199   3.942  -1.894  1.00  0.00     0.209 HD
ENDBRANCH  29  30
ENDBRANCH  28  29
ENDBRANCH  26  28
ENDBRANCH  21  24
ENDBRANCH  17  18
ENDBRANCH  16  17
ENDBRANCH  15  16
ENDBRANCH  14  15
ENDBRANCH  13  14
ENDBRANCH  12  13
ENDBRANCH   7  12
BRANCH   6  32
HETATM   32  C8  UNL     1      -4.144   0.604   0.550  1.00  0.00     0.066 C 
BRANCH  32  33
HETATM   33  C9  UNL     1      -4.909   1.370  -0.518  1.00  0.00     0.065 C 
BRANCH  33  34
HETATM   34  C10 UNL     1      -4.926   2.842  -0.237  1.00  0.00     0.034 A 
HETATM   35  C11 UNL     1      -5.857   3.546   0.493  1.00  0.00     0.115 A 
HETATM   36  N2  UNL     1      -5.463   4.828   0.473  1.00  0.00    -0.345 N 
HETATM   37  C12 UNL     1      -4.331   4.960  -0.232  1.00  0.00     0.181 A 
ATOM     38  H2  UNL     1      -5.956   5.595   0.930  1.00  0.00     0.167 HD
HETATM   39  C13 UNL     1      -3.520   6.044  -0.554  1.00  0.00     0.290 A 
HETATM   40  N4  UNL     1      -4.014   3.729  -0.662  1.00  0.00    -0.305 N 
HETATM   41  O2  UNL     1      -3.845   7.182  -0.136  1.00  0.00    -0.264 OA
HETATM   42  N3  UNL     1      -2.428   5.810  -1.300  1.00  0.00    -0.329 N 
HETATM   43  C14 UNL     1      -2.094   4.596  -1.738  1.00  0.00     0.109 A 
ATOM     44  H3  UNL     1      -1.827   6.597  -1.543  1.00  0.00     0.168 HD
HETATM   45  C15 UNL     1      -2.897   3.517  -1.420  1.00  0.00     0.116 A 
ENDBRANCH  33  34
ENDBRANCH  32  33
ENDBRANCH   6  32
BRANCH   5  46
HETATM   46  O1  UNL     1      -6.481  -0.894   0.944  1.00  0.00    -0.358 OA
ATOM     47  H1  UNL     1      -6.409   0.021   1.188  1.00  0.00     0.217 HD
ENDBRANCH   5  46
BRANCH   1  48
HETATM   48  C2  UNL     1      -5.624  -6.885  -1.126  1.00  0.00     0.123 C 
HETATM   49  C1  UNL     1      -5.198  -7.838  -0.061  1.00  0.00     0.027 C 
ENDBRANCH   1  48
TORSDOF 16
