REMARK  4 active torsions:
REMARK  status: ('A' for Active; 'I' for Inactive)
REMARK    1  A    between atoms: C1_1  and  C2_2 
REMARK    2  A    between atoms: C2_2  and  C3_3 
REMARK    3  A    between atoms: C3_3  and  C4_4 
REMARK    4  A    between atoms: N2_12  and  N3_14 
ROOT
HETATM    1  C1  UNL     1       0.633   1.129  -0.777  1.00  0.00     0.080 C 
HETATM    2  N2  UNL     1       1.361   1.217   0.295  1.00  0.00    -0.313 N 
ATOM      3  H2  UNL     1       1.578   2.126   0.704  1.00  0.00     0.185 HD
ENDROOT
BRANCH   1   4
HETATM    4  C2  UNL     1       0.329  -0.177  -1.351  1.00  0.00     0.048 C 
BRANCH   4   5
HETATM    5  C3  UNL     1      -1.027  -0.378  -1.928  1.00  0.00     0.038 C 
BRANCH   5   6
HETATM    6  C4  UNL     1      -2.103  -0.244  -0.932  1.00  0.00     0.186 C 
HETATM    7  C5  UNL     1      -2.199   1.089  -0.287  1.00  0.00     0.033 C 
HETATM    8  C6  UNL     1      -3.671   1.346   0.128  1.00  0.00     0.004 C 
HETATM    9  C7  UNL     1      -4.200   0.072   0.743  1.00  0.00     0.027 C 
HETATM   10  C8  UNL     1      -4.174  -1.077  -0.244  1.00  0.00     0.232 C 
HETATM   11  N1  UNL     1      -3.402  -0.708  -1.436  1.00  0.00    -0.071 N 
ATOM     12  H12 UNL     1      -3.874  -0.033  -2.038  1.00  0.00     0.277 HD
ATOM     13  H11 UNL     1      -3.331  -1.455  -2.127  1.00  0.00     0.277 HD
ENDBRANCH   5   6
ENDBRANCH   4   5
ENDBRANCH   1   4
BRANCH   2  14
HETATM   14  N3  UNL     1       1.840   0.045   0.875  1.00  0.00    -0.272 N 
HETATM   15  C9  UNL     1       3.105  -0.162   0.977  1.00  0.00     0.190 C 
HETATM   16  N4  UNL     1       4.153   0.698   0.549  1.00  0.00    -0.360 N 
HETATM   17  N5  UNL     1       3.734  -1.304   1.542  1.00  0.00    -0.360 N 
HETATM   18  C10 UNL     1       5.433   0.159   0.981  1.00  0.00     0.142 C 
ATOM     19  H4  UNL     1       4.027   1.561   0.020  1.00  0.00     0.162 HD
HETATM   20  C11 UNL     1       5.117  -1.004   1.860  1.00  0.00     0.142 C 
ATOM     21  H5  UNL     1       3.279  -2.203   1.701  1.00  0.00     0.162 HD
ATOM     22  H3  UNL     1       1.183  -0.654   1.221  1.00  0.00     0.190 HD
ENDBRANCH   2  14
TORSDOF 4
