REMARK  10 active torsions:
REMARK  status: ('A' for Active; 'I' for Inactive)
REMARK    1  A    between atoms: N3_4  and  C2_6 
REMARK    2  A    between atoms: C2_6  and  C3_7 
REMARK    3  A    between atoms: C3_7  and  C4_8 
REMARK    4  A    between atoms: C4_8  and  C5_9 
REMARK    5  A    between atoms: C5_9  and  N4_10 
REMARK    6  A    between atoms: C5_9  and  C6_14 
REMARK       I    between atoms: C6_14  and  N5_16 
REMARK    7  A    between atoms: N5_16  and  N6_18 
REMARK    8  A    between atoms: N6_18  and  C7_20 
REMARK    9  A    between atoms: C7_20  and  C8_25 
REMARK   10  A    between atoms: N7_21  and  O2_23 
ROOT
HETATM    1  C6  UNL     1      -0.062  -0.400  -0.955  1.00  0.00     0.266 C 
HETATM    2  O1  UNL     1       0.054   0.845  -1.092  1.00  0.00    -0.269 OA
HETATM    3  N5  UNL     1      -1.270  -0.833  -0.342  1.00  0.00    -0.267 N 
ATOM      4  H5  UNL     1      -1.403  -1.836  -0.212  1.00  0.00     0.190 HD
ENDROOT
BRANCH   3   5
HETATM    5  N6  UNL     1      -2.286   0.018   0.094  1.00  0.00    -0.280 N 
ATOM      6  H6  UNL     1      -2.399   0.130   1.102  1.00  0.00     0.189 HD
BRANCH   5   7
HETATM    7  C7  UNL     1      -3.169   0.736  -0.734  1.00  0.00     0.168 C 
HETATM    8  N7  UNL     1      -2.832   1.188  -1.868  1.00  0.00    -0.250 N 
ATOM      9  H7  UNL     1      -1.873   1.009  -2.166  1.00  0.00     0.196 HD
BRANCH   8  10
HETATM   10  O2  UNL     1      -3.612   1.882  -2.722  1.00  0.00    -0.288 OA
ATOM     11  H2  UNL     1      -3.359   2.221  -3.573  1.00  0.00     0.244 HD
ENDBRANCH   8  10
BRANCH   7  12
HETATM   12  C8  UNL     1      -4.553   0.994  -0.288  1.00  0.00     0.095 A 
HETATM   13  C9  UNL     1      -5.163   0.045   0.507  1.00  0.00     0.040 A 
HETATM   14  C10 UNL     1      -6.456   0.234   0.957  1.00  0.00     0.078 A 
HETATM   15  C11 UNL     1      -7.076   1.395   0.572  1.00  0.00     0.259 A 
HETATM   16  O3  UNL     1      -8.265   1.590   0.974  1.00  0.00    -0.267 OA
HETATM   17  N8  UNL     1      -6.448   2.282  -0.195  1.00  0.00    -0.266 N 
HETATM   18  N9  UNL     1      -5.215   2.092  -0.619  1.00  0.00    -0.294 N 
ATOM     19  H8  UNL     1      -6.936   3.136  -0.463  1.00  0.00     0.190 HD
ATOM     20  H9  UNL     1      -4.767   2.796  -1.206  1.00  0.00     0.187 HD
ENDBRANCH   7  12
ENDBRANCH   5   7
ENDBRANCH   3   5
BRANCH   1  21
HETATM   21  C5  UNL     1       0.907  -1.397  -1.359  1.00  0.00     0.276 C 
BRANCH  21  22
HETATM   22  C4  UNL     1       2.321  -1.162  -0.979  1.00  0.00     0.044 C 
BRANCH  22  23
HETATM   23  C3  UNL     1       2.666  -1.262   0.454  1.00  0.00     0.022 C 
BRANCH  23  24
HETATM   24  C2  UNL     1       4.176  -0.976   0.562  1.00  0.00     0.122 C 
BRANCH  24  25
HETATM   25  N3  UNL     1       4.416   0.362   0.045  1.00  0.00    -0.367 N 
HETATM   26  C1  UNL     1       5.412   1.080   0.387  1.00  0.00     0.196 C 
HETATM   27  N1  UNL     1       5.554   2.367  -0.175  1.00  0.00    -0.067 NA
HETATM   28  N2  UNL     1       6.346   0.564   1.321  1.00  0.00    -0.067 NA
ATOM     29  H3  UNL     1       3.752   0.746  -0.627  1.00  0.00     0.161 HD
ENDBRANCH  24  25
ENDBRANCH  23  24
ENDBRANCH  22  23
ENDBRANCH  21  22
BRANCH  21  30
HETATM   30  N4  UNL     1       0.444  -2.719  -0.994  1.00  0.00    -0.066 N 
ATOM     31  H43 UNL     1       1.052  -3.440  -1.382  1.00  0.00     0.275 HD
ATOM     32  H42 UNL     1       0.591  -2.897  -0.000  1.00  0.00     0.275 HD
ATOM     33  H41 UNL     1      -0.529  -2.881  -1.255  1.00  0.00     0.275 HD
ENDBRANCH  21  30
ENDBRANCH   1  21
TORSDOF 10
