REMARK  9 active torsions:
REMARK  status: ('A' for Active; 'I' for Inactive)
REMARK    1  A    between atoms: N2_3  and  N3_5 
REMARK    2  A    between atoms: N4_7  and  O1_8 
REMARK       I    between atoms: N4_7  and  C2_10 
REMARK       I    between atoms: C2_10  and  N5_11 
REMARK    3  A    between atoms: N5_11  and  N6_13 
REMARK    4  A    between atoms: N6_13  and  C3_15 
REMARK    5  A    between atoms: N11_24  and  N12_26 
REMARK       I    between atoms: N12_26  and  C4_28 
REMARK    6  A    between atoms: C4_28  and  C5_30 
REMARK    7  A    between atoms: C6_32  and  N13_33 
REMARK    8  A    between atoms: N13_33  and  C7_35 
REMARK    9  A    between atoms: C10_44  and  O3_45 
ROOT
HETATM    1  N1  UNL     1      -7.275  -4.393  -2.079  1.00  0.00    -0.170 NA
HETATM    2  C1  UNL     1      -7.010  -3.403  -1.544  1.00  0.00     0.199 C 
HETATM    3  N2  UNL     1      -6.685  -2.189  -0.916  1.00  0.00    -0.219 N 
ATOM      4  H2  UNL     1      -7.398  -1.474  -0.772  1.00  0.00     0.201 HD
ENDROOT
BRANCH   3   5
HETATM    5  N3  UNL     1      -5.380  -1.976  -0.494  1.00  0.00    -0.192 N 
HETATM    6  N4  UNL     1      -4.514  -1.515  -1.275  1.00  0.00     0.034 N 
HETATM    7  C2  UNL     1      -3.200  -1.311  -0.817  1.00  0.00     0.755 C 
HETATM    8  N5  UNL     1      -2.904  -0.708   0.418  1.00  0.00    -0.113 N 
HETATM    9  N11 UNL     1      -2.228  -1.697  -1.569  1.00  0.00    -0.124 N 
ATOM     10  H5  UNL     1      -1.943  -0.789   0.751  1.00  0.00     0.206 HD
ATOM     11  H11 UNL     1      -2.445  -2.134  -2.465  1.00  0.00     0.206 HD
ATOM     12  H3  UNL     1      -5.121  -2.198   0.467  1.00  0.00     0.212 HD
BRANCH   6  13
HETATM   13  O1  UNL     1      -4.836  -1.212  -2.560  1.00  0.00    -0.253 OA
ATOM     14  H1  UNL     1      -4.180  -0.863  -3.152  1.00  0.00     0.247 HD
ENDBRANCH   6  13
BRANCH   8  15
HETATM   15  N6  UNL     1      -3.784  -0.018   1.222  1.00  0.00    -0.115 N 
ATOM     16  H6  UNL     1      -3.944  -0.368   2.167  1.00  0.00     0.206 HD
BRANCH  15  17
HETATM   17  C3  UNL     1      -4.418   1.043   0.854  1.00  0.00     0.728 A 
HETATM   18  N7  UNL     1      -4.319   1.627  -0.343  1.00  0.00    -0.114 N 
HETATM   19  N8  UNL     1      -5.122   2.688  -0.331  1.00  0.00    -0.213 N 
ATOM     20  H7  UNL     1      -3.737   1.318  -1.121  1.00  0.00     0.207 HD
HETATM   21  N9  UNL     1      -5.717   2.782   0.836  1.00  0.00    -0.213 N 
ATOM     22  H8  UNL     1      -5.255   3.332  -1.111  1.00  0.00     0.210 HD
HETATM   23  N10 UNL     1      -5.287   1.768   1.577  1.00  0.00    -0.114 N 
ATOM     24  H9  UNL     1      -6.384   3.499   1.120  1.00  0.00     0.210 HD
ATOM     25  H10 UNL     1      -5.570   1.572   2.537  1.00  0.00     0.207 HD
ENDBRANCH  15  17
ENDBRANCH   8  15
BRANCH   9  26
HETATM   26  N12 UNL     1      -0.873  -1.538  -1.201  1.00  0.00    -0.251 N 
HETATM   27  C4  UNL     1      -0.340  -0.246  -1.183  1.00  0.00     0.281 C 
HETATM   28  O2  UNL     1      -1.080   0.744  -1.496  1.00  0.00    -0.265 OA
ATOM     29  H12 UNL     1      -0.299  -2.345  -0.955  1.00  0.00     0.191 HD
BRANCH  27  30
HETATM   30  C5  UNL     1       1.045   0.100  -0.826  1.00  0.00     0.128 A 
HETATM   31  S1  UNL     1       1.770   1.671  -0.783  1.00  0.00    -0.044 SA
HETATM   32  C6  UNL     1       3.338   1.214  -0.290  1.00  0.00     0.154 A 
HETATM   33  N16 UNL     1       3.229  -0.100  -0.184  1.00  0.00    -0.316 N 
HETATM   34  C10 UNL     1       2.102  -0.684  -0.444  1.00  0.00     0.165 A 
ATOM     35  H16 UNL     1       4.035  -0.655   0.103  1.00  0.00     0.170 HD
BRANCH  32  36
HETATM   36  N13 UNL     1       4.499   2.038  -0.045  1.00  0.00    -0.308 N 
ATOM     37  H13 UNL     1       4.440   3.049  -0.167  1.00  0.00     0.171 HD
BRANCH  36  38
HETATM   38  C7  UNL     1       5.727   1.443   0.366  1.00  0.00     0.177 C 
HETATM   39  N14 UNL     1       6.864   1.836  -0.045  1.00  0.00    -0.361 N 
HETATM   40  C8  UNL     1       7.949   1.076   0.514  1.00  0.00     0.142 C 
ATOM     41  H14 UNL     1       6.993   2.607  -0.700  1.00  0.00     0.162 HD
HETATM   42  C9  UNL     1       7.249  -0.127   1.119  1.00  0.00     0.142 C 
HETATM   43  N15 UNL     1       5.896   0.363   1.259  1.00  0.00    -0.361 N 
ATOM     44  H15 UNL     1       5.187  -0.007   1.892  1.00  0.00     0.162 HD
ENDBRANCH  36  38
ENDBRANCH  32  36
BRANCH  34  45
HETATM   45  O3  UNL     1       1.928  -2.098  -0.347  1.00  0.00    -0.345 OA
ATOM     46  H3  UNL     1       2.661  -2.642  -0.082  1.00  0.00     0.219 HD
ENDBRANCH  34  45
ENDBRANCH  27  30
ENDBRANCH   9  26
ENDBRANCH   3   5
TORSDOF 9
