REMARK  19 active torsions:
REMARK  status: ('A' for Active; 'I' for Inactive)
REMARK    1  A    between atoms: C2_2  and  C3_3 
REMARK    2  A    between atoms: C3_3  and  C4_4 
REMARK    3  A    between atoms: C4_4  and  C5_5 
REMARK    4  A    between atoms: C5_5  and  C6_6 
REMARK    5  A    between atoms: C6_6  and  C7_7 
REMARK    6  A    between atoms: C7_7  and  C8_8 
REMARK    7  A    between atoms: C8_8  and  C9_9 
REMARK    8  A    between atoms: C9_9  and  C10_10 
REMARK    9  A    between atoms: C10_10  and  C11_11 
REMARK   10  A    between atoms: C11_11  and  C12_12 
REMARK   11  A    between atoms: C12_12  and  C13_13 
REMARK   12  A    between atoms: C13_13  and  C14_14 
REMARK   13  A    between atoms: C14_14  and  C15_15 
REMARK   14  A    between atoms: C15_15  and  C16_16 
REMARK       I    between atoms: C16_16  and  N1_18 
REMARK   15  A    between atoms: N1_18  and  C17_20 
REMARK   16  A    between atoms: C17_20  and  C18_21 
REMARK   17  A    between atoms: C20_23  and  O2_24 
REMARK   18  A    between atoms: C31_36  and  O3_37 
REMARK   19  A    between atoms: C36_45  and  O5_46 
ROOT
HETATM    1  C18 UNL     1      -2.486  -1.019   0.610  1.00  0.00     0.002 C 
HETATM    2  C19 UNL     1      -2.020  -2.418   0.776  1.00  0.00     0.020 C 
HETATM    3  C20 UNL     1      -2.560  -0.665  -0.859  1.00  0.00     0.128 C 
HETATM    4  C21 UNL     1      -3.446  -1.625  -1.549  1.00  0.00     0.033 C 
HETATM    5  C22 UNL     1      -4.712  -1.986  -0.886  1.00  0.00     0.014 C 
HETATM    6  C23 UNL     1      -5.018  -1.339   0.428  1.00  0.00    -0.016 C 
HETATM    7  C24 UNL     1      -5.487  -2.540   1.322  1.00  0.00     0.017 C 
HETATM    8  C25 UNL     1      -3.876  -0.791   1.194  1.00  0.00     0.008 C 
HETATM    9  C26 UNL     1      -4.053   0.602   1.737  1.00  0.00     0.007 C 
HETATM   10  C27 UNL     1      -5.401   0.595   2.416  1.00  0.00     0.007 C 
HETATM   11  C28 UNL     1      -6.492   0.469   1.438  1.00  0.00     0.017 C 
HETATM   12  C29 UNL     1      -6.643   1.792   0.743  1.00  0.00     0.015 C 
HETATM   13  C30 UNL     1      -7.350   2.866   1.451  1.00  0.00     0.060 C 
HETATM   14  C31 UNL     1      -7.326   4.099   0.581  1.00  0.00     0.222 C 
HETATM   15  N2  UNL     1      -7.331   3.815  -0.827  1.00  0.00    -0.329 N 
HETATM   16  C32 UNL     1      -7.319   4.952  -1.737  1.00  0.00     0.155 C 
HETATM   17  C33 UNL     1      -7.346   2.518  -1.405  1.00  0.00     0.232 C 
HETATM   18  O4  UNL     1      -7.281   2.301  -2.631  1.00  0.00    -0.272 OA
HETATM   19  C34 UNL     1      -7.447   1.376  -0.467  1.00  0.00     0.069 C 
HETATM   20  C35 UNL     1      -8.860   1.057  -0.228  1.00  0.00     0.028 C 
HETATM   21  C36 UNL     1      -6.601   0.184  -0.926  1.00  0.00     0.159 C 
HETATM   22  C37 UNL     1      -6.275  -0.517   0.327  1.00  0.00     0.087 C 
HETATM   23  C38 UNL     1      -7.448  -1.462   0.470  1.00  0.00     0.073 C 
HETATM   24  N3  UNL     1      -8.352  -2.208   0.599  1.00  0.00    -0.196 NA
ENDROOT
BRANCH  21  25
HETATM   25  O5  UNL     1      -5.676   0.717  -1.732  1.00  0.00    -0.392 OA
ATOM     26  H5  UNL     1      -5.151  -0.022  -2.017  1.00  0.00     0.210 HD
ENDBRANCH  21  25
BRANCH   1  27
HETATM   27  C17 UNL     1      -1.563  -0.079   1.314  1.00  0.00     0.134 C 
BRANCH  27  28
HETATM   28  N1  UNL     1      -0.202   0.030   0.951  1.00  0.00    -0.360 N 
HETATM   29  C16 UNL     1       0.908  -0.838   0.999  1.00  0.00     0.217 C 
HETATM   30  O1  UNL     1       0.936  -2.003   1.427  1.00  0.00    -0.274 OA
ATOM     31  H1  UNL     1       0.031   0.946   0.566  1.00  0.00     0.162 HD
BRANCH  29  32
HETATM   32  C15 UNL     1       2.247  -0.350   0.479  1.00  0.00     0.103 C 
BRANCH  32  33
HETATM   33  C14 UNL     1       3.306  -1.369   0.542  1.00  0.00     0.009 C 
BRANCH  33  34
HETATM   34  C13 UNL     1       3.733  -1.892   1.858  1.00  0.00     0.000 C 
BRANCH  34  35
HETATM   35  C12 UNL     1       4.808  -2.951   1.757  1.00  0.00     0.000 C 
BRANCH  35  36
HETATM   36  C11 UNL     1       6.093  -2.401   1.087  1.00  0.00     0.000 C 
BRANCH  36  37
HETATM   37  C10 UNL     1       7.026  -3.548   1.046  1.00  0.00     0.000 C 
BRANCH  37  38
HETATM   38  C9  UNL     1       8.389  -3.408   0.543  1.00  0.00     0.000 C 
BRANCH  38  39
HETATM   39  C8  UNL     1       8.702  -2.949  -0.810  1.00  0.00     0.000 C 
BRANCH  39  40
HETATM   40  C7  UNL     1       8.322  -1.538  -1.118  1.00  0.00     0.000 C 
BRANCH  40  41
HETATM   41  C6  UNL     1       9.000  -0.555  -0.198  1.00  0.00     0.000 C 
BRANCH  41  42
HETATM   42  C5  UNL     1       8.582   0.828  -0.504  1.00  0.00     0.000 C 
BRANCH  42  43
HETATM   43  C4  UNL     1       8.920   1.187  -1.934  1.00  0.00     0.000 C 
BRANCH  43  44
HETATM   44  C3  UNL     1       8.479   2.644  -2.094  1.00  0.00    -0.000 C 
BRANCH  44  45
HETATM   45  C2  UNL     1       8.721   3.174  -3.474  1.00  0.00    -0.005 C 
HETATM   46  C1  UNL     1      10.165   3.128  -3.876  1.00  0.00     0.005 C 
ENDBRANCH  44  45
ENDBRANCH  43  44
ENDBRANCH  42  43
ENDBRANCH  41  42
ENDBRANCH  40  41
ENDBRANCH  39  40
ENDBRANCH  38  39
ENDBRANCH  37  38
ENDBRANCH  36  37
ENDBRANCH  35  36
ENDBRANCH  34  35
ENDBRANCH  33  34
ENDBRANCH  32  33
ENDBRANCH  29  32
ENDBRANCH  27  28
ENDBRANCH   1  27
BRANCH   3  47
HETATM   47  O2  UNL     1      -1.308  -0.682  -1.466  1.00  0.00    -0.395 OA
ATOM     48  H2  UNL     1      -1.354  -0.460  -2.388  1.00  0.00     0.210 HD
ENDBRANCH   3  47
BRANCH  14  49
HETATM   49  O3  UNL     1      -8.396   4.933   0.940  1.00  0.00    -0.377 OA
ATOM     50  H3  UNL     1      -8.381   5.709   0.392  1.00  0.00     0.212 HD
ENDBRANCH  14  49
TORSDOF 19
