REMARK  17 active torsions:
REMARK  status: ('A' for Active; 'I' for Inactive)
REMARK    1  A    between atoms: C2_2  and  C3_3 
REMARK    2  A    between atoms: C3_3  and  C5_5 
REMARK    3  A    between atoms: C5_5  and  N1_6 
REMARK       I    between atoms: N1_6  and  C6_7 
REMARK    4  A    between atoms: C6_7  and  C7_9 
REMARK    5  A    between atoms: C7_9  and  C8_10 
REMARK    6  A    between atoms: C8_10  and  C9_11 
REMARK    7  A    between atoms: C8_10  and  C16_18 
REMARK    8  A    between atoms: C9_11  and  C10_12 
REMARK       I    between atoms: C16_18  and  N2_20 
REMARK    9  A    between atoms: N2_20  and  C17_21 
REMARK   10  A    between atoms: C17_21  and  C18_22 
REMARK   11  A    between atoms: C18_22  and  C19_23 
REMARK   12  A    between atoms: C19_23  and  C20_24 
REMARK   13  A    between atoms: C24_28  and  C25_29 
REMARK   14  A    between atoms: C24_28  and  C32_43 
REMARK   15  A    between atoms: C25_29  and  C26_31 
REMARK   16  A    between atoms: C26_31  and  N3_33 
REMARK   17  A    between atoms: N3_33  and  C28_35 
ROOT
HETATM    1  C20 UNL     1       2.170  -1.573   0.422  1.00  0.00     0.044 C 
HETATM    2  C21 UNL     1       1.775  -1.453   1.875  1.00  0.00     0.064 C 
HETATM    3  C22 UNL     1       2.041  -0.029   2.320  1.00  0.00     0.010 C 
HETATM    4  C23 UNL     1       3.419   0.466   1.963  1.00  0.00     0.047 C 
HETATM    5  C24 UNL     1       4.019  -0.068   0.709  1.00  0.00     0.133 C 
HETATM    6  O4  UNL     1       2.970  -0.612  -0.037  1.00  0.00    -0.337 OA
ENDROOT
BRANCH   1   7
HETATM    7  C19 UNL     1       1.117  -1.984  -0.517  1.00  0.00     0.008 C 
BRANCH   7   8
HETATM    8  C18 UNL     1      -0.134  -1.314  -0.754  1.00  0.00     0.063 C 
BRANCH   8   9
HETATM    9  C17 UNL     1      -0.119   0.144  -1.227  1.00  0.00     0.225 C 
BRANCH   9  10
HETATM   10  N2  UNL     1      -1.355   0.644  -1.535  1.00  0.00    -0.415 NA
HETATM   11  C16 UNL     1      -2.613   1.157  -1.849  1.00  0.00     0.291 C 
HETATM   12  O2  UNL     1      -2.778   2.316  -2.257  1.00  0.00    -0.257 OA
BRANCH  11  13
HETATM   13  C8  UNL     1      -3.786   0.292  -1.691  1.00  0.00     0.103 C 
BRANCH  13  14
HETATM   14  C7  UNL     1      -5.074   0.530  -2.291  1.00  0.00     0.134 C 
BRANCH  14  15
HETATM   15  C6  UNL     1      -5.933   1.681  -1.819  1.00  0.00     0.291 C 
HETATM   16  N1  UNL     1      -7.142   1.499  -1.296  1.00  0.00    -0.387 NA
HETATM   17  O1  UNL     1      -5.358   2.797  -1.980  1.00  0.00    -0.257 OA
BRANCH  16  18
HETATM   18  C5  UNL     1      -8.415   1.309  -0.746  1.00  0.00     0.163 C 
BRANCH  18  19
HETATM   19  C3  UNL     1      -8.645   1.824   0.641  1.00  0.00     0.033 C 
HETATM   20  C4  UNL     1     -10.006   1.390   1.119  1.00  0.00     0.016 C 
BRANCH  19  21
HETATM   21  C2  UNL     1      -8.481   3.288   0.824  1.00  0.00     0.006 C 
HETATM   22  C1  UNL     1      -9.490   4.116   0.079  1.00  0.00     0.006 C 
ENDBRANCH  19  21
ENDBRANCH  18  19
ENDBRANCH  16  18
ENDBRANCH  14  15
ENDBRANCH  13  14
BRANCH  13  23
HETATM   23  C9  UNL     1      -3.925  -0.014  -0.173  1.00  0.00     0.020 C 
BRANCH  23  24
HETATM   24  C10 UNL     1      -4.763  -1.257  -0.019  1.00  0.00    -0.014 C 
HETATM   25  C11 UNL     1      -4.117  -2.448  -0.700  1.00  0.00     0.005 C 
HETATM   26  C12 UNL     1      -4.529  -3.744   0.024  1.00  0.00     0.000 C 
HETATM   27  C13 UNL     1      -5.949  -3.638   0.507  1.00  0.00     0.000 C 
HETATM   28  C14 UNL     1      -6.145  -2.551   1.525  1.00  0.00     0.000 C 
HETATM   29  C15 UNL     1      -4.969  -1.583   1.423  1.00  0.00     0.005 C 
ENDBRANCH  23  24
ENDBRANCH  13  23
ENDBRANCH  11  13
ENDBRANCH   9  10
ENDBRANCH   8   9
ENDBRANCH   7   8
ENDBRANCH   1   7
BRANCH   5  30
HETATM   30  C25 UNL     1       5.138  -0.981   0.955  1.00  0.00     0.183 C 
HETATM   31  O3  UNL     1       4.866  -2.207   0.951  1.00  0.00    -0.292 OA
BRANCH  30  32
HETATM   32  C26 UNL     1       6.569  -0.742   1.196  1.00  0.00     0.146 C 
HETATM   33  C27 UNL     1       6.927  -0.352   2.600  1.00  0.00     0.040 C 
BRANCH  32  34
HETATM   34  N3  UNL     1       7.282  -2.006   0.937  1.00  0.00    -0.397 N 
ATOM     35  H3  UNL     1       6.892  -2.911   1.200  1.00  0.00     0.155 HD
BRANCH  34  36
HETATM   36  C28 UNL     1       8.531  -1.887   0.306  1.00  0.00     0.165 C 
HETATM   37  C29 UNL     1       8.600  -1.287  -1.053  1.00  0.00     0.267 C 
HETATM   38  N4  UNL     1       9.740  -0.373  -1.185  1.00  0.00    -0.072 N 
HETATM   39  C30 UNL     1      11.014  -1.016  -1.068  1.00  0.00     0.242 C 
ATOM     40  H42 UNL     1       9.681   0.151  -2.058  1.00  0.00     0.277 HD
ATOM     41  H41 UNL     1       9.663   0.395  -0.519  1.00  0.00     0.277 HD
HETATM   42  C31 UNL     1      11.415  -1.302   0.382  1.00  0.00     0.103 C 
HETATM   43  S1  UNL     1       9.861  -1.185   1.358  1.00  0.00    -0.141 SA
ENDBRANCH  34  36
ENDBRANCH  32  34
ENDBRANCH  30  32
ENDBRANCH   5  30
BRANCH   5  44
HETATM   44  C32 UNL     1       4.474   1.125  -0.154  1.00  0.00     0.028 C 
HETATM   45  C33 UNL     1       3.235   1.872  -0.577  1.00  0.00     0.008 C 
HETATM   46  C34 UNL     1       3.843   3.201  -1.005  1.00  0.00     0.001 C 
HETATM   47  C35 UNL     1       4.654   3.527   0.230  1.00  0.00     0.001 C 
HETATM   48  C36 UNL     1       5.240   2.157   0.631  1.00  0.00     0.008 C 
ENDBRANCH   5  44
TORSDOF 17
