REMARK  11 active torsions:
REMARK  status: ('A' for Active; 'I' for Inactive)
REMARK    1  A    between atoms: C2_2  and  C3_3 
REMARK    2  A    between atoms: C2_2  and  C8_12 
REMARK    3  A    between atoms: C3_3  and  C4_4 
REMARK    4  A    between atoms: C4_4  and  N1_5 
REMARK    5  A    between atoms: C4_4  and  C5_9 
REMARK    6  A    between atoms: C25_29  and  C27_31 
REMARK    7  A    between atoms: C27_31  and  O1_32 
REMARK    8  A    between atoms: C27_31  and  C28_34 
REMARK    9  A    between atoms: C28_34  and  C29_35 
REMARK   10  A    between atoms: C29_35  and  N2_36 
REMARK   11  A    between atoms: N2_36  and  C30_39 
ROOT
HETATM    1  C8  UNL     1      -2.761   1.174   1.076  1.00  0.00     0.021 C 
HETATM    2  C9  UNL     1      -4.241   0.848   1.371  1.00  0.00     0.010 C 
HETATM    3  C10 UNL     1      -4.328  -0.551   0.791  1.00  0.00     0.011 C 
HETATM    4  C11 UNL     1      -3.025  -1.088   1.463  1.00  0.00    -0.030 C 
HETATM    5  C12 UNL     1      -3.321  -0.841   2.907  1.00  0.00     0.016 C 
HETATM    6  C13 UNL     1      -2.117  -0.156   0.765  1.00  0.00     0.032 C 
HETATM    7  C14 UNL     1      -0.640  -0.205   1.083  1.00  0.00     0.128 C 
HETATM    8  C15 UNL     1      -0.321  -1.105   2.260  1.00  0.00     0.033 C 
HETATM    9  C16 UNL     1      -0.661  -2.535   2.116  1.00  0.00     0.008 C 
HETATM   10  C17 UNL     1      -1.531  -2.922   0.978  1.00  0.00    -0.001 C 
HETATM   11  C18 UNL     1      -1.385  -4.285   0.420  1.00  0.00    -0.004 C 
HETATM   12  C19 UNL     1      -0.061  -4.656  -0.142  1.00  0.00     0.015 C 
HETATM   13  C20 UNL     1      -0.427  -4.156  -1.527  1.00  0.00    -0.040 C 
HETATM   14  C21 UNL     1      -0.133  -5.316  -2.509  1.00  0.00     0.015 C 
HETATM   15  C22 UNL     1       0.112  -2.921  -2.009  1.00  0.00     0.010 C 
HETATM   16  C23 UNL     1       1.357  -2.368  -1.324  1.00  0.00     0.004 C 
HETATM   17  C24 UNL     1       1.583  -0.910  -1.620  1.00  0.00     0.040 C 
HETATM   18  C25 UNL     1       1.283  -0.002  -0.377  1.00  0.00     0.083 C 
HETATM   19  C26 UNL     1       1.280   1.369  -1.077  1.00  0.00     0.049 C 
HETATM   20  O2  UNL     1       0.113  -0.367   0.008  1.00  0.00    -0.372 OA
HETATM   21  C35 UNL     1      -1.831  -4.273  -1.060  1.00  0.00    -0.002 C 
HETATM   22  C36 UNL     1      -2.824  -3.221  -1.247  1.00  0.00     0.006 C 
HETATM   23  C37 UNL     1      -3.732  -3.009  -0.023  1.00  0.00     0.011 C 
HETATM   24  C38 UNL     1      -2.997  -2.539   1.198  1.00  0.00    -0.032 C 
HETATM   25  C39 UNL     1      -3.572  -3.337   2.365  1.00  0.00     0.016 C 
ENDROOT
BRANCH  18  26
HETATM   26  C27 UNL     1       2.508  -0.029   0.438  1.00  0.00     0.153 C 
BRANCH  26  27
HETATM   27  O1  UNL     1       3.006  -1.265   0.826  1.00  0.00    -0.393 OA
ATOM     28  H1  UNL     1       3.797  -1.282   1.352  1.00  0.00     0.210 HD
ENDBRANCH  26  27
BRANCH  26  29
HETATM   29  C28 UNL     1       3.647   0.720  -0.206  1.00  0.00     0.062 C 
BRANCH  29  30
HETATM   30  C29 UNL     1       4.897   0.637   0.704  1.00  0.00     0.237 C 
BRANCH  30  31
HETATM   31  N2  UNL     1       5.932   1.376   0.014  1.00  0.00    -0.046 N 
ATOM     32  H22 UNL     1       5.838   1.286  -0.998  1.00  0.00     0.279 HD
ATOM     33  H21 UNL     1       5.788   2.382   0.101  1.00  0.00     0.279 HD
BRANCH  31  34
HETATM   34  C30 UNL     1       7.262   0.996   0.454  1.00  0.00     0.387 C 
HETATM   35  C31 UNL     1       8.027   0.144  -0.534  1.00  0.00     0.091 C 
HETATM   36  C32 UNL     1       9.171   1.082  -0.210  1.00  0.00     0.243 C 
HETATM   37  N3  UNL     1       8.195   2.072   0.207  1.00  0.00    -0.046 N 
HETATM   38  C33 UNL     1       7.790   2.926  -0.892  1.00  0.00     0.274 C 
HETATM   39  C34 UNL     1       8.564   2.766   1.413  1.00  0.00     0.274 C 
ENDBRANCH  31  34
ENDBRANCH  30  31
ENDBRANCH  29  30
ENDBRANCH  26  29
ENDBRANCH  18  26
BRANCH   1  40
HETATM   40  C2  UNL     1      -2.835   2.164   0.004  1.00  0.00    -0.083 C 
HETATM   41  C1  UNL     1      -2.453   2.029  -1.232  1.00  0.00     0.015 C 
BRANCH  40  42
HETATM   42  C3  UNL     1      -3.416   3.497   0.410  1.00  0.00     0.066 C 
BRANCH  42  43
HETATM   43  C4  UNL     1      -3.694   4.421  -0.711  1.00  0.00     0.190 C 
BRANCH  43  44
HETATM   44  N1  UNL     1      -4.197   5.667  -0.045  1.00  0.00    -0.074 N 
ATOM     45  H13 UNL     1      -4.990   5.517   0.579  1.00  0.00     0.274 HD
ATOM     46  H12 UNL     1      -3.568   6.046   0.663  1.00  0.00     0.274 HD
ATOM     47  H11 UNL     1      -4.389   6.304  -0.818  1.00  0.00     0.274 HD
ENDBRANCH  43  44
BRANCH  43  48
HETATM   48  C5  UNL     1      -4.891   3.968  -1.534  1.00  0.00     0.008 C 
HETATM   49  C6  UNL     1      -5.082   4.975  -2.662  1.00  0.00     0.011 C 
HETATM   50  C7  UNL     1      -6.167   4.049  -0.709  1.00  0.00     0.011 C 
ENDBRANCH  43  48
ENDBRANCH  42  43
ENDBRANCH  40  42
ENDBRANCH   1  40
TORSDOF 11
