REMARK  8 active torsions:
REMARK  status: ('A' for Active; 'I' for Inactive)
REMARK    1  A    between atoms: C2_2  and  N1_3 
REMARK    2  A    between atoms: C2_2  and  C3_7 
REMARK    3  A    between atoms: C4_9  and  N2_10 
REMARK    4  A    between atoms: N2_10  and  C5_12 
REMARK    5  A    between atoms: C6_13  and  N3_14 
REMARK    6  A    between atoms: N3_14  and  N4_16 
REMARK    7  A    between atoms: N4_16  and  C7_18 
REMARK    8  A    between atoms: C16_35  and  C17_36 
REMARK       I    between atoms: C17_36  and  N7_38 
ROOT
HETATM    1  C17 UNL     1      -5.013   0.848  -1.552  1.00  0.00     0.262 C 
HETATM    2  O6  UNL     1      -6.141   1.356  -1.386  1.00  0.00    -0.270 OA
HETATM    3  N7  UNL     1      -4.206   1.295  -2.622  1.00  0.00    -0.262 N 
ATOM      4  H7  UNL     1      -3.280   0.898  -2.780  1.00  0.00     0.181 HD
HETATM    5  C18 UNL     1      -4.713   2.302  -3.464  1.00  0.00     0.184 C 
HETATM    6  N8  UNL     1      -5.119   3.127  -4.167  1.00  0.00    -0.172 NA
ENDROOT
BRANCH   1   7
HETATM    7  C16 UNL     1      -4.486  -0.215  -0.659  1.00  0.00     0.250 A 
HETATM    8  C3  UNL     1      -4.374   0.303   0.736  1.00  0.00     0.194 A 
HETATM    9  O1  UNL     1      -3.042   0.259   1.042  1.00  0.00    -0.333 OA
HETATM   10  C4  UNL     1      -2.362  -0.373   0.013  1.00  0.00     0.372 A 
HETATM   11  O5  UNL     1      -3.232  -0.638  -1.013  1.00  0.00    -0.326 OA
BRANCH   8  12
HETATM   12  C2  UNL     1      -5.258  -0.477   1.670  1.00  0.00     0.211 C 
HETATM   13  C1  UNL     1      -5.006  -1.961   1.615  1.00  0.00     0.042 C 
BRANCH  12  14
HETATM   14  N1  UNL     1      -5.153   0.013   3.042  1.00  0.00    -0.073 N 
ATOM     15  H13 UNL     1      -5.768  -0.499   3.675  1.00  0.00     0.274 HD
ATOM     16  H12 UNL     1      -4.258  -0.235   3.465  1.00  0.00     0.274 HD
ATOM     17  H11 UNL     1      -5.324   1.018   3.079  1.00  0.00     0.274 HD
ENDBRANCH  12  14
ENDBRANCH   8  12
BRANCH  10  18
HETATM   18  N2  UNL     1      -1.250   0.391  -0.480  1.00  0.00    -0.337 N 
ATOM     19  H2  UNL     1      -1.265   0.666  -1.462  1.00  0.00     0.164 HD
BRANCH  18  20
HETATM   20  C5  UNL     1      -0.130   0.793   0.298  1.00  0.00     0.119 A 
HETATM   21  C6  UNL     1       1.098   0.298   0.622  1.00  0.00     0.133 A 
HETATM   22  C14 UNL     1       1.359   1.408   1.378  1.00  0.00     0.254 A 
HETATM   23  O3  UNL     1       2.327   1.840   2.099  1.00  0.00    -0.281 OA
HETATM   24  C15 UNL     1       0.124   1.904   1.052  1.00  0.00     0.253 A 
HETATM   25  O4  UNL     1      -0.493   2.986   1.361  1.00  0.00    -0.281 OA
BRANCH  21  26
HETATM   26  N3  UNL     1       1.824  -0.906   0.299  1.00  0.00    -0.294 N 
ATOM     27  H3  UNL     1       1.736  -1.719   0.908  1.00  0.00     0.187 HD
BRANCH  26  28
HETATM   28  N4  UNL     1       2.643  -0.983  -0.827  1.00  0.00    -0.300 N 
ATOM     29  H4  UNL     1       2.225  -1.222  -1.726  1.00  0.00     0.187 HD
BRANCH  28  30
HETATM   30  C7  UNL     1       4.039  -0.739  -0.761  1.00  0.00     0.050 A 
HETATM   31  C8  UNL     1       4.837  -0.818  -1.883  1.00  0.00     0.033 A 
HETATM   32  C9  UNL     1       6.198  -0.589  -1.867  1.00  0.00     0.034 A 
HETATM   33  C10 UNL     1       6.819  -0.262  -0.677  1.00  0.00     0.063 A 
HETATM   34  N5  UNL     1       8.105   0.006  -0.386  1.00  0.00    -0.307 N 
HETATM   35  C12 UNL     1       6.026  -0.181   0.454  1.00  0.00     0.065 A 
HETATM   36  C11 UNL     1       8.131   0.259   0.938  1.00  0.00     0.325 A 
ATOM     37  H5  UNL     1       8.895   0.016  -1.032  1.00  0.00     0.170 HD
HETATM   38  O2  UNL     1       9.144   0.558   1.631  1.00  0.00    -0.247 OA
HETATM   39  N6  UNL     1       6.892   0.151   1.452  1.00  0.00    -0.306 N 
ATOM     40  H6  UNL     1       6.642   0.294   2.430  1.00  0.00     0.170 HD
HETATM   41  C13 UNL     1       4.668  -0.412   0.421  1.00  0.00     0.062 A 
ENDBRANCH  28  30
ENDBRANCH  26  28
ENDBRANCH  21  26
ENDBRANCH  18  20
ENDBRANCH  10  18
ENDBRANCH   1   7
TORSDOF 8
