REMARK  6 active torsions:
REMARK  status: ('A' for Active; 'I' for Inactive)
REMARK    1  A    between atoms: N1_2  and  C3_4 
REMARK    2  A    between atoms: C3_4  and  C4_5 
REMARK    3  A    between atoms: C7_8  and  C8_9 
REMARK       I    between atoms: C8_9  and  N2_11 
REMARK    4  A    between atoms: N2_11  and  C9_13 
REMARK    5  A    between atoms: C12_16  and  O2_17 
REMARK    6  A    between atoms: C13_19  and  C14_20 
ROOT
HETATM    1  C8  UNL     1       0.039   1.259   0.983  1.00  0.00     0.222 C 
HETATM    2  O1  UNL     1       0.319   0.896   2.151  1.00  0.00    -0.273 OA
HETATM    3  N2  UNL     1       0.940   0.912  -0.060  1.00  0.00    -0.356 N 
ATOM      4  H2  UNL     1       0.715   1.206  -1.010  1.00  0.00     0.162 HD
ENDROOT
BRANCH   3   5
HETATM    5  C9  UNL     1       2.150   0.169   0.154  1.00  0.00     0.085 C 
HETATM    6  C10 UNL     1       2.075  -1.219  -0.497  1.00  0.00     0.028 C 
HETATM    7  C11 UNL     1       3.284  -1.974   0.048  1.00  0.00     0.034 C 
HETATM    8  C12 UNL     1       4.518  -1.338  -0.499  1.00  0.00     0.131 C 
HETATM    9  C13 UNL     1       4.338   0.030  -1.058  1.00  0.00     0.124 C 
HETATM   10  C15 UNL     1       3.381   0.899  -0.289  1.00  0.00     0.041 C 
BRANCH   8  11
HETATM   11  O2  UNL     1       5.005  -2.176  -1.528  1.00  0.00    -0.395 OA
ATOM     12  H2  UNL     1       5.791  -1.771  -1.876  1.00  0.00     0.210 HD
ENDBRANCH   8  11
BRANCH   9  13
HETATM   13  C14 UNL     1       5.692   0.753  -1.031  1.00  0.00     0.393 C 
HETATM   14  F1  UNL     1       6.175   0.852   0.249  1.00  0.00    -0.171 F 
HETATM   15  F2  UNL     1       5.523   2.047  -1.508  1.00  0.00    -0.171 F 
HETATM   16  F3  UNL     1       6.633   0.069  -1.781  1.00  0.00    -0.171 F 
ENDBRANCH   9  13
ENDBRANCH   3   5
BRANCH   1  17
HETATM   17  C7  UNL     1      -1.185   2.018   0.724  1.00  0.00     0.078 C 
HETATM   18  C6  UNL     1      -1.960   2.234   2.007  1.00  0.00     0.014 C 
HETATM   19  C5  UNL     1      -2.642   0.925   2.233  1.00  0.00     0.007 C 
HETATM   20  C4  UNL     1      -2.554   0.140   0.907  1.00  0.00     0.015 C 
HETATM   21  C16 UNL     1      -2.219   1.206  -0.077  1.00  0.00     0.020 C 
BRANCH  20  22
HETATM   22  C3  UNL     1      -3.898  -0.508   0.729  1.00  0.00     0.275 C 
BRANCH  22  23
HETATM   23  N1  UNL     1      -4.067  -1.311  -0.430  1.00  0.00     0.080 N 
HETATM   24  C1  UNL     1      -5.421  -1.888  -0.368  1.00  0.00     0.309 C 
HETATM   25  C2  UNL     1      -3.990  -0.633  -1.689  1.00  0.00     0.309 C 
ENDBRANCH  22  23
ENDBRANCH  20  22
ENDBRANCH   1  17
TORSDOF 6
