REMARK  6 active torsions:
REMARK  status: ('A' for Active; 'I' for Inactive)
REMARK    1  A    between atoms: C2_2  and  N1_3 
REMARK    2  A    between atoms: C2_2  and  C3_7 
REMARK    3  A    between atoms: C3_7  and  C4_8 
REMARK       I    between atoms: C4_8  and  N2_10 
REMARK    4  A    between atoms: C8_14  and  C9_15 
REMARK       I    between atoms: C9_15  and  N3_17 
REMARK    5  A    between atoms: N3_17  and  C10_19 
REMARK    6  A    between atoms: C10_19  and  C12_21 
ROOT
HETATM    1  C4  UNL     1       1.316  -0.073  -0.636  1.00  0.00     0.222 C 
HETATM    2  O1  UNL     1       0.886   0.230  -1.780  1.00  0.00    -0.273 OA
HETATM    3  N2  UNL     1       0.779  -1.157   0.093  1.00  0.00    -0.339 N 
HETATM    4  C5  UNL     1       1.265  -1.541   1.429  1.00  0.00     0.127 C 
HETATM    5  C6  UNL     1       1.073  -3.047   1.404  1.00  0.00     0.022 C 
HETATM    6  C7  UNL     1      -0.289  -3.156   0.772  1.00  0.00     0.037 C 
HETATM    7  C8  UNL     1      -0.274  -2.070  -0.267  1.00  0.00     0.179 C 
ENDROOT
BRANCH   7   8
HETATM    8  C9  UNL     1      -1.605  -1.421  -0.359  1.00  0.00     0.241 C 
HETATM    9  O2  UNL     1      -2.558  -2.158  -0.738  1.00  0.00    -0.271 OA
HETATM   10  N3  UNL     1      -1.890  -0.084  -0.064  1.00  0.00    -0.351 N 
ATOM     11  H3  UNL     1      -1.119   0.509   0.244  1.00  0.00     0.163 HD
BRANCH  10  12
HETATM   12  C10 UNL     1      -3.199   0.516  -0.165  1.00  0.00     0.134 C 
HETATM   13  C11 UNL     1      -3.269   1.653  -1.120  1.00  0.00     0.036 C 
BRANCH  12  14
HETATM   14  C12 UNL     1      -3.671   0.898   1.233  1.00  0.00     0.208 C 
HETATM   15 CL1  UNL     1      -2.571   2.057   2.001  1.00  0.00    -0.082 Cl
HETATM   16 CL2  UNL     1      -5.298   1.616   1.167  1.00  0.00    -0.082 Cl
HETATM   17 CL3  UNL     1      -3.771  -0.539   2.275  1.00  0.00    -0.082 Cl
ENDBRANCH  12  14
ENDBRANCH  10  12
ENDBRANCH   7   8
BRANCH   1  18
HETATM   18  C3  UNL     1       2.416   0.780  -0.114  1.00  0.00     0.135 C 
BRANCH  18  19
HETATM   19  C2  UNL     1       2.828   1.858  -1.053  1.00  0.00     0.188 C 
HETATM   20  C1  UNL     1       3.320   1.293  -2.364  1.00  0.00     0.040 C 
BRANCH  19  21
HETATM   21  N1  UNL     1       1.797   2.856  -1.267  1.00  0.00    -0.075 N 
ATOM     22  H13 UNL     1       2.113   3.592  -1.898  1.00  0.00     0.274 HD
ATOM     23  H12 UNL     1       1.029   2.488  -1.829  1.00  0.00     0.274 HD
ATOM     24  H11 UNL     1       1.465   3.238  -0.381  1.00  0.00     0.274 HD
ENDBRANCH  19  21
ENDBRANCH  18  19
ENDBRANCH   1  18
TORSDOF 6
