REMARK  6 active torsions:
REMARK  status: ('A' for Active; 'I' for Inactive)
REMARK    1  A    between atoms: C2_2  and  C3_3 
REMARK    2  A    between atoms: N3_10  and  N4_11 
REMARK    3  A    between atoms: C5_14  and  C6_15 
REMARK    4  A    between atoms: C6_15  and  N5_16 
REMARK    5  A    between atoms: N5_16  and  C7_18 
REMARK    6  A    between atoms: C7_18  and  O1_19 
ROOT
HETATM    1  C3  UNL     1      -1.277   0.460  -0.188  1.00  0.00     0.072 A 
HETATM    2  N1  UNL     1      -2.281  -0.378  -0.582  1.00  0.00    -0.189 N 
ATOM      3  H1  UNL     1      -3.136  -0.099  -1.063  1.00  0.00     0.184 HD
HETATM    4  C4  UNL     1      -1.948  -1.642  -0.226  1.00  0.00     0.697 A 
HETATM    5  N2  UNL     1      -2.599  -2.747  -0.436  1.00  0.00    -0.233 N 
ATOM      6  H21 UNL     1      -2.348  -3.699  -0.168  1.00  0.00     0.174 HD
ATOM      7  H22 UNL     1      -3.506  -2.753  -0.903  1.00  0.00     0.174 HD
HETATM    8  N3  UNL     1      -0.742  -1.634   0.395  1.00  0.00    -0.094 N 
HETATM    9  C5  UNL     1      -0.349  -0.371   0.397  1.00  0.00     0.096 A 
ENDROOT
BRANCH   9  10
HETATM   10  C6  UNL     1       0.991   0.123   0.881  1.00  0.00     0.178 C 
BRANCH  10  11
HETATM   11  N5  UNL     1       1.930  -0.531  -0.035  1.00  0.00    -0.396 N 
ATOM     12  H5  UNL     1       1.632  -1.259  -0.684  1.00  0.00     0.155 HD
BRANCH  11  13
HETATM   13  C7  UNL     1       3.276  -0.093   0.033  1.00  0.00     0.282 C 
BRANCH  13  14
HETATM   14  O1  UNL     1       3.994  -0.773  -0.997  1.00  0.00    -0.383 OA
ATOM     15  H1  UNL     1       4.896  -0.479  -0.951  1.00  0.00     0.211 HD
ENDBRANCH  13  14
ENDBRANCH  11  13
ENDBRANCH  10  11
ENDBRANCH   9  10
BRANCH   1  16
HETATM   16  C2  UNL     1      -1.270   1.918  -0.184  1.00  0.00     0.001 C 
HETATM   17  C1  UNL     1      -0.190   2.699  -0.795  1.00  0.00     0.038 C 
ENDBRANCH   1  16
BRANCH   8  18
HETATM   18  N4  UNL     1      -0.157  -2.719   1.079  1.00  0.00    -0.324 N 
ATOM     19  H42 UNL     1      -0.460  -3.693   1.077  1.00  0.00     0.178 HD
ATOM     20  H41 UNL     1       0.750  -2.713   1.546  1.00  0.00     0.178 HD
ENDBRANCH   8  18
TORSDOF 6
