REMARK  14 active torsions:
REMARK  status: ('A' for Active; 'I' for Inactive)
REMARK    1  A    between atoms: C2_2  and  C3_3 
REMARK    2  A    between atoms: C3_3  and  C4_4 
REMARK    3  A    between atoms: C4_4  and  C5_5 
REMARK    4  A    between atoms: C5_5  and  C6_6 
REMARK    5  A    between atoms: C6_6  and  C7_7 
REMARK    6  A    between atoms: C7_7  and  C8_8 
REMARK    7  A    between atoms: C8_8  and  C9_9 
REMARK    8  A    between atoms: C9_9  and  C10_10 
REMARK    9  A    between atoms: C10_10  and  C11_11 
REMARK   10  A    between atoms: N1_15  and  C15_16 
REMARK   11  A    between atoms: C15_16  and  O1_17 
REMARK   12  A    between atoms: C15_16  and  C16_19 
REMARK   13  A    between atoms: C16_19  and  C17_21 
REMARK   14  A    between atoms: C17_21  and  S1_22 
ROOT
HETATM    1  S1  UNL     1      -8.133   0.850   0.529  1.00  0.00    -0.043 SA
HETATM    2  C18 UNL     1      -7.735   1.668  -1.005  1.00  0.00     0.134 C 
HETATM    3  N2  UNL     1      -7.460   2.202  -1.992  1.00  0.00    -0.184 NA
ENDROOT
BRANCH   1   4
HETATM    4  C17 UNL     1      -7.957  -0.904   0.326  1.00  0.00     0.177 C 
BRANCH   4   5
HETATM    5  C16 UNL     1      -6.508  -1.303   0.205  1.00  0.00     0.209 C 
HETATM    6  O2  UNL     1      -6.316  -2.537  -0.152  1.00  0.00    -0.288 OA
BRANCH   5   7
HETATM    7  C15 UNL     1      -5.395  -0.467   0.447  1.00  0.00     0.186 C 
BRANCH   7   8
HETATM    8  N1  UNL     1      -4.045  -0.747   0.313  1.00  0.00    -0.359 N 
HETATM    9  C14 UNL     1      -3.478  -2.001  -0.078  1.00  0.00     0.125 C 
HETATM   10  C13 UNL     1      -2.637  -1.869  -1.348  1.00  0.00     0.020 C 
HETATM   11  C12 UNL     1      -2.119  -0.450  -1.461  1.00  0.00     0.008 C 
HETATM   12  C11 UNL     1      -1.761   0.007  -0.064  1.00  0.00     0.004 C 
HETATM   13  C19 UNL     1      -3.093   0.372   0.593  1.00  0.00     0.129 C 
BRANCH  12  14
HETATM   14  C10 UNL     1      -0.908   1.222  -0.039  1.00  0.00     0.006 C 
BRANCH  14  15
HETATM   15  C9  UNL     1       0.418   1.121  -0.727  1.00  0.00     0.000 C 
BRANCH  15  16
HETATM   16  C8  UNL     1       1.318   0.079  -0.203  1.00  0.00     0.000 C 
BRANCH  16  17
HETATM   17  C7  UNL     1       2.650  -0.041  -0.885  1.00  0.00     0.000 C 
BRANCH  17  18
HETATM   18  C6  UNL     1       3.479   1.221  -0.801  1.00  0.00     0.000 C 
BRANCH  18  19
HETATM   19  C5  UNL     1       3.745   1.591   0.610  1.00  0.00     0.000 C 
BRANCH  19  20
HETATM   20  C4  UNL     1       4.441   0.623   1.452  1.00  0.00     0.000 C 
BRANCH  20  21
HETATM   21  C3  UNL     1       5.847   0.303   1.178  1.00  0.00    -0.000 C 
BRANCH  21  22
HETATM   22  C2  UNL     1       6.236  -0.234  -0.140  1.00  0.00    -0.005 C 
HETATM   23  C1  UNL     1       7.744  -0.604  -0.107  1.00  0.00     0.005 C 
ENDBRANCH  21  22
ENDBRANCH  20  21
ENDBRANCH  19  20
ENDBRANCH  18  19
ENDBRANCH  17  18
ENDBRANCH  16  17
ENDBRANCH  15  16
ENDBRANCH  14  15
ENDBRANCH  12  14
ENDBRANCH   7   8
BRANCH   7  24
HETATM   24  O1  UNL     1      -5.647   0.746   0.853  1.00  0.00    -0.344 OA
ATOM     25  H1  UNL     1      -6.573   0.938   0.945  1.00  0.00     0.219 HD
ENDBRANCH   7  24
ENDBRANCH   5   7
ENDBRANCH   4   5
ENDBRANCH   1   4
TORSDOF 14
