REMARK  22 active torsions:
REMARK  status: ('A' for Active; 'I' for Inactive)
REMARK    1  A    between atoms: C2_2  and  C3_3 
REMARK    2  A    between atoms: C3_3  and  C4_4 
REMARK    3  A    between atoms: C4_4  and  C5_5 
REMARK    4  A    between atoms: C5_5  and  C6_6 
REMARK    5  A    between atoms: C6_6  and  C7_7 
REMARK    6  A    between atoms: C7_7  and  C8_8 
REMARK    7  A    between atoms: C8_8  and  C9_9 
REMARK    8  A    between atoms: C9_9  and  C10_10 
REMARK    9  A    between atoms: C10_10  and  N1_11 
REMARK   10  A    between atoms: N1_11  and  C11_13 
REMARK   11  A    between atoms: C12_16  and  N3_17 
REMARK   12  A    between atoms: C14_19  and  O1_20 
REMARK   13  A    between atoms: C15_22  and  O2_23 
REMARK   14  A    between atoms: C16_25  and  C17_26 
REMARK   15  A    between atoms: C17_26  and  O3_27 
REMARK   16  A    between atoms: C19_30  and  N4_31 
REMARK   17  A    between atoms: N4_31  and  C20_33 
REMARK   18  A    between atoms: C20_33  and  C21_34 
REMARK   19  A    between atoms: C20_33  and  C24_41 
REMARK   20  A    between atoms: C21_34  and  C22_35 
REMARK   21  A    between atoms: C22_35  and  C23_36 
REMARK   22  A    between atoms: C23_36  and  N5_37 
ROOT
HETATM    1  C11 UNL     1      -0.281  -0.739   0.733  1.00  0.00     0.684 A 
HETATM    2  N2  UNL     1      -0.615   0.488   1.157  1.00  0.00    -0.176 N 
ATOM      3  H2  UNL     1       0.041   1.047   1.703  1.00  0.00     0.186 HD
HETATM    4  C12 UNL     1      -1.830   0.964   0.848  1.00  0.00     0.123 A 
HETATM    5  C18 UNL     1      -2.710   0.199   0.112  1.00  0.00     0.097 A 
HETATM    6  C19 UNL     1      -2.387  -1.065  -0.333  1.00  0.00     0.121 A 
HETATM    7  N7  UNL     1      -1.160  -1.499  -0.000  1.00  0.00    -0.177 N 
ATOM      8  H7  UNL     1      -0.870  -2.429  -0.303  1.00  0.00     0.186 HD
ENDROOT
BRANCH   6   9
HETATM    9  N4  UNL     1      -3.125  -1.846  -1.022  1.00  0.00    -0.363 N 
ATOM     10  H4  UNL     1      -2.757  -2.761  -1.283  1.00  0.00     0.162 HD
BRANCH   9  11
HETATM   11  C20 UNL     1      -4.445  -1.493  -1.444  1.00  0.00     0.172 C 
BRANCH  11  12
HETATM   12  C21 UNL     1      -5.316  -2.716  -1.676  1.00  0.00     0.036 C 
BRANCH  12  13
HETATM   13  C22 UNL     1      -5.431  -3.499  -0.396  1.00  0.00     0.030 C 
BRANCH  13  14
HETATM   14  C23 UNL     1      -6.271  -4.738  -0.572  1.00  0.00     0.230 C 
BRANCH  14  15
HETATM   15  N5  UNL     1      -7.606  -4.500  -1.002  1.00  0.00    -0.079 N 
ATOM     16  H53 UNL     1      -8.069  -3.847  -0.370  1.00  0.00     0.274 HD
ATOM     17  H52 UNL     1      -7.607  -3.948  -1.860  1.00  0.00     0.274 HD
ATOM     18  H51 UNL     1      -8.174  -5.338  -1.121  1.00  0.00     0.274 HD
ENDBRANCH  14  15
ENDBRANCH  13  14
ENDBRANCH  12  13
ENDBRANCH  11  12
BRANCH  11  19
HETATM   19  C24 UNL     1      -4.442  -0.687  -2.695  1.00  0.00     0.253 C 
HETATM   20  N6  UNL     1      -5.650  -0.275  -3.317  1.00  0.00    -0.060 NA
HETATM   21  O4  UNL     1      -3.351  -0.356  -3.222  1.00  0.00    -0.275 OA
ENDBRANCH  11  19
ENDBRANCH   9  11
ENDBRANCH   6   9
BRANCH   4  22
HETATM   22  N3  UNL     1      -2.163   2.269   1.280  1.00  0.00    -0.355 N 
HETATM   23  C13 UNL     1      -1.386   3.487   1.108  1.00  0.00     0.159 C 
HETATM   24  C14 UNL     1      -2.368   4.623   1.194  1.00  0.00     0.166 C 
HETATM   25  C15 UNL     1      -3.718   3.992   1.403  1.00  0.00     0.173 C 
HETATM   26  C16 UNL     1      -3.362   2.636   1.988  1.00  0.00     0.140 C 
BRANCH  24  27
HETATM   27  O1  UNL     1      -2.409   5.299  -0.029  1.00  0.00    -0.391 OA
ATOM     28  H1  UNL     1      -3.029   6.017   0.025  1.00  0.00     0.210 HD
ENDBRANCH  24  27
BRANCH  25  29
HETATM   29  O2  UNL     1      -4.522   4.720   2.264  1.00  0.00    -0.391 OA
ATOM     30  H2  UNL     1      -5.374   4.322   2.396  1.00  0.00     0.210 HD
ENDBRANCH  25  29
BRANCH  26  31
HETATM   31  C17 UNL     1      -3.119   2.741   3.485  1.00  0.00     0.192 C 
BRANCH  31  32
HETATM   32  O3  UNL     1      -2.169   3.690   3.795  1.00  0.00    -0.399 OA
ATOM     33  H3  UNL     1      -2.017   3.756   4.730  1.00  0.00     0.209 HD
ENDBRANCH  31  32
ENDBRANCH  26  31
ENDBRANCH   4  22
BRANCH   1  34
HETATM   34  N1  UNL     1       0.837  -1.235   0.988  1.00  0.00    -0.205 N 
ATOM     35  H1  UNL     1       0.914  -2.170   0.588  1.00  0.00     0.183 HD
BRANCH  34  36
HETATM   36  C10 UNL     1       2.002  -0.892   1.652  1.00  0.00     0.079 C 
BRANCH  36  37
HETATM   37  C9  UNL     1       2.826   0.242   1.134  1.00  0.00     0.045 C 
BRANCH  37  38
HETATM   38  C8  UNL     1       4.076   0.448   1.980  1.00  0.00     0.005 C 
BRANCH  38  39
HETATM   39  C7  UNL     1       4.995  -0.737   1.992  1.00  0.00     0.000 C 
BRANCH  39  40
HETATM   40  C6  UNL     1       5.473  -1.061   0.609  1.00  0.00     0.000 C 
BRANCH  40  41
HETATM   41  C5  UNL     1       6.240   0.109   0.035  1.00  0.00     0.000 C 
BRANCH  41  42
HETATM   42  C4  UNL     1       6.728  -0.148  -1.359  1.00  0.00     0.000 C 
BRANCH  42  43
HETATM   43  C3  UNL     1       7.638  -1.327  -1.498  1.00  0.00    -0.000 C 
BRANCH  43  44
HETATM   44  C2  UNL     1       8.020  -1.387  -2.989  1.00  0.00    -0.005 C 
HETATM   45  C1  UNL     1       8.719  -0.077  -3.322  1.00  0.00     0.005 C 
ENDBRANCH  43  44
ENDBRANCH  42  43
ENDBRANCH  41  42
ENDBRANCH  40  41
ENDBRANCH  39  40
ENDBRANCH  38  39
ENDBRANCH  37  38
ENDBRANCH  36  37
ENDBRANCH  34  36
ENDBRANCH   1  34
TORSDOF 22
