REMARK  1 active torsions:
REMARK  status: ('A' for Active; 'I' for Inactive)
REMARK    1  A    between atoms: C4_8  and  N3_9 
ROOT
HETATM    1  C1  UNL     1      -0.654  -1.447   0.410  1.00  0.00     0.279 C 
HETATM    2  N1  UNL     1      -0.367  -0.064   0.104  1.00  0.00     0.003 N 
HETATM    3  C2  UNL     1      -1.252   0.431  -0.902  1.00  0.00     0.279 C 
HETATM    4  C3  UNL     1      -0.274   0.810   1.273  1.00  0.00     0.476 C 
HETATM    5  N2  UNL     1       0.784   1.518   0.532  1.00  0.00     0.003 N 
ATOM      6  H21 UNL     1       1.520   2.037   1.010  1.00  0.00     0.283 HD
ATOM      7  H22 UNL     1       0.591   2.363  -0.006  1.00  0.00     0.283 HD
HETATM    8  C4  UNL     1       1.045   0.224  -0.122  1.00  0.00     0.585 C 
ENDROOT
BRANCH   8   9
HETATM    9  N3  UNL     1       1.934  -0.535   0.713  1.00  0.00    -0.025 N 
ATOM     10  H33 UNL     1       1.695  -0.411   1.697  1.00  0.00     0.278 HD
ATOM     11  H32 UNL     1       1.752  -1.534   0.617  1.00  0.00     0.278 HD
ATOM     12  H31 UNL     1       2.921  -0.334   0.555  1.00  0.00     0.278 HD
ENDBRANCH   8   9
TORSDOF 1
