REMARK  0 active torsions:
REMARK  status: ('A' for Active; 'I' for Inactive)
ROOT
HETATM    1  C1  UNL     1       1.482   0.611   0.027  1.00  0.00     0.316 C 
HETATM    2  N1  UNL     1       0.480  -0.292   0.485  1.00  0.00     0.154 N 
HETATM    3  C2  UNL     1       0.035  -1.308  -0.427  1.00  0.00     0.510 A 
HETATM    4  N2  UNL     1      -1.336  -0.842  -0.319  1.00  0.00    -0.004 N 
ATOM      5  H21 UNL     1      -2.083  -1.477  -0.038  1.00  0.00     0.283 HD
ATOM      6  H22 UNL     1      -1.874  -0.604  -1.152  1.00  0.00     0.283 HD
HETATM    7  C3  UNL     1      -0.864   0.195   0.582  1.00  0.00     0.527 A 
HETATM    8  C4  UNL     1      -1.093   1.535   0.065  1.00  0.00     0.125 C 
HETATM    9  N3  UNL     1      -1.292   2.607  -0.346  1.00  0.00    -0.193 NA
ENDROOT
TORSDOF 0
