REMARK  7 active torsions:
REMARK  status: ('A' for Active; 'I' for Inactive)
REMARK    1  A    between atoms: C2_2  and  N1_3 
REMARK    2  A    between atoms: N1_3  and  C3_5 
REMARK    3  A    between atoms: C4_10  and  N4_11 
REMARK    4  A    between atoms: N4_11  and  C5_13 
REMARK    5  A    between atoms: C5_13  and  C6_14 
REMARK    6  A    between atoms: C6_14  and  C7_15 
REMARK    7  A    between atoms: C7_15  and  N5_16 
ROOT
HETATM    1  C3  UNL     1      -3.435  -0.046  -0.122  1.00  0.00     0.707 A 
HETATM    2  N2  UNL     1      -3.914  -0.882   0.813  1.00  0.00    -0.117 N 
ATOM      3  H2  UNL     1      -4.903  -1.021   1.023  1.00  0.00     0.206 HD
HETATM    4  N3  UNL     1      -2.899  -1.509   1.432  1.00  0.00    -0.117 N 
ATOM      5  H3  UNL     1      -2.987  -2.196   2.181  1.00  0.00     0.206 HD
HETATM    6  C4  UNL     1      -1.753  -1.075   0.894  1.00  0.00     0.707 A 
HETATM    7  N6  UNL     1      -2.076  -0.184  -0.052  1.00  0.00    -0.020 N 
ATOM      8  H6  UNL     1      -1.407   0.318  -0.635  1.00  0.00     0.203 HD
ENDROOT
BRANCH   6   9
HETATM    9  N4  UNL     1      -0.576  -1.462   1.246  1.00  0.00    -0.224 N 
ATOM     10  H4  UNL     1      -0.472  -2.153   1.989  1.00  0.00     0.177 HD
BRANCH   9  11
HETATM   11  C5  UNL     1       0.622  -0.916   0.585  1.00  0.00     0.140 C 
BRANCH  11  12
HETATM   12  C6  UNL     1       0.977   0.412   1.142  1.00  0.00     0.050 C 
BRANCH  12  13
HETATM   13  C7  UNL     1       2.149   1.049   0.505  1.00  0.00     0.274 C 
BRANCH  13  14
HETATM   14  N5  UNL     1       3.424   0.396   0.582  1.00  0.00     0.088 N 
HETATM   15  C8  UNL     1       4.394   1.396   0.062  1.00  0.00     0.272 C 
HETATM   16  C9  UNL     1       5.578   0.530  -0.284  1.00  0.00     0.032 C 
HETATM   17  C10 UNL     1       4.934  -0.666  -0.961  1.00  0.00     0.032 C 
HETATM   18  C11 UNL     1       3.591  -0.749  -0.259  1.00  0.00     0.272 C 
ENDBRANCH  13  14
ENDBRANCH  12  13
ENDBRANCH  11  12
ENDBRANCH   9  11
ENDBRANCH   6   9
BRANCH   1  19
HETATM   19  N1  UNL     1      -4.012   0.745  -0.934  1.00  0.00    -0.225 N 
ATOM     20  H1  UNL     1      -3.383   1.269  -1.542  1.00  0.00     0.177 HD
BRANCH  19  21
HETATM   21  C2  UNL     1      -5.385   1.014  -1.128  1.00  0.00     0.134 C 
HETATM   22  C1  UNL     1      -6.330  -0.134  -0.973  1.00  0.00     0.027 C 
ENDBRANCH  19  21
ENDBRANCH   1  19
TORSDOF 7
