REMARK  14 active torsions:
REMARK  status: ('A' for Active; 'I' for Inactive)
REMARK    1  A    between atoms: C2_2  and  C3_3 
REMARK    2  A    between atoms: C3_3  and  C4_4 
REMARK    3  A    between atoms: C4_4  and  N1_5 
REMARK    4  A    between atoms: N1_5  and  C7_8 
REMARK    5  A    between atoms: C7_8  and  C8_9 
REMARK    6  A    between atoms: C8_9  and  C9_10 
REMARK    7  A    between atoms: C9_10  and  N2_11 
REMARK    8  A    between atoms: N2_11  and  C10_12 
REMARK    9  A    between atoms: C13_15  and  N3_16 
REMARK   10  A    between atoms: C14_20  and  N4_21 
REMARK       I    between atoms: N4_21  and  C15_23 
REMARK   11  A    between atoms: C15_23  and  C16_25 
REMARK   12  A    between atoms: C16_25  and  C17_26 
REMARK   13  A    between atoms: C17_26  and  N5_27 
REMARK   14  A    between atoms: N6_34  and  N7_36 
ROOT
HETATM    1  N2  UNL     1      -1.424  -0.923   1.965  1.00  0.00    -0.061 N 
HETATM    2  C18 UNL     1      -2.397  -0.091   2.714  1.00  0.00     0.239 C 
HETATM    3  C19 UNL     1      -2.635  -1.296   3.598  1.00  0.00     0.056 C 
HETATM    4  C20 UNL     1      -1.192  -1.596   3.224  1.00  0.00     0.239 C 
ENDROOT
BRANCH   1   5
HETATM    5  C9  UNL     1      -0.293  -0.117   1.592  1.00  0.00     0.239 C 
BRANCH   5   6
HETATM    6  C8  UNL     1       1.043  -0.756   1.821  1.00  0.00     0.056 C 
BRANCH   6   7
HETATM    7  C7  UNL     1       2.240   0.048   1.482  1.00  0.00     0.238 C 
BRANCH   7   8
HETATM    8  N1  UNL     1       2.423   0.457   0.126  1.00  0.00    -0.074 N 
HETATM    9  C5  UNL     1       1.717   1.697  -0.108  1.00  0.00     0.272 C 
HETATM   10  C6  UNL     1       2.057  -0.531  -0.849  1.00  0.00     0.272 C 
BRANCH   8  11
HETATM   11  C4  UNL     1       3.872   0.675  -0.085  1.00  0.00     0.242 C 
BRANCH  11  12
HETATM   12  C3  UNL     1       4.201   0.916  -1.537  1.00  0.00     0.081 C 
BRANCH  12  13
HETATM   13  C2  UNL     1       5.667   1.118  -1.609  1.00  0.00     0.003 C 
HETATM   14  C1  UNL     1       6.304   2.224  -0.865  1.00  0.00     0.065 C 
HETATM   15  N6  UNL     1       6.399   0.339  -2.314  1.00  0.00    -0.295 N 
ATOM     16  H6  UNL     1       7.404   0.512  -2.337  1.00  0.00     0.187 HD
BRANCH  15  17
HETATM   17  N7  UNL     1       5.897  -0.734  -3.053  1.00  0.00    -0.249 N 
HETATM   18  N8  UNL     1       6.201  -0.798  -4.273  1.00  0.00    -0.331 N 
ATOM     19  H82 UNL     1       6.795  -0.082  -4.692  1.00  0.00     0.178 HD
ATOM     20  H81 UNL     1       5.834  -1.582  -4.813  1.00  0.00     0.178 HD
ATOM     21  H7  UNL     1       5.304  -1.442  -2.619  1.00  0.00     0.207 HD
ENDBRANCH  15  17
ENDBRANCH  12  13
ENDBRANCH  11  12
ENDBRANCH   8  11
ENDBRANCH   7   8
ENDBRANCH   6   7
ENDBRANCH   5   6
ENDBRANCH   1   5
BRANCH   1  22
HETATM   22  C10 UNL     1      -2.122  -1.664   0.972  1.00  0.00     0.215 C 
HETATM   23  C11 UNL     1      -1.677  -3.083   0.781  1.00  0.00     0.038 C 
HETATM   24  C12 UNL     1      -2.017  -3.435  -0.673  1.00  0.00     0.037 C 
HETATM   25  C13 UNL     1      -2.744  -2.259  -1.224  1.00  0.00     0.208 C 
HETATM   26  C14 UNL     1      -2.145  -1.103  -0.403  1.00  0.00     0.145 C 
BRANCH  25  27
HETATM   27  N3  UNL     1      -4.171  -2.320  -1.070  1.00  0.00    -0.073 N 
ATOM     28  H33 UNL     1      -4.536  -3.184  -1.471  1.00  0.00     0.274 HD
ATOM     29  H32 UNL     1      -4.418  -2.464  -0.091  1.00  0.00     0.274 HD
ATOM     30  H31 UNL     1      -4.669  -1.514  -1.448  1.00  0.00     0.274 HD
ENDBRANCH  25  27
BRANCH  26  31
HETATM   31  N4  UNL     1      -3.109  -0.024  -0.560  1.00  0.00    -0.352 N 
HETATM   32  C15 UNL     1      -2.849   1.170  -1.254  1.00  0.00     0.219 C 
HETATM   33  O1  UNL     1      -1.740   1.421  -1.813  1.00  0.00    -0.274 OA
ATOM     34  H4  UNL     1      -4.031  -0.142  -0.140  1.00  0.00     0.163 HD
BRANCH  32  35
HETATM   35  C16 UNL     1      -3.893   2.211  -1.359  1.00  0.00     0.130 C 
BRANCH  35  36
HETATM   36  C17 UNL     1      -3.445   3.411  -2.129  1.00  0.00     0.238 C 
BRANCH  36  37
HETATM   37  N5  UNL     1      -4.537   4.363  -2.172  1.00  0.00    -0.079 N 
ATOM     38  H53 UNL     1      -5.396   3.957  -2.544  1.00  0.00     0.274 HD
ATOM     39  H52 UNL     1      -4.886   4.601  -1.244  1.00  0.00     0.274 HD
ATOM     40  H51 UNL     1      -4.231   5.182  -2.698  1.00  0.00     0.274 HD
ENDBRANCH  36  37
ENDBRANCH  35  36
ENDBRANCH  32  35
ENDBRANCH  26  31
ENDBRANCH   1  22
TORSDOF 14
