REMARK  17 active torsions:
REMARK  status: ('A' for Active; 'I' for Inactive)
REMARK    1  A    between atoms: C2_2  and  C3_3 
REMARK    2  A    between atoms: C3_3  and  C4_4 
REMARK    3  A    between atoms: C4_4  and  C5_5 
REMARK    4  A    between atoms: C5_5  and  C6_6 
REMARK    5  A    between atoms: C6_6  and  C7_7 
REMARK    6  A    between atoms: C7_7  and  C8_8 
REMARK    7  A    between atoms: C8_8  and  N1_9 
REMARK    8  A    between atoms: N1_9  and  C9_10 
REMARK    9  A    between atoms: N1_9  and  C11_12 
REMARK   10  A    between atoms: C11_12  and  C12_13 
REMARK   11  A    between atoms: C15_17  and  O1_18 
REMARK   12  A    between atoms: O1_18  and  C16_19 
REMARK   13  A    between atoms: C16_19  and  C17_20 
REMARK   14  A    between atoms: C17_20  and  N2_21 
REMARK   15  A    between atoms: C22_29  and  C23_30 
REMARK   16  A    between atoms: C23_30  and  O5_32 
REMARK   17  A    between atoms: O5_32  and  C24_33 
ROOT
HETATM    1  C12 UNL     1      -0.087  -0.515   0.549  1.00  0.00    -0.022 A 
HETATM    2  C13 UNL     1      -0.154  -0.146  -0.768  1.00  0.00     0.031 A 
HETATM    3  C14 UNL     1      -1.341  -0.119  -1.533  1.00  0.00     0.046 A 
HETATM    4 BR1  UNL     1      -1.332   0.412  -3.356  1.00  0.00    -0.048 Br
HETATM    5  C15 UNL     1      -2.473  -0.491  -0.892  1.00  0.00     0.103 A 
HETATM    6  C22 UNL     1      -2.445  -0.872   0.425  1.00  0.00     0.080 A 
HETATM    7  C26 UNL     1      -1.303  -0.887   1.167  1.00  0.00    -0.035 A 
HETATM    8  C27 UNL     1      -1.401  -1.248   2.580  1.00  0.00     0.050 C 
ENDROOT
BRANCH   1   9
HETATM    9  C11 UNL     1       1.110  -0.480   1.407  1.00  0.00     0.311 C 
BRANCH   9  10
HETATM   10  N1  UNL     1       2.222  -1.295   0.905  1.00  0.00     0.092 N 
BRANCH  10  11
HETATM   11  C8  UNL     1       2.710  -1.151  -0.389  1.00  0.00     0.272 C 
BRANCH  11  12
HETATM   12  C7  UNL     1       3.990  -1.840  -0.703  1.00  0.00     0.030 C 
BRANCH  12  13
HETATM   13  C6  UNL     1       5.237  -1.238  -0.035  1.00  0.00     0.002 C 
BRANCH  13  14
HETATM   14  C5  UNL     1       5.497   0.076  -0.691  1.00  0.00     0.000 C 
BRANCH  14  15
HETATM   15  C4  UNL     1       6.700   0.844  -0.273  1.00  0.00     0.000 C 
BRANCH  15  16
HETATM   16  C3  UNL     1       6.686   2.064  -1.219  1.00  0.00    -0.000 C 
BRANCH  16  17
HETATM   17  C2  UNL     1       7.855   2.949  -1.103  1.00  0.00    -0.005 C 
HETATM   18  C1  UNL     1       8.001   3.508   0.272  1.00  0.00     0.005 C 
ENDBRANCH  16  17
ENDBRANCH  15  16
ENDBRANCH  14  15
ENDBRANCH  13  14
ENDBRANCH  12  13
ENDBRANCH  11  12
ENDBRANCH  10  11
BRANCH  10  19
HETATM   19  C9  UNL     1       1.675  -2.650   1.158  1.00  0.00     0.268 C 
HETATM   20  C10 UNL     1       2.549  -3.802   1.169  1.00  0.00     0.037 C 
ENDBRANCH  10  19
ENDBRANCH   9  10
ENDBRANCH   1   9
BRANCH   6  21
HETATM   21  C23 UNL     1      -3.637  -1.623   0.942  1.00  0.00     0.296 C 
HETATM   22  O4  UNL     1      -4.647  -1.223   1.427  1.00  0.00    -0.259 OA
BRANCH  21  23
HETATM   23  O5  UNL     1      -3.401  -3.002   0.765  1.00  0.00    -0.318 OA
BRANCH  23  24
HETATM   24  C24 UNL     1      -4.287  -3.992   1.079  1.00  0.00     0.174 C 
HETATM   25  C25 UNL     1      -5.474  -3.877   0.106  1.00  0.00     0.034 C 
ENDBRANCH  23  24
ENDBRANCH  21  23
ENDBRANCH   6  21
BRANCH   5  26
HETATM   26  O1  UNL     1      -3.771  -0.504  -1.485  1.00  0.00    -0.347 OA
BRANCH  26  27
HETATM   27  C16 UNL     1      -4.442   0.688  -1.111  1.00  0.00     0.196 C 
BRANCH  27  28
HETATM   28  C17 UNL     1      -5.850   0.860  -1.538  1.00  0.00     0.162 C 
BRANCH  28  29
HETATM   29  N2  UNL     1      -6.276   2.090  -0.836  1.00  0.00    -0.283 N 
HETATM   30  C18 UNL     1      -6.124   3.361  -1.184  1.00  0.00     0.116 A 
HETATM   31 BR2  UNL     1      -5.299   4.018  -2.741  1.00  0.00    -0.028 Br
HETATM   32  C19 UNL     1      -6.671   4.183  -0.185  1.00  0.00     0.089 A 
HETATM   33  C20 UNL     1      -6.710   5.668  -0.172  1.00  0.00     0.080 C 
HETATM   34  O2  UNL     1      -7.130   3.350   0.722  1.00  0.00    -0.263 OA
HETATM   35  C21 UNL     1      -6.910   2.095   0.364  1.00  0.00     0.373 A 
HETATM   36  O3  UNL     1      -7.243   1.089   1.037  1.00  0.00    -0.237 OA
ENDBRANCH  28  29
ENDBRANCH  27  28
ENDBRANCH  26  27
ENDBRANCH   5  26
TORSDOF 17
