REMARK  3 active torsions:
REMARK  status: ('A' for Active; 'I' for Inactive)
REMARK    1  A    between atoms: N1_3  and  C3_5 
REMARK    2  A    between atoms: C7_10  and  O2_11 
REMARK    3  A    between atoms: C8_13  and  O3_14 
ROOT
HETATM    1  C3  UNL     1       0.504  -0.098   0.624  1.00  0.00     0.119 C 
HETATM    2  C4  UNL     1       0.144  -0.165  -0.869  1.00  0.00     0.052 C 
HETATM    3  C5  UNL     1      -0.051   1.282  -1.192  1.00  0.00     0.176 C 
HETATM    4  O1  UNL     1       0.178   2.013  -0.032  1.00  0.00    -0.381 OA
HETATM    5  C6  UNL     1      -0.323   1.147   0.970  1.00  0.00     0.175 C 
HETATM    6  C7  UNL     1      -1.768   0.951   0.724  1.00  0.00     0.179 C 
HETATM    7  C8  UNL     1      -2.188  -0.255   0.002  1.00  0.00     0.164 C 
HETATM    8  C9  UNL     1      -1.188  -0.923  -0.862  1.00  0.00     0.098 C 
HETATM    9  S1  UNL     1      -1.779  -1.175  -2.562  1.00  0.00    -0.089 SA
ENDROOT
BRANCH   1  10
HETATM   10  N1  UNL     1       1.886   0.161   0.703  1.00  0.00    -0.395 N 
HETATM   11  C2  UNL     1       2.690  -0.678   0.166  1.00  0.00     0.051 C 
HETATM   12  C1  UNL     1       4.179  -0.478   0.205  1.00  0.00     0.054 C 
ATOM     13  H1  UNL     1       2.237   0.994   1.175  1.00  0.00     0.159 HD
ENDBRANCH   1  10
BRANCH   6  14
HETATM   14  O2  UNL     1      -2.412   0.954   1.986  1.00  0.00    -0.390 OA
ATOM     15  H2  UNL     1      -3.340   0.828   1.828  1.00  0.00     0.210 HD
ENDBRANCH   6  14
BRANCH   7  16
HETATM   16  O3  UNL     1      -2.714  -1.216   0.898  1.00  0.00    -0.392 OA
ATOM     17  H3  UNL     1      -2.986  -1.997   0.430  1.00  0.00     0.210 HD
ENDBRANCH   7  16
TORSDOF 3
