REMARK  4 active torsions:
REMARK  status: ('A' for Active; 'I' for Inactive)
REMARK    1  A    between atoms: O1_2  and  N1_3 
REMARK    2  A    between atoms: C8_11  and  O3_12 
REMARK    3  A    between atoms: C9_14  and  C10_15 
REMARK    4  A    between atoms: C10_15  and  O4_16 
ROOT
HETATM    1  N1  UNL     1      -1.269  -0.028  -0.769  1.00  0.00    -0.163 NA
HETATM    2  C2  UNL     1      -1.446  -1.393  -0.388  1.00  0.00     0.127 C 
HETATM    3  C3  UNL     1      -0.210  -2.017   0.178  1.00  0.00     0.049 C 
HETATM    4  C4  UNL     1       0.622  -0.926   0.841  1.00  0.00     0.134 C 
HETATM    5  O2  UNL     1      -0.182   0.098   1.301  1.00  0.00    -0.358 OA
HETATM    6  C5  UNL     1      -0.702   0.812   0.236  1.00  0.00     0.138 C 
HETATM    7  C6  UNL     1      -1.729   1.785   0.830  1.00  0.00     0.066 C 
HETATM    8  C7  UNL     1       0.417   1.677  -0.313  1.00  0.00     0.088 C 
HETATM    9  C8  UNL     1       1.726   0.965  -0.393  1.00  0.00     0.131 C 
HETATM   10  C9  UNL     1       1.667  -0.496  -0.136  1.00  0.00     0.067 C 
ENDROOT
BRANCH  10  11
HETATM   11  C10 UNL     1       3.019  -0.942   0.423  1.00  0.00     0.173 C 
BRANCH  11  12
HETATM   12  O4  UNL     1       4.066  -0.598  -0.400  1.00  0.00    -0.400 OA
ATOM     13  H4  UNL     1       4.906  -0.875  -0.053  1.00  0.00     0.209 HD
ENDBRANCH  11  12
ENDBRANCH  10  11
BRANCH   9  14
HETATM   14  O3  UNL     1       2.682   1.540   0.451  1.00  0.00    -0.395 OA
ATOM     15  H3  UNL     1       3.515   1.087   0.400  1.00  0.00     0.210 HD
ENDBRANCH   9  14
BRANCH   1  16
HETATM   16  O1  UNL     1      -2.340   0.466  -1.374  1.00  0.00    -0.306 OA
HETATM   17  C1  UNL     1      -3.519  -0.192  -1.105  1.00  0.00     0.230 C 
ENDBRANCH   1  16
TORSDOF 4
