REMARK  18 active torsions:
REMARK  status: ('A' for Active; 'I' for Inactive)
REMARK    1  A    between atoms: C2_2  and  C3_3 
REMARK    2  A    between atoms: C3_3  and  O2_5 
REMARK    3  A    between atoms: O2_5  and  C4_6 
REMARK    4  A    between atoms: C4_6  and  C18_40 
REMARK    5  A    between atoms: C5_7  and  C6_8 
REMARK    6  A    between atoms: C6_8  and  O3_9 
REMARK    7  A    between atoms: C6_8  and  O4_11 
REMARK    8  A    between atoms: O4_11  and  C7_12 
REMARK    9  A    between atoms: C8_15  and  O7_16 
REMARK   10  A    between atoms: O7_16  and  C9_17 
REMARK   11  A    between atoms: C10_19  and  N1_20 
REMARK       I    between atoms: N1_20  and  C11_22 
REMARK   12  A    between atoms: C13_25  and  O9_26 
REMARK   13  A    between atoms: C14_28  and  O10_29 
REMARK   14  A    between atoms: C15_31  and  O11_32 
REMARK   15  A    between atoms: C16_34  and  O12_35 
REMARK   16  A    between atoms: C17_37  and  O13_38 
REMARK   17  A    between atoms: N2_42  and  C20_43 
REMARK   18  A    between atoms: C21_49  and  N5_50 
ROOT
HETATM    1  C7  UNL     1       0.306   0.869  -0.150  1.00  0.00     0.331 C 
HETATM    2  O5  UNL     1      -0.809   1.209  -0.939  1.00  0.00    -0.203 OA
HETATM    3  O6  UNL     1      -1.663   0.235  -1.027  1.00  0.00    -0.203 OA
HETATM    4  C8  UNL     1      -2.290  -0.042   0.186  1.00  0.00     0.329 C 
HETATM    5  C16 UNL     1      -1.213  -0.551   1.125  1.00  0.00     0.209 C 
HETATM    6  C17 UNL     1      -0.194   0.593   1.239  1.00  0.00     0.210 C 
ENDROOT
BRANCH   1   7
HETATM    7  O4  UNL     1       0.940  -0.194  -0.734  1.00  0.00    -0.323 OA
BRANCH   7   8
HETATM    8  C6  UNL     1       2.208   0.055  -1.179  1.00  0.00     0.287 C 
BRANCH   8   9
HETATM    9  C5  UNL     1       3.247  -0.744  -0.469  1.00  0.00     0.072 C 
HETATM   10  C4  UNL     1       4.520  -0.511  -0.538  1.00  0.00     0.109 C 
BRANCH  10  11
HETATM   11  O2  UNL     1       4.986   0.536  -1.308  1.00  0.00    -0.277 OA
BRANCH  11  12
HETATM   12  C3  UNL     1       5.114   1.773  -0.684  1.00  0.00     0.263 C 
HETATM   13  O1  UNL     1       4.821   1.942   0.527  1.00  0.00    -0.265 OA
BRANCH  12  14
HETATM   14  C2  UNL     1       5.608   2.960  -1.435  1.00  0.00     0.107 C 
HETATM   15  C1  UNL     1       7.024   3.259  -0.984  1.00  0.00     0.015 C 
ENDBRANCH  12  14
ENDBRANCH  11  12
ENDBRANCH  10  11
BRANCH  10  16
HETATM   16  C18 UNL     1       5.450  -1.351   0.194  1.00  0.00     0.097 A 
HETATM   17  C19 UNL     1       6.844  -1.246   0.235  1.00  0.00     0.149 A 
HETATM   18  N2  UNL     1       7.350  -2.202   1.018  1.00  0.00    -0.229 N 
HETATM   19  N6  UNL     1       6.317  -2.895   1.461  1.00  0.00    -0.013 NA
HETATM   20  N7  UNL     1       5.184  -2.409   0.987  1.00  0.00    -0.280 N 
ATOM     21  H7  UNL     1       4.254  -2.776   1.189  1.00  0.00     0.184 HD
BRANCH  18  22
HETATM   22  C20 UNL     1       8.761  -2.421   1.310  1.00  0.00     0.177 A 
HETATM   23  N3  UNL     1       9.162  -2.643   2.556  1.00  0.00    -0.294 N 
HETATM   24  S2  UNL     1      10.822  -2.835   2.417  1.00  0.00     0.070 SA
ATOM     25  H3  UNL     1       8.593  -2.687   3.401  1.00  0.00     0.177 HD
HETATM   26  N4  UNL     1      10.971  -2.625   0.754  1.00  0.00    -0.296 N 
HETATM   27  C21 UNL     1       9.715  -2.411   0.349  1.00  0.00     0.153 A 
ATOM     28  H4  UNL     1      11.819  -2.654   0.188  1.00  0.00     0.177 HD
BRANCH  27  29
HETATM   29  N5  UNL     1       9.475  -2.203  -0.943  1.00  0.00    -0.382 N 
ATOM     30  H52 UNL     1       8.517  -2.040  -1.252  1.00  0.00     0.157 HD
ATOM     31  H51 UNL     1      10.194  -2.195  -1.667  1.00  0.00     0.157 HD
ENDBRANCH  27  29
ENDBRANCH  18  22
ENDBRANCH  10  16
ENDBRANCH   8   9
BRANCH   8  32
HETATM   32  O3  UNL     1       2.369  -0.236  -2.544  1.00  0.00    -0.368 OA
ATOM     33  H3  UNL     1       1.707   0.273  -2.996  1.00  0.00     0.213 HD
ENDBRANCH   8  32
ENDBRANCH   7   8
ENDBRANCH   1   7
BRANCH   6  34
HETATM   34  O13 UNL     1      -0.907   1.676   1.752  1.00  0.00    -0.388 OA
ATOM     35  H13 UNL     1      -1.223   1.501   2.631  1.00  0.00     0.210 HD
ENDBRANCH   6  34
BRANCH   5  36
HETATM   36  O12 UNL     1      -0.630  -1.708   0.655  1.00  0.00    -0.388 OA
ATOM     37  H12 UNL     1       0.045  -2.027   1.243  1.00  0.00     0.210 HD
ENDBRANCH   5  36
BRANCH   4  38
HETATM   38  O7  UNL     1      -3.363  -0.887   0.059  1.00  0.00    -0.337 OA
BRANCH  38  39
HETATM   39  C9  UNL     1      -4.524  -0.238   0.461  1.00  0.00     0.219 C 
HETATM   40  S1  UNL     1      -5.712  -0.120  -0.932  1.00  0.00    -0.106 SA
HETATM   41  C10 UNL     1      -7.278   0.478  -0.239  1.00  0.00     0.180 C 
HETATM   42  C13 UNL     1      -7.552  -0.091   1.121  1.00  0.00     0.182 C 
HETATM   43  C14 UNL     1      -6.374  -0.034   2.034  1.00  0.00     0.181 C 
HETATM   44  C15 UNL     1      -5.241  -0.930   1.583  1.00  0.00     0.188 C 
BRANCH  41  45
HETATM   45  N1  UNL     1      -8.376   0.278  -1.128  1.00  0.00    -0.345 N 
HETATM   46  C11 UNL     1      -9.133   1.332  -1.710  1.00  0.00     0.214 C 
HETATM   47  C12 UNL     1     -10.267   1.090  -2.631  1.00  0.00     0.117 C 
HETATM   48  O8  UNL     1      -8.866   2.553  -1.464  1.00  0.00    -0.274 OA
ATOM     49  H1  UNL     1      -8.634  -0.681  -1.361  1.00  0.00     0.163 HD
ENDBRANCH  41  45
BRANCH  42  50
HETATM   50  O9  UNL     1      -8.043  -1.387   1.079  1.00  0.00    -0.390 OA
ATOM     51  H9  UNL     1      -8.217  -1.747   1.941  1.00  0.00     0.210 HD
ENDBRANCH  42  50
BRANCH  43  52
HETATM   52  O10 UNL     1      -6.810  -0.361   3.323  1.00  0.00    -0.390 OA
ATOM     53  H10 UNL     1      -6.060  -0.325   3.905  1.00  0.00     0.210 HD
ENDBRANCH  43  52
BRANCH  44  54
HETATM   54  O11 UNL     1      -5.764  -2.139   1.085  1.00  0.00    -0.389 OA
ATOM     55  H11 UNL     1      -6.218  -2.577   1.795  1.00  0.00     0.210 HD
ENDBRANCH  44  54
ENDBRANCH  38  39
ENDBRANCH   4  38
TORSDOF 18
