REMARK  20 active torsions:
REMARK  status: ('A' for Active; 'I' for Inactive)
REMARK    1  A    between atoms: O1_2  and  C2_3 
REMARK    2  A    between atoms: C2_3  and  C3_5 
REMARK    3  A    between atoms: C5_9  and  O5_10 
REMARK    4  A    between atoms: C6_12  and  C7_13 
REMARK    5  A    between atoms: C8_15  and  N1_16 
REMARK    6  A    between atoms: N1_16  and  N2_18 
REMARK       I    between atoms: N3_23  and  C12_24 
REMARK    7  A    between atoms: C12_24  and  C13_26 
REMARK    8  A    between atoms: C13_26  and  C14_27 
REMARK    9  A    between atoms: C14_27  and  N4_28 
REMARK   10  A    between atoms: C15_30  and  O8_32 
REMARK   11  A    between atoms: O8_32  and  C16_33 
REMARK   12  A    between atoms: C17_35  and  C18_36 
REMARK   13  A    between atoms: C18_36  and  O10_37 
REMARK   14  A    between atoms: C18_36  and  C19_39 
REMARK   15  A    between atoms: C19_39  and  O11_40 
REMARK   16  A    between atoms: C20_42  and  O12_43 
REMARK   17  A    between atoms: C21_45  and  O13_46 
REMARK   18  A    between atoms: C22_48  and  O14_49 
REMARK   19  A    between atoms: C23_51  and  O15_52 
REMARK   20  A    between atoms: C24_54  and  O16_55 
ROOT
HETATM    1  C7  UNL     1       4.258   0.413   0.765  1.00  0.00     0.146 A 
HETATM    2  O6  UNL     1       4.041   0.151  -0.505  1.00  0.00    -0.272 OA
HETATM    3  C8  UNL     1       2.821  -0.381  -0.633  1.00  0.00     0.255 A 
HETATM    4  N3  UNL     1       2.251  -0.461   0.562  1.00  0.00    -0.222 N 
HETATM    5  C12 UNL     1       0.980  -0.967   0.891  1.00  0.00     0.234 C 
HETATM    6  O7  UNL     1       0.146  -1.447   0.073  1.00  0.00    -0.272 OA
HETATM    7  C23 UNL     1       3.156   0.044   1.465  1.00  0.00     0.188 A 
ENDROOT
BRANCH   3   8
HETATM    8  N1  UNL     1       2.430  -0.700  -1.774  1.00  0.00    -0.264 N 
ATOM      9  H1  UNL     1       3.161  -0.483  -2.452  1.00  0.00     0.190 HD
BRANCH   8  10
HETATM   10  N2  UNL     1       1.404  -1.217  -2.398  1.00  0.00    -0.307 N 
HETATM   11  C9  UNL     1       1.361  -2.089  -3.342  1.00  0.00    -0.004 C 
HETATM   12  C10 UNL     1       0.055  -2.529  -3.901  1.00  0.00     0.064 C 
HETATM   13  C11 UNL     1       2.606  -2.684  -3.905  1.00  0.00     0.064 C 
ATOM     14  H2  UNL     1       0.495  -0.875  -2.087  1.00  0.00     0.186 HD
ENDBRANCH   8  10
ENDBRANCH   3   8
BRANCH   5  15
HETATM   15  C13 UNL     1       0.525  -0.965   2.306  1.00  0.00     0.123 C 
BRANCH  15  16
HETATM   16  C14 UNL     1      -0.841  -1.624   2.461  1.00  0.00     0.132 C 
BRANCH  16  17
HETATM   17  N4  UNL     1      -1.876  -0.959   1.698  1.00  0.00    -0.358 N 
HETATM   18  C15 UNL     1      -2.861  -0.444   2.336  1.00  0.00     0.229 C 
HETATM   19  N5  UNL     1      -2.918  -0.532   3.750  1.00  0.00    -0.056 NA
ATOM     20  H4  UNL     1      -1.823  -0.902   0.681  1.00  0.00     0.162 HD
BRANCH  18  21
HETATM   21  O8  UNL     1      -3.828   0.181   1.574  1.00  0.00    -0.290 OA
BRANCH  21  22
HETATM   22  C16 UNL     1      -3.973  -0.170   0.241  1.00  0.00     0.300 C 
HETATM   23  O9  UNL     1      -5.037   0.641  -0.238  1.00  0.00    -0.347 OA
HETATM   24  C17 UNL     1      -6.248   0.134   0.293  1.00  0.00     0.186 C 
HETATM   25  C20 UNL     1      -6.639  -1.179  -0.331  1.00  0.00     0.181 C 
HETATM   26  C21 UNL     1      -5.393  -1.658  -1.094  1.00  0.00     0.183 C 
HETATM   27  C22 UNL     1      -4.266  -1.595  -0.059  1.00  0.00     0.205 C 
BRANCH  24  28
HETATM   28  C18 UNL     1      -7.322   1.152   0.054  1.00  0.00     0.173 C 
BRANCH  28  29
HETATM   29  O10 UNL     1      -6.985   2.359   0.718  1.00  0.00    -0.391 OA
ATOM     30  H10 UNL     1      -7.666   3.004   0.567  1.00  0.00     0.210 HD
ENDBRANCH  28  29
BRANCH  28  31
HETATM   31  C19 UNL     1      -7.519   1.452  -1.433  1.00  0.00     0.198 C 
BRANCH  31  32
HETATM   32  O11 UNL     1      -8.551   2.397  -1.506  1.00  0.00    -0.398 OA
ATOM     33  H11 UNL     1      -8.673   2.583  -2.429  1.00  0.00     0.209 HD
ENDBRANCH  31  32
ENDBRANCH  28  31
ENDBRANCH  24  28
BRANCH  25  34
HETATM   34  O12 UNL     1      -6.814  -2.170   0.668  1.00  0.00    -0.390 OA
ATOM     35  H12 UNL     1      -7.061  -2.999   0.274  1.00  0.00     0.210 HD
ENDBRANCH  25  34
BRANCH  26  36
HETATM   36  O13 UNL     1      -5.580  -2.976  -1.493  1.00  0.00    -0.390 OA
ATOM     37  H13 UNL     1      -4.810  -3.272  -1.964  1.00  0.00     0.210 HD
ENDBRANCH  26  36
BRANCH  27  38
HETATM   38  O14 UNL     1      -3.180  -2.244  -0.698  1.00  0.00    -0.388 OA
ATOM     39  H14 UNL     1      -3.367  -3.155  -0.890  1.00  0.00     0.210 HD
ENDBRANCH  27  38
ENDBRANCH  21  22
ENDBRANCH  18  21
ENDBRANCH  16  17
ENDBRANCH  15  16
ENDBRANCH   5  15
BRANCH   7  40
HETATM   40  O15 UNL     1       2.884   0.123   2.829  1.00  0.00    -0.344 OA
ATOM     41  H15 UNL     1       2.112  -0.135   3.319  1.00  0.00     0.219 HD
ENDBRANCH   7  40
BRANCH   1  42
HETATM   42  C6  UNL     1       5.520   1.012   1.221  1.00  0.00     0.078 A 
HETATM   43  C5  UNL     1       5.961   0.894   2.483  1.00  0.00     0.158 A 
HETATM   44  C4  UNL     1       7.141   1.537   2.900  1.00  0.00     0.323 A 
HETATM   45  O3  UNL     1       7.811   2.252   2.048  1.00  0.00    -0.264 OA
HETATM   46  O4  UNL     1       7.546   1.427   4.078  1.00  0.00    -0.257 OA
HETATM   47  C3  UNL     1       7.464   2.419   0.818  1.00  0.00     0.188 A 
HETATM   48  C24 UNL     1       6.291   1.799   0.349  1.00  0.00     0.122 A 
BRANCH  43  49
HETATM   49  O5  UNL     1       5.319   0.151   3.444  1.00  0.00    -0.355 OA
ATOM     50  H5  UNL     1       4.522  -0.283   3.162  1.00  0.00     0.218 HD
ENDBRANCH  43  49
BRANCH  47  51
HETATM   51  C2  UNL     1       8.252   3.227  -0.092  1.00  0.00     0.320 C 
HETATM   52  O2  UNL     1       7.865   3.352  -1.277  1.00  0.00    -0.257 OA
BRANCH  51  53
HETATM   53  O1  UNL     1       9.424   3.856   0.344  1.00  0.00    -0.321 OA
HETATM   54  C1  UNL     1      10.136   4.627  -0.611  1.00  0.00     0.213 C 
ENDBRANCH  51  53
ENDBRANCH  47  51
BRANCH  48  55
HETATM   55  O16 UNL     1       5.948   1.993  -0.945  1.00  0.00    -0.357 OA
ATOM     56  H16 UNL     1       5.156   1.574  -1.262  1.00  0.00     0.218 HD
ENDBRANCH  48  55
ENDBRANCH   1  42
TORSDOF 20
