REMARK  3 active torsions:
REMARK  status: ('A' for Active; 'I' for Inactive)
REMARK    1  A    between atoms: C1_4  and  O1_5 
REMARK    2  A    between atoms: C1_4  and  C2_7 
REMARK    3  A    between atoms: C2_7  and  C3_8 
ROOT
HETATM    1  N1  UNL     1       1.908  -0.464  -0.779  1.00  0.00    -0.383 N 
ATOM      2  H11 UNL     1       1.559  -0.200  -1.700  1.00  0.00     0.158 HD
ATOM      3  H12 UNL     1       2.883  -0.715  -0.618  1.00  0.00     0.158 HD
HETATM    4  C1  UNL     1       1.099  -0.486   0.219  1.00  0.00     0.124 C 
ENDROOT
BRANCH   4   5
HETATM    5  O1  UNL     1       1.569  -0.842   1.459  1.00  0.00    -0.349 OA
ATOM      6  H1  UNL     1       0.971  -0.858   2.197  1.00  0.00     0.219 HD
ENDBRANCH   4   5
BRANCH   4   7
HETATM    7  C2  UNL     1      -0.317  -0.121  -0.015  1.00  0.00     0.077 A 
HETATM    8  C4  UNL     1      -0.543   0.774  -1.206  1.00  0.00     0.027 A 
HETATM    9  C5  UNL     1      -0.775   1.276   0.175  1.00  0.00     0.027 A 
BRANCH   7  10
HETATM   10  C3  UNL     1      -1.293  -1.182   0.295  1.00  0.00     0.249 C 
HETATM   11  O2  UNL     1      -2.511  -1.016   0.146  1.00  0.00    -0.306 OA
ENDBRANCH   7  10
ENDBRANCH   4   7
TORSDOF 3
