REMARK  4 active torsions:
REMARK  status: ('A' for Active; 'I' for Inactive)
REMARK    1  A    between atoms: C2_2  and  C3_6 
REMARK    2  A    between atoms: C6_9  and  C8_11 
REMARK    3  A    between atoms: C8_11  and  N2_12 
REMARK    4  A    between atoms: C12_17  and  O2_18 
ROOT
HETATM    1  C3  UNL     1       2.989  -0.154  -0.598  1.00  0.00     0.166 C 
HETATM    2  C4  UNL     1       2.481  -1.300   0.227  1.00  0.00     0.039 C 
HETATM    3  C5  UNL     1       1.159  -1.019   0.876  1.00  0.00     0.016 C 
HETATM    4  C6  UNL     1       0.191  -0.309  -0.090  1.00  0.00     0.004 C 
HETATM    5  C7  UNL     1       0.058  -1.002  -1.389  1.00  0.00     0.019 C 
HETATM    6  C13 UNL     1       0.964   1.002  -0.386  1.00  0.00     0.179 C 
HETATM    7  O3  UNL     1       2.053   0.675  -1.102  1.00  0.00    -0.379 OA
ENDROOT
BRANCH   4   8
HETATM    8  C8  UNL     1      -1.022  -0.017   0.695  1.00  0.00     0.287 C 
BRANCH   8   9
HETATM    9  N2  UNL     1      -2.125   0.630   0.061  1.00  0.00     0.122 N 
HETATM   10  C9  UNL     1      -2.939   1.154   1.171  1.00  0.00     0.302 C 
HETATM   11  C10 UNL     1      -4.358   1.436   0.758  1.00  0.00     0.198 C 
HETATM   12  O1  UNL     1      -5.002   0.268   0.325  1.00  0.00    -0.385 OA
HETATM   13  C11 UNL     1      -4.068  -0.766   0.199  1.00  0.00     0.231 C 
HETATM   14  C12 UNL     1      -2.973  -0.258  -0.735  1.00  0.00     0.380 C 
BRANCH  14  15
HETATM   15  O2  UNL     1      -3.569   0.471  -1.758  1.00  0.00    -0.366 OA
ATOM     16  H2  UNL     1      -4.120  -0.106  -2.275  1.00  0.00     0.212 HD
ENDBRANCH  14  15
ENDBRANCH   8   9
ENDBRANCH   4   8
BRANCH   1  17
HETATM   17  C2  UNL     1       4.114   0.523   0.083  1.00  0.00     0.005 C 
HETATM   18  C1  UNL     1       5.386  -0.256   0.339  1.00  0.00     0.065 C 
HETATM   19  N1  UNL     1       4.067   1.720   0.468  1.00  0.00    -0.404 N 
ATOM     20  H12 UNL     1       4.843   2.187   0.938  1.00  0.00     0.155 HD
ATOM     21  H11 UNL     1       3.210   2.245   0.295  1.00  0.00     0.155 HD
ENDBRANCH   1  17
TORSDOF 4
