REMARK  4 active torsions:
REMARK  status: ('A' for Active; 'I' for Inactive)
REMARK    1  A    between atoms: N1_2  and  C3_4 
REMARK    2  A    between atoms: C6_7  and  C7_8 
REMARK    3  A    between atoms: N2_9  and  N3_11 
REMARK    4  A    between atoms: N3_11  and  C8_13 
ROOT
HETATM    1  C3  UNL     1      -1.754  -0.012   0.220  1.00  0.00     0.029 A 
HETATM    2  C4  UNL     1      -1.375   0.982   1.092  1.00  0.00     0.030 A 
HETATM    3  C5  UNL     1      -0.100   1.471   1.126  1.00  0.00     0.015 A 
HETATM    4  C6  UNL     1       0.892   0.976   0.264  1.00  0.00    -0.019 A 
HETATM    5  C9  UNL     1       0.515  -0.016  -0.606  1.00  0.00     0.015 A 
HETATM    6  C10 UNL     1      -0.790  -0.498  -0.624  1.00  0.00     0.030 A 
ENDROOT
BRANCH   4   7
HETATM    7  C7  UNL     1       2.248   1.527   0.332  1.00  0.00     0.118 C 
HETATM    8  N2  UNL     1       3.233   1.222  -0.336  1.00  0.00    -0.309 N 
ATOM      9  H2  UNL     1       4.049   1.774  -0.072  1.00  0.00     0.186 HD
BRANCH   8  10
HETATM   10  N3  UNL     1       3.517   0.367  -1.308  1.00  0.00    -0.279 N 
ATOM     11  H3  UNL     1       3.150   0.542  -2.244  1.00  0.00     0.189 HD
BRANCH  10  12
HETATM   12  C8  UNL     1       4.323  -0.795  -1.084  1.00  0.00     0.199 C 
HETATM   13  N4  UNL     1       4.819  -1.012   0.226  1.00  0.00    -0.068 NA
HETATM   14  S1  UNL     1       4.664  -1.839  -2.289  1.00  0.00    -0.043 SA
ENDBRANCH  10  12
ENDBRANCH   8  10
ENDBRANCH   4   7
BRANCH   1  15
HETATM   15  N1  UNL     1      -3.084  -0.504   0.202  1.00  0.00    -0.390 N 
HETATM   16  C1  UNL     1      -4.047   0.040   1.104  1.00  0.00     0.149 C 
HETATM   17  C2  UNL     1      -3.421  -1.550  -0.738  1.00  0.00     0.149 C 
ENDBRANCH   1  15
TORSDOF 4
