REMARK  7 active torsions:
REMARK  status: ('A' for Active; 'I' for Inactive)
REMARK       I    between atoms: N1_1  and  C1_5 
REMARK       I    between atoms: C1_5  and  N2_6 
REMARK       I    between atoms: C1_5  and  N3_10 
REMARK    1  A    between atoms: N3_10  and  C2_12 
REMARK    2  A    between atoms: C4_18  and  C5_19 
REMARK    3  A    between atoms: C5_19  and  N6_20 
REMARK    4  A    between atoms: N6_20  and  N7_22 
REMARK    5  A    between atoms: N7_22  and  O1_23 
REMARK    6  A    between atoms: N7_22  and  C6_25 
REMARK    7  A    between atoms: C11_35  and  O2_36 
ROOT
HETATM    1  C2  UNL     1       3.627   0.082   0.637  1.00  0.00     0.153 A 
HETATM    2  N4  UNL     1       3.427  -0.001   2.003  1.00  0.00    -0.284 N 
ATOM      3  H4  UNL     1       4.200   0.238   2.624  1.00  0.00     0.188 HD
HETATM    4  N5  UNL     1       2.287  -0.373   2.536  1.00  0.00    -0.310 N 
ATOM      5  H5  UNL     1       2.204  -0.415   3.552  1.00  0.00     0.186 HD
HETATM    6  C3  UNL     1       1.214  -0.704   1.769  1.00  0.00     0.119 A 
HETATM    7  C4  UNL     1       1.321  -0.651   0.404  1.00  0.00     0.015 A 
HETATM    8  C11 UNL     1       2.541  -0.254  -0.128  1.00  0.00     0.120 A 
ENDROOT
BRANCH   7   9
HETATM    9  C5  UNL     1       0.203  -0.993  -0.515  1.00  0.00     0.184 C 
BRANCH   9  10
HETATM   10  N6  UNL     1      -0.981  -1.384   0.151  1.00  0.00    -0.309 N 
ATOM     11  H6  UNL     1      -0.991  -1.410   1.171  1.00  0.00     0.182 HD
BRANCH  10  12
HETATM   12  N7  UNL     1      -2.069  -1.715  -0.506  1.00  0.00    -0.181 N 
BRANCH  12  13
HETATM   13  O1  UNL     1      -2.841  -2.618   0.108  1.00  0.00    -0.271 OA
ATOM     14  H1  UNL     1      -3.628  -2.857  -0.367  1.00  0.00     0.246 HD
ENDBRANCH  12  13
BRANCH  12  15
HETATM   15  C6  UNL     1      -2.858  -0.796  -1.211  1.00  0.00     0.241 C 
HETATM   16  C7  UNL     1      -4.084  -1.338  -1.917  1.00  0.00     0.128 C 
HETATM   17  C8  UNL     1      -4.706  -0.089  -1.418  1.00  0.00     0.099 C 
HETATM   18  N8  UNL     1      -5.518   0.908  -1.441  1.00  0.00    -0.293 N 
HETATM   19  N10 UNL     1      -3.815  -0.161  -0.312  1.00  0.00    -0.343 N 
HETATM   20  N9  UNL     1      -5.527   1.877  -0.425  1.00  0.00    -0.334 N 
ATOM     21  H8  UNL     1      -6.173   0.997  -2.218  1.00  0.00     0.188 HD
HETATM   22  C9  UNL     1      -4.684   1.796   0.741  1.00  0.00     0.159 C 
ATOM     23  H9  UNL     1      -6.158   2.673  -0.516  1.00  0.00     0.180 HD
HETATM   24  C10 UNL     1      -4.243   0.356   0.967  1.00  0.00     0.147 C 
ENDBRANCH  12  15
ENDBRANCH  10  12
ENDBRANCH   9  10
ENDBRANCH   7   9
BRANCH   8  25
HETATM   25  O2  UNL     1       2.628  -0.207  -1.495  1.00  0.00    -0.356 OA
ATOM     26  H2  UNL     1       1.875  -0.440  -2.025  1.00  0.00     0.218 HD
ENDBRANCH   8  25
BRANCH   1  27
HETATM   27  N3  UNL     1       4.719   0.436   0.264  1.00  0.00    -0.324 N 
HETATM   28  C1  UNL     1       5.677   0.755  -0.634  1.00  0.00     0.481 C 
HETATM   29  N1  UNL     1       5.464   2.146  -1.099  1.00  0.00    -0.033 N 
HETATM   30  N2  UNL     1       7.052   0.795  -0.109  1.00  0.00    -0.033 N 
ATOM     31  H13 UNL     1       5.631   2.863  -0.393  1.00  0.00     0.278 HD
ATOM     32  H12 UNL     1       6.163   2.488  -1.758  1.00  0.00     0.278 HD
ATOM     33  H11 UNL     1       4.511   2.118  -1.463  1.00  0.00     0.278 HD
ATOM     34  H23 UNL     1       7.751   1.137  -0.768  1.00  0.00     0.278 HD
ATOM     35  H22 UNL     1       7.219   1.512   0.597  1.00  0.00     0.278 HD
ATOM     36  H21 UNL     1       7.199  -0.162   0.211  1.00  0.00     0.278 HD
ATOM     37  H3  UNL     1       5.206   0.578   1.149  1.00  0.00     0.165 HD
ENDBRANCH   1  27
TORSDOF 7
