REMARK  3 active torsions:
REMARK  status: ('A' for Active; 'I' for Inactive)
REMARK    1  A    between atoms: N1_2  and  C2_4 
REMARK    2  A    between atoms: C2_4  and  O1_8 
REMARK    3  A    between atoms: O1_8  and  N3_9 
ROOT
HETATM    1  N3  UNL     1      -0.981   0.538   0.316  1.00  0.00    -0.252 N 
ATOM      2  H3  UNL     1      -0.820   1.533   0.470  1.00  0.00     0.195 HD
HETATM    3  C3  UNL     1      -2.135   0.167  -0.098  1.00  0.00     0.108 C 
HETATM    4  C4  UNL     1      -3.166   1.208  -0.329  1.00  0.00     0.083 C 
HETATM    5  C5  UNL     1      -2.449  -1.209  -0.342  1.00  0.00     0.114 C 
HETATM    6  N4  UNL     1      -2.721  -2.327  -0.530  1.00  0.00    -0.190 NA
ENDROOT
BRANCH   1   7
HETATM    7  O1  UNL     1       0.052  -0.335   0.564  1.00  0.00    -0.201 OA
BRANCH   7   8
HETATM    8  C2  UNL     1       1.051  -0.544  -0.383  1.00  0.00     0.236 C 
HETATM    9  N2  UNL     1       0.687  -0.453  -1.630  1.00  0.00    -0.364 N 
ATOM     10  H22 UNL     1       1.419  -0.606  -2.324  1.00  0.00     0.159 HD
ATOM     11  H21 UNL     1      -0.279  -0.238  -1.876  1.00  0.00     0.159 HD
BRANCH   8  12
HETATM   12  N1  UNL     1       2.396  -0.843  -0.041  1.00  0.00    -0.359 N 
HETATM   13  C1  UNL     1       3.218   0.220   0.459  1.00  0.00     0.150 C 
ATOM     14  H1  UNL     1       2.767  -1.787  -0.148  1.00  0.00     0.162 HD
ENDBRANCH   8  12
ENDBRANCH   7   8
ENDBRANCH   1   7
TORSDOF 3
