REMARK  10 active torsions:
REMARK  status: ('A' for Active; 'I' for Inactive)
REMARK    1  A    between atoms: C3_3  and  N1_4 
REMARK       I    between atoms: N1_4  and  C4_6 
REMARK    2  A    between atoms: C4_6  and  C5_8 
REMARK    3  A    between atoms: C5_8  and  C6_9 
REMARK    4  A    between atoms: C6_9  and  C7_10 
REMARK    5  A    between atoms: C7_10  and  C8_11 
REMARK    6  A    between atoms: C8_11  and  C9_12 
REMARK       I    between atoms: C9_12  and  N2_14 
REMARK    7  A    between atoms: N2_14  and  C10_16 
REMARK    8  A    between atoms: C10_16  and  C11_17 
REMARK    9  A    between atoms: C11_17  and  C12_18 
REMARK   10  A    between atoms: C12_18  and  C13_19 
ROOT
HETATM    1  C1  UNL     1      10.696   1.108  -0.078  1.00  0.00     0.014 C 
HETATM    2  C2  UNL     1      10.081   1.059   0.956  1.00  0.00    -0.098 C 
HETATM    3  C3  UNL     1       9.322   1.026   2.229  1.00  0.00     0.216 C 
ENDROOT
BRANCH   3   4
HETATM    4  N1  UNL     1       7.916   0.936   1.928  1.00  0.00    -0.351 N 
HETATM    5  C4  UNL     1       7.357  -0.162   1.189  1.00  0.00     0.218 C 
HETATM    6  O1  UNL     1       8.167  -1.038   0.824  1.00  0.00    -0.274 OA
ATOM      7  H1  UNL     1       7.295   1.678   2.251  1.00  0.00     0.163 HD
BRANCH   5   8
HETATM    8  C5  UNL     1       5.933  -0.253   0.881  1.00  0.00     0.103 C 
BRANCH   8   9
HETATM    9  C6  UNL     1       5.587  -1.394  -0.015  1.00  0.00     0.010 C 
BRANCH   9  10
HETATM   10  C7  UNL     1       6.230  -1.300  -1.374  1.00  0.00     0.010 C 
BRANCH  10  11
HETATM   11  C8  UNL     1       5.854  -0.057  -2.114  1.00  0.00     0.103 C 
BRANCH  11  12
HETATM   12  C9  UNL     1       4.424   0.032  -2.426  1.00  0.00     0.218 C 
HETATM   13  O2  UNL     1       3.654  -0.935  -2.212  1.00  0.00    -0.274 OA
HETATM   14  N2  UNL     1       3.861   1.233  -2.989  1.00  0.00    -0.351 N 
ATOM     15  H2  UNL     1       4.459   2.038  -3.174  1.00  0.00     0.163 HD
BRANCH  14  16
HETATM   16  C10 UNL     1       2.453   1.298  -3.291  1.00  0.00     0.217 C 
BRANCH  16  17
HETATM   17  C11 UNL     1       1.611   1.105  -2.140  1.00  0.00    -0.083 C 
BRANCH  17  18
HETATM   18  C12 UNL     1       0.886   0.948  -1.190  1.00  0.00    -0.040 C 
BRANCH  18  19
HETATM   19  C13 UNL     1      -0.031   0.760  -0.036  1.00  0.00     0.502 C 
HETATM   20  N3  UNL     1      -1.292   1.320  -0.421  1.00  0.00     0.132 N 
HETATM   21  C14 UNL     1      -1.435   2.619   0.212  1.00  0.00     0.314 C 
HETATM   22  C15 UNL     1      -2.410   0.459  -0.168  1.00  0.00     0.233 C 
HETATM   23  C16 UNL     1      -3.726   1.192  -0.139  1.00  0.00     0.064 C 
HETATM   24  C26 UNL     1      -2.176  -0.121   1.233  1.00  0.00     0.047 C 
HETATM   25  C17 UNL     1      -4.851   0.368  -0.725  1.00  0.00     0.240 C 
HETATM   26  N4  UNL     1      -5.340  -0.659   0.151  1.00  0.00    -0.061 N 
HETATM   27  C18 UNL     1      -6.042  -1.631  -0.708  1.00  0.00     0.244 C 
HETATM   28  C23 UNL     1      -6.293  -0.213   1.123  1.00  0.00     0.296 C 
HETATM   29  C24 UNL     1      -4.270  -1.427   0.758  1.00  0.00     0.238 C 
HETATM   30  C19 UNL     1      -7.033  -0.967  -1.600  1.00  0.00     0.087 C 
HETATM   31  C20 UNL     1      -7.988  -0.218  -0.747  1.00  0.00     0.036 A 
HETATM   32  N5  UNL     1      -9.234   0.244  -0.942  1.00  0.00    -0.354 N 
HETATM   33  C22 UNL     1      -7.598   0.116   0.526  1.00  0.00     0.059 A 
HETATM   34  C21 UNL     1      -9.650   0.858   0.157  1.00  0.00     0.180 A 
ATOM     35  H5  UNL     1      -9.775   0.139  -1.800  1.00  0.00     0.166 HD
HETATM   36  N6  UNL     1      -8.670   0.787   1.048  1.00  0.00    -0.353 N 
ATOM     37  H6  UNL     1      -8.710   1.178   1.989  1.00  0.00     0.166 HD
HETATM   38  C25 UNL     1      -3.461  -0.713   1.770  1.00  0.00     0.036 C 
HETATM   39  C27 UNL     1      -1.054  -1.097   1.136  1.00  0.00     0.247 C 
HETATM   40  N7  UNL     1      -0.036  -0.643   0.241  1.00  0.00    -0.032 N 
HETATM   41  C28 UNL     1       1.251  -0.926   0.904  1.00  0.00     0.276 C 
HETATM   42  C29 UNL     1      -0.021  -1.394  -1.010  1.00  0.00     0.276 C 
ENDBRANCH  18  19
ENDBRANCH  17  18
ENDBRANCH  16  17
ENDBRANCH  14  16
ENDBRANCH  11  12
ENDBRANCH  10  11
ENDBRANCH   9  10
ENDBRANCH   8   9
ENDBRANCH   5   8
ENDBRANCH   3   4
TORSDOF 10
