REMARK  7 active torsions:
REMARK  status: ('A' for Active; 'I' for Inactive)
REMARK    1  A    between atoms: C3_3  and  C5_5 
REMARK    2  A    between atoms: C5_5  and  O1_6 
REMARK    3  A    between atoms: C5_5  and  C6_8 
REMARK    4  A    between atoms: C6_8  and  C7_9 
REMARK    5  A    between atoms: C6_8  and  N1_14 
REMARK    6  A    between atoms: C11_15  and  O3_16 
REMARK    7  A    between atoms: C14_20  and  O4_21 
ROOT
HETATM    1  C1  UNL     1       3.317  -0.346   2.131  1.00  0.00     0.012 C 
HETATM    2  C2  UNL     1       2.945  -0.025   1.042  1.00  0.00    -0.110 C 
HETATM    3  C3  UNL     1       2.478   0.347  -0.261  1.00  0.00     0.091 C 
HETATM    4  C4  UNL     1       3.608   0.048  -1.252  1.00  0.00     0.026 C 
ENDROOT
BRANCH   3   5
HETATM    5  C5  UNL     1       1.237  -0.301  -0.736  1.00  0.00     0.159 C 
BRANCH   5   6
HETATM    6  O1  UNL     1       0.964   0.180  -2.024  1.00  0.00    -0.392 OA
ATOM      7  H1  UNL     1       0.167  -0.236  -2.329  1.00  0.00     0.210 HD
ENDBRANCH   5   6
BRANCH   5   8
HETATM    8  C6  UNL     1       0.019  -0.186   0.097  1.00  0.00     0.153 C 
BRANCH   8   9
HETATM    9  C7  UNL     1      -1.097  -0.949  -0.644  1.00  0.00     0.147 C 
HETATM   10  C8  UNL     1      -2.380  -0.899   0.110  1.00  0.00     0.036 C 
HETATM   11  C9  UNL     1      -2.753  -2.337   0.333  1.00  0.00     0.029 C 
HETATM   12  C10 UNL     1      -1.764  -3.080  -0.530  1.00  0.00     0.168 C 
HETATM   13  O2  UNL     1      -0.676  -2.267  -0.707  1.00  0.00    -0.384 OA
ENDBRANCH   8   9
BRANCH   8  14
HETATM   14  N1  UNL     1      -0.420   1.152   0.392  1.00  0.00    -0.299 N 
HETATM   15  C11 UNL     1      -0.398   1.743   1.624  1.00  0.00     0.144 A 
HETATM   16  C12 UNL     1      -0.889   3.007   1.557  1.00  0.00     0.060 A 
HETATM   17  C13 UNL     1      -1.236   3.242   0.267  1.00  0.00     0.060 A 
HETATM   18  C14 UNL     1      -0.934   2.073  -0.432  1.00  0.00     0.144 A 
BRANCH  15  19
HETATM   19  O3  UNL     1       0.056   1.154   2.791  1.00  0.00    -0.346 OA
ATOM     20  H3  UNL     1       0.071   1.565   3.647  1.00  0.00     0.219 HD
ENDBRANCH  15  19
BRANCH  18  21
HETATM   21  O4  UNL     1      -1.165   1.966  -1.774  1.00  0.00    -0.346 OA
ATOM     22  H4  UNL     1      -1.530   2.620  -2.359  1.00  0.00     0.219 HD
ENDBRANCH  18  21
ENDBRANCH   8  14
ENDBRANCH   5   8
ENDBRANCH   3   5
TORSDOF 7
