REMARK  14 active torsions:
REMARK  status: ('A' for Active; 'I' for Inactive)
REMARK    1  A    between atoms: C3_3  and  N1_4 
REMARK    2  A    between atoms: C4_5  and  O1_6 
REMARK    3  A    between atoms: N2_8  and  C5_9 
REMARK    4  A    between atoms: C5_9  and  C6_10 
REMARK    5  A    between atoms: C9_13  and  O2_14 
REMARK    6  A    between atoms: C10_16  and  C11_17 
REMARK    7  A    between atoms: C11_17  and  C12_18 
REMARK    8  A    between atoms: C16_25  and  C17_26 
REMARK    9  A    between atoms: C17_26  and  C18_27 
REMARK   10  A    between atoms: C24_38  and  O5_39 
REMARK   11  A    between atoms: C25_41  and  C26_42 
REMARK   12  A    between atoms: C26_42  and  C27_43 
REMARK   13  A    between atoms: C29_50  and  C30_51 
REMARK   14  A    between atoms: C30_51  and  C31_52 
ROOT
HETATM    1  C1  UNL     1       1.509  -0.474   4.253  1.00  0.00     0.098 C 
HETATM    2  C2  UNL     1       2.361  -0.617   3.385  1.00  0.00    -0.168 C 
HETATM    3  C3  UNL     1       3.380  -0.815   2.335  1.00  0.00     0.207 C 
ENDROOT
BRANCH   3   4
HETATM    4  N1  UNL     1       2.718  -0.763   0.980  1.00  0.00    -0.324 N 
HETATM    5  C4  UNL     1       2.226  -1.951   0.423  1.00  0.00     0.224 C 
HETATM    6  N2  UNL     1       0.954  -2.616   0.257  1.00  0.00    -0.295 N 
HETATM    7  C9  UNL     1      -0.319  -2.107   0.125  1.00  0.00     0.144 C 
HETATM    8  C10 UNL     1      -1.057  -1.248  -0.881  1.00  0.00     0.160 C 
HETATM    9  N3  UNL     1      -2.496  -1.544  -0.759  1.00  0.00    -0.347 N 
HETATM   10  C15 UNL     1      -3.512  -0.732  -0.315  1.00  0.00     0.241 C 
ATOM     11  H3  UNL     1      -2.777  -2.482  -1.044  1.00  0.00     0.163 HD
HETATM   12  O3  UNL     1      -4.706  -1.035  -0.689  1.00  0.00    -0.271 OA
HETATM   13  C16 UNL     1      -3.450   0.472   0.551  1.00  0.00     0.177 C 
HETATM   14  N4  UNL     1      -4.271   1.557   0.076  1.00  0.00    -0.346 N 
HETATM   15  C21 UNL     1      -3.931   2.905  -0.055  1.00  0.00     0.240 C 
ATOM     16  H4  UNL     1      -5.221   1.309  -0.200  1.00  0.00     0.163 HD
HETATM   17  O4  UNL     1      -4.685   3.773   0.456  1.00  0.00    -0.271 OA
HETATM   18  C22 UNL     1      -2.707   3.435  -0.775  1.00  0.00     0.171 C 
HETATM   19  C23 UNL     1      -2.380   2.573  -1.943  1.00  0.00     0.042 C 
HETATM   20  N5  UNL     1      -1.649   3.702   0.158  1.00  0.00    -0.360 N 
HETATM   21  C24 UNL     1      -0.398   3.181   0.386  1.00  0.00     0.136 C 
ATOM     22  H5  UNL     1      -1.881   4.457   0.804  1.00  0.00     0.162 HD
HETATM   23  C25 UNL     1       0.851   3.155  -0.411  1.00  0.00     0.167 C 
HETATM   24  N7  UNL     1       1.185   1.919  -1.028  1.00  0.00    -0.347 N 
HETATM   25  C28 UNL     1       2.130   0.944  -0.733  1.00  0.00     0.241 C 
ATOM     26  H7  UNL     1       0.619   1.706  -1.850  1.00  0.00     0.163 HD
HETATM   27  O7  UNL     1       2.542   0.210  -1.711  1.00  0.00    -0.271 OA
HETATM   28  C29 UNL     1       2.749   0.611   0.547  1.00  0.00     0.181 C 
BRANCH   5  29
HETATM   29  O1  UNL     1       3.190  -2.669  -0.095  1.00  0.00    -0.332 OA
ATOM     30  H1  UNL     1       2.856  -3.474  -0.473  1.00  0.00     0.221 HD
ENDBRANCH   5  29
BRANCH   6  31
HETATM   31  C5  UNL     1       1.036  -4.122   0.297  1.00  0.00     0.138 C 
BRANCH  31  32
HETATM   32  C6  UNL     1       0.840  -4.759   1.578  1.00  0.00    -0.004 C 
HETATM   33  C7  UNL     1       1.802  -4.401   2.688  1.00  0.00     0.011 C 
HETATM   34  C8  UNL     1       1.054  -6.271   1.343  1.00  0.00     0.011 C 
ENDBRANCH  31  32
ENDBRANCH   6  31
BRANCH   7  35
HETATM   35  O2  UNL     1      -1.123  -2.429   1.101  1.00  0.00    -0.348 OA
ATOM     36  H2  UNL     1      -2.001  -2.078   1.010  1.00  0.00     0.219 HD
ENDBRANCH   7  35
BRANCH   8  37
HETATM   37  C11 UNL     1      -0.655  -1.555  -2.269  1.00  0.00     0.037 C 
BRANCH  37  38
HETATM   38  C12 UNL     1      -1.216  -0.834  -3.409  1.00  0.00    -0.020 C 
HETATM   39  C13 UNL     1      -0.524  -1.432  -4.668  1.00  0.00     0.009 C 
HETATM   40  C14 UNL     1      -2.683  -1.004  -3.694  1.00  0.00     0.009 C 
ENDBRANCH  37  38
ENDBRANCH   8  37
BRANCH  13  41
HETATM   41  C17 UNL     1      -3.636   0.139   2.002  1.00  0.00     0.038 C 
BRANCH  41  42
HETATM   42  C18 UNL     1      -4.906  -0.517   2.382  1.00  0.00    -0.020 C 
HETATM   43  C19 UNL     1      -4.844  -0.765   3.902  1.00  0.00     0.009 C 
HETATM   44  C20 UNL     1      -6.134   0.345   2.176  1.00  0.00     0.009 C 
ENDBRANCH  41  42
ENDBRANCH  13  41
BRANCH  21  45
HETATM   45  O5  UNL     1      -0.262   2.583   1.535  1.00  0.00    -0.348 OA
ATOM     46  H5  UNL     1       0.603   2.223   1.693  1.00  0.00     0.219 HD
ENDBRANCH  21  45
BRANCH  23  47
HETATM   47  C26 UNL     1       0.944   4.361  -1.330  1.00  0.00     0.133 C 
BRANCH  47  48
HETATM   48  C27 UNL     1       2.118   4.426  -2.178  1.00  0.00     0.233 C 
HETATM   49  N6  UNL     1       2.282   5.577  -3.000  1.00  0.00    -0.062 NA
HETATM   50  O6  UNL     1       2.971   3.530  -2.212  1.00  0.00    -0.277 OA
ENDBRANCH  47  48
ENDBRANCH  23  47
BRANCH  28  51
HETATM   51  C30 UNL     1       4.030   1.352   0.551  1.00  0.00     0.039 C 
BRANCH  51  52
HETATM   52  C31 UNL     1       5.186   0.950  -0.267  1.00  0.00    -0.020 C 
HETATM   53  C32 UNL     1       6.277   2.057   0.017  1.00  0.00     0.009 C 
HETATM   54  C33 UNL     1       5.925  -0.306   0.067  1.00  0.00     0.009 C 
ENDBRANCH  51  52
ENDBRANCH  28  51
ENDBRANCH   3   4
TORSDOF 14
