REMARK  12 active torsions:
REMARK  status: ('A' for Active; 'I' for Inactive)
REMARK    1  A    between atoms: C2_2  and  C4_4 
REMARK    2  A    between atoms: C4_4  and  C5_5 
REMARK    3  A    between atoms: C7_10  and  C8_11 
REMARK    4  A    between atoms: C11_16  and  C12_17 
REMARK    5  A    between atoms: C12_17  and  C13_18 
REMARK    6  A    between atoms: C13_18  and  C14_19 
REMARK    7  A    between atoms: C14_19  and  N3_20 
REMARK    8  A    between atoms: C17_27  and  O2_28 
REMARK    9  A    between atoms: C18_30  and  C19_31 
REMARK   10  A    between atoms: C19_31  and  C20_32 
REMARK   11  A    between atoms: C25_39  and  C26_40 
REMARK   12  A    between atoms: C30_47  and  C31_48 
ROOT
HETATM    1  C5  UNL     1       2.189   1.937   0.610  1.00  0.00     0.177 C 
HETATM    2  N1  UNL     1       1.190   2.951   0.877  1.00  0.00    -0.346 N 
ATOM      3  H1  UNL     1       1.548   3.846   1.211  1.00  0.00     0.163 HD
HETATM    4  C6  UNL     1      -0.208   2.867   0.738  1.00  0.00     0.241 C 
HETATM    5  O1  UNL     1      -0.879   3.302   1.728  1.00  0.00    -0.271 OA
HETATM    6  C7  UNL     1      -0.965   2.337  -0.421  1.00  0.00     0.174 C 
HETATM    7  N2  UNL     1      -1.747   1.198  -0.249  1.00  0.00    -0.388 N 
ATOM      8  H2  UNL     1      -1.559   0.428  -0.890  1.00  0.00     0.156 HD
HETATM    9  C11 UNL     1      -2.733   0.982   0.669  1.00  0.00     0.181 C 
HETATM   10  N6  UNL     1      -2.634  -0.320   1.308  1.00  0.00    -0.347 N 
HETATM   11  C16 UNL     1      -3.745  -0.581   2.260  1.00  0.00     0.153 C 
HETATM   12  C17 UNL     1      -1.681  -1.309   1.214  1.00  0.00     0.138 C 
HETATM   13  C18 UNL     1      -1.051  -1.937  -0.017  1.00  0.00     0.161 C 
HETATM   14  N7  UNL     1      -0.392  -3.165   0.491  1.00  0.00    -0.343 N 
HETATM   15  C23 UNL     1      -1.279  -4.103   1.196  1.00  0.00     0.153 C 
HETATM   16  C24 UNL     1       0.946  -3.490   0.415  1.00  0.00     0.243 C 
HETATM   17  O3  UNL     1       1.303  -4.719   0.348  1.00  0.00    -0.271 OA
HETATM   18  C25 UNL     1       2.098  -2.528   0.403  1.00  0.00     0.180 C 
HETATM   19  N8  UNL     1       2.765  -2.732  -0.881  1.00  0.00    -0.346 N 
ATOM     20  H8  UNL     1       2.847  -3.677  -1.255  1.00  0.00     0.163 HD
HETATM   21  C29 UNL     1       3.310  -1.630  -1.631  1.00  0.00     0.241 C 
HETATM   22  O4  UNL     1       3.358  -1.764  -2.876  1.00  0.00    -0.271 OA
HETATM   23  C30 UNL     1       3.788  -0.398  -0.933  1.00  0.00     0.180 C 
HETATM   24  N9  UNL     1       3.221   0.802  -1.459  1.00  0.00    -0.346 N 
ATOM     25  H9  UNL     1       3.225   0.884  -2.476  1.00  0.00     0.163 HD
HETATM   26  C34 UNL     1       2.658   1.886  -0.764  1.00  0.00     0.241 C 
HETATM   27  O5  UNL     1       2.544   2.975  -1.450  1.00  0.00    -0.271 OA
ENDROOT
BRANCH   9  28
HETATM   28  C12 UNL     1      -4.160   1.280   0.387  1.00  0.00     0.048 C 
BRANCH  28  29
HETATM   29  C13 UNL     1      -4.874   0.622  -0.706  1.00  0.00     0.023 C 
BRANCH  29  30
HETATM   30  C14 UNL     1      -6.317   1.168  -0.680  1.00  0.00     0.122 C 
BRANCH  30  31
HETATM   31  N3  UNL     1      -6.948   0.875   0.576  1.00  0.00    -0.367 N 
HETATM   32  C15 UNL     1      -7.546   1.741   1.322  1.00  0.00     0.196 C 
HETATM   33  N4  UNL     1      -7.661   3.111   1.001  1.00  0.00    -0.067 NA
HETATM   34  N5  UNL     1      -8.114   1.269   2.535  1.00  0.00    -0.067 NA
ATOM     35  H3  UNL     1      -6.921  -0.091   0.903  1.00  0.00     0.161 HD
ENDBRANCH  30  31
ENDBRANCH  29  30
ENDBRANCH  28  29
ENDBRANCH   9  28
BRANCH   6  36
HETATM   36  C8  UNL     1      -1.641   3.502  -1.161  1.00  0.00     0.009 C 
HETATM   37  C9  UNL     1      -2.395   3.032  -2.370  1.00  0.00     0.012 C 
HETATM   38  C10 UNL     1      -0.684   4.563  -1.588  1.00  0.00     0.012 C 
ENDBRANCH   6  36
BRANCH  12  39
HETATM   39  O2  UNL     1      -1.244  -1.784   2.344  1.00  0.00    -0.348 OA
ATOM     40  H2  UNL     1      -0.586  -2.466   2.279  1.00  0.00     0.219 HD
ENDBRANCH  12  39
BRANCH  13  41
HETATM   41  C19 UNL     1      -2.091  -2.379  -0.990  1.00  0.00     0.037 C 
BRANCH  41  42
HETATM   42  C20 UNL     1      -1.701  -2.930  -2.290  1.00  0.00    -0.020 C 
HETATM   43  C21 UNL     1      -3.046  -3.258  -3.020  1.00  0.00     0.009 C 
HETATM   44  C22 UNL     1      -0.836  -4.105  -2.425  1.00  0.00     0.009 C 
ENDBRANCH  41  42
ENDBRANCH  13  41
BRANCH   1  45
HETATM   45  C4  UNL     1       3.283   2.017   1.625  1.00  0.00     0.038 C 
BRANCH  45  46
HETATM   46  C2  UNL     1       4.036   3.306   1.726  1.00  0.00    -0.020 C 
HETATM   47  C1  UNL     1       5.085   3.154   2.870  1.00  0.00     0.009 C 
HETATM   48  C3  UNL     1       4.841   3.679   0.521  1.00  0.00     0.009 C 
ENDBRANCH  45  46
ENDBRANCH   1  45
BRANCH  18  49
HETATM   49  C26 UNL     1       2.981  -2.929   1.557  1.00  0.00     0.009 C 
HETATM   50  C27 UNL     1       2.195  -2.844   2.844  1.00  0.00     0.012 C 
HETATM   51  C28 UNL     1       3.591  -4.273   1.388  1.00  0.00     0.012 C 
ENDBRANCH  18  49
BRANCH  23  52
HETATM   52  C31 UNL     1       5.286  -0.357  -1.077  1.00  0.00     0.009 C 
HETATM   53  C32 UNL     1       5.989  -1.548  -0.481  1.00  0.00     0.012 C 
HETATM   54  C33 UNL     1       5.747  -0.059  -2.476  1.00  0.00     0.012 C 
ENDBRANCH  23  52
TORSDOF 12
