REMARK  3 active torsions:
REMARK  status: ('A' for Active; 'I' for Inactive)
REMARK    1  A    between atoms: C3_7  and  C4_8 
REMARK    2  A    between atoms: N2_9  and  C5_11 
REMARK    3  A    between atoms: C6_12  and  O3_13 
ROOT
HETATM    1  C4  UNL     1       0.658  -0.580  -0.495  1.00  0.00     0.085 C 
HETATM    2  N2  UNL     1      -0.202   0.280  -0.942  1.00  0.00    -0.360 N 
ATOM      3  H2  UNL     1       0.066   0.878  -1.724  1.00  0.00     0.165 HD
ENDROOT
BRANCH   2   4
HETATM    4  C5  UNL     1      -1.492   0.424  -0.394  1.00  0.00     0.152 A 
HETATM    5  C6  UNL     1      -2.374  -0.636  -0.387  1.00  0.00     0.177 A 
HETATM    6  N3  UNL     1      -3.622  -0.501   0.142  1.00  0.00    -0.287 N 
HETATM    7  C7  UNL     1      -4.005   0.672   0.664  1.00  0.00     0.329 A 
ATOM      8  H3  UNL     1      -4.265  -1.293   0.141  1.00  0.00     0.172 HD
HETATM    9  O4  UNL     1      -5.164   0.836   1.167  1.00  0.00    -0.247 OA
HETATM   10  N4  UNL     1      -3.170   1.728   0.675  1.00  0.00    -0.273 N 
HETATM   11  C8  UNL     1      -1.921   1.612   0.151  1.00  0.00     0.280 A 
ATOM     12  H4  UNL     1      -3.474   2.615   1.076  1.00  0.00     0.173 HD
HETATM   13  O5  UNL     1      -1.168   2.606   0.174  1.00  0.00    -0.265 OA
BRANCH   5  14
HETATM   14  O3  UNL     1      -1.937  -1.835  -0.939  1.00  0.00    -0.344 OA
ATOM     15  H3  UNL     1      -2.545  -2.565  -0.934  1.00  0.00     0.219 HD
ENDBRANCH   5  14
ENDBRANCH   2   4
BRANCH   1  16
HETATM   16  C3  UNL     1       2.017  -0.706  -1.101  1.00  0.00     0.209 C 
HETATM   17  C2  UNL     1       2.639   0.643  -1.022  1.00  0.00     0.243 C 
HETATM   18  N1  UNL     1       2.855   1.178   0.278  1.00  0.00    -0.278 N 
HETATM   19  O2  UNL     1       2.960   1.284  -2.065  1.00  0.00    -0.272 OA
HETATM   20  C1  UNL     1       3.058   0.308   1.382  1.00  0.00     0.329 C 
ATOM     21  H1  UNL     1       2.864   2.188   0.418  1.00  0.00     0.173 HD
HETATM   22  O1  UNL     1       3.253   0.734   2.544  1.00  0.00    -0.247 OA
HETATM   23  N5  UNL     1       3.032  -1.097   1.113  1.00  0.00    -0.278 N 
HETATM   24  C9  UNL     1       2.813  -1.598  -0.200  1.00  0.00     0.243 C 
ATOM     25  H5  UNL     1       3.174  -1.754   1.880  1.00  0.00     0.173 HD
HETATM   26  O6  UNL     1       3.255  -2.708  -0.574  1.00  0.00    -0.272 OA
ENDBRANCH   1  16
TORSDOF 3
