REMARK  4 active torsions:
REMARK  status: ('A' for Active; 'I' for Inactive)
REMARK    1  A    between atoms: C2_2  and  N1_3 
REMARK    2  A    between atoms: C2_2  and  O1_7 
REMARK    3  A    between atoms: O1_7  and  C3_8 
REMARK    4  A    between atoms: C3_8  and  N2_9 
ROOT
HETATM    1  N2  UNL     1      -1.179   0.404  -0.041  1.00  0.00    -0.239 N 
HETATM    2  N3  UNL     1      -1.262   0.936  -1.240  1.00  0.00    -0.290 N 
ATOM      3  H3  UNL     1      -0.776   1.784  -1.534  1.00  0.00     0.188 HD
HETATM    4  C4  UNL     1      -2.076   0.208  -2.026  1.00  0.00     0.200 A 
HETATM    5  N4  UNL     1      -2.537  -0.836  -1.302  1.00  0.00    -0.324 N 
ATOM      6  H4  UNL     1      -3.174  -1.569  -1.613  1.00  0.00     0.169 HD
HETATM    7  C5  UNL     1      -1.979  -0.704  -0.087  1.00  0.00     0.212 A 
HETATM    8  N5  UNL     1      -2.208  -1.604   0.979  1.00  0.00    -0.062 NA
ENDROOT
BRANCH   1   9
HETATM    9  C3  UNL     1      -0.444   0.818   1.142  1.00  0.00     0.322 C 
BRANCH   9  10
HETATM   10  O1  UNL     1       0.777   0.221   1.132  1.00  0.00    -0.338 OA
BRANCH  10  11
HETATM   11  C2  UNL     1       1.640   0.462   0.130  1.00  0.00     0.315 C 
HETATM   12  C1  UNL     1       2.968   1.052   0.541  1.00  0.00     0.070 C 
BRANCH  11  13
HETATM   13  N1  UNL     1       1.893  -0.768  -0.629  1.00  0.00    -0.053 N 
ATOM     14  H13 UNL     1       2.517  -0.618  -1.422  1.00  0.00     0.277 HD
ATOM     15  H12 UNL     1       2.475  -1.431  -0.117  1.00  0.00     0.277 HD
ATOM     16  H11 UNL     1       0.996  -1.166  -0.907  1.00  0.00     0.277 HD
ENDBRANCH  11  13
ENDBRANCH  10  11
ENDBRANCH   9  10
ENDBRANCH   1   9
TORSDOF 4
