REMARK  8 active torsions:
REMARK  status: ('A' for Active; 'I' for Inactive)
REMARK    1  A    between atoms: C2_2  and  N1_4 
REMARK    2  A    between atoms: N1_4  and  C4_6 
REMARK    3  A    between atoms: C6_8  and  S1_9 
REMARK    4  A    between atoms: S1_9  and  C7_10 
REMARK    5  A    between atoms: C14_20  and  N4_21 
REMARK    6  A    between atoms: N4_21  and  C15_23 
REMARK    7  A    between atoms: C15_23  and  C16_24 
REMARK    8  A    between atoms: C16_24  and  O1_25 
ROOT
HETATM    1  C4  UNL     1      -2.337  -0.205  -0.511  1.00  0.00     0.119 A 
HETATM    2  C5  UNL     1      -0.983  -0.147  -0.719  1.00  0.00     0.086 A 
HETATM    3  C6  UNL     1      -0.285   1.048  -0.581  1.00  0.00     0.090 A 
HETATM    4  N3  UNL     1      -0.981   2.156  -0.235  1.00  0.00    -0.186 N 
ATOM      5  H3  UNL     1      -0.500   3.049  -0.125  1.00  0.00     0.185 HD
HETATM    6  C14 UNL     1      -2.310   2.075  -0.036  1.00  0.00     0.680 A 
HETATM    7  N5  UNL     1      -2.986   0.920  -0.169  1.00  0.00    -0.177 N 
ATOM      8  H5  UNL     1      -3.993   0.898  -0.010  1.00  0.00     0.185 HD
ENDROOT
BRANCH   3   9
HETATM    9  S1  UNL     1       1.469   1.175  -0.839  1.00  0.00    -0.105 SA
BRANCH   9  10
HETATM   10  C7  UNL     1       2.304   0.870   0.721  1.00  0.00     0.084 C 
HETATM   11  C8  UNL     1       2.080  -0.564   1.136  1.00  0.00     0.288 C 
HETATM   12  N2  UNL     1       3.129  -1.311   0.516  1.00  0.00     0.094 N 
HETATM   13  C9  UNL     1       2.830  -1.717  -0.834  1.00  0.00     0.310 C 
HETATM   14  C10 UNL     1       4.284  -0.467   0.608  1.00  0.00     0.153 C 
HETATM   15  C11 UNL     1       5.249  -0.667  -0.552  1.00  0.00     0.049 C 
HETATM   16  C12 UNL     1       5.027  -0.832   1.877  1.00  0.00     0.049 C 
HETATM   17  C13 UNL     1       3.805   0.966   0.621  1.00  0.00     0.058 C 
ENDBRANCH   9  10
ENDBRANCH   3   9
BRANCH   1  18
HETATM   18  N1  UNL     1      -2.943  -1.326  -0.648  1.00  0.00    -0.372 N 
ATOM     19  H1  UNL     1      -3.950  -1.322  -0.483  1.00  0.00     0.161 HD
BRANCH  18  20
HETATM   20  C2  UNL     1      -2.362  -2.578  -1.006  1.00  0.00     0.075 C 
HETATM   21  C1  UNL     1      -3.306  -3.668  -0.513  1.00  0.00     0.031 C 
HETATM   22  C3  UNL     1      -2.238  -2.698  -2.509  1.00  0.00     0.031 C 
ENDBRANCH  18  20
ENDBRANCH   1  18
BRANCH   6  23
HETATM   23  N4  UNL     1      -2.923   3.162   0.292  1.00  0.00    -0.224 N 
ATOM     24  H4  UNL     1      -2.404   4.035   0.391  1.00  0.00     0.177 HD
BRANCH  23  25
HETATM   25  C15 UNL     1      -4.352   3.133   0.518  1.00  0.00     0.164 C 
BRANCH  25  26
HETATM   26  C16 UNL     1      -4.857   4.457   1.028  1.00  0.00     0.184 C 
BRANCH  26  27
HETATM   27  O1  UNL     1      -4.255   4.807   2.232  1.00  0.00    -0.399 OA
ATOM     28  H1  UNL     1      -4.574   5.642   2.554  1.00  0.00     0.209 HD
ENDBRANCH  26  27
ENDBRANCH  25  26
ENDBRANCH  23  25
ENDBRANCH   6  23
TORSDOF 8
