REMARK  12 active torsions:
REMARK  status: ('A' for Active; 'I' for Inactive)
REMARK    1  A    between atoms: N1_1  and  C1_5 
REMARK    2  A    between atoms: C1_5  and  C2_6 
REMARK    3  A    between atoms: C2_6  and  N2_7 
REMARK    4  A    between atoms: N2_7  and  C3_10 
REMARK    5  A    between atoms: C3_10  and  C4_11 
REMARK    6  A    between atoms: C4_11  and  C5_12 
REMARK    7  A    between atoms: C5_12  and  N3_13 
REMARK    8  A    between atoms: C7_18  and  N5_19 
REMARK    9  A    between atoms: C8_27  and  N8_28 
REMARK   10  A    between atoms: N9_30  and  N10_32 
REMARK   11  A    between atoms: N10_32  and  N11_33 
REMARK   12  A    between atoms: N10_32  and  O1_36 
ROOT
HETATM    1  N3  UNL     1      -0.473  -0.686   0.270  1.00  0.00    -0.373 N 
ATOM      2  H3  UNL     1      -0.270   0.300   0.108  1.00  0.00     0.161 HD
HETATM    3  C6  UNL     1      -1.643  -1.046  -0.046  1.00  0.00     0.147 C 
HETATM    4  N4  UNL     1      -2.088  -2.381   0.117  1.00  0.00    -0.329 N 
ATOM      5  H4  UNL     1      -1.403  -3.113   0.304  1.00  0.00     0.165 HD
HETATM    6  C7  UNL     1      -3.502  -2.738   0.025  1.00  0.00     0.402 C 
HETATM    7  N6  UNL     1      -4.214  -1.815  -0.803  1.00  0.00    -0.288 N 
ATOM      8  H6  UNL     1      -5.059  -2.121  -1.286  1.00  0.00     0.184 HD
HETATM    9  N7  UNL     1      -3.764  -0.486  -0.962  1.00  0.00    -0.282 N 
ATOM     10  H7  UNL     1      -4.411   0.191  -1.365  1.00  0.00     0.188 HD
HETATM   11  C8  UNL     1      -2.599  -0.076  -0.634  1.00  0.00     0.180 C 
ENDROOT
BRANCH   1  12
HETATM   12  C5  UNL     1       0.608  -1.438   0.816  1.00  0.00     0.123 C 
BRANCH  12  13
HETATM   13  C4  UNL     1       1.878  -0.973   0.027  1.00  0.00     0.047 C 
BRANCH  13  14
HETATM   14  C3  UNL     1       1.919   0.512   0.293  1.00  0.00     0.234 C 
BRANCH  14  15
HETATM   15  N2  UNL     1       3.019   1.130  -0.335  1.00  0.00    -0.073 N 
ATOM     16  H22 UNL     1       2.915   2.145  -0.332  1.00  0.00     0.277 HD
ATOM     17  H21 UNL     1       3.003   0.962  -1.341  1.00  0.00     0.277 HD
BRANCH  15  18
HETATM   18  C2  UNL     1       4.304   0.740   0.234  1.00  0.00     0.259 C 
BRANCH  18  19
HETATM   19  C1  UNL     1       5.348   1.686  -0.313  1.00  0.00     0.257 C 
BRANCH  19  20
HETATM   20  N1  UNL     1       6.670   1.389   0.208  1.00  0.00    -0.078 N 
ATOM     21  H13 UNL     1       6.674   1.381   1.228  1.00  0.00     0.274 HD
ATOM     22  H12 UNL     1       6.926   0.416   0.040  1.00  0.00     0.274 HD
ATOM     23  H11 UNL     1       7.375   2.027  -0.161  1.00  0.00     0.274 HD
ENDBRANCH  19  20
ENDBRANCH  18  19
ENDBRANCH  15  18
ENDBRANCH  14  15
ENDBRANCH  13  14
ENDBRANCH  12  13
ENDBRANCH   1  12
BRANCH  11  24
HETATM   24  N8  UNL     1      -2.206   1.240  -0.821  1.00  0.00    -0.264 N 
HETATM   25  N9  UNL     1      -2.638   2.312  -0.395  1.00  0.00    -0.199 N 
ATOM     26  H9  UNL     1      -2.128   3.135  -0.716  1.00  0.00     0.212 HD
ATOM     27  H8  UNL     1      -1.397   1.341  -1.434  1.00  0.00     0.190 HD
BRANCH  25  28
HETATM   28  N10 UNL     1      -3.690   2.580   0.438  1.00  0.00    -0.087 N 
BRANCH  28  29
HETATM   29  N11 UNL     1      -4.990   2.920  -0.017  1.00  0.00    -0.302 N 
ATOM     30 2H11 UNL     1      -5.117   2.944  -1.029  1.00  0.00     0.181 HD
ATOM     31 1H11 UNL     1      -5.774   3.120   0.604  1.00  0.00     0.181 HD
ENDBRANCH  28  29
BRANCH  28  32
HETATM   32  O1  UNL     1      -3.521   2.548   1.783  1.00  0.00    -0.253 OA
ATOM     33  H1  UNL     1      -4.251   2.734   2.361  1.00  0.00     0.248 HD
ENDBRANCH  28  32
ENDBRANCH  25  28
ENDBRANCH  11  24
BRANCH   6  34
HETATM   34  N5  UNL     1      -4.045  -2.633   1.379  1.00  0.00    -0.039 N 
ATOM     35  H53 UNL     1      -3.532  -3.188   2.064  1.00  0.00     0.279 HD
ATOM     36  H52 UNL     1      -3.885  -1.722   1.809  1.00  0.00     0.279 HD
ATOM     37  H51 UNL     1      -5.032  -2.882   1.315  1.00  0.00     0.279 HD
ENDBRANCH   6  34
TORSDOF 12
