REMARK  11 active torsions:
REMARK  status: ('A' for Active; 'I' for Inactive)
REMARK    1  A    between atoms: N1_1  and  C1_5 
REMARK    2  A    between atoms: C1_5  and  C2_6 
REMARK    3  A    between atoms: C2_6  and  C3_7 
REMARK    4  A    between atoms: C3_7  and  C4_8 
REMARK    5  A    between atoms: C4_8  and  C5_9 
REMARK    6  A    between atoms: C5_9  and  C6_10 
REMARK    7  A    between atoms: C10_14  and  N2_15 
REMARK    8  A    between atoms: N3_17  and  C11_19 
REMARK    9  A    between atoms: C16_24  and  C17_25 
REMARK   10  A    between atoms: C17_25  and  C18_26 
REMARK   11  A    between atoms: C17_25  and  C24_32 
ROOT
HETATM    1  C11 UNL     1      -1.968  -0.115   2.060  1.00  0.00     0.055 A 
HETATM    2  C12 UNL     1      -1.656  -0.409   3.387  1.00  0.00     0.031 A 
HETATM    3  C13 UNL     1      -2.611  -0.916   4.240  1.00  0.00     0.002 A 
HETATM    4  C14 UNL     1      -3.877  -1.122   3.740  1.00  0.00     0.001 A 
HETATM    5  C15 UNL     1      -4.185  -0.825   2.405  1.00  0.00     0.010 A 
HETATM    6  C16 UNL     1      -3.235  -0.321   1.560  1.00  0.00    -0.017 A 
ENDROOT
BRANCH   1   7
HETATM    7  N3  UNL     1      -0.963   0.408   1.213  1.00  0.00    -0.300 N 
HETATM    8  N2  UNL     1      -0.107  -0.392   0.711  1.00  0.00    -0.300 N 
ATOM      9  H2  UNL     1      -0.162  -1.387   0.927  1.00  0.00     0.187 HD
ATOM     10  H3  UNL     1      -0.924   1.406   1.008  1.00  0.00     0.187 HD
BRANCH   8  11
HETATM   11  C10 UNL     1       0.925   0.083  -0.147  1.00  0.00     0.048 A 
HETATM   12  C9  UNL     1       0.651   0.313  -1.485  1.00  0.00     0.031 A 
HETATM   13  C8  UNL     1       1.599   0.773  -2.368  1.00  0.00     0.003 A 
HETATM   14  C7  UNL     1       2.875   1.021  -1.930  1.00  0.00     0.007 A 
HETATM   15  C6  UNL     1       3.179   0.798  -0.585  1.00  0.00    -0.056 A 
HETATM   16  C30 UNL     1       2.209   0.336   0.279  1.00  0.00     0.038 A 
BRANCH  15  17
HETATM   17  C5  UNL     1       4.571   1.078  -0.153  1.00  0.00     0.038 C 
BRANCH  17  18
HETATM   18  C4  UNL     1       5.375  -0.197  -0.326  1.00  0.00     0.005 C 
BRANCH  18  19
HETATM   19  C3  UNL     1       6.824   0.020   0.102  1.00  0.00     0.002 C 
BRANCH  19  20
HETATM   20  C2  UNL     1       7.546  -1.301  -0.107  1.00  0.00     0.027 C 
BRANCH  20  21
HETATM   21  C1  UNL     1       9.002  -1.192   0.295  1.00  0.00     0.229 C 
BRANCH  21  22
HETATM   22  N1  UNL     1       9.641  -0.169  -0.512  1.00  0.00    -0.079 N 
ATOM     23  H13 UNL     1       9.526  -0.335  -1.512  1.00  0.00     0.274 HD
ATOM     24  H12 UNL     1       9.156   0.727  -0.459  1.00  0.00     0.274 HD
ATOM     25  H11 UNL     1      10.622  -0.096  -0.241  1.00  0.00     0.274 HD
ENDBRANCH  21  22
ENDBRANCH  20  21
ENDBRANCH  19  20
ENDBRANCH  18  19
ENDBRANCH  17  18
ENDBRANCH  15  17
ENDBRANCH   8  11
ENDBRANCH   1   7
BRANCH   6  26
HETATM   26  C17 UNL     1      -3.519   0.001   0.142  1.00  0.00     0.087 C 
BRANCH  26  27
HETATM   27  C18 UNL     1      -4.316  -0.999  -0.568  1.00  0.00    -0.045 A 
HETATM   28  C19 UNL     1      -4.303  -2.348  -0.253  1.00  0.00     0.008 A 
HETATM   29  C20 UNL     1      -5.073  -3.222  -0.980  1.00  0.00     0.001 A 
HETATM   30  C21 UNL     1      -5.875  -2.813  -2.029  1.00  0.00     0.000 A 
HETATM   31  C22 UNL     1      -5.901  -1.487  -2.355  1.00  0.00     0.001 A 
HETATM   32  C23 UNL     1      -5.115  -0.597  -1.614  1.00  0.00     0.008 A 
ENDBRANCH  26  27
BRANCH  26  33
HETATM   33  C24 UNL     1      -4.163   1.330   0.030  1.00  0.00    -0.045 A 
HETATM   34  C25 UNL     1      -5.476   1.509   0.368  1.00  0.00     0.008 A 
HETATM   35  C26 UNL     1      -6.082   2.766   0.267  1.00  0.00     0.001 A 
HETATM   36  C27 UNL     1      -5.352   3.828  -0.177  1.00  0.00     0.000 A 
HETATM   37  C28 UNL     1      -4.045   3.627  -0.509  1.00  0.00     0.001 A 
HETATM   38  C29 UNL     1      -3.442   2.399  -0.413  1.00  0.00     0.008 A 
ENDBRANCH  26  33
ENDBRANCH   6  26
TORSDOF 11
