REMARK  1 active torsions:
REMARK  status: ('A' for Active; 'I' for Inactive)
REMARK    1  A    between atoms: C2_2  and  C3_3 
ROOT
HETATM    1  C3  UNL     1       0.864  -0.303  -0.243  1.00  0.00     0.015 C 
HETATM    2  C4  UNL     1       0.345  -1.301   0.770  1.00  0.00     0.042 C 
HETATM    3  C5  UNL     1      -0.923  -0.442   0.847  1.00  0.00     0.191 C 
HETATM    4  N1  UNL     1      -1.866  -0.936  -0.122  1.00  0.00    -0.070 N 
ATOM      5  H11 UNL     1      -2.637  -1.457   0.296  1.00  0.00     0.277 HD
ATOM      6  H12 UNL     1      -1.495  -1.694  -0.695  1.00  0.00     0.277 HD
HETATM    7  C6  UNL     1      -2.302   0.205  -0.897  1.00  0.00     0.233 C 
HETATM    8  C7  UNL     1      -1.124   1.156  -0.895  1.00  0.00     0.034 C 
HETATM    9  C8  UNL     1      -0.177   0.687   0.165  1.00  0.00     0.025 C 
ENDROOT
BRANCH   1  10
HETATM   10  C2  UNL     1       2.233   0.125   0.143  1.00  0.00    -0.032 C 
HETATM   11  C1  UNL     1       3.206   0.320  -0.719  1.00  0.00     0.007 C 
ENDBRANCH   1  10
TORSDOF 1
