REMARK  3 active torsions:
REMARK  status: ('A' for Active; 'I' for Inactive)
REMARK    1  A    between atoms: C3_3  and  C4_4 
REMARK    2  A    between atoms: C6_10  and  N3_11 
REMARK    3  A    between atoms: C7_16  and  C8_17 
ROOT
HETATM    1  C1  UNL     1       3.651   2.277  -2.185  1.00  0.00     0.012 C 
HETATM    2  C2  UNL     1       3.332   1.945  -1.072  1.00  0.00    -0.113 C 
HETATM    3  C3  UNL     1       2.914   1.542   0.292  1.00  0.00     0.138 C 
ENDROOT
BRANCH   3   4
HETATM    4  C4  UNL     1       2.766   0.083   0.367  1.00  0.00     0.039 A 
HETATM    5  C5  UNL     1       3.794  -0.828   0.472  1.00  0.00     0.127 A 
HETATM    6  S1  UNL     1       5.386  -0.500   0.536  1.00  0.00    -0.058 SA
HETATM    7  N1  UNL     1       3.257  -2.081   0.515  1.00  0.00    -0.267 N 
HETATM    8  N2  UNL     1       1.938  -1.986   0.441  1.00  0.00    -0.068 N 
ATOM      9  H1  UNL     1       3.785  -2.950   0.592  1.00  0.00     0.189 HD
HETATM   10  C6  UNL     1       0.952  -2.896   0.438  1.00  0.00     0.700 A 
HETATM   11  C14 UNL     1       1.617  -0.665   0.350  1.00  0.00     0.157 A 
HETATM   12  N4  UNL     1      -0.322  -2.489   0.344  1.00  0.00    -0.171 N 
HETATM   13  C7  UNL     1      -0.683  -1.175   0.249  1.00  0.00     0.169 A 
ATOM     14  H4  UNL     1      -1.058  -3.195   0.343  1.00  0.00     0.186 HD
HETATM   15  N8  UNL     1       0.331  -0.303   0.257  1.00  0.00    -0.323 N 
ATOM     16  H8  UNL     1       0.113   0.691   0.189  1.00  0.00     0.169 HD
BRANCH  10  17
HETATM   17  N3  UNL     1       1.250  -4.150   0.526  1.00  0.00    -0.233 N 
ATOM     18  H32 UNL     1       2.219  -4.460   0.598  1.00  0.00     0.174 HD
ATOM     19  H31 UNL     1       0.500  -4.842   0.524  1.00  0.00     0.174 HD
ENDBRANCH  10  17
BRANCH  13  20
HETATM   20  C8  UNL     1      -2.081  -0.797   0.142  1.00  0.00     0.173 A 
HETATM   21  N5  UNL     1      -3.105  -1.700   0.132  1.00  0.00    -0.280 N 
HETATM   22  N6  UNL     1      -4.252  -1.078   0.012  1.00  0.00    -0.283 N 
ATOM     23  H5  UNL     1      -2.993  -2.711   0.207  1.00  0.00     0.188 HD
HETATM   24  C9  UNL     1      -4.006   0.239  -0.059  1.00  0.00     0.127 A 
ATOM     25  H6  UNL     1      -5.171  -1.518  -0.022  1.00  0.00     0.188 HD
HETATM   26  C10 UNL     1      -4.880   1.281  -0.191  1.00  0.00     0.050 A 
HETATM   27  N7  UNL     1      -2.656   0.397   0.024  1.00  0.00    -0.289 N 
HETATM   28  C11 UNL     1      -4.328   2.560  -0.242  1.00  0.00     0.005 A 
HETATM   29  C12 UNL     1      -2.959   2.704  -0.157  1.00  0.00     0.018 A 
HETATM   30  C13 UNL     1      -2.104   1.636  -0.024  1.00  0.00     0.100 A 
ENDBRANCH  13  20
ENDBRANCH   3   4
TORSDOF 3
